MODEL 1
REMARK VINA RESULT: -8.131487733      0.000      0.000
REMARK  8 active torsions:
REMARK  status: ('A' for Active; 'I' for Inactive)
REMARK    1  A    between atoms: C2_2  and  C3_3 
REMARK    2  A    between atoms: C3_3  and  C4_4 
REMARK    3  A    between atoms: C4_4  and  O1_5 
REMARK    4  A    between atoms: O1_5  and  C5_6 
REMARK    5  A    between atoms: C7_8  and  C8_9 
REMARK    6  A    between atoms: C8_9  and  C9_10 
REMARK    7  A    between atoms: C15_17  and  O2_18 
REMARK    8  A    between atoms: C16_20  and  N1_21 
ROOT
HETATM    1  C5  UNL     1      21.888  61.766  34.476  1.00  0.00     0.263 C 
HETATM    2  C6  UNL     1      21.842  63.190  34.048  1.00  0.00     0.068 C 
HETATM    3  C7  UNL     1      20.303  63.476  33.945  1.00  0.00     0.028 C 
HETATM    4  C15 UNL     1      19.793  63.391  35.324  1.00  0.00     0.182 C 
HETATM    5  C16 UNL     1      20.898  62.853  36.268  1.00  0.00     0.390 C 
HETATM    6  O4  UNL     1      21.399  61.680  35.788  1.00  0.00    -0.324 OA
ENDROOT
BRANCH   3   7
HETATM    7  C8  UNL     1      20.090  64.686  33.134  1.00  0.00     0.046 C 
BRANCH   7   8
HETATM    8  C9  UNL     1      18.834  64.758  32.350  1.00  0.00    -0.056 A 
HETATM    9  C10 UNL     1      18.861  64.192  31.054  1.00  0.00     0.007 A 
HETATM   10  C11 UNL     1      17.783  64.195  30.212  1.00  0.00     0.002 A 
HETATM   11  C12 UNL     1      16.597  64.768  30.616  1.00  0.00     0.019 A 
HETATM   12  C13 UNL     1      16.555  65.325  31.881  1.00  0.00     0.011 A 
HETATM   13 BR1  UNL     1      14.958  66.113  32.517  1.00  0.00    -0.051 Br
HETATM   14  C14 UNL     1      17.665  65.323  32.741  1.00  0.00     0.026 A 
ENDBRANCH   7   8
ENDBRANCH   3   7
BRANCH   4  15
HETATM   15  O2  UNL     1      19.278  64.555  35.879  1.00  0.00    -0.391 OA
ATOM     16  H2  UNL     1      19.579  64.787  36.750  1.00  0.00     0.210 HD
ENDBRANCH   4  15
BRANCH   1  17
HETATM   17  O1  UNL     1      23.080  61.114  34.431  1.00  0.00    -0.361 OA
BRANCH  17  18
HETATM   18  C4  UNL     1      23.878  61.616  35.463  1.00  0.00     0.171 C 
BRANCH  18  19
HETATM   19  C3  UNL     1      24.563  60.514  36.176  1.00  0.00     0.026 C 
BRANCH  19  20
HETATM   20  C2  UNL     1      24.768  60.810  37.649  1.00  0.00    -0.002 C 
HETATM   21  C1  UNL     1      24.774  62.260  37.983  1.00  0.00     0.005 C 
ENDBRANCH  19  20
ENDBRANCH  18  19
ENDBRANCH  17  18
ENDBRANCH   1  17
BRANCH   5  22
HETATM   22  N1  UNL     1      20.306  62.528  37.576  1.00  0.00     0.124 N 
HETATM   23  C17 UNL     1      19.856  61.146  37.540  1.00  0.00     0.302 C 
HETATM   24  C18 UNL     1      21.092  60.238  37.556  1.00  0.00     0.198 C 
HETATM   25  O3  UNL     1      21.661  60.296  38.817  1.00  0.00    -0.388 OA
HETATM   26  C19 UNL     1      21.315  61.408  39.546  1.00  0.00     0.198 C 
HETATM   27  C20 UNL     1      21.225  62.649  38.660  1.00  0.00     0.302 C 
ENDBRANCH   5  22
TORSDOF 8
ENDMDL
MODEL 2
REMARK VINA RESULT: -8.130874718      5.679      9.959
REMARK  8 active torsions:
REMARK  status: ('A' for Active; 'I' for Inactive)
REMARK    1  A    between atoms: C2_2  and  C3_3 
REMARK    2  A    between atoms: C3_3  and  C4_4 
REMARK    3  A    between atoms: C4_4  and  O1_5 
REMARK    4  A    between atoms: O1_5  and  C5_6 
REMARK    5  A    between atoms: C7_8  and  C8_9 
REMARK    6  A    between atoms: C8_9  and  C9_10 
REMARK    7  A    between atoms: C15_17  and  O2_18 
REMARK    8  A    between atoms: C16_20  and  N1_21 
ROOT
HETATM    1  C5  UNL     1      14.135  65.070  29.544  1.00  0.00     0.263 C 
HETATM    2  C6  UNL     1      14.223  63.711  28.944  1.00  0.00     0.068 C 
HETATM    3  C7  UNL     1      15.290  63.898  27.809  1.00  0.00     0.028 C 
HETATM    4  C15 UNL     1      16.558  64.181  28.502  1.00  0.00     0.182 C 
HETATM    5  C16 UNL     1      16.301  64.394  30.016  1.00  0.00     0.390 C 
HETATM    6  O4  UNL     1      15.343  65.345  30.202  1.00  0.00    -0.324 OA
ENDROOT
BRANCH   3   7
HETATM    7  C8  UNL     1      15.183  62.781  26.857  1.00  0.00     0.046 C 
BRANCH   7   8
HETATM    8  C9  UNL     1      13.990  62.759  25.977  1.00  0.00    -0.056 A 
HETATM    9  C10 UNL     1      13.168  61.610  26.049  1.00  0.00     0.007 A 
HETATM   10  C11 UNL     1      12.044  61.444  25.288  1.00  0.00     0.002 A 
HETATM   11  C12 UNL     1      11.663  62.426  24.400  1.00  0.00     0.019 A 
HETATM   12  C13 UNL     1      12.457  63.556  24.318  1.00  0.00     0.011 A 
HETATM   13 BR1  UNL     1      11.993  64.957  23.137  1.00  0.00    -0.051 Br
HETATM   14  C14 UNL     1      13.613  63.721  25.098  1.00  0.00     0.026 A 
ENDBRANCH   7   8
ENDBRANCH   3   7
BRANCH   4  15
HETATM   15  O2  UNL     1      17.576  63.246  28.364  1.00  0.00    -0.391 OA
ATOM     16  H2  UNL     1      18.126  63.091  29.123  1.00  0.00     0.210 HD
ENDBRANCH   4  15
BRANCH   1  17
HETATM   17  O1  UNL     1      13.119  65.331  30.409  1.00  0.00    -0.361 OA
BRANCH  17  18
HETATM   18  C4  UNL     1      12.396  64.147  30.585  1.00  0.00     0.171 C 
BRANCH  18  19
HETATM   19  C3  UNL     1      10.973  64.348  30.228  1.00  0.00     0.026 C 
BRANCH  19  20
HETATM   20  C2  UNL     1      10.505  63.398  29.143  1.00  0.00    -0.002 C 
HETATM   21  C1  UNL     1      10.681  63.919  27.760  1.00  0.00     0.005 C 
ENDBRANCH  19  20
ENDBRANCH  18  19
ENDBRANCH  17  18
ENDBRANCH   1  17
BRANCH   5  22
HETATM   22  N1  UNL     1      17.520  64.928  30.647  1.00  0.00     0.124 N 
HETATM   23  C17 UNL     1      17.130  65.658  31.842  1.00  0.00     0.302 C 
HETATM   24  C18 UNL     1      16.684  64.642  32.902  1.00  0.00     0.198 C 
HETATM   25  O3  UNL     1      17.804  63.968  33.359  1.00  0.00    -0.388 OA
HETATM   26  C19 UNL     1      18.880  64.011  32.507  1.00  0.00     0.198 C 
HETATM   27  C20 UNL     1      18.441  63.915  31.047  1.00  0.00     0.302 C 
ENDBRANCH   5  22
TORSDOF 8
ENDMDL
MODEL 3
REMARK VINA RESULT: -8.107572498      4.426      7.924
REMARK  8 active torsions:
REMARK  status: ('A' for Active; 'I' for Inactive)
REMARK    1  A    between atoms: C2_2  and  C3_3 
REMARK    2  A    between atoms: C3_3  and  C4_4 
REMARK    3  A    between atoms: C4_4  and  O1_5 
REMARK    4  A    between atoms: O1_5  and  C5_6 
REMARK    5  A    between atoms: C7_8  and  C8_9 
REMARK    6  A    between atoms: C8_9  and  C9_10 
REMARK    7  A    between atoms: C15_17  and  O2_18 
REMARK    8  A    between atoms: C16_20  and  N1_21 
ROOT
HETATM    1  C5  UNL     1      17.106  63.796  29.473  1.00  0.00     0.263 C 
HETATM    2  C6  UNL     1      16.652  65.206  29.328  1.00  0.00     0.068 C 
HETATM    3  C7  UNL     1      15.405  65.271  30.277  1.00  0.00     0.028 C 
HETATM    4  C15 UNL     1      15.936  65.094  31.639  1.00  0.00     0.182 C 
HETATM    5  C16 UNL     1      17.436  64.706  31.578  1.00  0.00     0.390 C 
HETATM    6  O4  UNL     1      17.610  63.623  30.770  1.00  0.00    -0.324 OA
ENDROOT
BRANCH   3   7
HETATM    7  C8  UNL     1      14.594  66.450  29.930  1.00  0.00     0.046 C 
BRANCH   7   8
HETATM    8  C9  UNL     1      13.123  66.269  29.899  1.00  0.00    -0.056 A 
HETATM    9  C10 UNL     1      12.343  67.308  30.457  1.00  0.00     0.007 A 
HETATM   10  C11 UNL     1      10.977  67.275  30.511  1.00  0.00     0.002 A 
HETATM   11  C12 UNL     1      10.296  66.191  30.002  1.00  0.00     0.019 A 
HETATM   12  C13 UNL     1      11.044  65.166  29.453  1.00  0.00     0.011 A 
HETATM   13 BR1  UNL     1      10.183  63.653  28.717  1.00  0.00    -0.051 Br
HETATM   14  C14 UNL     1      12.447  65.203  29.403  1.00  0.00     0.026 A 
ENDBRANCH   7   8
ENDBRANCH   3   7
BRANCH   4  15
HETATM   15  O2  UNL     1      15.802  66.166  32.513  1.00  0.00    -0.391 OA
ATOM     16  H2  UNL     1      15.514  65.969  33.397  1.00  0.00     0.210 HD
ENDBRANCH   4  15
BRANCH   1  17
HETATM   17  O1  UNL     1      18.032  63.321  28.598  1.00  0.00    -0.361 OA
BRANCH  17  18
HETATM   18  C4  UNL     1      17.357  62.916  27.443  1.00  0.00     0.171 C 
BRANCH  18  19
HETATM   19  C3  UNL     1      16.201  62.058  27.789  1.00  0.00     0.026 C 
BRANCH  19  20
HETATM   20  C2  UNL     1      14.989  62.333  26.919  1.00  0.00    -0.002 C 
HETATM   21  C1  UNL     1      14.946  63.708  26.353  1.00  0.00     0.005 C 
ENDBRANCH  19  20
ENDBRANCH  18  19
ENDBRANCH  17  18
ENDBRANCH   1  17
BRANCH   5  22
HETATM   22  N1  UNL     1      17.883  64.282  32.916  1.00  0.00     0.124 N 
HETATM   23  C17 UNL     1      18.804  63.168  32.754  1.00  0.00     0.302 C 
HETATM   24  C18 UNL     1      20.117  63.710  32.174  1.00  0.00     0.198 C 
HETATM   25  O3  UNL     1      20.760  64.440  33.159  1.00  0.00    -0.388 OA
HETATM   26  C19 UNL     1      19.939  64.879  34.169  1.00  0.00     0.198 C 
HETATM   27  C20 UNL     1      18.573  65.304  33.633  1.00  0.00     0.302 C 
ENDBRANCH   5  22
TORSDOF 8
ENDMDL
MODEL 4
REMARK VINA RESULT: -8.073681527      4.264      8.541
REMARK  8 active torsions:
REMARK  status: ('A' for Active; 'I' for Inactive)
REMARK    1  A    between atoms: C2_2  and  C3_3 
REMARK    2  A    between atoms: C3_3  and  C4_4 
REMARK    3  A    between atoms: C4_4  and  O1_5 
REMARK    4  A    between atoms: O1_5  and  C5_6 
REMARK    5  A    between atoms: C7_8  and  C8_9 
REMARK    6  A    between atoms: C8_9  and  C9_10 
REMARK    7  A    between atoms: C15_17  and  O2_18 
REMARK    8  A    between atoms: C16_20  and  N1_21 
ROOT
HETATM    1  C5  UNL     1      15.322  66.322  32.073  1.00  0.00     0.263 C 
HETATM    2  C6  UNL     1      14.793  65.207  31.242  1.00  0.00     0.068 C 
HETATM    3  C7  UNL     1      15.678  65.284  29.949  1.00  0.00     0.028 C 
HETATM    4  C15 UNL     1      17.041  64.932  30.382  1.00  0.00     0.182 C 
HETATM    5  C16 UNL     1      17.101  64.845  31.929  1.00  0.00     0.390 C 
HETATM    6  O4  UNL     1      16.621  65.992  32.485  1.00  0.00    -0.324 OA
ENDROOT
BRANCH   3   7
HETATM    7  C8  UNL     1      15.015  64.541  28.864  1.00  0.00     0.046 C 
BRANCH   7   8
HETATM    8  C9  UNL     1      13.655  64.987  28.478  1.00  0.00    -0.056 A 
HETATM    9  C10 UNL     1      13.545  66.281  27.921  1.00  0.00     0.007 A 
HETATM   10  C11 UNL     1      12.355  66.831  27.530  1.00  0.00     0.002 A 
HETATM   11  C12 UNL     1      11.187  66.113  27.669  1.00  0.00     0.019 A 
HETATM   12  C13 UNL     1      11.279  64.845  28.212  1.00  0.00     0.011 A 
HETATM   13 BR1  UNL     1       9.725  63.788  28.419  1.00  0.00    -0.051 Br
HETATM   14  C14 UNL     1      12.502  64.285  28.616  1.00  0.00     0.026 A 
ENDBRANCH   7   8
ENDBRANCH   3   7
BRANCH   4  15
HETATM   15  O2  UNL     1      17.587  63.766  29.862  1.00  0.00    -0.391 OA
ATOM     16  H2  UNL     1      18.225  63.862  29.163  1.00  0.00     0.210 HD
ENDBRANCH   4  15
BRANCH   1  17
HETATM   17  O1  UNL     1      14.618  66.700  33.173  1.00  0.00    -0.361 OA
BRANCH  17  18
HETATM   18  C4  UNL     1      13.284  66.333  32.971  1.00  0.00     0.171 C 
BRANCH  18  19
HETATM   19  C3  UNL     1      12.506  67.473  32.435  1.00  0.00     0.026 C 
BRANCH  19  20
HETATM   20  C2  UNL     1      11.607  67.074  31.280  1.00  0.00    -0.002 C 
HETATM   21  C1  UNL     1      10.863  68.208  30.669  1.00  0.00     0.005 C 
ENDBRANCH  19  20
ENDBRANCH  18  19
ENDBRANCH  17  18
ENDBRANCH   1  17
BRANCH   5  22
HETATM   22  N1  UNL     1      18.507  64.752  32.357  1.00  0.00     0.124 N 
HETATM   23  C17 UNL     1      18.543  64.799  33.810  1.00  0.00     0.302 C 
HETATM   24  C18 UNL     1      17.995  63.471  34.347  1.00  0.00     0.198 C 
HETATM   25  O3  UNL     1      18.928  62.480  34.094  1.00  0.00    -0.388 OA
HETATM   26  C19 UNL     1      19.819  62.780  33.093  1.00  0.00     0.198 C 
HETATM   27  C20 UNL     1      19.144  63.541  31.954  1.00  0.00     0.302 C 
ENDBRANCH   5  22
TORSDOF 8
ENDMDL
MODEL 5
REMARK VINA RESULT: -8.028589774      3.145      6.679
REMARK  8 active torsions:
REMARK  status: ('A' for Active; 'I' for Inactive)
REMARK    1  A    between atoms: C2_2  and  C3_3 
REMARK    2  A    between atoms: C3_3  and  C4_4 
REMARK    3  A    between atoms: C4_4  and  O1_5 
REMARK    4  A    between atoms: O1_5  and  C5_6 
REMARK    5  A    between atoms: C7_8  and  C8_9 
REMARK    6  A    between atoms: C8_9  and  C9_10 
REMARK    7  A    between atoms: C15_17  and  O2_18 
REMARK    8  A    between atoms: C16_20  and  N1_21 
ROOT
HETATM    1  C5  UNL     1      17.752  63.740  30.570  1.00  0.00     0.263 C 
HETATM    2  C6  UNL     1      17.533  65.138  31.032  1.00  0.00     0.068 C 
HETATM    3  C7  UNL     1      16.492  64.964  32.193  1.00  0.00     0.028 C 
HETATM    4  C15 UNL     1      17.204  64.232  33.254  1.00  0.00     0.182 C 
HETATM    5  C16 UNL     1      18.581  63.747  32.734  1.00  0.00     0.390 C 
HETATM    6  O4  UNL     1      18.427  63.039  31.581  1.00  0.00    -0.324 OA
ENDROOT
BRANCH   3   7
HETATM    7  C8  UNL     1      15.854  66.262  32.468  1.00  0.00     0.046 C 
BRANCH   7   8
HETATM    8  C9  UNL     1      14.431  66.406  32.080  1.00  0.00    -0.056 A 
HETATM    9  C10 UNL     1      13.808  67.636  32.397  1.00  0.00     0.007 A 
HETATM   10  C11 UNL     1      12.498  67.908  32.113  1.00  0.00     0.002 A 
HETATM   11  C12 UNL     1      11.719  66.960  31.485  1.00  0.00     0.019 A 
HETATM   12  C13 UNL     1      12.314  65.752  31.169  1.00  0.00     0.011 A 
HETATM   13 BR1  UNL     1      11.319  64.407  30.290  1.00  0.00    -0.051 Br
HETATM   14  C14 UNL     1      13.659  65.475  31.466  1.00  0.00     0.026 A 
ENDBRANCH   7   8
ENDBRANCH   3   7
BRANCH   4  15
HETATM   15  O2  UNL     1      17.406  64.900  34.455  1.00  0.00    -0.391 OA
ATOM     16  H2  UNL     1      17.919  64.452  35.118  1.00  0.00     0.210 HD
ENDBRANCH   4  15
BRANCH   1  17
HETATM   17  O1  UNL     1      18.422  63.541  29.404  1.00  0.00    -0.361 OA
BRANCH  17  18
HETATM   18  C4  UNL     1      17.480  63.515  28.372  1.00  0.00     0.171 C 
BRANCH  18  19
HETATM   19  C3  UNL     1      16.683  62.268  28.426  1.00  0.00     0.026 C 
BRANCH  19  20
HETATM   20  C2  UNL     1      15.214  62.502  28.128  1.00  0.00    -0.002 C 
HETATM   21  C1  UNL     1      14.768  63.907  28.331  1.00  0.00     0.005 C 
ENDBRANCH  19  20
ENDBRANCH  18  19
ENDBRANCH  17  18
ENDBRANCH   1  17
BRANCH   5  22
HETATM   22  N1  UNL     1      19.164  62.805  33.705  1.00  0.00     0.124 N 
HETATM   23  C17 UNL     1      20.200  62.041  33.029  1.00  0.00     0.302 C 
HETATM   24  C18 UNL     1      21.397  62.968  32.782  1.00  0.00     0.198 C 
HETATM   25  O3  UNL     1      22.009  63.224  33.996  1.00  0.00    -0.388 OA
HETATM   26  C19 UNL     1      21.209  63.013  35.092  1.00  0.00     0.198 C 
HETATM   27  C20 UNL     1      19.770  63.447  34.825  1.00  0.00     0.302 C 
ENDBRANCH   5  22
TORSDOF 8
ENDMDL
