MODEL 1
REMARK VINA RESULT: -8.816975281      0.000      0.000
REMARK  10 active torsions:
REMARK  status: ('A' for Active; 'I' for Inactive)
REMARK    1  A    between atoms: C2_2  and  O2_4 
REMARK    2  A    between atoms: O2_4  and  C3_5 
REMARK    3  A    between atoms: C22_26  and  C23_27 
REMARK    4  A    between atoms: C23_27  and  C24_29 
REMARK    5  A    between atoms: C24_29  and  C25_30 
REMARK    6  A    between atoms: C25_30  and  C26_31 
REMARK    7  A    between atoms: C26_31  and  O7_33 
REMARK    8  A    between atoms: O7_33  and  C27_34 
REMARK    9  A    between atoms: C27_34  and  C28_35 
REMARK   10  A    between atoms: C28_35  and  O8_36 
ROOT
HETATM    1  C3  UNL     1      11.925  64.671  31.207  1.00  0.00     0.132 C 
HETATM    2  C4  UNL     1      12.443  64.061  29.967  1.00  0.00     0.033 C 
HETATM    3  C5  UNL     1      13.903  63.911  29.826  1.00  0.00     0.013 C 
HETATM    4  C6  UNL     1      14.609  65.098  30.362  1.00  0.00    -0.029 C 
HETATM    5  C7  UNL     1      14.132  66.334  29.643  1.00  0.00     0.016 C 
HETATM    6  C8  UNL     1      14.231  65.147  31.850  1.00  0.00     0.066 C 
HETATM    7  C9  UNL     1      12.821  65.662  31.883  1.00  0.00     0.045 C 
HETATM    8  C10 UNL     1      15.212  66.021  32.499  1.00  0.00     0.134 C 
HETATM    9  O3  UNL     1      14.818  67.192  32.590  1.00  0.00    -0.297 OA
HETATM   10  C11 UNL     1      16.533  65.744  33.037  1.00  0.00     0.117 C 
HETATM   11  C12 UNL     1      17.295  64.617  32.472  1.00  0.00     0.076 C 
HETATM   12  O4  UNL     1      18.543  65.072  31.959  1.00  0.00    -0.373 OA
HETATM   13  C13 UNL     1      19.417  63.953  32.102  1.00  0.00     0.132 C 
HETATM   14  C14 UNL     1      18.923  62.937  31.114  1.00  0.00     0.038 C 
HETATM   15  C15 UNL     1      17.693  63.346  30.381  1.00  0.00    -0.005 C 
HETATM   16  C16 UNL     1      18.013  64.280  29.217  1.00  0.00     0.005 C 
HETATM   17  C17 UNL     1      16.636  64.850  28.928  1.00  0.00     0.006 C 
HETATM   18  C18 UNL     1      16.092  65.058  30.307  1.00  0.00     0.002 C 
HETATM   19  C19 UNL     1      16.645  64.020  31.210  1.00  0.00     0.030 C 
HETATM   20  C20 UNL     1      19.137  63.644  33.493  1.00  0.00    -0.001 C 
HETATM   21  C21 UNL     1      19.485  64.760  34.423  1.00  0.00     0.019 C 
HETATM   22  C22 UNL     1      19.382  62.359  34.117  1.00  0.00     0.066 C 
HETATM   23  C29 UNL     1      18.296  62.370  35.217  1.00  0.00     0.013 C 
HETATM   24  C30 UNL     1      17.280  63.443  34.758  1.00  0.00     0.009 C 
HETATM   25  C31 UNL     1      17.598  63.501  33.344  1.00  0.00     0.032 C 
ENDROOT
BRANCH  22  26
HETATM   26  C23 UNL     1      20.704  62.245  34.800  1.00  0.00     0.132 C 
HETATM   27  O5  UNL     1      21.742  62.272  34.163  1.00  0.00    -0.298 OA
BRANCH  26  28
HETATM   28  C24 UNL     1      20.791  62.095  36.273  1.00  0.00     0.088 C 
BRANCH  28  29
HETATM   29  C25 UNL     1      21.922  62.932  36.822  1.00  0.00     0.118 C 
BRANCH  29  30
HETATM   30  C26 UNL     1      22.520  62.215  37.997  1.00  0.00     0.259 C 
HETATM   31  O6  UNL     1      22.034  62.339  39.146  1.00  0.00    -0.265 OA
BRANCH  30  32
HETATM   32  O7  UNL     1      23.616  61.399  37.848  1.00  0.00    -0.319 OA
BRANCH  32  33
HETATM   33  C27 UNL     1      23.646  60.113  37.315  1.00  0.00     0.204 C 
BRANCH  33  34
HETATM   34  C28 UNL     1      24.024  60.039  35.871  1.00  0.00     0.191 C 
BRANCH  34  35
HETATM   35  O8  UNL     1      22.962  59.518  35.102  1.00  0.00    -0.399 OA
ATOM     36  H8  UNL     1      23.120  58.607  34.883  1.00  0.00     0.209 HD
ENDBRANCH  34  35
ENDBRANCH  33  34
ENDBRANCH  32  33
ENDBRANCH  30  32
ENDBRANCH  29  30
ENDBRANCH  28  29
ENDBRANCH  26  28
ENDBRANCH  22  26
BRANCH   1  37
HETATM   37  O2  UNL     1      10.643  65.181  30.913  1.00  0.00    -0.316 OA
BRANCH  37  38
HETATM   38  C2  UNL     1      10.437  66.376  30.256  1.00  0.00     0.255 C 
HETATM   39  C1  UNL     1      10.411  67.645  31.013  1.00  0.00     0.126 C 
HETATM   40  O1  UNL     1      10.280  66.288  29.017  1.00  0.00    -0.266 OA
ENDBRANCH  37  38
ENDBRANCH   1  37
TORSDOF 10
ENDMDL
MODEL 2
REMARK VINA RESULT: -8.608852467      4.847      7.660
REMARK  10 active torsions:
REMARK  status: ('A' for Active; 'I' for Inactive)
REMARK    1  A    between atoms: C2_2  and  O2_4 
REMARK    2  A    between atoms: O2_4  and  C3_5 
REMARK    3  A    between atoms: C22_26  and  C23_27 
REMARK    4  A    between atoms: C23_27  and  C24_29 
REMARK    5  A    between atoms: C24_29  and  C25_30 
REMARK    6  A    between atoms: C25_30  and  C26_31 
REMARK    7  A    between atoms: C26_31  and  O7_33 
REMARK    8  A    between atoms: O7_33  and  C27_34 
REMARK    9  A    between atoms: C27_34  and  C28_35 
REMARK   10  A    between atoms: C28_35  and  O8_36 
ROOT
HETATM    1  C3  UNL     1      10.376  63.608  22.496  1.00  0.00     0.132 C 
HETATM    2  C4  UNL     1       9.812  64.681  23.338  1.00  0.00     0.033 C 
HETATM    3  C5  UNL     1      10.352  64.850  24.700  1.00  0.00     0.013 C 
HETATM    4  C6  UNL     1      10.608  63.535  25.332  1.00  0.00    -0.029 C 
HETATM    5  C7  UNL     1       9.330  62.736  25.364  1.00  0.00     0.016 C 
HETATM    6  C8  UNL     1      11.657  62.860  24.436  1.00  0.00     0.066 C 
HETATM    7  C9  UNL     1      10.902  62.406  23.218  1.00  0.00     0.045 C 
HETATM    8  C10 UNL     1      12.242  61.773  25.226  1.00  0.00     0.134 C 
HETATM    9  O3  UNL     1      11.688  60.684  25.020  1.00  0.00    -0.297 OA
HETATM   10  C11 UNL     1      13.333  61.768  26.185  1.00  0.00     0.117 C 
HETATM   11  C12 UNL     1      13.628  63.014  26.913  1.00  0.00     0.076 C 
HETATM   12  O4  UNL     1      13.536  62.800  28.318  1.00  0.00    -0.373 OA
HETATM   13  C13 UNL     1      14.456  63.733  28.883  1.00  0.00     0.132 C 
HETATM   14  C14 UNL     1      13.847  65.084  28.641  1.00  0.00     0.038 C 
HETATM   15  C15 UNL     1      12.580  65.051  27.860  1.00  0.00    -0.005 C 
HETATM   16  C16 UNL     1      11.383  64.701  28.739  1.00  0.00     0.005 C 
HETATM   17  C17 UNL     1      10.356  64.336  27.683  1.00  0.00     0.006 C 
HETATM   18  C18 UNL     1      11.184  63.567  26.700  1.00  0.00     0.002 C 
HETATM   19  C19 UNL     1      12.565  64.107  26.700  1.00  0.00     0.030 C 
HETATM   20  C20 UNL     1      15.608  63.421  28.055  1.00  0.00    -0.001 C 
HETATM   21  C21 UNL     1      16.068  62.007  28.201  1.00  0.00     0.019 C 
HETATM   22  C22 UNL     1      16.732  64.309  27.838  1.00  0.00     0.066 C 
HETATM   23  C29 UNL     1      17.187  63.848  26.436  1.00  0.00     0.013 C 
HETATM   24  C30 UNL     1      15.968  63.095  25.852  1.00  0.00     0.009 C 
HETATM   25  C31 UNL     1      14.914  63.642  26.684  1.00  0.00     0.032 C 
ENDROOT
BRANCH  22  26
HETATM   26  C23 UNL     1      17.878  64.095  28.770  1.00  0.00     0.132 C 
HETATM   27  O5  UNL     1      18.881  63.508  28.405  1.00  0.00    -0.298 OA
BRANCH  26  28
HETATM   28  C24 UNL     1      17.828  64.592  30.166  1.00  0.00     0.088 C 
BRANCH  28  29
HETATM   29  C25 UNL     1      18.030  63.455  31.140  1.00  0.00     0.118 C 
BRANCH  29  30
HETATM   30  C26 UNL     1      18.854  63.953  32.291  1.00  0.00     0.259 C 
HETATM   31  O6  UNL     1      18.460  64.905  33.004  1.00  0.00    -0.265 OA
BRANCH  30  32
HETATM   32  O7  UNL     1      20.065  63.379  32.598  1.00  0.00    -0.319 OA
BRANCH  32  33
HETATM   33  C27 UNL     1      20.318  62.039  32.877  1.00  0.00     0.204 C 
BRANCH  33  34
HETATM   34  C28 UNL     1      19.352  61.399  33.821  1.00  0.00     0.191 C 
BRANCH  34  35
HETATM   35  O8  UNL     1      19.216  60.023  33.541  1.00  0.00    -0.399 OA
ATOM     36  H8  UNL     1      18.602  59.884  32.829  1.00  0.00     0.209 HD
ENDBRANCH  34  35
ENDBRANCH  33  34
ENDBRANCH  32  33
ENDBRANCH  30  32
ENDBRANCH  29  30
ENDBRANCH  28  29
ENDBRANCH  26  28
ENDBRANCH  22  26
BRANCH   1  37
HETATM   37  O2  UNL     1       9.408  63.298  21.518  1.00  0.00    -0.316 OA
BRANCH  37  38
HETATM   38  C2  UNL     1       9.568  62.293  20.587  1.00  0.00     0.255 C 
HETATM   39  C1  UNL     1       8.621  61.159  20.548  1.00  0.00     0.126 C 
HETATM   40  O1  UNL     1      10.545  62.425  19.816  1.00  0.00    -0.266 OA
ENDBRANCH  37  38
ENDBRANCH   1  37
TORSDOF 10
ENDMDL
MODEL 3
REMARK VINA RESULT: -8.572802864      4.811      7.713
REMARK  10 active torsions:
REMARK  status: ('A' for Active; 'I' for Inactive)
REMARK    1  A    between atoms: C2_2  and  O2_4 
REMARK    2  A    between atoms: O2_4  and  C3_5 
REMARK    3  A    between atoms: C22_26  and  C23_27 
REMARK    4  A    between atoms: C23_27  and  C24_29 
REMARK    5  A    between atoms: C24_29  and  C25_30 
REMARK    6  A    between atoms: C25_30  and  C26_31 
REMARK    7  A    between atoms: C26_31  and  O7_33 
REMARK    8  A    between atoms: O7_33  and  C27_34 
REMARK    9  A    between atoms: C27_34  and  C28_35 
REMARK   10  A    between atoms: C28_35  and  O8_36 
ROOT
HETATM    1  C3  UNL     1      10.429  63.639  22.539  1.00  0.00     0.132 C 
HETATM    2  C4  UNL     1       9.866  64.723  23.370  1.00  0.00     0.033 C 
HETATM    3  C5  UNL     1      10.392  64.891  24.737  1.00  0.00     0.013 C 
HETATM    4  C6  UNL     1      10.625  63.576  25.378  1.00  0.00    -0.029 C 
HETATM    5  C7  UNL     1       9.338  62.792  25.397  1.00  0.00     0.016 C 
HETATM    6  C8  UNL     1      11.677  62.884  24.496  1.00  0.00     0.066 C 
HETATM    7  C9  UNL     1      10.932  62.435  23.272  1.00  0.00     0.045 C 
HETATM    8  C10 UNL     1      12.240  61.795  25.299  1.00  0.00     0.134 C 
HETATM    9  O3  UNL     1      11.675  60.711  25.090  1.00  0.00    -0.297 OA
HETATM   10  C11 UNL     1      13.319  61.780  26.270  1.00  0.00     0.117 C 
HETATM   11  C12 UNL     1      13.620  63.026  26.997  1.00  0.00     0.076 C 
HETATM   12  O4  UNL     1      13.509  62.819  28.401  1.00  0.00    -0.373 OA
HETATM   13  C13 UNL     1      14.432  63.744  28.973  1.00  0.00     0.132 C 
HETATM   14  C14 UNL     1      13.843  65.100  28.719  1.00  0.00     0.038 C 
HETATM   15  C15 UNL     1      12.585  65.079  27.923  1.00  0.00    -0.005 C 
HETATM   16  C16 UNL     1      11.373  64.747  28.788  1.00  0.00     0.005 C 
HETATM   17  C17 UNL     1      10.355  64.389  27.721  1.00  0.00     0.006 C 
HETATM   18  C18 UNL     1      11.185  63.606  26.752  1.00  0.00     0.002 C 
HETATM   19  C19 UNL     1      12.572  64.131  26.766  1.00  0.00     0.030 C 
HETATM   20  C20 UNL     1      15.590  63.414  28.161  1.00  0.00    -0.001 C 
HETATM   21  C21 UNL     1      16.033  61.996  28.318  1.00  0.00     0.019 C 
HETATM   22  C22 UNL     1      16.728  64.288  27.954  1.00  0.00     0.066 C 
HETATM   23  C29 UNL     1      17.194  63.816  26.559  1.00  0.00     0.013 C 
HETATM   24  C30 UNL     1      15.973  63.075  25.963  1.00  0.00     0.009 C 
HETATM   25  C31 UNL     1      14.916  63.638  26.780  1.00  0.00     0.032 C 
ENDROOT
BRANCH  22  26
HETATM   26  C23 UNL     1      17.860  64.065  28.900  1.00  0.00     0.132 C 
HETATM   27  O5  UNL     1      18.849  63.442  28.558  1.00  0.00    -0.298 OA
BRANCH  26  28
HETATM   28  C24 UNL     1      17.812  64.597  30.284  1.00  0.00     0.088 C 
BRANCH  28  29
HETATM   29  C25 UNL     1      18.101  63.499  31.281  1.00  0.00     0.118 C 
BRANCH  29  30
HETATM   30  C26 UNL     1      17.962  64.063  32.665  1.00  0.00     0.259 C 
HETATM   31  O6  UNL     1      17.778  65.289  32.848  1.00  0.00    -0.265 OA
BRANCH  30  32
HETATM   32  O7  UNL     1      18.032  63.252  33.773  1.00  0.00    -0.319 OA
BRANCH  32  33
HETATM   33  C27 UNL     1      18.428  63.611  35.058  1.00  0.00     0.204 C 
BRANCH  33  34
HETATM   34  C28 UNL     1      19.855  64.040  35.180  1.00  0.00     0.191 C 
BRANCH  34  35
HETATM   35  O8  UNL     1      19.959  65.447  35.149  1.00  0.00    -0.399 OA
ATOM     36  H8  UNL     1      19.416  65.809  34.459  1.00  0.00     0.209 HD
ENDBRANCH  34  35
ENDBRANCH  33  34
ENDBRANCH  32  33
ENDBRANCH  30  32
ENDBRANCH  29  30
ENDBRANCH  28  29
ENDBRANCH  26  28
ENDBRANCH  22  26
BRANCH   1  37
HETATM   37  O2  UNL     1       9.468  63.336  21.551  1.00  0.00    -0.316 OA
BRANCH  37  38
HETATM   38  C2  UNL     1       9.656  62.370  20.585  1.00  0.00     0.255 C 
HETATM   39  C1  UNL     1       8.766  61.191  20.531  1.00  0.00     0.126 C 
HETATM   40  O1  UNL     1      10.606  62.575  19.797  1.00  0.00    -0.266 OA
ENDBRANCH  37  38
ENDBRANCH   1  37
TORSDOF 10
ENDMDL
MODEL 4
REMARK VINA RESULT: -8.506387431      4.595      7.651
REMARK  10 active torsions:
REMARK  status: ('A' for Active; 'I' for Inactive)
REMARK    1  A    between atoms: C2_2  and  O2_4 
REMARK    2  A    between atoms: O2_4  and  C3_5 
REMARK    3  A    between atoms: C22_26  and  C23_27 
REMARK    4  A    between atoms: C23_27  and  C24_29 
REMARK    5  A    between atoms: C24_29  and  C25_30 
REMARK    6  A    between atoms: C25_30  and  C26_31 
REMARK    7  A    between atoms: C26_31  and  O7_33 
REMARK    8  A    between atoms: O7_33  and  C27_34 
REMARK    9  A    between atoms: C27_34  and  C28_35 
REMARK   10  A    between atoms: C28_35  and  O8_36 
ROOT
HETATM    1  C3  UNL     1       9.642  64.697  23.250  1.00  0.00     0.132 C 
HETATM    2  C4  UNL     1       9.097  65.336  24.464  1.00  0.00     0.033 C 
HETATM    3  C5  UNL     1       9.761  65.056  25.751  1.00  0.00     0.013 C 
HETATM    4  C6  UNL     1      10.162  63.633  25.838  1.00  0.00    -0.029 C 
HETATM    5  C7  UNL     1       8.948  62.757  25.665  1.00  0.00     0.016 C 
HETATM    6  C8  UNL     1      11.157  63.429  24.684  1.00  0.00     0.066 C 
HETATM    7  C9  UNL     1      10.314  63.373  23.442  1.00  0.00     0.045 C 
HETATM    8  C10 UNL     1      11.887  62.193  24.979  1.00  0.00     0.134 C 
HETATM    9  O3  UNL     1      11.386  61.203  24.427  1.00  0.00    -0.297 OA
HETATM   10  C11 UNL     1      13.067  61.949  25.789  1.00  0.00     0.117 C 
HETATM   11  C12 UNL     1      13.355  62.873  26.900  1.00  0.00     0.076 C 
HETATM   12  O4  UNL     1      13.418  62.161  28.131  1.00  0.00    -0.373 OA
HETATM   13  C13 UNL     1      14.329  62.913  28.932  1.00  0.00     0.132 C 
HETATM   14  C14 UNL     1      13.614  64.195  29.246  1.00  0.00     0.038 C 
HETATM   15  C15 UNL     1      12.279  64.323  28.599  1.00  0.00    -0.005 C 
HETATM   16  C16 UNL     1      11.202  63.567  29.371  1.00  0.00     0.005 C 
HETATM   17  C17 UNL     1      10.099  63.509  28.330  1.00  0.00     0.006 C 
HETATM   18  C18 UNL     1      10.871  63.227  27.078  1.00  0.00     0.002 C 
HETATM   19  C19 UNL     1      12.207  63.862  27.178  1.00  0.00     0.030 C 
HETATM   20  C20 UNL     1      15.409  63.032  27.968  1.00  0.00    -0.001 C 
HETATM   21  C21 UNL     1      15.971  61.711  27.553  1.00  0.00     0.019 C 
HETATM   22  C22 UNL     1      16.446  64.042  28.013  1.00  0.00     0.066 C 
HETATM   23  C29 UNL     1      16.786  64.162  26.510  1.00  0.00     0.013 C 
HETATM   24  C30 UNL     1      15.565  63.554  25.779  1.00  0.00     0.009 C 
HETATM   25  C31 UNL     1      14.567  63.663  26.826  1.00  0.00     0.032 C 
ENDROOT
BRANCH  22  26
HETATM   26  C23 UNL     1      17.692  63.619  28.718  1.00  0.00     0.132 C 
HETATM   27  O5  UNL     1      18.728  63.439  28.104  1.00  0.00    -0.298 OA
BRANCH  26  28
HETATM   28  C24 UNL     1      17.702  63.408  30.186  1.00  0.00     0.088 C 
BRANCH  28  29
HETATM   29  C25 UNL     1      17.194  64.639  30.900  1.00  0.00     0.118 C 
BRANCH  29  30
HETATM   30  C26 UNL     1      17.768  64.657  32.286  1.00  0.00     0.259 C 
HETATM   31  O6  UNL     1      17.023  64.698  33.294  1.00  0.00    -0.265 OA
BRANCH  30  32
HETATM   32  O7  UNL     1      19.127  64.629  32.493  1.00  0.00    -0.319 OA
BRANCH  32  33
HETATM   33  C27 UNL     1      19.803  64.106  33.592  1.00  0.00     0.204 C 
BRANCH  33  34
HETATM   34  C28 UNL     1      21.030  63.320  33.262  1.00  0.00     0.191 C 
BRANCH  34  35
HETATM   35  O8  UNL     1      22.092  64.177  32.903  1.00  0.00    -0.399 OA
ATOM     36  H8  UNL     1      22.227  64.169  31.963  1.00  0.00     0.209 HD
ENDBRANCH  34  35
ENDBRANCH  33  34
ENDBRANCH  32  33
ENDBRANCH  30  32
ENDBRANCH  29  30
ENDBRANCH  28  29
ENDBRANCH  26  28
ENDBRANCH  22  26
BRANCH   1  37
HETATM   37  O2  UNL     1       8.601  64.667  22.297  1.00  0.00    -0.316 OA
BRANCH  37  38
HETATM   38  C2  UNL     1       8.821  64.545  20.941  1.00  0.00     0.255 C 
HETATM   39  C1  UNL     1       9.787  65.434  20.262  1.00  0.00     0.126 C 
HETATM   40  O1  UNL     1       8.156  63.654  20.367  1.00  0.00    -0.266 OA
ENDBRANCH  37  38
ENDBRANCH   1  37
TORSDOF 10
ENDMDL
MODEL 5
REMARK VINA RESULT: -8.501769849      3.940      6.631
REMARK  10 active torsions:
REMARK  status: ('A' for Active; 'I' for Inactive)
REMARK    1  A    between atoms: C2_2  and  O2_4 
REMARK    2  A    between atoms: O2_4  and  C3_5 
REMARK    3  A    between atoms: C22_26  and  C23_27 
REMARK    4  A    between atoms: C23_27  and  C24_29 
REMARK    5  A    between atoms: C24_29  and  C25_30 
REMARK    6  A    between atoms: C25_30  and  C26_31 
REMARK    7  A    between atoms: C26_31  and  O7_33 
REMARK    8  A    between atoms: O7_33  and  C27_34 
REMARK    9  A    between atoms: C27_34  and  C28_35 
REMARK   10  A    between atoms: C28_35  and  O8_36 
ROOT
HETATM    1  C3  UNL     1      10.175  62.396  24.725  1.00  0.00     0.132 C 
HETATM    2  C4  UNL     1      11.374  61.546  24.586  1.00  0.00     0.033 C 
HETATM    3  C5  UNL     1      12.601  61.959  25.293  1.00  0.00     0.013 C 
HETATM    4  C6  UNL     1      12.780  63.428  25.224  1.00  0.00    -0.029 C 
HETATM    5  C7  UNL     1      12.829  63.861  23.781  1.00  0.00     0.016 C 
HETATM    6  C8  UNL     1      11.549  64.013  25.933  1.00  0.00     0.066 C 
HETATM    7  C9  UNL     1      10.419  63.855  24.955  1.00  0.00     0.045 C 
HETATM    8  C10 UNL     1      11.879  65.403  26.260  1.00  0.00     0.134 C 
HETATM    9  O3  UNL     1      11.485  66.200  25.396  1.00  0.00    -0.297 OA
HETATM   10  C11 UNL     1      12.574  65.979  27.397  1.00  0.00     0.117 C 
HETATM   11  C12 UNL     1      13.551  65.143  28.115  1.00  0.00     0.076 C 
HETATM   12  O4  UNL     1      14.831  65.767  28.114  1.00  0.00    -0.373 OA
HETATM   13  C13 UNL     1      15.450  65.316  29.318  1.00  0.00     0.132 C 
HETATM   14  C14 UNL     1      15.715  63.854  29.103  1.00  0.00     0.038 C 
HETATM   15  C15 UNL     1      15.210  63.327  27.805  1.00  0.00    -0.005 C 
HETATM   16  C16 UNL     1      16.166  63.639  26.658  1.00  0.00     0.005 C 
HETATM   17  C17 UNL     1      15.264  63.387  25.464  1.00  0.00     0.006 C 
HETATM   18  C18 UNL     1      13.968  63.977  25.926  1.00  0.00     0.002 C 
HETATM   19  C19 UNL     1      13.857  63.816  27.396  1.00  0.00     0.030 C 
HETATM   20  C20 UNL     1      14.366  65.615  30.236  1.00  0.00    -0.001 C 
HETATM   21  C21 UNL     1      14.020  67.068  30.282  1.00  0.00     0.019 C 
HETATM   22  C22 UNL     1      14.197  65.005  31.540  1.00  0.00     0.066 C 
HETATM   23  C29 UNL     1      12.662  65.087  31.692  1.00  0.00     0.013 C 
HETATM   24  C30 UNL     1      12.132  65.295  30.253  1.00  0.00     0.009 C 
HETATM   25  C31 UNL     1      13.268  64.805  29.495  1.00  0.00     0.032 C 
ENDROOT
BRANCH  22  26
HETATM   26  C23 UNL     1      14.798  65.777  32.667  1.00  0.00     0.132 C 
HETATM   27  O5  UNL     1      14.094  66.358  33.473  1.00  0.00    -0.298 OA
BRANCH  26  28
HETATM   28  C24 UNL     1      16.269  65.857  32.837  1.00  0.00     0.088 C 
BRANCH  28  29
HETATM   29  C25 UNL     1      16.893  64.489  32.686  1.00  0.00     0.118 C 
BRANCH  29  30
HETATM   30  C26 UNL     1      18.333  64.573  33.100  1.00  0.00     0.259 C 
HETATM   31  O6  UNL     1      19.251  64.594  32.247  1.00  0.00    -0.265 OA
BRANCH  30  32
HETATM   32  O7  UNL     1      18.688  64.632  34.427  1.00  0.00    -0.319 OA
BRANCH  32  33
HETATM   33  C27 UNL     1      18.150  63.896  35.479  1.00  0.00     0.204 C 
BRANCH  33  34
HETATM   34  C28 UNL     1      18.182  62.414  35.291  1.00  0.00     0.191 C 
BRANCH  34  35
HETATM   35  O8  UNL     1      17.344  61.773  36.229  1.00  0.00    -0.399 OA
ATOM     36  H8  UNL     1      17.707  61.837  37.104  1.00  0.00     0.209 HD
ENDBRANCH  34  35
ENDBRANCH  33  34
ENDBRANCH  32  33
ENDBRANCH  30  32
ENDBRANCH  29  30
ENDBRANCH  28  29
ENDBRANCH  26  28
ENDBRANCH  22  26
BRANCH   1  37
HETATM   37  O2  UNL     1       9.351  62.132  23.611  1.00  0.00    -0.316 OA
BRANCH  37  38
HETATM   38  C2  UNL     1       8.141  61.475  23.703  1.00  0.00     0.255 C 
HETATM   39  C1  UNL     1       7.994  60.110  23.157  1.00  0.00     0.126 C 
HETATM   40  O1  UNL     1       7.224  62.115  24.266  1.00  0.00    -0.266 OA
ENDBRANCH  37  38
ENDBRANCH   1  37
TORSDOF 10
ENDMDL
