MODEL 1
REMARK VINA RESULT: -7.512470108      0.000      0.000
REMARK  8 active torsions:
REMARK  status: ('A' for Active; 'I' for Inactive)
REMARK       I    between atoms: C1_2  and  N2_4 
REMARK    1  A    between atoms: N2_4  and  N3_6 
REMARK       I    between atoms: N3_6  and  C2_8 
REMARK    2  A    between atoms: C2_8  and  C3_10 
REMARK    3  A    between atoms: C3_10  and  N4_11 
REMARK    4  A    between atoms: N4_11  and  N5_12 
REMARK    5  A    between atoms: N5_12  and  S1_14 
REMARK    6  A    between atoms: S1_14  and  C4_17 
REMARK    7  A    between atoms: C7_20  and  S2_21 
REMARK    8  A    between atoms: S2_21  and  N6_22 
ROOT
HETATM    1  S1  UNL     1     -22.000   5.380  24.724  1.00  0.00     0.280 S 
HETATM    2  O3  UNL     1     -22.860   4.375  24.048  1.00  0.00    -0.199 OA
HETATM    3  O4  UNL     1     -20.627   4.829  25.033  1.00  0.00    -0.199 OA
ENDROOT
BRANCH   1   4
HETATM    4  N5  UNL     1     -22.737   5.984  26.139  1.00  0.00    -0.226 N 
ATOM      5  H5  UNL     1     -22.422   5.817  27.094  1.00  0.00     0.195 HD
BRANCH   4   6
HETATM    6  N4  UNL     1     -23.868   6.762  25.758  1.00  0.00    -0.122 NA
BRANCH   6   7
HETATM    7  C3  UNL     1     -23.991   7.878  26.714  1.00  0.00     0.240 C 
BRANCH   7   8
HETATM    8  C2  UNL     1     -23.966   7.340  28.087  1.00  0.00     0.252 C 
HETATM    9  N3  UNL     1     -25.154   6.991  28.766  1.00  0.00    -0.265 N 
ATOM     10  H3  UNL     1     -26.053   7.112  28.300  1.00  0.00     0.190 HD
HETATM   11  O2  UNL     1     -22.863   7.188  28.669  1.00  0.00    -0.270 OA
BRANCH   9  12
HETATM   12  N2  UNL     1     -25.115   6.478  30.080  1.00  0.00    -0.251 N 
HETATM   13  C1  UNL     1     -25.305   5.103  30.270  1.00  0.00     0.347 C 
HETATM   14  N1  UNL     1     -25.274   4.527  31.576  1.00  0.00    -0.038 NA
HETATM   15  O1  UNL     1     -25.512   4.305  29.320  1.00  0.00    -0.249 OA
ATOM     16  H2  UNL     1     -24.951   7.096  30.875  1.00  0.00     0.191 HD
ENDBRANCH   9  12
ENDBRANCH   7   8
ENDBRANCH   6   7
ENDBRANCH   4   6
ENDBRANCH   1   4
BRANCH   1  17
HETATM   17  C4  UNL     1     -21.742   6.718  23.598  1.00  0.00     0.122 A 
HETATM   18  C5  UNL     1     -22.012   6.756  22.257  1.00  0.00     0.035 A 
HETATM   19  C6  UNL     1     -21.730   7.887  21.601  1.00  0.00     0.035 A 
HETATM   20  C7  UNL     1     -21.194   8.918  22.323  1.00  0.00     0.121 A 
HETATM   21  S3  UNL     1     -21.100   8.277  23.897  1.00  0.00    -0.063 SA
BRANCH  20  22
HETATM   22  S2  UNL     1     -20.714  10.529  21.778  1.00  0.00     0.263 S 
HETATM   23  O5  UNL     1     -20.794  11.524  22.906  1.00  0.00    -0.200 OA
HETATM   24  O6  UNL     1     -19.299  10.508  21.278  1.00  0.00    -0.200 OA
BRANCH  22  25
HETATM   25  N6  UNL     1     -21.725  11.077  20.513  1.00  0.00    -0.324 N 
ATOM     26  H62 UNL     1     -22.160  10.458  19.828  1.00  0.00     0.169 HD
ATOM     27  H61 UNL     1     -21.828  12.092  20.540  1.00  0.00     0.169 HD
ENDBRANCH  22  25
ENDBRANCH  20  22
ENDBRANCH   1  17
TORSDOF 8
ENDMDL
MODEL 2
REMARK VINA RESULT: -7.471500783      3.389      4.014
REMARK  8 active torsions:
REMARK  status: ('A' for Active; 'I' for Inactive)
REMARK       I    between atoms: C1_2  and  N2_4 
REMARK    1  A    between atoms: N2_4  and  N3_6 
REMARK       I    between atoms: N3_6  and  C2_8 
REMARK    2  A    between atoms: C2_8  and  C3_10 
REMARK    3  A    between atoms: C3_10  and  N4_11 
REMARK    4  A    between atoms: N4_11  and  N5_12 
REMARK    5  A    between atoms: N5_12  and  S1_14 
REMARK    6  A    between atoms: S1_14  and  C4_17 
REMARK    7  A    between atoms: C7_20  and  S2_21 
REMARK    8  A    between atoms: S2_21  and  N6_22 
ROOT
HETATM    1  S1  UNL     1     -24.552   6.725  26.300  1.00  0.00     0.280 S 
HETATM    2  O3  UNL     1     -25.036   6.287  27.635  1.00  0.00    -0.199 OA
HETATM    3  O4  UNL     1     -25.627   7.451  25.523  1.00  0.00    -0.199 OA
ENDROOT
BRANCH   1   4
HETATM    4  N5  UNL     1     -23.937   5.416  25.396  1.00  0.00    -0.226 N 
ATOM      5  H5  UNL     1     -23.740   5.423  24.396  1.00  0.00     0.195 HD
BRANCH   4   6
HETATM    6  N4  UNL     1     -23.746   4.314  26.278  1.00  0.00    -0.122 NA
BRANCH   6   7
HETATM    7  C3  UNL     1     -22.346   4.342  26.738  1.00  0.00     0.240 C 
BRANCH   7   8
HETATM    8  C2  UNL     1     -22.320   4.220  28.208  1.00  0.00     0.252 C 
HETATM    9  N3  UNL     1     -23.489   4.382  28.984  1.00  0.00    -0.265 N 
ATOM     10  H3  UNL     1     -24.375   4.587  28.522  1.00  0.00     0.190 HD
HETATM   11  O2  UNL     1     -21.234   3.967  28.785  1.00  0.00    -0.270 OA
BRANCH   9  12
HETATM   12  N2  UNL     1     -23.448   4.263  30.389  1.00  0.00    -0.251 N 
HETATM   13  C1  UNL     1     -24.648   4.361  31.106  1.00  0.00     0.347 C 
HETATM   14  N1  UNL     1     -24.669   4.247  32.530  1.00  0.00    -0.038 NA
HETATM   15  O1  UNL     1     -25.761   4.552  30.552  1.00  0.00    -0.249 OA
ATOM     16  H2  UNL     1     -22.563   4.110  30.874  1.00  0.00     0.191 HD
ENDBRANCH   9  12
ENDBRANCH   7   8
ENDBRANCH   6   7
ENDBRANCH   4   6
ENDBRANCH   1   4
BRANCH   1  17
HETATM   17  C4  UNL     1     -23.259   7.904  26.553  1.00  0.00     0.122 A 
HETATM   18  C5  UNL     1     -23.146   8.831  27.554  1.00  0.00     0.035 A 
HETATM   19  C6  UNL     1     -22.071   9.626  27.542  1.00  0.00     0.035 A 
HETATM   20  C7  UNL     1     -21.168   9.449  26.530  1.00  0.00     0.121 A 
HETATM   21  S3  UNL     1     -21.847   8.179  25.625  1.00  0.00    -0.063 SA
BRANCH  20  22
HETATM   22  S2  UNL     1     -19.657  10.314  26.221  1.00  0.00     0.263 S 
HETATM   23  O5  UNL     1     -19.555  10.719  24.774  1.00  0.00    -0.200 OA
HETATM   24  O6  UNL     1     -19.592  11.560  27.056  1.00  0.00    -0.200 OA
BRANCH  22  25
HETATM   25  N6  UNL     1     -18.303   9.341  26.598  1.00  0.00    -0.324 N 
ATOM     26  H62 UNL     1     -18.200   8.831  27.476  1.00  0.00     0.169 HD
ATOM     27  H61 UNL     1     -17.626   9.344  25.835  1.00  0.00     0.169 HD
ENDBRANCH  22  25
ENDBRANCH  20  22
ENDBRANCH   1  17
TORSDOF 8
ENDMDL
MODEL 3
REMARK VINA RESULT: -7.461983540      2.673      3.961
REMARK  8 active torsions:
REMARK  status: ('A' for Active; 'I' for Inactive)
REMARK       I    between atoms: C1_2  and  N2_4 
REMARK    1  A    between atoms: N2_4  and  N3_6 
REMARK       I    between atoms: N3_6  and  C2_8 
REMARK    2  A    between atoms: C2_8  and  C3_10 
REMARK    3  A    between atoms: C3_10  and  N4_11 
REMARK    4  A    between atoms: N4_11  and  N5_12 
REMARK    5  A    between atoms: N5_12  and  S1_14 
REMARK    6  A    between atoms: S1_14  and  C4_17 
REMARK    7  A    between atoms: C7_20  and  S2_21 
REMARK    8  A    between atoms: S2_21  and  N6_22 
ROOT
HETATM    1  S1  UNL     1     -22.513   3.878  27.342  1.00  0.00     0.280 S 
HETATM    2  O3  UNL     1     -23.494   2.897  26.811  1.00  0.00    -0.199 OA
HETATM    3  O4  UNL     1     -21.208   3.218  27.722  1.00  0.00    -0.199 OA
ENDROOT
BRANCH   1   4
HETATM    4  N5  UNL     1     -23.152   4.750  28.661  1.00  0.00    -0.226 N 
ATOM      5  H5  UNL     1     -22.632   5.387  29.264  1.00  0.00     0.195 HD
BRANCH   4   6
HETATM    6  N4  UNL     1     -24.537   4.437  28.777  1.00  0.00    -0.122 NA
BRANCH   6   7
HETATM    7  C3  UNL     1     -25.253   5.678  29.120  1.00  0.00     0.240 C 
BRANCH   7   8
HETATM    8  C2  UNL     1     -24.741   6.778  28.281  1.00  0.00     0.252 C 
HETATM    9  N3  UNL     1     -24.058   7.879  28.840  1.00  0.00    -0.265 N 
ATOM     10  H3  UNL     1     -23.912   7.920  29.849  1.00  0.00     0.190 HD
HETATM   11  O2  UNL     1     -24.916   6.735  27.037  1.00  0.00    -0.270 OA
BRANCH   9  12
HETATM   12  N2  UNL     1     -23.574   8.924  28.024  1.00  0.00    -0.251 N 
HETATM   13  C1  UNL     1     -22.209   9.236  28.072  1.00  0.00     0.347 C 
HETATM   14  N1  UNL     1     -21.662  10.282  27.268  1.00  0.00    -0.038 NA
HETATM   15  O1  UNL     1     -21.395   8.628  28.814  1.00  0.00    -0.249 OA
ATOM     16  H2  UNL     1     -24.205   9.441  27.411  1.00  0.00     0.191 HD
ENDBRANCH   9  12
ENDBRANCH   7   8
ENDBRANCH   6   7
ENDBRANCH   4   6
ENDBRANCH   1   4
BRANCH   1  17
HETATM   17  C4  UNL     1     -22.121   5.011  26.043  1.00  0.00     0.122 A 
HETATM   18  C5  UNL     1     -21.496   6.225  26.142  1.00  0.00     0.035 A 
HETATM   19  C6  UNL     1     -21.304   6.915  25.013  1.00  0.00     0.035 A 
HETATM   20  C7  UNL     1     -21.747   6.354  23.848  1.00  0.00     0.121 A 
HETATM   21  S3  UNL     1     -22.420   4.878  24.362  1.00  0.00    -0.063 SA
BRANCH  20  22
HETATM   22  S2  UNL     1     -21.652   6.986  22.200  1.00  0.00     0.263 S 
HETATM   23  O5  UNL     1     -20.940   8.313  22.173  1.00  0.00    -0.200 OA
HETATM   24  O6  UNL     1     -20.891   6.035  21.322  1.00  0.00    -0.200 OA
BRANCH  22  25
HETATM   25  N6  UNL     1     -23.211   7.205  21.534  1.00  0.00    -0.324 N 
ATOM     26  H62 UNL     1     -24.075   7.068  22.060  1.00  0.00     0.169 HD
ATOM     27  H61 UNL     1     -23.155   7.487  20.555  1.00  0.00     0.169 HD
ENDBRANCH  22  25
ENDBRANCH  20  22
ENDBRANCH   1  17
TORSDOF 8
ENDMDL
MODEL 4
REMARK VINA RESULT: -7.411745531      3.421      6.139
REMARK  8 active torsions:
REMARK  status: ('A' for Active; 'I' for Inactive)
REMARK       I    between atoms: C1_2  and  N2_4 
REMARK    1  A    between atoms: N2_4  and  N3_6 
REMARK       I    between atoms: N3_6  and  C2_8 
REMARK    2  A    between atoms: C2_8  and  C3_10 
REMARK    3  A    between atoms: C3_10  and  N4_11 
REMARK    4  A    between atoms: N4_11  and  N5_12 
REMARK    5  A    between atoms: N5_12  and  S1_14 
REMARK    6  A    between atoms: S1_14  and  C4_17 
REMARK    7  A    between atoms: C7_20  and  S2_21 
REMARK    8  A    between atoms: S2_21  and  N6_22 
ROOT
HETATM    1  S1  UNL     1     -22.151   4.964  24.933  1.00  0.00     0.280 S 
HETATM    2  O3  UNL     1     -21.006   5.699  24.336  1.00  0.00    -0.199 OA
HETATM    3  O4  UNL     1     -22.519   3.742  24.123  1.00  0.00    -0.199 OA
ENDROOT
BRANCH   1   4
HETATM    4  N5  UNL     1     -23.507   5.978  25.141  1.00  0.00    -0.226 N 
ATOM      5  H5  UNL     1     -24.436   5.679  25.438  1.00  0.00     0.195 HD
BRANCH   4   6
HETATM    6  N4  UNL     1     -23.120   7.313  24.829  1.00  0.00    -0.122 NA
BRANCH   6   7
HETATM    7  C3  UNL     1     -23.099   8.082  26.086  1.00  0.00     0.240 C 
BRANCH   7   8
HETATM    8  C2  UNL     1     -24.285   7.725  26.888  1.00  0.00     0.252 C 
HETATM    9  N3  UNL     1     -24.192   7.475  28.274  1.00  0.00    -0.265 N 
ATOM     10  H3  UNL     1     -23.286   7.542  28.738  1.00  0.00     0.190 HD
HETATM   11  O2  UNL     1     -25.405   7.640  26.326  1.00  0.00    -0.270 OA
BRANCH   9  12
HETATM   12  N2  UNL     1     -25.335   7.133  29.028  1.00  0.00    -0.251 N 
HETATM   13  C1  UNL     1     -25.670   5.780  29.164  1.00  0.00     0.347 C 
HETATM   14  N1  UNL     1     -26.815   5.375  29.916  1.00  0.00    -0.038 NA
HETATM   15  O1  UNL     1     -24.999   4.854  28.641  1.00  0.00    -0.249 OA
ATOM     16  H2  UNL     1     -25.906   7.858  29.465  1.00  0.00     0.191 HD
ENDBRANCH   9  12
ENDBRANCH   7   8
ENDBRANCH   6   7
ENDBRANCH   4   6
ENDBRANCH   1   4
BRANCH   1  17
HETATM   17  C4  UNL     1     -21.642   4.359  26.515  1.00  0.00     0.122 A 
HETATM   18  C5  UNL     1     -21.246   3.091  26.845  1.00  0.00     0.035 A 
HETATM   19  C6  UNL     1     -20.903   2.862  28.117  1.00  0.00     0.035 A 
HETATM   20  C7  UNL     1     -20.972   3.915  28.988  1.00  0.00     0.121 A 
HETATM   21  S3  UNL     1     -21.517   5.193  28.005  1.00  0.00    -0.063 SA
BRANCH  20  22
HETATM   22  S2  UNL     1     -20.592   3.961  30.714  1.00  0.00     0.263 S 
HETATM   23  O5  UNL     1     -19.859   5.228  31.069  1.00  0.00    -0.200 OA
HETATM   24  O6  UNL     1     -21.855   3.913  31.525  1.00  0.00    -0.200 OA
BRANCH  22  25
HETATM   25  N6  UNL     1     -19.611   2.635  31.163  1.00  0.00    -0.324 N 
ATOM     26  H62 UNL     1     -18.662   2.492  30.817  1.00  0.00     0.169 HD
ATOM     27  H61 UNL     1     -20.101   2.020  31.813  1.00  0.00     0.169 HD
ENDBRANCH  22  25
ENDBRANCH  20  22
ENDBRANCH   1  17
TORSDOF 8
ENDMDL
MODEL 5
REMARK VINA RESULT: -7.342541082      3.125      7.785
REMARK  8 active torsions:
REMARK  status: ('A' for Active; 'I' for Inactive)
REMARK       I    between atoms: C1_2  and  N2_4 
REMARK    1  A    between atoms: N2_4  and  N3_6 
REMARK       I    between atoms: N3_6  and  C2_8 
REMARK    2  A    between atoms: C2_8  and  C3_10 
REMARK    3  A    between atoms: C3_10  and  N4_11 
REMARK    4  A    between atoms: N4_11  and  N5_12 
REMARK    5  A    between atoms: N5_12  and  S1_14 
REMARK    6  A    between atoms: S1_14  and  C4_17 
REMARK    7  A    between atoms: C7_20  and  S2_21 
REMARK    8  A    between atoms: S2_21  and  N6_22 
ROOT
HETATM    1  S1  UNL     1     -19.230   9.856  25.929  1.00  0.00     0.280 S 
HETATM    2  O3  UNL     1     -18.814  11.005  26.773  1.00  0.00    -0.199 OA
HETATM    3  O4  UNL     1     -18.298   8.676  26.087  1.00  0.00    -0.199 OA
ENDROOT
BRANCH   1   4
HETATM    4  N5  UNL     1     -19.364  10.300  24.287  1.00  0.00    -0.226 N 
ATOM      5  H5  UNL     1     -19.757  11.173  23.936  1.00  0.00     0.195 HD
BRANCH   4   6
HETATM    6  N4  UNL     1     -18.833   9.244  23.493  1.00  0.00    -0.122 NA
BRANCH   6   7
HETATM    7  C3  UNL     1     -18.685   9.746  22.115  1.00  0.00     0.240 C 
BRANCH   7   8
HETATM    8  C2  UNL     1     -19.973  10.310  21.668  1.00  0.00     0.252 C 
HETATM    9  N3  UNL     1     -20.940   9.516  21.013  1.00  0.00    -0.265 N 
ATOM     10  H3  UNL     1     -20.749   8.529  20.844  1.00  0.00     0.190 HD
HETATM   11  O2  UNL     1     -20.217  11.525  21.872  1.00  0.00    -0.270 OA
BRANCH   9  12
HETATM   12  N2  UNL     1     -22.167  10.070  20.590  1.00  0.00    -0.251 N 
HETATM   13  C1  UNL     1     -23.316   9.268  20.634  1.00  0.00     0.347 C 
HETATM   14  N1  UNL     1     -24.585   9.775  20.220  1.00  0.00    -0.038 NA
HETATM   15  O1  UNL     1     -23.301   8.075  21.031  1.00  0.00    -0.249 OA
ATOM     16  H2  UNL     1     -22.217  11.034  20.260  1.00  0.00     0.191 HD
ENDBRANCH   9  12
ENDBRANCH   7   8
ENDBRANCH   6   7
ENDBRANCH   4   6
ENDBRANCH   1   4
BRANCH   1  17
HETATM   17  C4  UNL     1     -20.809   9.305  26.503  1.00  0.00     0.122 A 
HETATM   18  C5  UNL     1     -21.588   9.855  27.485  1.00  0.00     0.035 A 
HETATM   19  C6  UNL     1     -22.756   9.260  27.752  1.00  0.00     0.035 A 
HETATM   20  C7  UNL     1     -23.080   8.149  27.022  1.00  0.00     0.121 A 
HETATM   21  S3  UNL     1     -21.743   7.967  25.985  1.00  0.00    -0.063 SA
BRANCH  20  22
HETATM   22  S2  UNL     1     -24.527   7.138  27.115  1.00  0.00     0.263 S 
HETATM   23  O5  UNL     1     -25.547   7.564  26.092  1.00  0.00    -0.200 OA
HETATM   24  O6  UNL     1     -24.175   5.703  26.848  1.00  0.00    -0.200 OA
BRANCH  22  25
HETATM   25  N6  UNL     1     -25.250   7.238  28.660  1.00  0.00    -0.324 N 
ATOM     26  H62 UNL     1     -25.141   6.525  29.382  1.00  0.00     0.169 HD
ATOM     27  H61 UNL     1     -25.795   8.095  28.755  1.00  0.00     0.169 HD
ENDBRANCH  22  25
ENDBRANCH  20  22
ENDBRANCH   1  17
TORSDOF 8
ENDMDL
