MODEL 1
REMARK VINA RESULT: -11.948166627      0.000      0.000
REMARK  3 active torsions:
REMARK  status: ('A' for Active; 'I' for Inactive)
REMARK    1  A    between atoms: C5_6  and  C6_7 
REMARK    2  A    between atoms: C6_7  and  N2_8 
REMARK    3  A    between atoms: N4_18  and  C13_20 
ROOT
HETATM    1  N1  UNL     1      13.293  -7.831 -15.211  1.00  0.00    -0.191 NA
HETATM    2  C1  UNL     1      13.223  -7.816 -14.040  1.00  0.00     0.099 C 
HETATM    3  C2  UNL     1      13.134  -7.807 -12.604  1.00  0.00     0.044 A 
HETATM    4  C3  UNL     1      13.736  -6.775 -11.915  1.00  0.00     0.023 A 
HETATM    5  C4  UNL     1      13.665  -6.744 -10.536  1.00  0.00     0.010 A 
HETATM    6  C5  UNL     1      13.003  -7.720  -9.823  1.00  0.00    -0.040 A 
HETATM    7  C29 UNL     1      12.405  -8.747 -10.529  1.00  0.00     0.010 A 
HETATM    8  C30 UNL     1      12.468  -8.793 -11.904  1.00  0.00     0.023 A 
ENDROOT
BRANCH   6   9
HETATM    9  C6  UNL     1      12.908  -7.717  -8.359  1.00  0.00     0.168 C 
BRANCH   9  10
HETATM   10  N2  UNL     1      11.621  -7.261  -7.881  1.00  0.00    -0.338 N 
HETATM   11  C7  UNL     1      10.689  -6.649  -8.633  1.00  0.00     0.094 A 
HETATM   12  C8  UNL     1       9.581  -6.349  -7.863  1.00  0.00     0.037 A 
HETATM   13  C9  UNL     1       9.848  -6.798  -6.578  1.00  0.00     0.062 A 
HETATM   14  C10 UNL     1      11.098  -7.345  -6.634  1.00  0.00     0.124 A 
HETATM   15  C28 UNL     1       9.034  -6.744  -5.362  1.00  0.00     0.217 A 
HETATM   16  N3  UNL     1      11.629  -7.889  -5.448  1.00  0.00    -0.307 N 
HETATM   17  C11 UNL     1      10.918  -7.883  -4.224  1.00  0.00     0.277 A 
ATOM     18  H3  UNL     1      12.562  -8.302  -5.472  1.00  0.00     0.170 HD
HETATM   19  O1  UNL     1      11.393  -8.368  -3.163  1.00  0.00    -0.266 OA
HETATM   20  C12 UNL     1       9.562  -7.298  -4.121  1.00  0.00     0.150 A 
HETATM   21  N4  UNL     1       8.937  -7.303  -3.009  1.00  0.00    -0.353 N 
ATOM     22  H4  UNL     1       9.451  -7.731  -2.238  1.00  0.00     0.162 HD
HETATM   23  O3  UNL     1       7.895  -6.217  -5.421  1.00  0.00    -0.285 OA
BRANCH  21  24
HETATM   24  C13 UNL     1       7.672  -6.824  -2.663  1.00  0.00     0.277 C 
HETATM   25  N5  UNL     1       7.637  -5.352  -2.801  1.00  0.00    -0.360 N 
HETATM   26  C14 UNL     1       6.652  -4.515  -2.542  1.00  0.00     0.053 C 
ATOM     27  H5  UNL     1       8.497  -4.923  -3.144  1.00  0.00     0.162 HD
HETATM   28  C15 UNL     1       6.960  -3.141  -2.779  1.00  0.00    -0.009 A 
HETATM   29  C21 UNL     1       5.338  -4.969  -2.167  1.00  0.00     0.018 A 
HETATM   30  C16 UNL     1       6.189  -2.093  -2.423  1.00  0.00     0.014 A 
HETATM   31  C20 UNL     1       8.108  -2.816  -3.527  1.00  0.00     0.014 A 
HETATM   32  C17 UNL     1       6.459  -0.780  -2.748  1.00  0.00     0.001 A 
HETATM   33  C18 UNL     1       7.584  -0.482  -3.478  1.00  0.00     0.000 A 
HETATM   34  C19 UNL     1       8.400  -1.530  -3.859  1.00  0.00     0.001 A 
HETATM   35  C22 UNL     1       4.345  -4.216  -2.743  1.00  0.00     0.016 A 
HETATM   36  C26 UNL     1       4.988  -6.019  -1.301  1.00  0.00     0.047 A 
HETATM   37  C23 UNL     1       3.040  -4.523  -2.434  1.00  0.00     0.001 A 
HETATM   38  C24 UNL     1       2.699  -5.557  -1.573  1.00  0.00     0.002 A 
HETATM   39  C25 UNL     1       3.695  -6.327  -0.989  1.00  0.00     0.030 A 
HETATM   40  N6  UNL     1       5.929  -6.944  -0.741  1.00  0.00    -0.323 N 
HETATM   41  C27 UNL     1       7.225  -7.195  -1.277  1.00  0.00     0.264 C 
ATOM     42  H6  UNL     1       5.653  -7.458   0.095  1.00  0.00     0.169 HD
HETATM   43  O2  UNL     1       8.070  -7.782  -0.518  1.00  0.00    -0.269 OA
ENDBRANCH  21  24
ENDBRANCH   9  10
ENDBRANCH   6   9
TORSDOF 3
ENDMDL
MODEL 2
REMARK VINA RESULT: -11.372306711      1.973      3.053
REMARK  3 active torsions:
REMARK  status: ('A' for Active; 'I' for Inactive)
REMARK    1  A    between atoms: C5_6  and  C6_7 
REMARK    2  A    between atoms: C6_7  and  N2_8 
REMARK    3  A    between atoms: N4_18  and  C13_20 
ROOT
HETATM    1  N1  UNL     1      16.342 -10.972 -14.557  1.00  0.00    -0.191 NA
HETATM    2  C1  UNL     1      15.761 -10.147 -13.958  1.00  0.00     0.099 C 
HETATM    3  C2  UNL     1      15.043  -9.134 -13.232  1.00  0.00     0.044 A 
HETATM    4  C3  UNL     1      15.374  -8.911 -11.912  1.00  0.00     0.023 A 
HETATM    5  C4  UNL     1      14.699  -7.945 -11.193  1.00  0.00     0.010 A 
HETATM    6  C5  UNL     1      13.696  -7.189 -11.761  1.00  0.00    -0.040 A 
HETATM    7  C29 UNL     1      13.376  -7.425 -13.085  1.00  0.00     0.010 A 
HETATM    8  C30 UNL     1      14.039  -8.386 -13.815  1.00  0.00     0.023 A 
ENDROOT
BRANCH   6   9
HETATM    9  C6  UNL     1      12.959  -6.155 -11.026  1.00  0.00     0.168 C 
BRANCH   9  10
HETATM   10  N2  UNL     1      12.118  -6.697  -9.984  1.00  0.00    -0.338 N 
HETATM   11  C7  UNL     1      11.692  -7.972  -9.917  1.00  0.00     0.094 A 
HETATM   12  C8  UNL     1      10.907  -8.151  -8.794  1.00  0.00     0.037 A 
HETATM   13  C9  UNL     1      10.849  -6.929  -8.142  1.00  0.00     0.062 A 
HETATM   14  C10 UNL     1      11.598  -6.074  -8.898  1.00  0.00     0.124 A 
HETATM   15  C28 UNL     1      10.163  -6.539  -6.908  1.00  0.00     0.217 A 
HETATM   16  N3  UNL     1      11.714  -4.741  -8.460  1.00  0.00    -0.307 N 
HETATM   17  C11 UNL     1      11.087  -4.271  -7.280  1.00  0.00     0.277 A 
ATOM     18  H3  UNL     1      12.270  -4.088  -9.014  1.00  0.00     0.170 HD
HETATM   19  O1  UNL     1      11.190  -3.078  -6.889  1.00  0.00    -0.266 OA
HETATM   20  C12 UNL     1      10.266  -5.165  -6.433  1.00  0.00     0.150 A 
HETATM   21  N4  UNL     1       9.709  -4.723  -5.374  1.00  0.00    -0.353 N 
ATOM     22  H4  UNL     1       9.884  -3.735  -5.187  1.00  0.00     0.162 HD
HETATM   23  O3  UNL     1       9.498  -7.407  -6.287  1.00  0.00    -0.285 OA
BRANCH  21  24
HETATM   24  C13 UNL     1       8.903  -5.356  -4.426  1.00  0.00     0.277 C 
HETATM   25  N5  UNL     1       8.011  -4.367  -3.783  1.00  0.00    -0.360 N 
HETATM   26  C14 UNL     1       7.129  -4.545  -2.820  1.00  0.00     0.053 C 
ATOM     27  H5  UNL     1       8.091  -3.412  -4.133  1.00  0.00     0.162 HD
HETATM   28  C15 UNL     1       6.436  -3.362  -2.422  1.00  0.00    -0.009 A 
HETATM   29  C21 UNL     1       6.810  -5.850  -2.302  1.00  0.00     0.018 A 
HETATM   30  C16 UNL     1       5.626  -3.252  -1.348  1.00  0.00     0.014 A 
HETATM   31  C20 UNL     1       6.502  -2.220  -3.244  1.00  0.00     0.014 A 
HETATM   32  C17 UNL     1       4.891  -2.127  -1.037  1.00  0.00     0.001 A 
HETATM   33  C18 UNL     1       4.968  -1.023  -1.851  1.00  0.00     0.000 A 
HETATM   34  C19 UNL     1       5.790  -1.096  -2.959  1.00  0.00     0.001 A 
HETATM   35  C22 UNL     1       5.470  -5.992  -2.042  1.00  0.00     0.016 A 
HETATM   36  C26 UNL     1       7.680  -6.918  -2.024  1.00  0.00     0.047 A 
HETATM   37  C23 UNL     1       5.038  -7.182  -1.506  1.00  0.00     0.001 A 
HETATM   38  C24 UNL     1       5.903  -8.233  -1.226  1.00  0.00     0.002 A 
HETATM   39  C25 UNL     1       7.258  -8.102  -1.490  1.00  0.00     0.030 A 
HETATM   40  N6  UNL     1       9.072  -6.929  -2.367  1.00  0.00    -0.323 N 
HETATM   41  C27 UNL     1       9.661  -6.096  -3.360  1.00  0.00     0.264 C 
ATOM     42  H6  UNL     1       9.681  -7.576  -1.867  1.00  0.00     0.169 HD
HETATM   43  O2  UNL     1      10.933  -5.970  -3.342  1.00  0.00    -0.269 OA
ENDBRANCH  21  24
ENDBRANCH   9  10
ENDBRANCH   6   9
TORSDOF 3
ENDMDL
MODEL 3
REMARK VINA RESULT: -11.050204804      2.113      3.768
REMARK  3 active torsions:
REMARK  status: ('A' for Active; 'I' for Inactive)
REMARK    1  A    between atoms: C5_6  and  C6_7 
REMARK    2  A    between atoms: C6_7  and  N2_8 
REMARK    3  A    between atoms: N4_18  and  C13_20 
ROOT
HETATM    1  N1  UNL     1      13.451  -7.802 -14.301  1.00  0.00    -0.191 NA
HETATM    2  C1  UNL     1      13.421  -7.554 -13.155  1.00  0.00     0.099 C 
HETATM    3  C2  UNL     1      13.390  -7.258 -11.747  1.00  0.00     0.044 A 
HETATM    4  C3  UNL     1      12.814  -6.073 -11.337  1.00  0.00     0.023 A 
HETATM    5  C4  UNL     1      12.772  -5.766  -9.991  1.00  0.00     0.010 A 
HETATM    6  C5  UNL     1      13.293  -6.615  -9.039  1.00  0.00    -0.040 A 
HETATM    7  C29 UNL     1      13.867  -7.797  -9.466  1.00  0.00     0.010 A 
HETATM    8  C30 UNL     1      13.917  -8.118 -10.805  1.00  0.00     0.023 A 
ENDROOT
BRANCH   6   9
HETATM    9  C6  UNL     1      13.264  -6.319  -7.602  1.00  0.00     0.168 C 
BRANCH   9  10
HETATM   10  N2  UNL     1      11.922  -6.203  -7.079  1.00  0.00    -0.338 N 
HETATM   11  C7  UNL     1      10.858  -6.900  -7.516  1.00  0.00     0.094 A 
HETATM   12  C8  UNL     1       9.731  -6.544  -6.799  1.00  0.00     0.037 A 
HETATM   13  C9  UNL     1      10.123  -5.583  -5.880  1.00  0.00     0.062 A 
HETATM   14  C10 UNL     1      11.461  -5.405  -6.084  1.00  0.00     0.124 A 
HETATM   15  C28 UNL     1       9.348  -4.858  -4.870  1.00  0.00     0.217 A 
HETATM   16  N3  UNL     1      12.130  -4.469  -5.272  1.00  0.00    -0.307 N 
HETATM   17  C11 UNL     1      11.466  -3.721  -4.270  1.00  0.00     0.277 A 
ATOM     18  H3  UNL     1      13.130  -4.324  -5.411  1.00  0.00     0.170 HD
HETATM   19  O1  UNL     1      12.064  -2.883  -3.543  1.00  0.00    -0.266 OA
HETATM   20  C12 UNL     1      10.016  -3.883  -4.017  1.00  0.00     0.150 A 
HETATM   21  N4  UNL     1       9.436  -3.200  -3.109  1.00  0.00    -0.353 N 
ATOM     22  H4  UNL     1      10.052  -2.562  -2.604  1.00  0.00     0.162 HD
HETATM   23  O3  UNL     1       8.119  -5.098  -4.765  1.00  0.00    -0.285 OA
BRANCH  21  24
HETATM   24  C13 UNL     1       8.105  -3.174  -2.687  1.00  0.00     0.277 C 
HETATM   25  N5  UNL     1       7.585  -4.554  -2.581  1.00  0.00    -0.360 N 
HETATM   26  C14 UNL     1       6.376  -4.963  -2.252  1.00  0.00     0.053 C 
ATOM     27  H5  UNL     1       8.255  -5.293  -2.792  1.00  0.00     0.162 HD
HETATM   28  C15 UNL     1       6.206  -6.381  -2.256  1.00  0.00    -0.009 A 
HETATM   29  C21 UNL     1       5.351  -4.054  -1.808  1.00  0.00     0.018 A 
HETATM   30  C16 UNL     1       5.029  -7.029  -2.132  1.00  0.00     0.014 A 
HETATM   31  C20 UNL     1       7.346  -7.207  -2.295  1.00  0.00     0.014 A 
HETATM   32  C17 UNL     1       4.899  -8.399  -2.042  1.00  0.00     0.001 A 
HETATM   33  C18 UNL     1       6.022  -9.189  -2.082  1.00  0.00     0.000 A 
HETATM   34  C19 UNL     1       7.246  -8.561  -2.211  1.00  0.00     0.001 A 
HETATM   35  C22 UNL     1       4.600  -4.577  -0.785  1.00  0.00     0.016 A 
HETATM   36  C26 UNL     1       5.039  -2.777  -2.305  1.00  0.00     0.047 A 
HETATM   37  C23 UNL     1       3.560  -3.822  -0.296  1.00  0.00     0.001 A 
HETATM   38  C24 UNL     1       3.252  -2.562  -0.794  1.00  0.00     0.002 A 
HETATM   39  C25 UNL     1       4.008  -2.022  -1.824  1.00  0.00     0.030 A 
HETATM   40  N6  UNL     1       5.826  -2.082  -3.282  1.00  0.00    -0.323 N 
HETATM   41  C27 UNL     1       7.190  -2.373  -3.569  1.00  0.00     0.264 C 
ATOM     42  H6  UNL     1       5.380  -1.329  -3.806  1.00  0.00     0.169 HD
HETATM   43  O2  UNL     1       7.670  -1.915  -4.662  1.00  0.00    -0.269 OA
ENDBRANCH  21  24
ENDBRANCH   9  10
ENDBRANCH   6   9
TORSDOF 3
ENDMDL
MODEL 4
REMARK VINA RESULT: -10.998912089      1.635      2.162
REMARK  3 active torsions:
REMARK  status: ('A' for Active; 'I' for Inactive)
REMARK    1  A    between atoms: C5_6  and  C6_7 
REMARK    2  A    between atoms: C6_7  and  N2_8 
REMARK    3  A    between atoms: N4_18  and  C13_20 
ROOT
HETATM    1  N1  UNL     1      13.667  -8.549 -15.961  1.00  0.00    -0.191 NA
HETATM    2  C1  UNL     1      13.751  -8.322 -14.813  1.00  0.00     0.099 C 
HETATM    3  C2  UNL     1      13.847  -8.038 -13.405  1.00  0.00     0.044 A 
HETATM    4  C3  UNL     1      14.726  -8.779 -12.643  1.00  0.00     0.023 A 
HETATM    5  C4  UNL     1      14.835  -8.525 -11.290  1.00  0.00     0.010 A 
HETATM    6  C5  UNL     1      14.087  -7.545 -10.674  1.00  0.00    -0.040 A 
HETATM    7  C29 UNL     1      13.211  -6.812 -11.452  1.00  0.00     0.010 A 
HETATM    8  C30 UNL     1      13.089  -7.053 -12.803  1.00  0.00     0.023 A 
ENDROOT
BRANCH   6   9
HETATM    9  C6  UNL     1      14.179  -7.250  -9.240  1.00  0.00     0.168 C 
BRANCH   9  10
HETATM   10  N2  UNL     1      12.969  -7.577  -8.520  1.00  0.00    -0.338 N 
HETATM   11  C7  UNL     1      12.147  -8.600  -8.814  1.00  0.00     0.094 A 
HETATM   12  C8  UNL     1      11.086  -8.625  -7.927  1.00  0.00     0.037 A 
HETATM   13  C9  UNL     1      11.268  -7.568  -7.050  1.00  0.00     0.062 A 
HETATM   14  C10 UNL     1      12.424  -6.957  -7.445  1.00  0.00     0.124 A 
HETATM   15  C28 UNL     1      10.457  -7.121  -5.915  1.00  0.00     0.217 A 
HETATM   16  N3  UNL     1      12.855  -5.833  -6.715  1.00  0.00    -0.307 N 
HETATM   17  C11 UNL     1      12.138  -5.327  -5.604  1.00  0.00     0.277 A 
ATOM     18  H3  UNL     1      13.717  -5.365  -6.997  1.00  0.00     0.170 HD
HETATM   19  O1  UNL     1      12.523  -4.321  -4.951  1.00  0.00    -0.266 OA
HETATM   20  C12 UNL     1      10.881  -5.959  -5.143  1.00  0.00     0.150 A 
HETATM   21  N4  UNL     1      10.249  -5.488  -4.140  1.00  0.00    -0.353 N 
ATOM     22  H4  UNL     1      10.684  -4.670  -3.713  1.00  0.00     0.162 HD
HETATM   23  O3  UNL     1       9.408  -7.755  -5.636  1.00  0.00    -0.285 OA
BRANCH  21  24
HETATM   24  C13 UNL     1       9.065  -5.899  -3.524  1.00  0.00     0.277 C 
HETATM   25  N5  UNL     1       8.214  -4.724  -3.237  1.00  0.00    -0.360 N 
HETATM   26  C14 UNL     1       7.042  -4.673  -2.637  1.00  0.00     0.053 C 
ATOM     27  H5  UNL     1       8.587  -3.826  -3.546  1.00  0.00     0.162 HD
HETATM   28  C15 UNL     1       6.493  -3.361  -2.513  1.00  0.00    -0.009 A 
HETATM   29  C21 UNL     1       6.324  -5.861  -2.250  1.00  0.00     0.018 A 
HETATM   30  C16 UNL     1       5.404  -3.032  -1.787  1.00  0.00     0.014 A 
HETATM   31  C20 UNL     1       7.048  -2.312  -3.271  1.00  0.00     0.014 A 
HETATM   32  C17 UNL     1       4.835  -1.776  -1.758  1.00  0.00     0.001 A 
HETATM   33  C18 UNL     1       5.391  -0.765  -2.505  1.00  0.00     0.000 A 
HETATM   34  C19 UNL     1       6.509  -1.063  -3.260  1.00  0.00     0.001 A 
HETATM   35  C22 UNL     1       4.974  -5.746  -2.468  1.00  0.00     0.016 A 
HETATM   36  C26 UNL     1       6.830  -7.041  -1.678  1.00  0.00     0.047 A 
HETATM   37  C23 UNL     1       4.169  -6.800  -2.103  1.00  0.00     0.001 A 
HETATM   38  C24 UNL     1       4.672  -7.962  -1.533  1.00  0.00     0.002 A 
HETATM   39  C25 UNL     1       6.036  -8.091  -1.314  1.00  0.00     0.030 A 
HETATM   40  N6  UNL     1       8.227  -7.321  -1.519  1.00  0.00    -0.323 N 
HETATM   41  C27 UNL     1       9.263  -6.679  -2.255  1.00  0.00     0.264 C 
ATOM     42  H6  UNL     1       8.497  -8.027  -0.834  1.00  0.00     0.169 HD
HETATM   43  O2  UNL     1      10.454  -6.778  -1.799  1.00  0.00    -0.269 OA
ENDBRANCH  21  24
ENDBRANCH   9  10
ENDBRANCH   6   9
TORSDOF 3
ENDMDL
MODEL 5
REMARK VINA RESULT: -10.879000562      2.602      4.270
REMARK  3 active torsions:
REMARK  status: ('A' for Active; 'I' for Inactive)
REMARK    1  A    between atoms: C5_6  and  C6_7 
REMARK    2  A    between atoms: C6_7  and  N2_8 
REMARK    3  A    between atoms: N4_18  and  C13_20 
ROOT
HETATM    1  N1  UNL     1      18.553 -11.320 -14.098  1.00  0.00    -0.191 NA
HETATM    2  C1  UNL     1      17.622 -10.649 -13.854  1.00  0.00     0.099 C 
HETATM    3  C2  UNL     1      16.476  -9.827 -13.564  1.00  0.00     0.044 A 
HETATM    4  C3  UNL     1      16.296  -9.383 -12.271  1.00  0.00     0.023 A 
HETATM    5  C4  UNL     1      15.205  -8.594 -11.968  1.00  0.00     0.010 A 
HETATM    6  C5  UNL     1      14.283  -8.233 -12.927  1.00  0.00    -0.040 A 
HETATM    7  C29 UNL     1      14.478  -8.687 -14.217  1.00  0.00     0.010 A 
HETATM    8  C30 UNL     1      15.561  -9.476 -14.537  1.00  0.00     0.023 A 
ENDROOT
BRANCH   6   9
HETATM    9  C6  UNL     1      13.113  -7.396 -12.638  1.00  0.00     0.168 C 
BRANCH   9  10
HETATM   10  N2  UNL     1      12.499  -7.708 -11.368  1.00  0.00    -0.338 N 
HETATM   11  C7  UNL     1      12.171  -8.944 -10.949  1.00  0.00     0.094 A 
HETATM   12  C8  UNL     1      11.603  -8.883  -9.691  1.00  0.00     0.037 A 
HETATM   13  C9  UNL     1      11.581  -7.547  -9.321  1.00  0.00     0.062 A 
HETATM   14  C10 UNL     1      12.134  -6.868 -10.368  1.00  0.00     0.124 A 
HETATM   15  C28 UNL     1      11.093  -6.905  -8.099  1.00  0.00     0.217 A 
HETATM   16  N3  UNL     1      12.240  -5.468 -10.260  1.00  0.00    -0.307 N 
HETATM   17  C11 UNL     1      11.796  -4.758  -9.118  1.00  0.00     0.277 A 
ATOM     18  H3  UNL     1      12.651  -4.945 -11.034  1.00  0.00     0.170 HD
HETATM   19  O1  UNL     1      11.889  -3.506  -9.021  1.00  0.00    -0.266 OA
HETATM   20  C12 UNL     1      11.189  -5.457  -7.962  1.00  0.00     0.150 A 
HETATM   21  N4  UNL     1      10.796  -4.799  -6.941  1.00  0.00    -0.353 N 
ATOM     22  H4  UNL     1      10.938  -3.791  -7.009  1.00  0.00     0.162 HD
HETATM   23  O3  UNL     1      10.600  -7.625  -7.194  1.00  0.00    -0.285 OA
BRANCH  21  24
HETATM   24  C13 UNL     1      10.205  -5.221  -5.748  1.00  0.00     0.277 C 
HETATM   25  N5  UNL     1       9.307  -4.165  -5.232  1.00  0.00    -0.360 N 
HETATM   26  C14 UNL     1       8.593  -4.149  -4.125  1.00  0.00     0.053 C 
ATOM     27  H5  UNL     1       9.230  -3.331  -5.815  1.00  0.00     0.162 HD
HETATM   28  C15 UNL     1       7.834  -2.957  -3.922  1.00  0.00    -0.009 A 
HETATM   29  C21 UNL     1       8.496  -5.294  -3.257  1.00  0.00     0.018 A 
HETATM   30  C16 UNL     1       7.174  -2.630  -2.791  1.00  0.00     0.014 A 
HETATM   31  C20 UNL     1       7.657  -2.066  -4.999  1.00  0.00     0.014 A 
HETATM   32  C17 UNL     1       6.369  -1.519  -2.651  1.00  0.00     0.001 A 
HETATM   33  C18 UNL     1       6.209  -0.662  -3.713  1.00  0.00     0.000 A 
HETATM   34  C19 UNL     1       6.871  -0.962  -4.888  1.00  0.00     0.001 A 
HETATM   35  C22 UNL     1       7.229  -5.459  -2.754  1.00  0.00     0.016 A 
HETATM   36  C26 UNL     1       9.510  -6.187  -2.870  1.00  0.00     0.047 A 
HETATM   37  C23 UNL     1       7.012  -6.497  -1.879  1.00  0.00     0.001 A 
HETATM   38  C24 UNL     1       8.019  -7.374  -1.494  1.00  0.00     0.002 A 
HETATM   39  C25 UNL     1       9.301  -7.219  -2.000  1.00  0.00     0.030 A 
HETATM   40  N6  UNL     1      10.833  -6.187  -3.422  1.00  0.00    -0.323 N 
HETATM   41  C27 UNL     1      11.181  -5.601  -4.672  1.00  0.00     0.264 C 
ATOM     42  H6  UNL     1      11.574  -6.636  -2.884  1.00  0.00     0.169 HD
HETATM   43  O2  UNL     1      12.422  -5.383  -4.893  1.00  0.00    -0.269 OA
ENDBRANCH  21  24
ENDBRANCH   9  10
ENDBRANCH   6   9
TORSDOF 3
ENDMDL
