MODEL 1
REMARK VINA RESULT: -4.702531100      0.000      0.000
REMARK  7 active torsions:
REMARK  status: ('A' for Active; 'I' for Inactive)
REMARK    1  A    between atoms: N2_5  and  C4_6 
REMARK    2  A    between atoms: C4_6  and  C5_7 
REMARK    3  A    between atoms: C5_7  and  C6_8 
REMARK    4  A    between atoms: C6_8  and  C7_9 
REMARK    5  A    between atoms: C7_9  and  C8_10 
REMARK    6  A    between atoms: C8_10  and  N3_11 
REMARK    7  A    between atoms: C8_10  and  N4_15 
ROOT
HETATM    1  N1  UNL     1     -24.950 -13.099  28.288  1.00  0.00    -0.191 NA
HETATM    2  C1  UNL     1     -25.276 -13.776  27.432  1.00  0.00     0.106 C 
HETATM    3  C2  UNL     1     -25.701 -14.612  26.343  1.00  0.00     0.128 A 
HETATM    4  C3  UNL     1     -25.319 -14.377  25.034  1.00  0.00     0.124 A 
HETATM    5  N2  UNL     1     -25.724 -15.171  24.010  1.00  0.00    -0.308 N 
HETATM    6  C9  UNL     1     -26.528 -16.212  24.339  1.00  0.00     0.329 A 
HETATM    7  O1  UNL     1     -26.929 -16.981  23.406  1.00  0.00    -0.246 OA
HETATM    8  N5  UNL     1     -26.911 -16.457  25.606  1.00  0.00    -0.274 N 
ATOM      9  H5  UNL     1     -27.517 -17.257  25.791  1.00  0.00     0.173 HD
HETATM   10  C10 UNL     1     -26.521 -15.686  26.632  1.00  0.00     0.271 A 
HETATM   11  O2  UNL     1     -26.891 -15.928  27.830  1.00  0.00    -0.266 OA
ENDROOT
BRANCH   5  12
HETATM   12  C4  UNL     1     -25.325 -14.925  22.640  1.00  0.00     0.133 C 
BRANCH  12  13
HETATM   13  C5  UNL     1     -23.917 -15.459  22.468  1.00  0.00     0.020 C 
BRANCH  13  14
HETATM   14  C6  UNL     1     -23.861 -16.546  21.416  1.00  0.00     0.005 C 
BRANCH  14  15
HETATM   15  C7  UNL     1     -23.331 -17.789  22.076  1.00  0.00     0.062 C 
BRANCH  15  16
HETATM   16  C8  UNL     1     -24.294 -18.947  21.986  1.00  0.00     0.378 C 
BRANCH  16  17
HETATM   17  N3  UNL     1     -25.485 -18.477  21.261  1.00  0.00    -0.051 N 
ATOM     18  H33 UNL     1     -26.163 -18.016  21.866  1.00  0.00     0.276 HD
ATOM     19  H32 UNL     1     -25.291 -17.684  20.649  1.00  0.00     0.276 HD
ATOM     20  H31 UNL     1     -25.876 -19.276  20.762  1.00  0.00     0.276 HD
ENDBRANCH  16  17
BRANCH  16  21
HETATM   21  N4  UNL     1     -24.729 -19.260  23.338  1.00  0.00    -0.051 N 
ATOM     22  H43 UNL     1     -24.557 -18.500  23.997  1.00  0.00     0.276 HD
ATOM     23  H42 UNL     1     -25.744 -19.290  23.432  1.00  0.00     0.276 HD
ATOM     24  H41 UNL     1     -24.278 -20.132  23.611  1.00  0.00     0.276 HD
ENDBRANCH  16  21
ENDBRANCH  15  16
ENDBRANCH  14  15
ENDBRANCH  13  14
ENDBRANCH  12  13
ENDBRANCH   5  12
TORSDOF 7
ENDMDL
MODEL 2
REMARK VINA RESULT: -4.659297586      2.160      3.815
REMARK  7 active torsions:
REMARK  status: ('A' for Active; 'I' for Inactive)
REMARK    1  A    between atoms: N2_5  and  C4_6 
REMARK    2  A    between atoms: C4_6  and  C5_7 
REMARK    3  A    between atoms: C5_7  and  C6_8 
REMARK    4  A    between atoms: C6_8  and  C7_9 
REMARK    5  A    between atoms: C7_9  and  C8_10 
REMARK    6  A    between atoms: C8_10  and  N3_11 
REMARK    7  A    between atoms: C8_10  and  N4_15 
ROOT
HETATM    1  N1  UNL     1     -24.921 -13.187  28.301  1.00  0.00    -0.191 NA
HETATM    2  C1  UNL     1     -25.327 -13.896  27.507  1.00  0.00     0.106 C 
HETATM    3  C2  UNL     1     -25.855 -14.773  26.498  1.00  0.00     0.128 A 
HETATM    4  C3  UNL     1     -25.641 -14.563  25.147  1.00  0.00     0.124 A 
HETATM    5  N2  UNL     1     -26.143 -15.395  24.199  1.00  0.00    -0.308 N 
HETATM    6  C9  UNL     1     -26.869 -16.448  24.648  1.00  0.00     0.329 A 
HETATM    7  O1  UNL     1     -27.356 -17.253  23.789  1.00  0.00    -0.246 OA
HETATM    8  N5  UNL     1     -27.089 -16.669  25.957  1.00  0.00    -0.274 N 
ATOM      9  H5  UNL     1     -27.644 -17.479  26.234  1.00  0.00     0.173 HD
HETATM   10  C10 UNL     1     -26.602 -15.860  26.910  1.00  0.00     0.271 A 
HETATM   11  O2  UNL     1     -26.817 -16.079  28.149  1.00  0.00    -0.266 OA
ENDROOT
BRANCH   5  12
HETATM   12  C4  UNL     1     -25.918 -15.176  22.785  1.00  0.00     0.133 C 
BRANCH  12  13
HETATM   13  C5  UNL     1     -24.709 -14.274  22.645  1.00  0.00     0.020 C 
BRANCH  13  14
HETATM   14  C6  UNL     1     -25.003 -13.087  21.752  1.00  0.00     0.005 C 
BRANCH  14  15
HETATM   15  C7  UNL     1     -24.936 -11.850  22.606  1.00  0.00     0.062 C 
BRANCH  15  16
HETATM   16  C8  UNL     1     -26.251 -11.111  22.657  1.00  0.00     0.378 C 
BRANCH  16  17
HETATM   17  N3  UNL     1     -26.713 -11.124  24.053  1.00  0.00    -0.051 N 
ATOM     18  H33 UNL     1     -26.521 -12.006  24.527  1.00  0.00     0.276 HD
ATOM     19  H32 UNL     1     -26.156 -10.522  24.662  1.00  0.00     0.276 HD
ATOM     20  H31 UNL     1     -27.703 -10.880  24.052  1.00  0.00     0.276 HD
ENDBRANCH  16  17
BRANCH  16  21
HETATM   21  N4  UNL     1     -27.218 -11.885  21.893  1.00  0.00    -0.051 N 
ATOM     22  H43 UNL     1     -27.980 -11.316  21.524  1.00  0.00     0.276 HD
ATOM     23  H42 UNL     1     -26.850 -12.210  21.000  1.00  0.00     0.276 HD
ATOM     24  H41 UNL     1     -27.541 -12.645  22.491  1.00  0.00     0.276 HD
ENDBRANCH  16  21
ENDBRANCH  15  16
ENDBRANCH  14  15
ENDBRANCH  13  14
ENDBRANCH  12  13
ENDBRANCH   5  12
TORSDOF 7
ENDMDL
MODEL 3
REMARK VINA RESULT: -4.630147549      3.203      3.981
REMARK  7 active torsions:
REMARK  status: ('A' for Active; 'I' for Inactive)
REMARK    1  A    between atoms: N2_5  and  C4_6 
REMARK    2  A    between atoms: C4_6  and  C5_7 
REMARK    3  A    between atoms: C5_7  and  C6_8 
REMARK    4  A    between atoms: C6_8  and  C7_9 
REMARK    5  A    between atoms: C7_9  and  C8_10 
REMARK    6  A    between atoms: C8_10  and  N3_11 
REMARK    7  A    between atoms: C8_10  and  N4_15 
ROOT
HETATM    1  N1  UNL     1     -24.236 -13.746  28.230  1.00  0.00    -0.191 NA
HETATM    2  C1  UNL     1     -25.064 -14.070  27.518  1.00  0.00     0.106 C 
HETATM    3  C2  UNL     1     -26.123 -14.461  26.628  1.00  0.00     0.128 A 
HETATM    4  C3  UNL     1     -26.517 -13.679  25.556  1.00  0.00     0.124 A 
HETATM    5  N2  UNL     1     -27.518 -14.055  24.720  1.00  0.00    -0.308 N 
HETATM    6  C9  UNL     1     -28.114 -15.242  24.990  1.00  0.00     0.329 A 
HETATM    7  O1  UNL     1     -29.058 -15.630  24.228  1.00  0.00    -0.246 OA
HETATM    8  N5  UNL     1     -27.745 -16.016  26.028  1.00  0.00    -0.274 N 
ATOM      9  H5  UNL     1     -28.232 -16.899  26.182  1.00  0.00     0.173 HD
HETATM   10  C10 UNL     1     -26.759 -15.664  26.866  1.00  0.00     0.271 A 
HETATM   11  O2  UNL     1     -26.417 -16.406  27.848  1.00  0.00    -0.266 OA
ENDROOT
BRANCH   5  12
HETATM   12  C4  UNL     1     -27.932 -13.237  23.598  1.00  0.00     0.133 C 
BRANCH  12  13
HETATM   13  C5  UNL     1     -27.547 -11.804  23.906  1.00  0.00     0.020 C 
BRANCH  13  14
HETATM   14  C6  UNL     1     -26.793 -11.173  22.755  1.00  0.00     0.005 C 
BRANCH  14  15
HETATM   15  C7  UNL     1     -25.349 -11.572  22.886  1.00  0.00     0.062 C 
BRANCH  15  16
HETATM   16  C8  UNL     1     -24.919 -12.547  21.818  1.00  0.00     0.378 C 
BRANCH  16  17
HETATM   17  N3  UNL     1     -24.342 -13.719  22.495  1.00  0.00    -0.051 N 
ATOM     18  H33 UNL     1     -24.969 -14.126  23.189  1.00  0.00     0.276 HD
ATOM     19  H32 UNL     1     -24.271 -14.535  21.886  1.00  0.00     0.276 HD
ATOM     20  H31 UNL     1     -23.445 -13.437  22.887  1.00  0.00     0.276 HD
ENDBRANCH  16  17
BRANCH  16  21
HETATM   21  N4  UNL     1     -23.836 -11.927  21.070  1.00  0.00    -0.051 N 
ATOM     22  H43 UNL     1     -23.961 -11.995  20.060  1.00  0.00     0.276 HD
ATOM     23  H42 UNL     1     -23.840 -10.909  21.136  1.00  0.00     0.276 HD
ATOM     24  H41 UNL     1     -22.963 -12.343  21.393  1.00  0.00     0.276 HD
ENDBRANCH  16  21
ENDBRANCH  15  16
ENDBRANCH  14  15
ENDBRANCH  13  14
ENDBRANCH  12  13
ENDBRANCH   5  12
TORSDOF 7
ENDMDL
MODEL 4
REMARK VINA RESULT: -4.594421648      3.338      4.769
REMARK  7 active torsions:
REMARK  status: ('A' for Active; 'I' for Inactive)
REMARK    1  A    between atoms: N2_5  and  C4_6 
REMARK    2  A    between atoms: C4_6  and  C5_7 
REMARK    3  A    between atoms: C5_7  and  C6_8 
REMARK    4  A    between atoms: C6_8  and  C7_9 
REMARK    5  A    between atoms: C7_9  and  C8_10 
REMARK    6  A    between atoms: C8_10  and  N3_11 
REMARK    7  A    between atoms: C8_10  and  N4_15 
ROOT
HETATM    1  N1  UNL     1     -29.621 -17.972  25.681  1.00  0.00    -0.191 NA
HETATM    2  C1  UNL     1     -28.773 -17.274  25.981  1.00  0.00     0.106 C 
HETATM    3  C2  UNL     1     -27.688 -16.407  26.351  1.00  0.00     0.128 A 
HETATM    4  C3  UNL     1     -26.913 -15.747  25.413  1.00  0.00     0.124 A 
HETATM    5  N2  UNL     1     -25.889 -14.930  25.770  1.00  0.00    -0.308 N 
HETATM    6  C9  UNL     1     -25.664 -14.794  27.099  1.00  0.00     0.329 A 
HETATM    7  O1  UNL     1     -24.712 -14.036  27.475  1.00  0.00    -0.246 OA
HETATM    8  N5  UNL     1     -26.405 -15.428  28.027  1.00  0.00    -0.274 N 
ATOM      9  H5  UNL     1     -26.187 -15.287  29.013  1.00  0.00     0.173 HD
HETATM   10  C10 UNL     1     -27.422 -16.240  27.696  1.00  0.00     0.271 A 
HETATM   11  O2  UNL     1     -28.118 -16.836  28.584  1.00  0.00    -0.266 OA
ENDROOT
BRANCH   5  12
HETATM   12  C4  UNL     1     -25.079 -14.238  24.788  1.00  0.00     0.133 C 
BRANCH  12  13
HETATM   13  C5  UNL     1     -25.990 -13.815  23.654  1.00  0.00     0.020 C 
BRANCH  13  14
HETATM   14  C6  UNL     1     -26.099 -12.308  23.563  1.00  0.00     0.005 C 
BRANCH  14  15
HETATM   15  C7  UNL     1     -24.986 -11.826  22.674  1.00  0.00     0.062 C 
BRANCH  15  16
HETATM   16  C8  UNL     1     -25.202 -12.194  21.226  1.00  0.00     0.378 C 
BRANCH  16  17
HETATM   17  N3  UNL     1     -23.936 -12.740  20.714  1.00  0.00    -0.051 N 
ATOM     18  H33 UNL     1     -23.648 -12.317  19.832  1.00  0.00     0.276 HD
ATOM     19  H32 UNL     1     -23.127 -12.457  21.269  1.00  0.00     0.276 HD
ATOM     20  H31 UNL     1     -24.040 -13.753  20.654  1.00  0.00     0.276 HD
ENDBRANCH  16  17
BRANCH  16  21
HETATM   21  N4  UNL     1     -25.448 -10.962  20.494  1.00  0.00    -0.051 N 
ATOM     22  H43 UNL     1     -25.953 -11.112  19.620  1.00  0.00     0.276 HD
ATOM     23  H42 UNL     1     -26.139 -10.363  20.945  1.00  0.00     0.276 HD
ATOM     24  H41 UNL     1     -24.549 -10.501  20.360  1.00  0.00     0.276 HD
ENDBRANCH  16  21
ENDBRANCH  15  16
ENDBRANCH  14  15
ENDBRANCH  13  14
ENDBRANCH  12  13
ENDBRANCH   5  12
TORSDOF 7
ENDMDL
MODEL 5
REMARK VINA RESULT: -4.567406955      2.273      4.167
REMARK  7 active torsions:
REMARK  status: ('A' for Active; 'I' for Inactive)
REMARK    1  A    between atoms: N2_5  and  C4_6 
REMARK    2  A    between atoms: C4_6  and  C5_7 
REMARK    3  A    between atoms: C5_7  and  C6_8 
REMARK    4  A    between atoms: C6_8  and  C7_9 
REMARK    5  A    between atoms: C7_9  and  C8_10 
REMARK    6  A    between atoms: C8_10  and  N3_11 
REMARK    7  A    between atoms: C8_10  and  N4_15 
ROOT
HETATM    1  N1  UNL     1     -24.858 -13.154  28.441  1.00  0.00    -0.191 NA
HETATM    2  C1  UNL     1     -25.193 -13.759  27.535  1.00  0.00     0.106 C 
HETATM    3  C2  UNL     1     -25.628 -14.504  26.385  1.00  0.00     0.128 A 
HETATM    4  C3  UNL     1     -25.281 -14.146  25.094  1.00  0.00     0.124 A 
HETATM    5  N2  UNL     1     -25.696 -14.854  24.013  1.00  0.00    -0.308 N 
HETATM    6  C9  UNL     1     -26.473 -15.936  24.266  1.00  0.00     0.329 A 
HETATM    7  O1  UNL     1     -26.882 -16.627  23.277  1.00  0.00    -0.246 OA
HETATM    8  N5  UNL     1     -26.822 -16.300  25.514  1.00  0.00    -0.274 N 
ATOM      9  H5  UNL     1     -27.409 -17.124  25.641  1.00  0.00     0.173 HD
HETATM   10  C10 UNL     1     -26.422 -15.615  26.596  1.00  0.00     0.271 A 
HETATM   11  O2  UNL     1     -26.759 -15.969  27.775  1.00  0.00    -0.266 OA
ENDROOT
BRANCH   5  12
HETATM   12  C4  UNL     1     -25.333 -14.480  22.662  1.00  0.00     0.133 C 
BRANCH  12  13
HETATM   13  C5  UNL     1     -24.904 -13.027  22.686  1.00  0.00     0.020 C 
BRANCH  13  14
HETATM   14  C6  UNL     1     -25.993 -12.118  22.156  1.00  0.00     0.005 C 
BRANCH  14  15
HETATM   15  C7  UNL     1     -26.413 -11.211  23.279  1.00  0.00     0.062 C 
BRANCH  15  16
HETATM   16  C8  UNL     1     -27.909 -11.199  23.484  1.00  0.00     0.378 C 
BRANCH  16  17
HETATM   17  N3  UNL     1     -28.285 -12.496  24.067  1.00  0.00    -0.051 N 
ATOM     18  H33 UNL     1     -29.037 -12.422  24.752  1.00  0.00     0.276 HD
ATOM     19  H32 UNL     1     -28.768 -13.105  23.405  1.00  0.00     0.276 HD
ATOM     20  H31 UNL     1     -27.440 -12.918  24.450  1.00  0.00     0.276 HD
ENDBRANCH  16  17
BRANCH  16  21
HETATM   21  N4  UNL     1     -28.530 -11.138  22.171  1.00  0.00    -0.051 N 
ATOM     22  H43 UNL     1     -28.761 -10.187  21.884  1.00  0.00     0.276 HD
ATOM     23  H42 UNL     1     -27.880 -11.351  21.414  1.00  0.00     0.276 HD
ATOM     24  H41 UNL     1     -29.339 -11.758  22.186  1.00  0.00     0.276 HD
ENDBRANCH  16  21
ENDBRANCH  15  16
ENDBRANCH  14  15
ENDBRANCH  13  14
ENDBRANCH  12  13
ENDBRANCH   5  12
TORSDOF 7
ENDMDL
