MODEL 1
REMARK VINA RESULT: -7.793514607      0.000      0.000
REMARK  10 active torsions:
REMARK  status: ('A' for Active; 'I' for Inactive)
REMARK    1  A    between atoms: C4_4  and  C5_5 
REMARK    2  A    between atoms: C5_5  and  O2_7 
REMARK    3  A    between atoms: O2_7  and  C6_8 
REMARK    4  A    between atoms: C6_8  and  C7_9 
REMARK    5  A    between atoms: C7_9  and  O3_11 
REMARK    6  A    between atoms: C7_9  and  C9_13 
REMARK    7  A    between atoms: C11_16  and  O4_17 
REMARK    8  A    between atoms: C12_19  and  C13_20 
REMARK    9  A    between atoms: C20_29  and  C21_30 
REMARK   10  A    between atoms: C22_32  and  O5_33 
ROOT
HETATM    1  C9  UNL     1       8.000  18.730   8.415  1.00  0.00     0.005 C 
HETATM    2  C10 UNL     1       8.359  19.718   7.646  1.00  0.00     0.029 C 
HETATM    3 BR1  UNL     1       9.985  20.659   8.182  1.00  0.00    -0.052 Br
HETATM    4  C11 UNL     1       7.666  20.178   6.407  1.00  0.00     0.189 C 
HETATM    5  C12 UNL     1       6.376  19.489   6.159  1.00  0.00    -0.033 C 
HETATM    6  C16 UNL     1       5.816  18.892   7.398  1.00  0.00    -0.007 C 
HETATM    7  C17 UNL     1       4.393  18.811   7.636  1.00  0.00    -0.002 A 
HETATM    8  C18 UNL     1       3.501  19.854   7.328  1.00  0.00     0.031 A 
HETATM    9  C19 UNL     1       2.248  19.567   7.771  1.00  0.00     0.089 A 
HETATM   10  N1  UNL     1       2.348  18.370   8.345  1.00  0.00    -0.368 N 
ATOM     11  H1  UNL     1       1.566  17.880   8.778  1.00  0.00     0.165 HD
HETATM   12  C20 UNL     1       3.616  17.876   8.288  1.00  0.00     0.030 A 
HETATM   13  C22 UNL     1       6.777  17.938   7.992  1.00  0.00     0.185 C 
ENDROOT
BRANCH   1  14
HETATM   14  C7  UNL     1       8.852  18.423   9.605  1.00  0.00     0.103 C 
HETATM   15  C8  UNL     1       8.894  19.435  10.638  1.00  0.00     0.053 C 
BRANCH  14  16
HETATM   16  C6  UNL     1       8.349  17.087  10.129  1.00  0.00     0.221 C 
BRANCH  16  17
HETATM   17  O2  UNL     1       8.855  15.988   9.539  1.00  0.00    -0.315 OA
BRANCH  17  18
HETATM   18  C5  UNL     1       8.600  14.721   9.200  1.00  0.00     0.283 C 
HETATM   19  O1  UNL     1       9.581  13.909   9.314  1.00  0.00    -0.260 OA
BRANCH  18  20
HETATM   20  C4  UNL     1       7.310  14.251   8.723  1.00  0.00     0.084 C 
HETATM   21  C2  UNL     1       6.272  13.924   9.384  1.00  0.00    -0.082 C 
HETATM   22  C1  UNL     1       5.068  13.451   8.563  1.00  0.00     0.043 C 
HETATM   23  C3  UNL     1       6.097  13.958  10.837  1.00  0.00     0.043 C 
ENDBRANCH  18  20
ENDBRANCH  17  18
ENDBRANCH  16  17
ENDBRANCH  14  16
BRANCH  14  24
HETATM   24  O3  UNL     1      10.118  18.165   9.032  1.00  0.00    -0.383 OA
ATOM     25  H3  UNL     1      10.423  18.996   8.686  1.00  0.00     0.211 HD
ENDBRANCH  14  24
ENDBRANCH   1  14
BRANCH  13  26
HETATM   26  O5  UNL     1       7.381  17.046   7.072  1.00  0.00    -0.386 OA
ATOM     27  H5  UNL     1       7.778  16.435   7.682  1.00  0.00     0.210 HD
ENDBRANCH  13  26
BRANCH   4  28
HETATM   28  O4  UNL     1       7.566  21.557   6.574  1.00  0.00    -0.386 OA
ATOM     29  H4  UNL     1       8.367  21.891   6.187  1.00  0.00     0.210 HD
ENDBRANCH   4  28
BRANCH   5  30
HETATM   30  C13 UNL     1       5.635  19.802   4.952  1.00  0.00     0.010 C 
HETATM   31  C14 UNL     1       5.169  18.480   4.246  1.00  0.00     0.014 C 
HETATM   32  C15 UNL     1       6.413  20.433   3.804  1.00  0.00     0.014 C 
ENDBRANCH   5  30
BRANCH  12  33
HETATM   33  C21 UNL     1       3.966  16.543   8.799  1.00  0.00     0.142 C 
HETATM   34 BR2  UNL     1       2.598  15.882  10.042  1.00  0.00    -0.090 Br
ENDBRANCH  12  33
TORSDOF 10
ENDMDL
MODEL 2
REMARK VINA RESULT: -7.331252513      4.172      5.783
REMARK  10 active torsions:
REMARK  status: ('A' for Active; 'I' for Inactive)
REMARK    1  A    between atoms: C4_4  and  C5_5 
REMARK    2  A    between atoms: C5_5  and  O2_7 
REMARK    3  A    between atoms: O2_7  and  C6_8 
REMARK    4  A    between atoms: C6_8  and  C7_9 
REMARK    5  A    between atoms: C7_9  and  O3_11 
REMARK    6  A    between atoms: C7_9  and  C9_13 
REMARK    7  A    between atoms: C11_16  and  O4_17 
REMARK    8  A    between atoms: C12_19  and  C13_20 
REMARK    9  A    between atoms: C20_29  and  C21_30 
REMARK   10  A    between atoms: C22_32  and  O5_33 
ROOT
HETATM    1  C9  UNL     1       3.938  20.401   6.155  1.00  0.00     0.005 C 
HETATM    2  C10 UNL     1       5.229  20.440   5.986  1.00  0.00     0.029 C 
HETATM    3 BR1  UNL     1       6.191  18.800   6.438  1.00  0.00    -0.052 Br
HETATM    4  C11 UNL     1       6.024  21.593   5.472  1.00  0.00     0.189 C 
HETATM    5  C12 UNL     1       5.223  22.828   5.284  1.00  0.00    -0.033 C 
HETATM    6  C16 UNL     1       3.979  22.814   6.094  1.00  0.00    -0.007 C 
HETATM    7  C17 UNL     1       3.417  24.020   6.658  1.00  0.00    -0.002 A 
HETATM    8  C18 UNL     1       4.198  25.028   7.251  1.00  0.00     0.031 A 
HETATM    9  C19 UNL     1       3.410  25.984   7.812  1.00  0.00     0.089 A 
HETATM   10  N1  UNL     1       2.162  25.587   7.579  1.00  0.00    -0.368 N 
ATOM     11  H1  UNL     1       1.336  26.101   7.882  1.00  0.00     0.165 HD
HETATM   12  C20 UNL     1       2.115  24.414   6.888  1.00  0.00     0.030 A 
HETATM   13  C22 UNL     1       3.154  21.635   5.753  1.00  0.00     0.185 C 
ENDROOT
BRANCH   1  14
HETATM   14  C7  UNL     1       3.336  19.131   6.667  1.00  0.00     0.103 C 
HETATM   15  C8  UNL     1       3.837  17.905   6.081  1.00  0.00     0.053 C 
BRANCH  14  16
HETATM   16  C6  UNL     1       3.532  19.170   8.174  1.00  0.00     0.221 C 
BRANCH  16  17
HETATM   17  O2  UNL     1       3.413  17.994   8.819  1.00  0.00    -0.315 OA
BRANCH  17  18
HETATM   18  C5  UNL     1       2.566  17.015   9.148  1.00  0.00     0.283 C 
HETATM   19  O1  UNL     1       1.371  17.145   8.712  1.00  0.00    -0.260 OA
BRANCH  18  20
HETATM   20  C4  UNL     1       2.931  15.860   9.952  1.00  0.00     0.084 C 
HETATM   21  C2  UNL     1       3.898  15.045   9.807  1.00  0.00    -0.082 C 
HETATM   22  C1  UNL     1       3.989  13.913  10.836  1.00  0.00     0.043 C 
HETATM   23  C3  UNL     1       4.936  15.073   8.775  1.00  0.00     0.043 C 
ENDBRANCH  18  20
ENDBRANCH  17  18
ENDBRANCH  16  17
ENDBRANCH  14  16
BRANCH  14  24
HETATM   24  O3  UNL     1       1.953  19.322   6.447  1.00  0.00    -0.383 OA
ATOM     25  H3  UNL     1       1.714  18.731   5.744  1.00  0.00     0.211 HD
ENDBRANCH  14  24
ENDBRANCH   1  14
BRANCH  13  26
HETATM   26  O5  UNL     1       3.013  21.384   4.367  1.00  0.00    -0.386 OA
ATOM     27  H5  UNL     1       3.447  22.155   4.021  1.00  0.00     0.210 HD
ENDBRANCH  13  26
BRANCH   4  28
HETATM   28  O4  UNL     1       7.068  21.710   6.386  1.00  0.00    -0.386 OA
ATOM     29  H4  UNL     1       7.510  22.510   6.123  1.00  0.00     0.210 HD
ENDBRANCH   4  28
BRANCH   5  30
HETATM   30  C13 UNL     1       5.868  24.002   4.728  1.00  0.00     0.010 C 
HETATM   31  C14 UNL     1       4.998  24.597   3.565  1.00  0.00     0.014 C 
HETATM   32  C15 UNL     1       7.173  23.787   3.973  1.00  0.00     0.014 C 
ENDBRANCH   5  30
BRANCH  12  33
HETATM   33  C21 UNL     1       0.850  23.803   6.457  1.00  0.00     0.142 C 
HETATM   34 BR2  UNL     1       0.525  24.127   4.548  1.00  0.00    -0.090 Br
ENDBRANCH  12  33
TORSDOF 10
ENDMDL
MODEL 3
REMARK VINA RESULT: -7.268449760      3.313      4.722
REMARK  10 active torsions:
REMARK  status: ('A' for Active; 'I' for Inactive)
REMARK    1  A    between atoms: C4_4  and  C5_5 
REMARK    2  A    between atoms: C5_5  and  O2_7 
REMARK    3  A    between atoms: O2_7  and  C6_8 
REMARK    4  A    between atoms: C6_8  and  C7_9 
REMARK    5  A    between atoms: C7_9  and  O3_11 
REMARK    6  A    between atoms: C7_9  and  C9_13 
REMARK    7  A    between atoms: C11_16  and  O4_17 
REMARK    8  A    between atoms: C12_19  and  C13_20 
REMARK    9  A    between atoms: C20_29  and  C21_30 
REMARK   10  A    between atoms: C22_32  and  O5_33 
ROOT
HETATM    1  C9  UNL     1       5.108  19.260   6.450  1.00  0.00     0.005 C 
HETATM    2  C10 UNL     1       6.382  19.523   6.525  1.00  0.00     0.029 C 
HETATM    3 BR1  UNL     1       7.450  18.248   7.549  1.00  0.00    -0.052 Br
HETATM    4  C11 UNL     1       7.089  20.677   5.897  1.00  0.00     0.189 C 
HETATM    5  C12 UNL     1       6.176  21.655   5.256  1.00  0.00    -0.033 C 
HETATM    6  C16 UNL     1       4.795  21.562   5.793  1.00  0.00    -0.007 C 
HETATM    7  C17 UNL     1       3.940  22.721   5.918  1.00  0.00    -0.002 A 
HETATM    8  C18 UNL     1       4.400  23.969   6.374  1.00  0.00     0.031 A 
HETATM    9  C19 UNL     1       3.367  24.843   6.517  1.00  0.00     0.089 A 
HETATM   10  N1  UNL     1       2.283  24.160   6.159  1.00  0.00    -0.368 N 
ATOM     11  H1  UNL     1       1.340  24.549   6.161  1.00  0.00     0.165 HD
HETATM   12  C20 UNL     1       2.577  22.883   5.790  1.00  0.00     0.030 A 
HETATM   13  C22 UNL     1       4.261  20.196   5.610  1.00  0.00     0.185 C 
ENDROOT
BRANCH   1  14
HETATM   14  C7  UNL     1       4.604  18.033   7.142  1.00  0.00     0.103 C 
HETATM   15  C8  UNL     1       5.612  17.152   7.693  1.00  0.00     0.053 C 
BRANCH  14  16
HETATM   16  C6  UNL     1       3.638  18.536   8.202  1.00  0.00     0.221 C 
BRANCH  16  17
HETATM   17  O2  UNL     1       3.351  17.678   9.200  1.00  0.00    -0.315 OA
BRANCH  17  18
HETATM   18  C5  UNL     1       2.650  16.590   9.531  1.00  0.00     0.283 C 
HETATM   19  O1  UNL     1       1.516  16.464   8.954  1.00  0.00    -0.260 OA
BRANCH  18  20
HETATM   20  C4  UNL     1       3.103  15.589  10.482  1.00  0.00     0.084 C 
HETATM   21  C2  UNL     1       3.852  14.577  10.298  1.00  0.00    -0.082 C 
HETATM   22  C1  UNL     1       4.127  13.705  11.528  1.00  0.00     0.043 C 
HETATM   23  C3  UNL     1       4.486  14.157   9.047  1.00  0.00     0.043 C 
ENDBRANCH  18  20
ENDBRANCH  17  18
ENDBRANCH  16  17
ENDBRANCH  14  16
BRANCH  14  24
HETATM   24  O3  UNL     1       3.810  17.413   6.151  1.00  0.00    -0.383 OA
ATOM     25  H3  UNL     1       4.021  17.849   5.334  1.00  0.00     0.211 HD
ENDBRANCH  14  24
ENDBRANCH   1  14
BRANCH  13  26
HETATM   26  O5  UNL     1       4.485  19.631   4.331  1.00  0.00    -0.386 OA
ATOM     27  H5  UNL     1       4.969  20.341   3.927  1.00  0.00     0.210 HD
ENDBRANCH  13  26
BRANCH   4  28
HETATM   28  O4  UNL     1       7.863  21.196   6.933  1.00  0.00    -0.386 OA
ATOM     29  H4  UNL     1       8.751  20.957   6.694  1.00  0.00     0.210 HD
ENDBRANCH   4  28
BRANCH   5  30
HETATM   30  C13 UNL     1       6.746  22.790   4.555  1.00  0.00     0.010 C 
HETATM   31  C14 UNL     1       6.092  22.931   3.135  1.00  0.00     0.014 C 
HETATM   32  C15 UNL     1       8.209  22.688   4.143  1.00  0.00     0.014 C 
ENDBRANCH   5  30
BRANCH  12  33
HETATM   33  C21 UNL     1       1.554  21.950   5.295  1.00  0.00     0.142 C 
HETATM   34 BR2  UNL     1       0.721  20.964   6.774  1.00  0.00    -0.090 Br
ENDBRANCH  12  33
TORSDOF 10
ENDMDL
MODEL 4
REMARK VINA RESULT: -7.054188342      4.285      6.962
REMARK  10 active torsions:
REMARK  status: ('A' for Active; 'I' for Inactive)
REMARK    1  A    between atoms: C4_4  and  C5_5 
REMARK    2  A    between atoms: C5_5  and  O2_7 
REMARK    3  A    between atoms: O2_7  and  C6_8 
REMARK    4  A    between atoms: C6_8  and  C7_9 
REMARK    5  A    between atoms: C7_9  and  O3_11 
REMARK    6  A    between atoms: C7_9  and  C9_13 
REMARK    7  A    between atoms: C11_16  and  O4_17 
REMARK    8  A    between atoms: C12_19  and  C13_20 
REMARK    9  A    between atoms: C20_29  and  C21_30 
REMARK   10  A    between atoms: C22_32  and  O5_33 
ROOT
HETATM    1  C9  UNL     1       8.045  21.495   5.249  1.00  0.00     0.005 C 
HETATM    2  C10 UNL     1       7.583  21.444   4.032  1.00  0.00     0.029 C 
HETATM    3 BR1  UNL     1       5.886  20.502   3.809  1.00  0.00    -0.052 Br
HETATM    4  C11 UNL     1       8.210  22.043   2.818  1.00  0.00     0.189 C 
HETATM    5  C12 UNL     1       9.555  22.619   3.068  1.00  0.00    -0.033 C 
HETATM    6  C16 UNL     1      10.187  22.050   4.285  1.00  0.00    -0.007 C 
HETATM    7  C17 UNL     1      11.616  21.855   4.388  1.00  0.00    -0.002 A 
HETATM    8  C18 UNL     1      12.402  21.360   3.331  1.00  0.00     0.031 A 
HETATM    9  C19 UNL     1      13.684  21.154   3.737  1.00  0.00     0.089 A 
HETATM   10  N1  UNL     1      13.703  21.510   5.019  1.00  0.00    -0.368 N 
ATOM     11  H1  UNL     1      14.535  21.467   5.608  1.00  0.00     0.165 HD
HETATM   12  C20 UNL     1      12.486  21.938   5.454  1.00  0.00     0.030 A 
HETATM   13  C22 UNL     1       9.328  22.274   5.466  1.00  0.00     0.185 C 
ENDROOT
BRANCH   1  14
HETATM   14  C7  UNL     1       7.244  20.841   6.330  1.00  0.00     0.103 C 
HETATM   15  C8  UNL     1       6.501  19.660   5.947  1.00  0.00     0.053 C 
BRANCH  14  16
HETATM   16  C6  UNL     1       8.231  20.560   7.451  1.00  0.00     0.221 C 
BRANCH  16  17
HETATM   17  O2  UNL     1       8.262  19.297   7.914  1.00  0.00    -0.315 OA
BRANCH  17  18
HETATM   18  C5  UNL     1       8.599  18.528   8.953  1.00  0.00     0.283 C 
HETATM   19  O1  UNL     1       8.905  19.149  10.027  1.00  0.00    -0.260 OA
BRANCH  18  20
HETATM   20  C4  UNL     1       8.635  17.075   8.912  1.00  0.00     0.084 C 
HETATM   21  C2  UNL     1       7.717  16.251   8.595  1.00  0.00    -0.082 C 
HETATM   22  C1  UNL     1       8.086  14.766   8.672  1.00  0.00     0.043 C 
HETATM   23  C3  UNL     1       6.355  16.562   8.159  1.00  0.00     0.043 C 
ENDBRANCH  18  20
ENDBRANCH  17  18
ENDBRANCH  16  17
ENDBRANCH  14  16
BRANCH  14  24
HETATM   24  O3  UNL     1       6.416  21.889   6.792  1.00  0.00    -0.383 OA
ATOM     25  H3  UNL     1       6.730  22.679   6.367  1.00  0.00     0.211 HD
ENDBRANCH  14  24
ENDBRANCH   1  14
BRANCH  13  26
HETATM   26  O5  UNL     1       8.794  23.580   5.580  1.00  0.00    -0.386 OA
ATOM     27  H5  UNL     1       9.602  24.078   5.629  1.00  0.00     0.210 HD
ENDBRANCH  13  26
BRANCH   4  28
HETATM   28  O4  UNL     1       8.185  21.008   1.886  1.00  0.00    -0.386 OA
ATOM     29  H4  UNL     1       8.992  21.123   1.398  1.00  0.00     0.210 HD
ENDBRANCH   4  28
BRANCH   5  30
HETATM   30  C13 UNL     1      10.243  23.288   1.980  1.00  0.00     0.010 C 
HETATM   31  C14 UNL     1      10.805  24.671   2.466  1.00  0.00     0.014 C 
HETATM   32  C15 UNL     1       9.393  23.765   0.810  1.00  0.00     0.014 C 
ENDBRANCH   5  30
BRANCH  12  33
HETATM   33  C21 UNL     1      12.269  22.444   6.817  1.00  0.00     0.142 C 
HETATM   34 BR2  UNL     1      12.192  24.405   6.838  1.00  0.00    -0.090 Br
ENDBRANCH  12  33
TORSDOF 10
ENDMDL
MODEL 5
REMARK VINA RESULT: -6.996646825      2.417      7.058
REMARK  10 active torsions:
REMARK  status: ('A' for Active; 'I' for Inactive)
REMARK    1  A    between atoms: C4_4  and  C5_5 
REMARK    2  A    between atoms: C5_5  and  O2_7 
REMARK    3  A    between atoms: O2_7  and  C6_8 
REMARK    4  A    between atoms: C6_8  and  C7_9 
REMARK    5  A    between atoms: C7_9  and  O3_11 
REMARK    6  A    between atoms: C7_9  and  C9_13 
REMARK    7  A    between atoms: C11_16  and  O4_17 
REMARK    8  A    between atoms: C12_19  and  C13_20 
REMARK    9  A    between atoms: C20_29  and  C21_30 
REMARK   10  A    between atoms: C22_32  and  O5_33 
ROOT
HETATM    1  C9  UNL     1       4.801  17.986   7.677  1.00  0.00     0.005 C 
HETATM    2  C10 UNL     1       4.359  16.862   8.166  1.00  0.00     0.029 C 
HETATM    3 BR1  UNL     1       2.418  16.716   8.330  1.00  0.00    -0.052 Br
HETATM    4  C11 UNL     1       5.182  15.692   8.587  1.00  0.00     0.189 C 
HETATM    5  C12 UNL     1       6.643  15.949   8.549  1.00  0.00    -0.033 C 
HETATM    6  C16 UNL     1       6.955  17.400   8.599  1.00  0.00    -0.007 C 
HETATM    7  C17 UNL     1       8.137  17.910   9.255  1.00  0.00    -0.002 A 
HETATM    8  C18 UNL     1       8.604  17.418  10.487  1.00  0.00     0.031 A 
HETATM    9  C19 UNL     1       9.654  18.158  10.937  1.00  0.00     0.089 A 
HETATM   10  N1  UNL     1       9.842  19.093  10.009  1.00  0.00    -0.368 N 
ATOM     11  H1  UNL     1      10.566  19.809  10.063  1.00  0.00     0.165 HD
HETATM   12  C20 UNL     1       8.957  18.984   8.980  1.00  0.00     0.030 A 
HETATM   13  C22 UNL     1       6.300  18.108   7.478  1.00  0.00     0.185 C 
ENDROOT
BRANCH   1  14
HETATM   14  C7  UNL     1       3.798  19.029   7.298  1.00  0.00     0.103 C 
HETATM   15  C8  UNL     1       2.781  19.324   8.286  1.00  0.00     0.053 C 
BRANCH  14  16
HETATM   16  C6  UNL     1       4.611  20.257   6.926  1.00  0.00     0.221 C 
BRANCH  16  17
HETATM   17  O2  UNL     1       4.668  20.558   5.615  1.00  0.00    -0.315 OA
BRANCH  17  18
HETATM   18  C5  UNL     1       5.351  20.363   4.483  1.00  0.00     0.283 C 
HETATM   19  O1  UNL     1       5.486  19.145   4.120  1.00  0.00    -0.260 OA
BRANCH  18  20
HETATM   20  C4  UNL     1       5.925  21.434   3.686  1.00  0.00     0.084 C 
HETATM   21  C2  UNL     1       7.045  22.025   3.810  1.00  0.00    -0.082 C 
HETATM   22  C1  UNL     1       7.341  23.135   2.796  1.00  0.00     0.043 C 
HETATM   23  C3  UNL     1       8.085  21.759   4.805  1.00  0.00     0.043 C 
ENDBRANCH  18  20
ENDBRANCH  17  18
ENDBRANCH  16  17
ENDBRANCH  14  16
BRANCH  14  24
HETATM   24  O3  UNL     1       3.264  18.531   6.088  1.00  0.00    -0.383 OA
ATOM     25  H3  UNL     1       3.853  18.821   5.402  1.00  0.00     0.211 HD
ENDBRANCH  14  24
ENDBRANCH   1  14
BRANCH  13  26
HETATM   26  O5  UNL     1       6.421  17.474   6.217  1.00  0.00    -0.386 OA
ATOM     27  H5  UNL     1       5.538  17.601   5.890  1.00  0.00     0.210 HD
ENDBRANCH  13  26
BRANCH   4  28
HETATM   28  O4  UNL     1       4.682  15.369   9.847  1.00  0.00    -0.386 OA
ATOM     29  H4  UNL     1       4.635  16.207  10.293  1.00  0.00     0.210 HD
ENDBRANCH   4  28
BRANCH   5  30
HETATM   30  C13 UNL     1       7.554  14.868   8.875  1.00  0.00     0.010 C 
HETATM   31  C14 UNL     1       8.160  14.257   7.563  1.00  0.00     0.014 C 
HETATM   32  C15 UNL     1       6.947  13.607   9.476  1.00  0.00     0.014 C 
ENDBRANCH   5  30
BRANCH  12  33
HETATM   33  C21 UNL     1       9.004  19.864   7.804  1.00  0.00     0.142 C 
HETATM   34 BR2  UNL     1      10.584  21.028   7.855  1.00  0.00    -0.090 Br
ENDBRANCH  12  33
TORSDOF 10
ENDMDL
