MODEL 1
REMARK VINA RESULT: -5.570046959      0.000      0.000
REMARK  15 active torsions:
REMARK  status: ('A' for Active; 'I' for Inactive)
REMARK    1  A    between atoms: N1_1  and  C1_5 
REMARK    2  A    between atoms: C3_10  and  O1_11 
REMARK    3  A    between atoms: O1_11  and  C4_12 
REMARK    4  A    between atoms: C5_13  and  O2_14 
REMARK    5  A    between atoms: C6_16  and  O3_17 
REMARK    6  A    between atoms: C6_16  and  C7_19 
REMARK       I    between atoms: C7_19  and  N3_21 
REMARK    7  A    between atoms: N3_21  and  C8_23 
REMARK    8  A    between atoms: C8_23  and  C9_24 
REMARK    9  A    between atoms: C9_24  and  C10_25 
REMARK   10  A    between atoms: C10_25  and  C11_26 
REMARK   11  A    between atoms: C11_26  and  O5_27 
REMARK   12  A    between atoms: C12_30  and  O7_31 
REMARK   13  A    between atoms: C12_30  and  C13_33 
REMARK   14  A    between atoms: C17_41  and  O12_42 
REMARK   15  A    between atoms: N4_44  and  O13_45 
ROOT
HETATM    1  C4  UNL     1      18.552  -1.567  16.660  1.00  0.00     0.194 C 
HETATM    2  C5  UNL     1      18.761  -0.077  16.878  1.00  0.00     0.222 C 
HETATM    3  C6  UNL     1      19.417   0.049  18.249  1.00  0.00     0.278 C 
HETATM    4  O6  UNL     1      18.516  -0.471  19.133  1.00  0.00    -0.296 OA
HETATM    5  C12 UNL     1      18.275  -1.822  19.045  1.00  0.00     0.285 C 
HETATM    6  C14 UNL     1      17.764  -2.270  17.717  1.00  0.00     0.159 C 
HETATM    7  C15 UNL     1      18.225  -3.752  17.537  1.00  0.00     0.215 C 
HETATM    8  O10 UNL     1      17.443  -4.584  18.380  1.00  0.00    -0.316 OA
HETATM    9  C16 UNL     1      16.054  -4.500  18.262  1.00  0.00     0.304 C 
HETATM   10  O11 UNL     1      15.332  -5.408  18.662  1.00  0.00    -0.261 OA
HETATM   11  C17 UNL     1      15.516  -3.285  17.641  1.00  0.00     0.319 C 
HETATM   12  N4  UNL     1      16.365  -2.171  17.493  1.00  0.00    -0.140 NA
ENDROOT
BRANCH   1  13
HETATM   13  O1  UNL     1      18.175  -1.842  15.381  1.00  0.00    -0.328 OA
BRANCH  13  14
HETATM   14  C3  UNL     1      19.149  -1.889  14.434  1.00  0.00     0.471 C 
HETATM   15  N2  UNL     1      18.783  -0.846  13.451  1.00  0.00    -0.021 N 
HETATM   16  C2  UNL     1      19.373  -1.327  12.221  1.00  0.00     0.299 C 
ATOM     17  H22 UNL     1      19.062   0.100  13.713  1.00  0.00     0.283 HD
ATOM     18  H21 UNL     1      17.785  -0.649  13.393  1.00  0.00     0.283 HD
HETATM   19  C1  UNL     1      19.347  -2.819  12.412  1.00  0.00     0.348 C 
HETATM   20  O14 UNL     1      19.132  -3.063  13.746  1.00  0.00    -0.304 OA
BRANCH  19  21
HETATM   21  N1  UNL     1      20.588  -3.389  11.934  1.00  0.00    -0.051 N 
ATOM     22  H13 UNL     1      21.256  -2.673  11.647  1.00  0.00     0.277 HD
ATOM     23  H12 UNL     1      21.136  -3.807  12.686  1.00  0.00     0.277 HD
ATOM     24  H11 UNL     1      20.392  -4.054  11.186  1.00  0.00     0.277 HD
ENDBRANCH  19  21
ENDBRANCH  13  14
ENDBRANCH   1  13
BRANCH   2  25
HETATM   25  O2  UNL     1      17.651   0.694  16.834  1.00  0.00    -0.387 OA
ATOM     26  H2  UNL     1      17.644   1.450  17.410  1.00  0.00     0.210 HD
ENDBRANCH   2  25
BRANCH   3  27
HETATM   27  O3  UNL     1      20.647  -0.677  18.218  1.00  0.00    -0.356 OA
ATOM     28  H3  UNL     1      21.360  -0.051  18.281  1.00  0.00     0.213 HD
ENDBRANCH   3  27
BRANCH   3  29
HETATM   29  C7  UNL     1      19.766   1.426  18.573  1.00  0.00     0.283 C 
HETATM   30  O4  UNL     1      20.630   1.644  19.504  1.00  0.00    -0.267 OA
HETATM   31  N3  UNL     1      19.251   2.574  17.967  1.00  0.00    -0.356 N 
ATOM     32  H3  UNL     1      18.560   2.477  17.224  1.00  0.00     0.162 HD
BRANCH  31  33
HETATM   33  C8  UNL     1      19.676   3.894  18.370  1.00  0.00     0.123 C 
BRANCH  33  34
HETATM   34  C9  UNL     1      20.000   4.770  17.180  1.00  0.00     0.022 C 
BRANCH  34  35
HETATM   35  C10 UNL     1      20.414   3.987  15.981  1.00  0.00     0.028 C 
BRANCH  35  36
HETATM   36  C11 UNL     1      19.410   4.043  14.858  1.00  0.00     0.164 C 
BRANCH  36  37
HETATM   37  O5  UNL     1      18.574   2.916  14.994  1.00  0.00    -0.401 OA
ATOM     38  H5  UNL     1      17.908   2.979  14.318  1.00  0.00     0.209 HD
ENDBRANCH  36  37
ENDBRANCH  35  36
ENDBRANCH  34  35
ENDBRANCH  33  34
ENDBRANCH  31  33
ENDBRANCH   3  29
BRANCH   5  39
HETATM   39  O7  UNL     1      19.536  -2.486  19.167  1.00  0.00    -0.355 OA
ATOM     40  H7  UNL     1      19.374  -3.324  19.585  1.00  0.00     0.213 HD
ENDBRANCH   5  39
BRANCH   5  41
HETATM   41  C13 UNL     1      17.523  -2.287  20.230  1.00  0.00     0.241 C 
HETATM   42  O8  UNL     1      18.062  -3.108  20.994  1.00  0.00    -0.644 OA
HETATM   43  O9  UNL     1      16.261  -1.859  20.528  1.00  0.00    -0.644 OA
ENDBRANCH   5  41
BRANCH  12  44
HETATM   44  O13 UNL     1      16.061  -1.631  16.262  1.00  0.00    -0.309 OA
ATOM     45  H13 UNL     1      16.596  -1.988  15.564  1.00  0.00     0.237 HD
ENDBRANCH  12  44
BRANCH  11  46
HETATM   46  O12 UNL     1      14.253  -2.945  18.197  1.00  0.00    -0.370 OA
ATOM     47  H12 UNL     1      13.950  -2.107  17.868  1.00  0.00     0.212 HD
ENDBRANCH  11  46
TORSDOF 15
ENDMDL
MODEL 2
REMARK VINA RESULT: -5.544288336      1.666      2.614
REMARK  15 active torsions:
REMARK  status: ('A' for Active; 'I' for Inactive)
REMARK    1  A    between atoms: N1_1  and  C1_5 
REMARK    2  A    between atoms: C3_10  and  O1_11 
REMARK    3  A    between atoms: O1_11  and  C4_12 
REMARK    4  A    between atoms: C5_13  and  O2_14 
REMARK    5  A    between atoms: C6_16  and  O3_17 
REMARK    6  A    between atoms: C6_16  and  C7_19 
REMARK       I    between atoms: C7_19  and  N3_21 
REMARK    7  A    between atoms: N3_21  and  C8_23 
REMARK    8  A    between atoms: C8_23  and  C9_24 
REMARK    9  A    between atoms: C9_24  and  C10_25 
REMARK   10  A    between atoms: C10_25  and  C11_26 
REMARK   11  A    between atoms: C11_26  and  O5_27 
REMARK   12  A    between atoms: C12_30  and  O7_31 
REMARK   13  A    between atoms: C12_30  and  C13_33 
REMARK   14  A    between atoms: C17_41  and  O12_42 
REMARK   15  A    between atoms: N4_44  and  O13_45 
ROOT
HETATM    1  C4  UNL     1      18.700  -1.544  16.678  1.00  0.00     0.194 C 
HETATM    2  C5  UNL     1      18.939  -0.063  16.929  1.00  0.00     0.222 C 
HETATM    3  C6  UNL     1      19.573   0.020  18.313  1.00  0.00     0.278 C 
HETATM    4  O6  UNL     1      18.645  -0.495  19.171  1.00  0.00    -0.296 OA
HETATM    5  C12 UNL     1      18.376  -1.838  19.053  1.00  0.00     0.285 C 
HETATM    6  C14 UNL     1      17.878  -2.249  17.707  1.00  0.00     0.159 C 
HETATM    7  C15 UNL     1      18.309  -3.737  17.506  1.00  0.00     0.215 C 
HETATM    8  O10 UNL     1      17.494  -4.567  18.319  1.00  0.00    -0.316 OA
HETATM    9  C16 UNL     1      16.109  -4.450  18.178  1.00  0.00     0.304 C 
HETATM   10  O11 UNL     1      15.359  -5.348  18.548  1.00  0.00    -0.261 OA
HETATM   11  C17 UNL     1      15.610  -3.210  17.572  1.00  0.00     0.319 C 
HETATM   12  N4  UNL     1      16.486  -2.114  17.461  1.00  0.00    -0.140 NA
ENDROOT
BRANCH   1  13
HETATM   13  O1  UNL     1      18.341  -1.786  15.388  1.00  0.00    -0.328 OA
BRANCH  13  14
HETATM   14  C3  UNL     1      19.325  -1.794  14.450  1.00  0.00     0.471 C 
HETATM   15  N2  UNL     1      18.896  -0.813  13.429  1.00  0.00    -0.021 N 
HETATM   16  C2  UNL     1      19.531  -1.291  12.221  1.00  0.00     0.299 C 
ATOM     17  H22 UNL     1      19.103   0.158  13.661  1.00  0.00     0.283 HD
ATOM     18  H21 UNL     1      17.886  -0.691  13.357  1.00  0.00     0.283 HD
HETATM   19  C1  UNL     1      19.609  -2.774  12.463  1.00  0.00     0.348 C 
HETATM   20  O14 UNL     1      19.398  -2.989  13.802  1.00  0.00    -0.304 OA
BRANCH  19  21
HETATM   21  N1  UNL     1      20.893  -3.269  12.013  1.00  0.00    -0.051 N 
ATOM     22  H13 UNL     1      20.980  -3.249  10.998  1.00  0.00     0.277 HD
ATOM     23  H12 UNL     1      21.654  -2.628  12.238  1.00  0.00     0.277 HD
ATOM     24  H11 UNL     1      21.051  -4.202  12.395  1.00  0.00     0.277 HD
ENDBRANCH  19  21
ENDBRANCH  13  14
ENDBRANCH   1  13
BRANCH   2  25
HETATM   25  O2  UNL     1      17.848   0.734  16.881  1.00  0.00    -0.387 OA
ATOM     26  H2  UNL     1      17.227   0.636  17.593  1.00  0.00     0.210 HD
ENDBRANCH   2  25
BRANCH   3  27
HETATM   27  O3  UNL     1      20.788  -0.733  18.289  1.00  0.00    -0.356 OA
ATOM     28  H3  UNL     1      21.498  -0.153  18.540  1.00  0.00     0.213 HD
ENDBRANCH   3  27
BRANCH   3  29
HETATM   29  C7  UNL     1      19.948   1.383  18.671  1.00  0.00     0.283 C 
HETATM   30  O4  UNL     1      19.036   2.292  18.690  1.00  0.00    -0.267 OA
HETATM   31  N3  UNL     1      21.230   1.827  19.004  1.00  0.00    -0.356 N 
ATOM     32  H3  UNL     1      22.003   1.162  19.006  1.00  0.00     0.162 HD
BRANCH  31  33
HETATM   33  C8  UNL     1      21.484   3.207  19.346  1.00  0.00     0.123 C 
BRANCH  33  34
HETATM   34  C9  UNL     1      22.379   3.332  20.559  1.00  0.00     0.022 C 
BRANCH  34  35
HETATM   35  C10 UNL     1      22.752   2.011  21.142  1.00  0.00     0.028 C 
BRANCH  35  36
HETATM   36  C11 UNL     1      24.087   2.025  21.842  1.00  0.00     0.164 C 
BRANCH  36  37
HETATM   37  O5  UNL     1      23.866   2.516  23.145  1.00  0.00    -0.401 OA
ATOM     38  H5  UNL     1      24.396   1.993  23.735  1.00  0.00     0.209 HD
ENDBRANCH  36  37
ENDBRANCH  35  36
ENDBRANCH  34  35
ENDBRANCH  33  34
ENDBRANCH  31  33
ENDBRANCH   3  29
BRANCH   5  39
HETATM   39  O7  UNL     1      19.619  -2.534  19.184  1.00  0.00    -0.355 OA
ATOM     40  H7  UNL     1      19.487  -3.231  19.815  1.00  0.00     0.213 HD
ENDBRANCH   5  39
BRANCH   5  41
HETATM   41  C13 UNL     1      17.593  -2.309  20.215  1.00  0.00     0.241 C 
HETATM   42  O8  UNL     1      18.107  -3.142  20.983  1.00  0.00    -0.644 OA
HETATM   43  O9  UNL     1      16.327  -1.874  20.487  1.00  0.00    -0.644 OA
ENDBRANCH   5  41
BRANCH  12  44
HETATM   44  O13 UNL     1      16.216  -1.543  16.236  1.00  0.00    -0.309 OA
ATOM     45  H13 UNL     1      15.509  -1.981  15.776  1.00  0.00     0.237 HD
ENDBRANCH  12  44
BRANCH  11  46
HETATM   46  O12 UNL     1      14.345  -2.852  18.113  1.00  0.00    -0.370 OA
ATOM     47  H12 UNL     1      13.852  -2.317  17.502  1.00  0.00     0.212 HD
ENDBRANCH  11  46
TORSDOF 15
ENDMDL
MODEL 3
REMARK VINA RESULT: -5.524454506      2.999      5.407
REMARK  15 active torsions:
REMARK  status: ('A' for Active; 'I' for Inactive)
REMARK    1  A    between atoms: N1_1  and  C1_5 
REMARK    2  A    between atoms: C3_10  and  O1_11 
REMARK    3  A    between atoms: O1_11  and  C4_12 
REMARK    4  A    between atoms: C5_13  and  O2_14 
REMARK    5  A    between atoms: C6_16  and  O3_17 
REMARK    6  A    between atoms: C6_16  and  C7_19 
REMARK       I    between atoms: C7_19  and  N3_21 
REMARK    7  A    between atoms: N3_21  and  C8_23 
REMARK    8  A    between atoms: C8_23  and  C9_24 
REMARK    9  A    between atoms: C9_24  and  C10_25 
REMARK   10  A    between atoms: C10_25  and  C11_26 
REMARK   11  A    between atoms: C11_26  and  O5_27 
REMARK   12  A    between atoms: C12_30  and  O7_31 
REMARK   13  A    between atoms: C12_30  and  C13_33 
REMARK   14  A    between atoms: C17_41  and  O12_42 
REMARK   15  A    between atoms: N4_44  and  O13_45 
ROOT
HETATM    1  C4  UNL     1      20.534  -3.148  12.925  1.00  0.00     0.194 C 
HETATM    2  C5  UNL     1      19.872  -1.844  13.344  1.00  0.00     0.222 C 
HETATM    3  C6  UNL     1      19.588  -1.991  14.835  1.00  0.00     0.278 C 
HETATM    4  O6  UNL     1      18.734  -3.050  14.941  1.00  0.00    -0.296 OA
HETATM    5  C12 UNL     1      19.241  -4.286  14.616  1.00  0.00     0.285 C 
HETATM    6  C14 UNL     1      19.760  -4.390  13.221  1.00  0.00     0.159 C 
HETATM    7  C15 UNL     1      20.882  -5.477  13.241  1.00  0.00     0.215 C 
HETATM    8  O10 UNL     1      20.281  -6.758  13.363  1.00  0.00    -0.316 OA
HETATM    9  C16 UNL     1      19.301  -7.103  12.429  1.00  0.00     0.304 C 
HETATM   10  O11 UNL     1      19.004  -8.277  12.231  1.00  0.00    -0.261 OA
HETATM   11  C17 UNL     1      18.657  -5.998  11.710  1.00  0.00     0.319 C 
HETATM   12  N4  UNL     1      18.819  -4.689  12.200  1.00  0.00    -0.140 NA
ENDROOT
BRANCH   1  13
HETATM   13  O1  UNL     1      21.044  -3.073  11.664  1.00  0.00    -0.328 OA
BRANCH  13  14
HETATM   14  C3  UNL     1      21.963  -2.103  11.413  1.00  0.00     0.471 C 
HETATM   15  N2  UNL     1      22.531  -2.442  10.089  1.00  0.00    -0.021 N 
HETATM   16  C2  UNL     1      23.858  -1.869  10.141  1.00  0.00     0.299 C 
ATOM     17  H22 UNL     1      21.968  -2.137   9.296  1.00  0.00     0.283 HD
ATOM     18  H21 UNL     1      22.506  -3.435   9.860  1.00  0.00     0.283 HD
HETATM   19  C1  UNL     1      24.182  -1.937  11.608  1.00  0.00     0.348 C 
HETATM   20  O14 UNL     1      23.007  -2.156  12.284  1.00  0.00    -0.304 OA
BRANCH  19  21
HETATM   21  N1  UNL     1      24.840  -0.714  12.015  1.00  0.00    -0.051 N 
ATOM     22  H13 UNL     1      25.580  -0.441  11.368  1.00  0.00     0.277 HD
ATOM     23  H12 UNL     1      24.239   0.103  11.902  1.00  0.00     0.277 HD
ATOM     24  H11 UNL     1      25.181  -0.812  12.971  1.00  0.00     0.277 HD
ENDBRANCH  19  21
ENDBRANCH  13  14
ENDBRANCH   1  13
BRANCH   2  25
HETATM   25  O2  UNL     1      18.732  -1.519  12.695  1.00  0.00    -0.387 OA
ATOM     26  H2  UNL     1      18.204  -0.838  13.093  1.00  0.00     0.210 HD
ENDBRANCH   2  25
BRANCH   3  27
HETATM   27  O3  UNL     1      20.833  -2.211  15.502  1.00  0.00    -0.356 OA
ATOM     28  H3  UNL     1      20.680  -2.819  16.216  1.00  0.00     0.213 HD
ENDBRANCH   3  27
BRANCH   3  29
HETATM   29  C7  UNL     1      19.027  -0.777  15.415  1.00  0.00     0.283 C 
HETATM   30  O4  UNL     1      17.809  -0.463  15.137  1.00  0.00    -0.267 OA
HETATM   31  N3  UNL     1      19.685   0.113  16.265  1.00  0.00    -0.356 N 
ATOM     32  H3  UNL     1      20.654  -0.070  16.526  1.00  0.00     0.162 HD
BRANCH  31  33
HETATM   33  C8  UNL     1      19.024   1.288  16.784  1.00  0.00     0.123 C 
BRANCH  33  34
HETATM   34  C9  UNL     1      18.928   1.261  18.294  1.00  0.00     0.022 C 
BRANCH  34  35
HETATM   35  C10 UNL     1      19.028  -0.116  18.855  1.00  0.00     0.028 C 
BRANCH  35  36
HETATM   36  C11 UNL     1      17.686  -0.742  19.140  1.00  0.00     0.164 C 
BRANCH  36  37
HETATM   37  O5  UNL     1      16.831  -0.388  18.076  1.00  0.00    -0.401 OA
ATOM     38  H5  UNL     1      15.988  -0.792  18.249  1.00  0.00     0.209 HD
ENDBRANCH  36  37
ENDBRANCH  35  36
ENDBRANCH  34  35
ENDBRANCH  33  34
ENDBRANCH  31  33
ENDBRANCH   3  29
BRANCH   5  39
HETATM   39  O7  UNL     1      20.400  -4.495  15.428  1.00  0.00    -0.355 OA
ATOM     40  H7  UNL     1      20.757  -5.344  15.196  1.00  0.00     0.213 HD
ENDBRANCH   5  39
BRANCH   5  41
HETATM   41  C13 UNL     1      18.315  -5.352  15.055  1.00  0.00     0.241 C 
HETATM   42  O8  UNL     1      18.704  -6.162  15.915  1.00  0.00    -0.644 OA
HETATM   43  O9  UNL     1      17.050  -5.492  14.559  1.00  0.00    -0.644 OA
ENDBRANCH   5  41
BRANCH  12  44
HETATM   44  O13 UNL     1      18.972  -3.890  11.088  1.00  0.00    -0.309 OA
ATOM     45  H13 UNL     1      18.248  -3.285  10.968  1.00  0.00     0.237 HD
ENDBRANCH  12  44
BRANCH  11  46
HETATM   46  O12 UNL     1      17.303  -6.309  11.405  1.00  0.00    -0.370 OA
ATOM     47  H12 UNL     1      16.711  -5.886  12.017  1.00  0.00     0.212 HD
ENDBRANCH  11  46
TORSDOF 15
ENDMDL
MODEL 4
REMARK VINA RESULT: -5.363978835      1.240      1.376
REMARK  15 active torsions:
REMARK  status: ('A' for Active; 'I' for Inactive)
REMARK    1  A    between atoms: N1_1  and  C1_5 
REMARK    2  A    between atoms: C3_10  and  O1_11 
REMARK    3  A    between atoms: O1_11  and  C4_12 
REMARK    4  A    between atoms: C5_13  and  O2_14 
REMARK    5  A    between atoms: C6_16  and  O3_17 
REMARK    6  A    between atoms: C6_16  and  C7_19 
REMARK       I    between atoms: C7_19  and  N3_21 
REMARK    7  A    between atoms: N3_21  and  C8_23 
REMARK    8  A    between atoms: C8_23  and  C9_24 
REMARK    9  A    between atoms: C9_24  and  C10_25 
REMARK   10  A    between atoms: C10_25  and  C11_26 
REMARK   11  A    between atoms: C11_26  and  O5_27 
REMARK   12  A    between atoms: C12_30  and  O7_31 
REMARK   13  A    between atoms: C12_30  and  C13_33 
REMARK   14  A    between atoms: C17_41  and  O12_42 
REMARK   15  A    between atoms: N4_44  and  O13_45 
ROOT
HETATM    1  C4  UNL     1      19.159  -0.752  15.964  1.00  0.00     0.194 C 
HETATM    2  C5  UNL     1      19.150   0.765  16.063  1.00  0.00     0.222 C 
HETATM    3  C6  UNL     1      19.771   1.091  17.417  1.00  0.00     0.278 C 
HETATM    4  O6  UNL     1      18.948   0.518  18.343  1.00  0.00    -0.296 OA
HETATM    5  C12 UNL     1      18.904  -0.856  18.363  1.00  0.00     0.285 C 
HETATM    6  C14 UNL     1      18.472  -1.477  17.076  1.00  0.00     0.159 C 
HETATM    7  C15 UNL     1      19.144  -2.886  17.012  1.00  0.00     0.215 C 
HETATM    8  O10 UNL     1      18.483  -3.753  17.921  1.00  0.00    -0.316 OA
HETATM    9  C16 UNL     1      17.097  -3.880  17.803  1.00  0.00     0.304 C 
HETATM   10  O11 UNL     1      16.510  -4.848  18.276  1.00  0.00    -0.261 OA
HETATM   11  C17 UNL     1      16.395  -2.807  17.090  1.00  0.00     0.319 C 
HETATM   12  N4  UNL     1      17.075  -1.598  16.851  1.00  0.00    -0.140 NA
ENDROOT
BRANCH   1  13
HETATM   13  O1  UNL     1      18.835  -1.179  14.712  1.00  0.00    -0.328 OA
BRANCH  13  14
HETATM   14  C3  UNL     1      19.847  -1.326  13.816  1.00  0.00     0.471 C 
HETATM   15  N2  UNL     1      19.653  -0.237  12.833  1.00  0.00    -0.021 N 
HETATM   16  C2  UNL     1      20.249  -0.768  11.627  1.00  0.00     0.299 C 
ATOM     17  H22 UNL     1      20.022   0.668  13.125  1.00  0.00     0.283 HD
ATOM     18  H21 UNL     1      18.688   0.073  12.728  1.00  0.00     0.283 HD
HETATM   19  C1  UNL     1      20.044  -2.250  11.791  1.00  0.00     0.348 C 
HETATM   20  O14 UNL     1      19.733  -2.483  13.108  1.00  0.00    -0.304 OA
BRANCH  19  21
HETATM   21  N1  UNL     1      21.237  -2.952  11.368  1.00  0.00    -0.051 N 
ATOM     22  H13 UNL     1      22.076  -2.380  11.463  1.00  0.00     0.277 HD
ATOM     23  H12 UNL     1      21.495  -3.698  12.014  1.00  0.00     0.277 HD
ATOM     24  H11 UNL     1      21.111  -3.294  10.415  1.00  0.00     0.277 HD
ENDBRANCH  19  21
ENDBRANCH  13  14
ENDBRANCH   1  13
BRANCH   2  25
HETATM   25  O2  UNL     1      17.941   1.362  15.963  1.00  0.00    -0.387 OA
ATOM     26  H2  UNL     1      17.462   1.476  16.775  1.00  0.00     0.210 HD
ENDBRANCH   2  25
BRANCH   3  27
HETATM   27  O3  UNL     1      21.093   0.549  17.438  1.00  0.00    -0.356 OA
ATOM     28  H3  UNL     1      21.186   0.031  18.230  1.00  0.00     0.213 HD
ENDBRANCH   3  27
BRANCH   3  29
HETATM   29  C7  UNL     1      19.917   2.525  17.630  1.00  0.00     0.283 C 
HETATM   30  O4  UNL     1      20.189   2.951  18.814  1.00  0.00    -0.267 OA
HETATM   31  N3  UNL     1      19.788   3.522  16.660  1.00  0.00    -0.356 N 
ATOM     32  H3  UNL     1      19.569   3.257  15.700  1.00  0.00     0.162 HD
BRANCH  31  33
HETATM   33  C8  UNL     1      19.958   4.918  16.988  1.00  0.00     0.123 C 
BRANCH  33  34
HETATM   34  C9  UNL     1      19.203   5.818  16.033  1.00  0.00     0.022 C 
BRANCH  34  35
HETATM   35  C10 UNL     1      19.514   5.533  14.603  1.00  0.00     0.028 C 
BRANCH  35  36
HETATM   36  C11 UNL     1      18.309   5.098  13.808  1.00  0.00     0.164 C 
BRANCH  36  37
HETATM   37  O5  UNL     1      17.798   3.941  14.431  1.00  0.00    -0.401 OA
ATOM     38  H5  UNL     1      16.857   3.943  14.294  1.00  0.00     0.209 HD
ENDBRANCH  36  37
ENDBRANCH  35  36
ENDBRANCH  34  35
ENDBRANCH  33  34
ENDBRANCH  31  33
ENDBRANCH   3  29
BRANCH   5  39
HETATM   39  O7  UNL     1      20.247  -1.321  18.532  1.00  0.00    -0.355 OA
ATOM     40  H7  UNL     1      20.514  -1.715  17.711  1.00  0.00     0.213 HD
ENDBRANCH   5  39
BRANCH   5  41
HETATM   41  C13 UNL     1      18.219  -1.330  19.584  1.00  0.00     0.241 C 
HETATM   42  O8  UNL     1      18.873  -1.972  20.425  1.00  0.00    -0.644 OA
HETATM   43  O9  UNL     1      16.896  -1.099  19.835  1.00  0.00    -0.644 OA
ENDBRANCH   5  41
BRANCH  12  44
HETATM   44  O13 UNL     1      16.706  -1.205  15.583  1.00  0.00    -0.309 OA
ATOM     45  H13 UNL     1      17.380  -1.379  14.936  1.00  0.00     0.237 HD
ENDBRANCH  12  44
BRANCH  11  46
HETATM   46  O12 UNL     1      15.092  -2.610  17.623  1.00  0.00    -0.370 OA
ATOM     47  H12 UNL     1      14.515  -2.220  16.976  1.00  0.00     0.212 HD
ENDBRANCH  11  46
TORSDOF 15
ENDMDL
MODEL 5
REMARK VINA RESULT: -5.363335358      4.149      5.889
REMARK  15 active torsions:
REMARK  status: ('A' for Active; 'I' for Inactive)
REMARK    1  A    between atoms: N1_1  and  C1_5 
REMARK    2  A    between atoms: C3_10  and  O1_11 
REMARK    3  A    between atoms: O1_11  and  C4_12 
REMARK    4  A    between atoms: C5_13  and  O2_14 
REMARK    5  A    between atoms: C6_16  and  O3_17 
REMARK    6  A    between atoms: C6_16  and  C7_19 
REMARK       I    between atoms: C7_19  and  N3_21 
REMARK    7  A    between atoms: N3_21  and  C8_23 
REMARK    8  A    between atoms: C8_23  and  C9_24 
REMARK    9  A    between atoms: C9_24  and  C10_25 
REMARK   10  A    between atoms: C10_25  and  C11_26 
REMARK   11  A    between atoms: C11_26  and  O5_27 
REMARK   12  A    between atoms: C12_30  and  O7_31 
REMARK   13  A    between atoms: C12_30  and  C13_33 
REMARK   14  A    between atoms: C17_41  and  O12_42 
REMARK   15  A    between atoms: N4_44  and  O13_45 
ROOT
HETATM    1  C4  UNL     1      22.052  -2.017  12.667  1.00  0.00     0.194 C 
HETATM    2  C5  UNL     1      22.215  -0.623  12.081  1.00  0.00     0.222 C 
HETATM    3  C6  UNL     1      21.579   0.324  13.095  1.00  0.00     0.278 C 
HETATM    4  O6  UNL     1      20.267  -0.046  13.166  1.00  0.00    -0.296 OA
HETATM    5  C12 UNL     1      20.003  -1.279  13.712  1.00  0.00     0.285 C 
HETATM    6  C14 UNL     1      20.651  -2.419  12.998  1.00  0.00     0.159 C 
HETATM    7  C15 UNL     1      20.876  -3.541  14.061  1.00  0.00     0.215 C 
HETATM    8  O10 UNL     1      19.627  -4.141  14.370  1.00  0.00    -0.316 OA
HETATM    9  C16 UNL     1      18.868  -4.636  13.308  1.00  0.00     0.304 C 
HETATM   10  O11 UNL     1      17.988  -5.471  13.497  1.00  0.00    -0.261 OA
HETATM   11  C17 UNL     1      19.178  -4.111  11.973  1.00  0.00     0.319 C 
HETATM   12  N4  UNL     1      19.969  -2.951  11.872  1.00  0.00    -0.140 NA
ENDROOT
BRANCH   1  13
HETATM   13  O1  UNL     1      22.769  -2.943  11.974  1.00  0.00    -0.328 OA
BRANCH  13  14
HETATM   14  C3  UNL     1      23.876  -2.516  11.311  1.00  0.00     0.471 C 
HETATM   15  N2  UNL     1      23.582  -2.743   9.879  1.00  0.00    -0.021 N 
HETATM   16  C2  UNL     1      24.893  -2.922   9.295  1.00  0.00     0.299 C 
ATOM     17  H22 UNL     1      23.019  -2.013   9.441  1.00  0.00     0.283 HD
ATOM     18  H21 UNL     1      22.929  -3.504   9.696  1.00  0.00     0.283 HD
HETATM   19  C1  UNL     1      25.678  -3.506  10.438  1.00  0.00     0.348 C 
HETATM   20  O14 UNL     1      24.963  -3.287  11.589  1.00  0.00    -0.304 OA
BRANCH  19  21
HETATM   21  N1  UNL     1      26.994  -2.905  10.476  1.00  0.00    -0.051 N 
ATOM     22  H13 UNL     1      27.407  -2.821   9.547  1.00  0.00     0.277 HD
ATOM     23  H12 UNL     1      26.958  -1.913  10.710  1.00  0.00     0.277 HD
ATOM     24  H11 UNL     1      27.590  -3.430  11.116  1.00  0.00     0.277 HD
ENDBRANCH  19  21
ENDBRANCH  13  14
ENDBRANCH   1  13
BRANCH   2  25
HETATM   25  O2  UNL     1      21.664  -0.419  10.864  1.00  0.00    -0.387 OA
ATOM     26  H2  UNL     1      22.043   0.280  10.345  1.00  0.00     0.210 HD
ENDBRANCH   2  25
BRANCH   3  27
HETATM   27  O3  UNL     1      22.269   0.169  14.337  1.00  0.00    -0.356 OA
ATOM     28  H3  UNL     1      22.624   1.016  14.584  1.00  0.00     0.213 HD
ENDBRANCH   3  27
BRANCH   3  29
HETATM   29  C7  UNL     1      21.733   1.724  12.718  1.00  0.00     0.283 C 
HETATM   30  O4  UNL     1      22.897   2.147  12.366  1.00  0.00    -0.267 OA
HETATM   31  N3  UNL     1      20.723   2.688  12.696  1.00  0.00    -0.356 N 
ATOM     32  H3  UNL     1      19.776   2.424  12.966  1.00  0.00     0.162 HD
BRANCH  31  33
HETATM   33  C8  UNL     1      20.992   4.051  12.300  1.00  0.00     0.123 C 
BRANCH  33  34
HETATM   34  C9  UNL     1      19.734   4.893  12.285  1.00  0.00     0.022 C 
BRANCH  34  35
HETATM   35  C10 UNL     1      19.413   5.477  13.618  1.00  0.00     0.028 C 
BRANCH  35  36
HETATM   36  C11 UNL     1      18.122   4.959  14.199  1.00  0.00     0.164 C 
BRANCH  36  37
HETATM   37  O5  UNL     1      18.356   3.629  14.606  1.00  0.00    -0.401 OA
ATOM     38  H5  UNL     1      17.771   3.452  15.334  1.00  0.00     0.209 HD
ENDBRANCH  36  37
ENDBRANCH  35  36
ENDBRANCH  34  35
ENDBRANCH  33  34
ENDBRANCH  31  33
ENDBRANCH   3  29
BRANCH   5  39
HETATM   39  O7  UNL     1      20.601  -1.305  15.011  1.00  0.00    -0.355 OA
ATOM     40  H7  UNL     1      20.430  -0.464  15.417  1.00  0.00     0.213 HD
ENDBRANCH   5  39
BRANCH   5  41
HETATM   41  C13 UNL     1      18.559  -1.417  13.994  1.00  0.00     0.241 C 
HETATM   42  O8  UNL     1      18.190  -1.528  15.177  1.00  0.00    -0.644 OA
HETATM   43  O9  UNL     1      17.605  -1.429  13.016  1.00  0.00    -0.644 OA
ENDBRANCH   5  41
BRANCH  12  44
HETATM   44  O13 UNL     1      20.804  -3.162  10.797  1.00  0.00    -0.309 OA
ATOM     45  H13 UNL     1      20.341  -3.481  10.031  1.00  0.00     0.237 HD
ENDBRANCH  12  44
BRANCH  11  46
HETATM   46  O12 UNL     1      18.010  -4.054  11.165  1.00  0.00    -0.370 OA
ATOM     47  H12 UNL     1      18.221  -4.207  10.251  1.00  0.00     0.212 HD
ENDBRANCH  11  46
TORSDOF 15
ENDMDL
