MODEL 1
REMARK VINA RESULT: -6.583880123      0.000      0.000
REMARK  14 active torsions:
REMARK  status: ('A' for Active; 'I' for Inactive)
REMARK    1  A    between atoms: C2_2  and  N1_3 
REMARK    2  A    between atoms: N1_3  and  C3_4 
REMARK    3  A    between atoms: N1_3  and  C5_6 
REMARK    4  A    between atoms: N1_3  and  C7_8 
REMARK    5  A    between atoms: C7_8  and  C8_9 
REMARK    6  A    between atoms: C8_9  and  C9_10 
REMARK    7  A    between atoms: C9_10  and  C10_11 
REMARK    8  A    between atoms: C10_11  and  C11_12 
REMARK    9  A    between atoms: C11_12  and  O1_13 
REMARK   10  A    between atoms: C11_12  and  C12_15 
REMARK   11  A    between atoms: C17_20  and  C18_21 
REMARK   12  A    between atoms: C18_21  and  O3_23 
REMARK   13  A    between atoms: O3_23  and  C19_24 
REMARK   14  A    between atoms: C19_24  and  C20_26 
ROOT
HETATM    1  C12 UNL     1      13.190 -21.529   5.218  1.00  0.00    -0.025 C 
HETATM    2  C13 UNL     1      13.344 -20.800   4.141  1.00  0.00    -0.060 C 
HETATM    3  C14 UNL     1      14.408 -20.755   3.131  1.00  0.00     0.040 C 
HETATM    4  C15 UNL     1      13.882 -19.874   2.008  1.00  0.00     0.000 C 
HETATM    5  C16 UNL     1      15.036 -19.091   1.458  1.00  0.00     0.011 C 
HETATM    6  C17 UNL     1      12.784 -19.054   2.591  1.00  0.00     0.103 C 
HETATM    7  C24 UNL     1      12.304 -19.782   3.781  1.00  0.00     0.004 C 
HETATM    8  C25 UNL     1      11.029 -20.582   3.459  1.00  0.00     0.016 C 
HETATM    9  C26 UNL     1      10.151 -20.492   4.677  1.00  0.00     0.007 C 
HETATM   10  C27 UNL     1      11.166 -20.141   5.754  1.00  0.00    -0.001 C 
HETATM   11  C28 UNL     1      11.965 -21.332   6.058  1.00  0.00     0.046 C 
HETATM   12  C29 UNL     1      11.949 -19.051   4.996  1.00  0.00    -0.031 C 
HETATM   13  C30 UNL     1      10.976 -17.923   4.882  1.00  0.00     0.016 C 
HETATM   14  C31 UNL     1      13.119 -18.713   5.900  1.00  0.00     0.016 C 
ENDROOT
BRANCH   1  15
HETATM   15  C11 UNL     1      14.108 -22.537   5.696  1.00  0.00     0.050 C 
BRANCH  15  16
HETATM   16  C10 UNL     1      14.205 -23.955   5.363  1.00  0.00     0.065 C 
BRANCH  16  17
HETATM   17  C9  UNL     1      12.866 -24.644   5.313  1.00  0.00     0.008 C 
BRANCH  17  18
HETATM   18  C8  UNL     1      12.379 -24.984   3.938  1.00  0.00     0.028 C 
BRANCH  18  19
HETATM   19  C7  UNL     1      13.515 -25.186   3.010  1.00  0.00     0.237 C 
BRANCH  19  20
HETATM   20  N1  UNL     1      13.336 -24.620   1.684  1.00  0.00    -0.068 N 
BRANCH  20  21
HETATM   21  C2  UNL     1      14.516 -23.913   1.210  1.00  0.00     0.233 C 
HETATM   22  C1  UNL     1      15.729 -24.075   2.056  1.00  0.00     0.035 C 
ENDBRANCH  20  21
BRANCH  20  23
HETATM   23  C3  UNL     1      12.308 -23.597   1.803  1.00  0.00     0.233 C 
HETATM   24  C4  UNL     1      12.105 -22.771   0.582  1.00  0.00     0.035 C 
ENDBRANCH  20  23
BRANCH  20  25
HETATM   25  C5  UNL     1      13.010 -25.617   0.717  1.00  0.00     0.233 C 
HETATM   26  C6  UNL     1      13.602 -26.961   1.065  1.00  0.00     0.035 C 
ENDBRANCH  20  25
ENDBRANCH  19  20
ENDBRANCH  18  19
ENDBRANCH  17  18
ENDBRANCH  16  17
ENDBRANCH  15  16
BRANCH  15  27
HETATM   27  O1  UNL     1      14.974 -22.083   6.560  1.00  0.00    -0.364 OA
ATOM     28  H1  UNL     1      15.119 -21.144   6.559  1.00  0.00     0.217 HD
ENDBRANCH  15  27
ENDBRANCH   1  15
BRANCH   6  29
HETATM   29  C18 UNL     1      13.090 -17.628   2.719  1.00  0.00     0.272 C 
HETATM   30  O2  UNL     1      13.982 -17.125   3.451  1.00  0.00    -0.264 OA
BRANCH  29  31
HETATM   31  O3  UNL     1      12.366 -16.654   1.988  1.00  0.00    -0.244 OA
BRANCH  31  32
HETATM   32  C19 UNL     1      11.607 -16.938   0.886  1.00  0.00     0.274 C 
HETATM   33  O4  UNL     1      12.171 -17.291  -0.164  1.00  0.00    -0.264 OA
BRANCH  32  34
HETATM   34  C20 UNL     1      10.135 -16.811   0.987  1.00  0.00     0.037 C 
HETATM   35  C21 UNL     1       9.554 -16.364  -0.350  1.00  0.00     0.025 C 
HETATM   36  C22 UNL     1       9.461 -18.139   1.306  1.00  0.00     0.025 C 
HETATM   37  C23 UNL     1       9.826 -15.787   2.054  1.00  0.00     0.025 C 
ENDBRANCH  32  34
ENDBRANCH  31  32
ENDBRANCH  29  31
ENDBRANCH   6  29
TORSDOF 14
ENDMDL
MODEL 2
REMARK VINA RESULT: -6.521115436      2.737      7.202
REMARK  14 active torsions:
REMARK  status: ('A' for Active; 'I' for Inactive)
REMARK    1  A    between atoms: C2_2  and  N1_3 
REMARK    2  A    between atoms: N1_3  and  C3_4 
REMARK    3  A    between atoms: N1_3  and  C5_6 
REMARK    4  A    between atoms: N1_3  and  C7_8 
REMARK    5  A    between atoms: C7_8  and  C8_9 
REMARK    6  A    between atoms: C8_9  and  C9_10 
REMARK    7  A    between atoms: C9_10  and  C10_11 
REMARK    8  A    between atoms: C10_11  and  C11_12 
REMARK    9  A    between atoms: C11_12  and  O1_13 
REMARK   10  A    between atoms: C11_12  and  C12_15 
REMARK   11  A    between atoms: C17_20  and  C18_21 
REMARK   12  A    between atoms: C18_21  and  O3_23 
REMARK   13  A    between atoms: O3_23  and  C19_24 
REMARK   14  A    between atoms: C19_24  and  C20_26 
ROOT
HETATM    1  C12 UNL     1      13.981 -21.176   6.155  1.00  0.00    -0.025 C 
HETATM    2  C13 UNL     1      14.484 -21.830   5.139  1.00  0.00    -0.060 C 
HETATM    3  C14 UNL     1      15.275 -21.390   3.984  1.00  0.00     0.040 C 
HETATM    4  C15 UNL     1      15.755 -22.659   3.297  1.00  0.00     0.000 C 
HETATM    5  C16 UNL     1      15.756 -22.411   1.819  1.00  0.00     0.011 C 
HETATM    6  C17 UNL     1      14.854 -23.755   3.753  1.00  0.00     0.103 C 
HETATM    7  C24 UNL     1      14.266 -23.309   5.030  1.00  0.00     0.004 C 
HETATM    8  C25 UNL     1      15.010 -23.932   6.225  1.00  0.00     0.016 C 
HETATM    9  C26 UNL     1      13.966 -24.238   7.264  1.00  0.00     0.007 C 
HETATM   10  C27 UNL     1      12.840 -23.306   6.842  1.00  0.00    -0.001 C 
HETATM   11  C28 UNL     1      13.207 -21.931   7.193  1.00  0.00     0.046 C 
HETATM   12  C29 UNL     1      12.860 -23.581   5.326  1.00  0.00    -0.031 C 
HETATM   13  C30 UNL     1      12.374 -24.988   5.209  1.00  0.00     0.016 C 
HETATM   14  C31 UNL     1      11.881 -22.583   4.736  1.00  0.00     0.016 C 
ENDROOT
BRANCH   1  15
HETATM   15  C11 UNL     1      14.098 -19.755   6.390  1.00  0.00     0.050 C 
BRANCH  15  16
HETATM   16  C10 UNL     1      13.249 -18.654   5.945  1.00  0.00     0.065 C 
BRANCH  16  17
HETATM   17  C9  UNL     1      12.289 -19.052   4.853  1.00  0.00     0.008 C 
BRANCH  17  18
HETATM   18  C8  UNL     1      12.674 -18.605   3.477  1.00  0.00     0.028 C 
BRANCH  18  19
HETATM   19  C7  UNL     1      12.462 -17.148   3.315  1.00  0.00     0.237 C 
BRANCH  19  20
HETATM   20  N1  UNL     1      11.283 -16.778   2.550  1.00  0.00    -0.068 N 
BRANCH  20  21
HETATM   21  C2  UNL     1      11.539 -15.698   1.610  1.00  0.00     0.233 C 
HETATM   22  C1  UNL     1      12.032 -16.129   0.274  1.00  0.00     0.035 C 
ENDBRANCH  20  21
BRANCH  20  23
HETATM   23  C3  UNL     1      10.326 -16.230   3.500  1.00  0.00     0.233 C 
HETATM   24  C4  UNL     1      10.260 -14.744   3.532  1.00  0.00     0.035 C 
ENDBRANCH  20  23
BRANCH  20  25
HETATM   25  C5  UNL     1      10.757 -17.880   1.814  1.00  0.00     0.233 C 
HETATM   26  C6  UNL     1       9.276 -18.063   2.046  1.00  0.00     0.035 C 
ENDBRANCH  20  25
ENDBRANCH  19  20
ENDBRANCH  18  19
ENDBRANCH  17  18
ENDBRANCH  16  17
ENDBRANCH  15  16
BRANCH  15  27
HETATM   27  O1  UNL     1      15.135 -19.433   7.114  1.00  0.00    -0.364 OA
ATOM     28  H1  UNL     1      15.959 -19.842   6.878  1.00  0.00     0.217 HD
ENDBRANCH  15  27
ENDBRANCH   1  15
BRANCH   6  29
HETATM   29  C18 UNL     1      13.964 -24.282   2.717  1.00  0.00     0.272 C 
HETATM   30  O2  UNL     1      13.128 -23.617   2.052  1.00  0.00    -0.264 OA
BRANCH  29  31
HETATM   31  O3  UNL     1      13.978 -25.654   2.367  1.00  0.00    -0.244 OA
BRANCH  31  32
HETATM   32  C19 UNL     1      14.222 -26.115   1.102  1.00  0.00     0.274 C 
HETATM   33  O4  UNL     1      13.289 -26.162   0.282  1.00  0.00    -0.264 OA
BRANCH  32  34
HETATM   34  C20 UNL     1      15.597 -26.542   0.756  1.00  0.00     0.037 C 
HETATM   35  C21 UNL     1      16.115 -25.734  -0.428  1.00  0.00     0.025 C 
HETATM   36  C22 UNL     1      16.583 -26.292   1.890  1.00  0.00     0.025 C 
HETATM   37  C23 UNL     1      15.556 -28.011   0.402  1.00  0.00     0.025 C 
ENDBRANCH  32  34
ENDBRANCH  31  32
ENDBRANCH  29  31
ENDBRANCH   6  29
TORSDOF 14
ENDMDL
MODEL 3
REMARK VINA RESULT: -6.468770557      0.578      1.718
REMARK  14 active torsions:
REMARK  status: ('A' for Active; 'I' for Inactive)
REMARK    1  A    between atoms: C2_2  and  N1_3 
REMARK    2  A    between atoms: N1_3  and  C3_4 
REMARK    3  A    between atoms: N1_3  and  C5_6 
REMARK    4  A    between atoms: N1_3  and  C7_8 
REMARK    5  A    between atoms: C7_8  and  C8_9 
REMARK    6  A    between atoms: C8_9  and  C9_10 
REMARK    7  A    between atoms: C9_10  and  C10_11 
REMARK    8  A    between atoms: C10_11  and  C11_12 
REMARK    9  A    between atoms: C11_12  and  O1_13 
REMARK   10  A    between atoms: C11_12  and  C12_15 
REMARK   11  A    between atoms: C17_20  and  C18_21 
REMARK   12  A    between atoms: C18_21  and  O3_23 
REMARK   13  A    between atoms: O3_23  and  C19_24 
REMARK   14  A    between atoms: C19_24  and  C20_26 
ROOT
HETATM    1  C12 UNL     1      13.189 -21.564   5.267  1.00  0.00    -0.025 C 
HETATM    2  C13 UNL     1      13.347 -20.818   4.203  1.00  0.00    -0.060 C 
HETATM    3  C14 UNL     1      14.399 -20.779   3.180  1.00  0.00     0.040 C 
HETATM    4  C15 UNL     1      13.880 -19.864   2.081  1.00  0.00     0.000 C 
HETATM    5  C16 UNL     1      15.046 -19.098   1.532  1.00  0.00     0.011 C 
HETATM    6  C17 UNL     1      12.810 -19.029   2.695  1.00  0.00     0.103 C 
HETATM    7  C24 UNL     1      12.328 -19.769   3.877  1.00  0.00     0.004 C 
HETATM    8  C25 UNL     1      11.029 -20.531   3.556  1.00  0.00     0.016 C 
HETATM    9  C26 UNL     1      10.170 -20.444   4.787  1.00  0.00     0.007 C 
HETATM   10  C27 UNL     1      11.206 -20.139   5.857  1.00  0.00    -0.001 C 
HETATM   11  C28 UNL     1      11.980 -21.355   6.127  1.00  0.00     0.046 C 
HETATM   12  C29 UNL     1      12.006 -19.054   5.110  1.00  0.00    -0.031 C 
HETATM   13  C30 UNL     1      11.060 -17.901   5.031  1.00  0.00     0.016 C 
HETATM   14  C31 UNL     1      13.195 -18.761   6.005  1.00  0.00     0.016 C 
ENDROOT
BRANCH   1  15
HETATM   15  C11 UNL     1      14.088 -22.604   5.714  1.00  0.00     0.050 C 
BRANCH  15  16
HETATM   16  C10 UNL     1      14.099 -24.032   5.413  1.00  0.00     0.065 C 
BRANCH  16  17
HETATM   17  C9  UNL     1      12.717 -24.631   5.339  1.00  0.00     0.008 C 
BRANCH  17  18
HETATM   18  C8  UNL     1      12.297 -25.088   3.976  1.00  0.00     0.028 C 
BRANCH  18  19
HETATM   19  C7  UNL     1      13.462 -25.177   3.066  1.00  0.00     0.237 C 
BRANCH  19  20
HETATM   20  N1  UNL     1      13.271 -24.570   1.758  1.00  0.00    -0.068 N 
BRANCH  20  21
HETATM   21  C2  UNL     1      12.197 -23.590   1.744  1.00  0.00     0.233 C 
HETATM   22  C1  UNL     1      12.217 -22.651   0.590  1.00  0.00     0.035 C 
ENDBRANCH  20  21
BRANCH  20  23
HETATM   23  C3  UNL     1      12.823 -25.632   0.869  1.00  0.00     0.233 C 
HETATM   24  C4  UNL     1      13.537 -26.927   1.036  1.00  0.00     0.035 C 
ENDBRANCH  20  23
BRANCH  20  25
HETATM   25  C5  UNL     1      14.455 -23.926   1.291  1.00  0.00     0.233 C 
HETATM   26  C6  UNL     1      15.631 -24.163   2.209  1.00  0.00     0.035 C 
ENDBRANCH  20  25
ENDBRANCH  19  20
ENDBRANCH  18  19
ENDBRANCH  17  18
ENDBRANCH  16  17
ENDBRANCH  15  16
BRANCH  15  27
HETATM   27  O1  UNL     1      15.027 -22.171   6.510  1.00  0.00    -0.364 OA
ATOM     28  H1  UNL     1      14.781 -22.035   7.418  1.00  0.00     0.217 HD
ENDBRANCH  15  27
ENDBRANCH   1  15
BRANCH   6  29
HETATM   29  C18 UNL     1      13.153 -17.614   2.846  1.00  0.00     0.272 C 
HETATM   30  O2  UNL     1      13.891 -17.123   3.739  1.00  0.00    -0.264 OA
BRANCH  29  31
HETATM   31  O3  UNL     1      12.651 -16.638   1.950  1.00  0.00    -0.244 OA
BRANCH  31  32
HETATM   32  C19 UNL     1      11.452 -15.998   2.114  1.00  0.00     0.274 C 
HETATM   33  O4  UNL     1      11.356 -15.103   2.971  1.00  0.00    -0.264 OA
BRANCH  32  34
HETATM   34  C20 UNL     1      10.311 -16.400   1.260  1.00  0.00     0.037 C 
HETATM   35  C21 UNL     1       9.404 -17.363   2.016  1.00  0.00     0.025 C 
HETATM   36  C22 UNL     1       9.431 -15.218   0.878  1.00  0.00     0.025 C 
HETATM   37  C23 UNL     1      10.865 -17.072   0.025  1.00  0.00     0.025 C 
ENDBRANCH  32  34
ENDBRANCH  31  32
ENDBRANCH  29  31
ENDBRANCH   6  29
TORSDOF 14
ENDMDL
MODEL 4
REMARK VINA RESULT: -6.465693866      3.716      6.624
REMARK  14 active torsions:
REMARK  status: ('A' for Active; 'I' for Inactive)
REMARK    1  A    between atoms: C2_2  and  N1_3 
REMARK    2  A    between atoms: N1_3  and  C3_4 
REMARK    3  A    between atoms: N1_3  and  C5_6 
REMARK    4  A    between atoms: N1_3  and  C7_8 
REMARK    5  A    between atoms: C7_8  and  C8_9 
REMARK    6  A    between atoms: C8_9  and  C9_10 
REMARK    7  A    between atoms: C9_10  and  C10_11 
REMARK    8  A    between atoms: C10_11  and  C11_12 
REMARK    9  A    between atoms: C11_12  and  O1_13 
REMARK   10  A    between atoms: C11_12  and  C12_15 
REMARK   11  A    between atoms: C17_20  and  C18_21 
REMARK   12  A    between atoms: C18_21  and  O3_23 
REMARK   13  A    between atoms: O3_23  and  C19_24 
REMARK   14  A    between atoms: C19_24  and  C20_26 
ROOT
HETATM    1  C12 UNL     1      12.230 -24.045   0.195  1.00  0.00    -0.025 C 
HETATM    2  C13 UNL     1      13.189 -23.514   0.910  1.00  0.00    -0.060 C 
HETATM    3  C14 UNL     1      14.477 -22.918   0.536  1.00  0.00     0.040 C 
HETATM    4  C15 UNL     1      15.020 -22.266   1.799  1.00  0.00     0.000 C 
HETATM    5  C16 UNL     1      16.509 -22.434   1.799  1.00  0.00     0.011 C 
HETATM    6  C17 UNL     1      14.312 -22.906   2.943  1.00  0.00     0.103 C 
HETATM    7  C24 UNL     1      13.056 -23.460   2.402  1.00  0.00     0.004 C 
HETATM    8  C25 UNL     1      11.873 -22.516   2.684  1.00  0.00     0.016 C 
HETATM    9  C26 UNL     1      10.691 -23.395   2.990  1.00  0.00     0.007 C 
HETATM   10  C27 UNL     1      11.117 -24.706   2.347  1.00  0.00    -0.001 C 
HETATM   11  C28 UNL     1      11.014 -24.575   0.891  1.00  0.00     0.046 C 
HETATM   12  C29 UNL     1      12.570 -24.760   2.859  1.00  0.00    -0.031 C 
HETATM   13  C30 UNL     1      12.425 -24.983   4.329  1.00  0.00     0.016 C 
HETATM   14  C31 UNL     1      13.186 -25.954   2.155  1.00  0.00     0.016 C 
ENDROOT
BRANCH   1  15
HETATM   15  C11 UNL     1      12.220 -24.176  -1.245  1.00  0.00     0.050 C 
BRANCH  15  16
HETATM   16  C10 UNL     1      12.295 -25.369  -2.081  1.00  0.00     0.065 C 
BRANCH  16  17
HETATM   17  C9  UNL     1      13.279 -26.390  -1.569  1.00  0.00     0.008 C 
BRANCH  17  18
HETATM   18  C8  UNL     1      14.721 -26.040  -1.775  1.00  0.00     0.028 C 
BRANCH  18  19
HETATM   19  C7  UNL     1      15.481 -27.206  -2.280  1.00  0.00     0.237 C 
BRANCH  19  20
HETATM   20  N1  UNL     1      16.424 -27.783  -1.336  1.00  0.00    -0.068 N 
BRANCH  20  21
HETATM   21  C2  UNL     1      16.865 -26.832  -0.327  1.00  0.00     0.233 C 
HETATM   22  C1  UNL     1      16.509 -27.189   1.073  1.00  0.00     0.035 C 
ENDBRANCH  20  21
BRANCH  20  23
HETATM   23  C3  UNL     1      17.623 -28.110  -2.094  1.00  0.00     0.233 C 
HETATM   24  C4  UNL     1      18.823 -28.405  -1.264  1.00  0.00     0.035 C 
ENDBRANCH  20  23
BRANCH  20  25
HETATM   25  C5  UNL     1      15.877 -28.913  -0.659  1.00  0.00     0.233 C 
HETATM   26  C6  UNL     1      15.441 -29.994  -1.618  1.00  0.00     0.035 C 
ENDBRANCH  20  25
ENDBRANCH  19  20
ENDBRANCH  18  19
ENDBRANCH  17  18
ENDBRANCH  16  17
ENDBRANCH  15  16
BRANCH  15  27
HETATM   27  O1  UNL     1      12.130 -23.034  -1.869  1.00  0.00    -0.364 OA
ATOM     28  H1  UNL     1      12.793 -22.385  -1.661  1.00  0.00     0.217 HD
ENDBRANCH  15  27
ENDBRANCH   1  15
BRANCH   6  29
HETATM   29  C18 UNL     1      15.154 -23.764   3.777  1.00  0.00     0.272 C 
HETATM   30  O2  UNL     1      15.849 -24.734   3.376  1.00  0.00    -0.264 OA
BRANCH  29  31
HETATM   31  O3  UNL     1      15.256 -23.557   5.175  1.00  0.00    -0.244 OA
BRANCH  31  32
HETATM   32  C19 UNL     1      14.968 -22.370   5.792  1.00  0.00     0.274 C 
HETATM   33  O4  UNL     1      15.501 -21.326   5.379  1.00  0.00    -0.264 OA
BRANCH  32  34
HETATM   34  C20 UNL     1      14.026 -22.375   6.934  1.00  0.00     0.037 C 
HETATM   35  C21 UNL     1      13.899 -23.784   7.503  1.00  0.00     0.025 C 
HETATM   36  C22 UNL     1      14.510 -21.506   8.087  1.00  0.00     0.025 C 
HETATM   37  C23 UNL     1      12.682 -21.897   6.434  1.00  0.00     0.025 C 
ENDBRANCH  32  34
ENDBRANCH  31  32
ENDBRANCH  29  31
ENDBRANCH   6  29
TORSDOF 14
ENDMDL
MODEL 5
REMARK VINA RESULT: -6.458715052      2.663      6.875
REMARK  14 active torsions:
REMARK  status: ('A' for Active; 'I' for Inactive)
REMARK    1  A    between atoms: C2_2  and  N1_3 
REMARK    2  A    between atoms: N1_3  and  C3_4 
REMARK    3  A    between atoms: N1_3  and  C5_6 
REMARK    4  A    between atoms: N1_3  and  C7_8 
REMARK    5  A    between atoms: C7_8  and  C8_9 
REMARK    6  A    between atoms: C8_9  and  C9_10 
REMARK    7  A    between atoms: C9_10  and  C10_11 
REMARK    8  A    between atoms: C10_11  and  C11_12 
REMARK    9  A    between atoms: C11_12  and  O1_13 
REMARK   10  A    between atoms: C11_12  and  C12_15 
REMARK   11  A    between atoms: C17_20  and  C18_21 
REMARK   12  A    between atoms: C18_21  and  O3_23 
REMARK   13  A    between atoms: O3_23  and  C19_24 
REMARK   14  A    between atoms: C19_24  and  C20_26 
ROOT
HETATM    1  C12 UNL     1      13.929 -21.169   6.105  1.00  0.00    -0.025 C 
HETATM    2  C13 UNL     1      14.464 -21.805   5.094  1.00  0.00    -0.060 C 
HETATM    3  C14 UNL     1      15.278 -21.343   3.963  1.00  0.00     0.040 C 
HETATM    4  C15 UNL     1      15.788 -22.599   3.274  1.00  0.00     0.000 C 
HETATM    5  C16 UNL     1      15.822 -22.333   1.799  1.00  0.00     0.011 C 
HETATM    6  C17 UNL     1      14.888 -23.709   3.694  1.00  0.00     0.103 C 
HETATM    7  C24 UNL     1      14.264 -23.285   4.962  1.00  0.00     0.004 C 
HETATM    8  C25 UNL     1      14.986 -23.915   6.167  1.00  0.00     0.016 C 
HETATM    9  C26 UNL     1      13.920 -24.243   7.176  1.00  0.00     0.007 C 
HETATM   10  C27 UNL     1      12.795 -23.319   6.739  1.00  0.00    -0.001 C 
HETATM   11  C28 UNL     1      13.138 -21.944   7.114  1.00  0.00     0.046 C 
HETATM   12  C29 UNL     1      12.855 -23.574   5.220  1.00  0.00    -0.031 C 
HETATM   13  C30 UNL     1      12.386 -24.986   5.075  1.00  0.00     0.016 C 
HETATM   14  C31 UNL     1      11.880 -22.580   4.619  1.00  0.00     0.016 C 
ENDROOT
BRANCH   1  15
HETATM   15  C11 UNL     1      14.026 -19.749   6.359  1.00  0.00     0.050 C 
BRANCH  15  16
HETATM   16  C10 UNL     1      13.152 -18.657   5.943  1.00  0.00     0.065 C 
BRANCH  16  17
HETATM   17  C9  UNL     1      12.722 -18.759   4.502  1.00  0.00     0.008 C 
BRANCH  17  18
HETATM   18  C8  UNL     1      13.205 -17.653   3.616  1.00  0.00     0.028 C 
BRANCH  18  19
HETATM   19  C7  UNL     1      12.624 -17.769   2.259  1.00  0.00     0.237 C 
BRANCH  19  20
HETATM   20  N1  UNL     1      13.589 -17.955   1.188  1.00  0.00    -0.068 N 
BRANCH  20  21
HETATM   21  C2  UNL     1      13.711 -19.345   0.776  1.00  0.00     0.233 C 
HETATM   22  C1  UNL     1      12.539 -20.203   1.096  1.00  0.00     0.035 C 
ENDBRANCH  20  21
BRANCH  20  23
HETATM   23  C3  UNL     1      14.891 -17.610   1.738  1.00  0.00     0.233 C 
HETATM   24  C4  UNL     1      16.022 -18.427   1.221  1.00  0.00     0.035 C 
ENDBRANCH  20  23
BRANCH  20  25
HETATM   25  C5  UNL     1      13.258 -17.186   0.033  1.00  0.00     0.233 C 
HETATM   26  C6  UNL     1      12.160 -16.187   0.310  1.00  0.00     0.035 C 
ENDBRANCH  20  25
ENDBRANCH  19  20
ENDBRANCH  18  19
ENDBRANCH  17  18
ENDBRANCH  16  17
ENDBRANCH  15  16
BRANCH  15  27
HETATM   27  O1  UNL     1      15.067 -19.420   7.073  1.00  0.00    -0.364 OA
ATOM     28  H1  UNL     1      15.638 -18.754   6.706  1.00  0.00     0.217 HD
ENDBRANCH  15  27
ENDBRANCH   1  15
BRANCH   6  29
HETATM   29  C18 UNL     1      14.029 -24.232   2.631  1.00  0.00     0.272 C 
HETATM   30  O2  UNL     1      13.233 -23.560   1.924  1.00  0.00    -0.264 OA
BRANCH  29  31
HETATM   31  O3  UNL     1      14.028 -25.610   2.300  1.00  0.00    -0.244 OA
BRANCH  31  32
HETATM   32  C19 UNL     1      14.238 -26.089   1.035  1.00  0.00     0.274 C 
HETATM   33  O4  UNL     1      13.279 -26.163   0.248  1.00  0.00    -0.264 OA
BRANCH  32  34
HETATM   34  C20 UNL     1      15.606 -26.504   0.652  1.00  0.00     0.037 C 
HETATM   35  C21 UNL     1      16.548 -26.371   1.843  1.00  0.00     0.025 C 
HETATM   36  C22 UNL     1      15.672 -27.967   0.235  1.00  0.00     0.025 C 
HETATM   37  C23 UNL     1      16.068 -25.609  -0.475  1.00  0.00     0.025 C 
ENDBRANCH  32  34
ENDBRANCH  31  32
ENDBRANCH  29  31
ENDBRANCH   6  29
TORSDOF 14
ENDMDL
