MODEL 1
REMARK VINA RESULT: -7.395039939      0.000      0.000
REMARK  4 active torsions:
REMARK  status: ('A' for Active; 'I' for Inactive)
REMARK       I    between atoms: N1_3  and  C3_5 
REMARK       I    between atoms: C3_5  and  N3_9 
REMARK    1  A    between atoms: N3_9  and  C6_12 
REMARK    2  A    between atoms: C6_12  and  C7_13 
REMARK    3  A    between atoms: C7_13  and  N4_14 
REMARK       I    between atoms: N4_14  and  C8_16 
REMARK    4  A    between atoms: C8_16  and  C9_18 
ROOT
HETATM    1  N4  UNL     1      13.876 -19.908 -18.872  1.00  0.00    -0.359 N 
ATOM      2  H4  UNL     1      14.732 -20.377 -19.168  1.00  0.00     0.162 HD
HETATM    3  C8  UNL     1      12.638 -20.540 -19.079  1.00  0.00     0.224 C 
HETATM    4  O1  UNL     1      11.599 -19.927 -18.698  1.00  0.00    -0.273 OA
ENDROOT
BRANCH   1   5
HETATM    5  C7  UNL     1      13.958 -18.626 -18.258  1.00  0.00     0.151 C 
BRANCH   5   6
HETATM    6  C6  UNL     1      15.022 -18.443 -17.243  1.00  0.00     0.266 C 
BRANCH   6   7
HETATM    7  N3  UNL     1      14.639 -18.031 -15.950  1.00  0.00    -0.013 N 
HETATM    8  C3  UNL     1      14.775 -19.175 -15.089  1.00  0.00     0.276 C 
HETATM    9  N1  UNL     1      13.690 -20.026 -14.746  1.00  0.00    -0.336 N 
HETATM   10  N2  UNL     1      15.922 -19.465 -14.589  1.00  0.00    -0.365 N 
HETATM   11  C2  UNL     1      13.547 -20.607 -13.622  1.00  0.00     0.059 C 
ATOM     12  H1  UNL     1      12.972 -20.183 -15.453  1.00  0.00     0.167 HD
HETATM   13  C1  UNL     1      14.473 -20.501 -12.486  1.00  0.00     0.055 C 
ATOM     14  H22 UNL     1      16.019 -20.276 -13.979  1.00  0.00     0.159 HD
ATOM     15  H21 UNL     1      16.701 -18.855 -14.835  1.00  0.00     0.159 HD
HETATM   16  C4  UNL     1      13.196 -17.758 -15.942  1.00  0.00     0.283 C 
HETATM   17  C5  UNL     1      15.396 -16.983 -15.364  1.00  0.00     0.283 C 
ENDBRANCH   6   7
ENDBRANCH   5   6
ENDBRANCH   1   5
BRANCH   3  18
HETATM   18  C9  UNL     1      12.510 -21.871 -19.719  1.00  0.00     0.105 C 
HETATM   19  C10 UNL     1      11.716 -22.807 -18.767  1.00  0.00     0.137 C 
HETATM   20  N5  UNL     1      12.050 -24.148 -19.222  1.00  0.00    -0.359 N 
HETATM   21  C11 UNL     1      12.225 -24.318 -20.627  1.00  0.00     0.232 C 
ATOM     22  H5  UNL     1      12.154 -24.925 -18.570  1.00  0.00     0.162 HD
HETATM   23  O2  UNL     1      12.723 -25.389 -21.042  1.00  0.00    -0.272 OA
HETATM   24  C12 UNL     1      11.848 -23.291 -21.611  1.00  0.00     0.158 C 
HETATM   25 BR1  UNL     1      13.155 -23.335 -23.056  1.00  0.00    -0.080 Br
HETATM   26  C13 UNL     1      11.797 -21.884 -21.025  1.00  0.00    -0.012 C 
HETATM   27  C14 UNL     1      10.301 -21.568 -20.852  1.00  0.00     0.017 C 
HETATM   28  C15 UNL     1      12.363 -20.902 -22.017  1.00  0.00     0.017 C 
ENDBRANCH   3  18
TORSDOF 4
ENDMDL
MODEL 2
REMARK VINA RESULT: -7.071110260      1.207      1.468
REMARK  4 active torsions:
REMARK  status: ('A' for Active; 'I' for Inactive)
REMARK       I    between atoms: N1_3  and  C3_5 
REMARK       I    between atoms: C3_5  and  N3_9 
REMARK    1  A    between atoms: N3_9  and  C6_12 
REMARK    2  A    between atoms: C6_12  and  C7_13 
REMARK    3  A    between atoms: C7_13  and  N4_14 
REMARK       I    between atoms: N4_14  and  C8_16 
REMARK    4  A    between atoms: C8_16  and  C9_18 
ROOT
HETATM    1  N4  UNL     1      13.337 -19.599 -18.909  1.00  0.00    -0.359 N 
ATOM      2  H4  UNL     1      13.477 -19.352 -19.888  1.00  0.00     0.162 HD
HETATM    3  C8  UNL     1      13.161 -20.948 -18.558  1.00  0.00     0.224 C 
HETATM    4  O1  UNL     1      12.992 -21.215 -17.332  1.00  0.00    -0.273 OA
ENDROOT
BRANCH   1   5
HETATM    5  C7  UNL     1      13.324 -18.571 -17.923  1.00  0.00     0.151 C 
BRANCH   5   6
HETATM    6  C6  UNL     1      14.596 -18.324 -17.204  1.00  0.00     0.266 C 
BRANCH   6   7
HETATM    7  N3  UNL     1      14.527 -17.976 -15.839  1.00  0.00    -0.013 N 
HETATM    8  C3  UNL     1      14.704 -19.189 -15.088  1.00  0.00     0.276 C 
HETATM    9  N1  UNL     1      13.622 -19.954 -14.574  1.00  0.00    -0.336 N 
HETATM   10  N2  UNL     1      15.889 -19.627 -14.852  1.00  0.00    -0.365 N 
HETATM   11  C2  UNL     1      13.643 -20.601 -13.478  1.00  0.00     0.059 C 
ATOM     12  H1  UNL     1      12.764 -19.987 -15.125  1.00  0.00     0.167 HD
HETATM   13  C1  UNL     1      14.783 -20.672 -12.554  1.00  0.00     0.055 C 
ATOM     14  H22 UNL     1      16.015 -20.487 -14.319  1.00  0.00     0.159 HD
ATOM     15  H21 UNL     1      16.665 -19.078 -15.221  1.00  0.00     0.159 HD
HETATM   16  C4  UNL     1      13.154 -17.565 -15.519  1.00  0.00     0.283 C 
HETATM   17  C5  UNL     1      15.496 -17.054 -15.367  1.00  0.00     0.283 C 
ENDBRANCH   6   7
ENDBRANCH   5   6
ENDBRANCH   1   5
BRANCH   3  18
HETATM   18  C9  UNL     1      13.164 -22.046 -19.553  1.00  0.00     0.105 C 
HETATM   19  C10 UNL     1      14.111 -23.171 -19.052  1.00  0.00     0.137 C 
HETATM   20  N5  UNL     1      14.424 -23.936 -20.249  1.00  0.00    -0.359 N 
HETATM   21  C11 UNL     1      13.377 -24.074 -21.207  1.00  0.00     0.232 C 
ATOM     22  H5  UNL     1      15.344 -24.352 -20.395  1.00  0.00     0.162 HD
HETATM   23  O2  UNL     1      13.658 -24.529 -22.338  1.00  0.00    -0.272 OA
HETATM   24  C12 UNL     1      11.980 -23.704 -20.926  1.00  0.00     0.158 C 
HETATM   25 BR1  UNL     1      11.214 -22.969 -22.560  1.00  0.00    -0.080 Br
HETATM   26  C13 UNL     1      11.841 -22.682 -19.803  1.00  0.00    -0.012 C 
HETATM   27  C14 UNL     1      11.361 -23.481 -18.580  1.00  0.00     0.017 C 
HETATM   28  C15 UNL     1      10.766 -21.688 -20.155  1.00  0.00     0.017 C 
ENDBRANCH   3  18
TORSDOF 4
ENDMDL
MODEL 3
REMARK VINA RESULT: -6.756246140      1.161      1.958
REMARK  4 active torsions:
REMARK  status: ('A' for Active; 'I' for Inactive)
REMARK       I    between atoms: N1_3  and  C3_5 
REMARK       I    between atoms: C3_5  and  N3_9 
REMARK    1  A    between atoms: N3_9  and  C6_12 
REMARK    2  A    between atoms: C6_12  and  C7_13 
REMARK    3  A    between atoms: C7_13  and  N4_14 
REMARK       I    between atoms: N4_14  and  C8_16 
REMARK    4  A    between atoms: C8_16  and  C9_18 
ROOT
HETATM    1  N4  UNL     1      14.002 -20.306 -18.940  1.00  0.00    -0.359 N 
ATOM      2  H4  UNL     1      14.823 -20.793 -19.298  1.00  0.00     0.162 HD
HETATM    3  C8  UNL     1      12.731 -20.877 -19.119  1.00  0.00     0.224 C 
HETATM    4  O1  UNL     1      11.736 -20.243 -18.659  1.00  0.00    -0.273 OA
ENDROOT
BRANCH   1   5
HETATM    5  C7  UNL     1      14.166 -19.061 -18.267  1.00  0.00     0.151 C 
BRANCH   5   6
HETATM    6  C6  UNL     1      15.329 -18.946 -17.357  1.00  0.00     0.266 C 
BRANCH   6   7
HETATM    7  N3  UNL     1      15.126 -19.214 -15.988  1.00  0.00    -0.013 N 
HETATM    8  C3  UNL     1      14.414 -18.089 -15.442  1.00  0.00     0.276 C 
HETATM    9  N1  UNL     1      15.054 -17.015 -14.766  1.00  0.00    -0.336 N 
HETATM   10  N2  UNL     1      13.137 -18.026 -15.556  1.00  0.00    -0.365 N 
HETATM   11  C2  UNL     1      14.555 -16.371 -13.788  1.00  0.00     0.059 C 
ATOM     12  H1  UNL     1      15.981 -16.739 -15.089  1.00  0.00     0.167 HD
HETATM   13  C1  UNL     1      13.238 -16.622 -13.186  1.00  0.00     0.055 C 
ATOM     14  H22 UNL     1      12.632 -17.229 -15.169  1.00  0.00     0.159 HD
ATOM     15  H21 UNL     1      12.678 -18.797 -16.041  1.00  0.00     0.159 HD
HETATM   16  C4  UNL     1      16.421 -19.176 -15.295  1.00  0.00     0.283 C 
HETATM   17  C5  UNL     1      14.371 -20.372 -15.669  1.00  0.00     0.283 C 
ENDBRANCH   6   7
ENDBRANCH   5   6
ENDBRANCH   1   5
BRANCH   3  18
HETATM   18  C9  UNL     1      12.518 -22.167 -19.816  1.00  0.00     0.105 C 
HETATM   19  C10 UNL     1      11.701 -23.107 -18.888  1.00  0.00     0.137 C 
HETATM   20  N5  UNL     1      11.953 -24.439 -19.414  1.00  0.00    -0.359 N 
HETATM   21  C11 UNL     1      12.083 -24.549 -20.830  1.00  0.00     0.232 C 
ATOM     22  H5  UNL     1      12.033 -25.251 -18.803  1.00  0.00     0.162 HD
HETATM   23  O2  UNL     1      12.514 -25.622 -21.309  1.00  0.00    -0.272 OA
HETATM   24  C12 UNL     1      11.734 -23.458 -21.754  1.00  0.00     0.158 C 
HETATM   25 BR1  UNL     1      12.998 -23.498 -23.235  1.00  0.00    -0.080 Br
HETATM   26  C13 UNL     1      11.770 -22.080 -21.101  1.00  0.00    -0.012 C 
HETATM   27  C14 UNL     1      10.298 -21.698 -20.871  1.00  0.00     0.017 C 
HETATM   28  C15 UNL     1      12.361 -21.081 -22.061  1.00  0.00     0.017 C 
ENDBRANCH   3  18
TORSDOF 4
ENDMDL
MODEL 4
REMARK VINA RESULT: -6.594386764      1.818      2.262
REMARK  4 active torsions:
REMARK  status: ('A' for Active; 'I' for Inactive)
REMARK       I    between atoms: N1_3  and  C3_5 
REMARK       I    between atoms: C3_5  and  N3_9 
REMARK    1  A    between atoms: N3_9  and  C6_12 
REMARK    2  A    between atoms: C6_12  and  C7_13 
REMARK    3  A    between atoms: C7_13  and  N4_14 
REMARK       I    between atoms: N4_14  and  C8_16 
REMARK    4  A    between atoms: C8_16  and  C9_18 
ROOT
HETATM    1  N4  UNL     1      13.000 -19.654 -18.715  1.00  0.00    -0.359 N 
ATOM      2  H4  UNL     1      12.913 -19.318 -19.674  1.00  0.00     0.162 HD
HETATM    3  C8  UNL     1      13.082 -21.036 -18.474  1.00  0.00     0.224 C 
HETATM    4  O1  UNL     1      13.190 -21.413 -17.270  1.00  0.00    -0.273 OA
ENDROOT
BRANCH   1   5
HETATM    5  C7  UNL     1      13.035 -18.713 -17.645  1.00  0.00     0.151 C 
BRANCH   5   6
HETATM    6  C6  UNL     1      14.311 -17.989 -17.440  1.00  0.00     0.266 C 
BRANCH   6   7
HETATM    7  N3  UNL     1      15.010 -18.210 -16.236  1.00  0.00    -0.013 N 
HETATM    8  C3  UNL     1      16.030 -19.184 -16.516  1.00  0.00     0.276 C 
HETATM    9  N1  UNL     1      15.874 -20.573 -16.257  1.00  0.00    -0.336 N 
HETATM   10  N2  UNL     1      17.148 -18.810 -17.024  1.00  0.00    -0.365 N 
HETATM   11  C2  UNL     1      16.809 -21.355 -15.890  1.00  0.00     0.059 C 
ATOM     12  H1  UNL     1      14.943 -20.973 -16.375  1.00  0.00     0.167 HD
HETATM   13  C1  UNL     1      18.208 -20.963 -15.669  1.00  0.00     0.055 C 
ATOM     14  H22 UNL     1      17.872 -19.501 -17.223  1.00  0.00     0.159 HD
ATOM     15  H21 UNL     1      17.260 -17.813 -17.210  1.00  0.00     0.159 HD
HETATM   16  C4  UNL     1      14.124 -18.896 -15.286  1.00  0.00     0.283 C 
HETATM   17  C5  UNL     1      15.661 -17.087 -15.661  1.00  0.00     0.283 C 
ENDBRANCH   6   7
ENDBRANCH   5   6
ENDBRANCH   1   5
BRANCH   3  18
HETATM   18  C9  UNL     1      13.045 -22.046 -19.558  1.00  0.00     0.105 C 
HETATM   19  C10 UNL     1      14.039 -23.188 -19.209  1.00  0.00     0.137 C 
HETATM   20  N5  UNL     1      14.293 -23.843 -20.483  1.00  0.00    -0.359 N 
HETATM   21  C11 UNL     1      13.194 -23.922 -21.388  1.00  0.00     0.232 C 
ATOM     22  H5  UNL     1      15.210 -24.225 -20.716  1.00  0.00     0.162 HD
HETATM   23  O2  UNL     1      13.416 -24.275 -22.568  1.00  0.00    -0.272 OA
HETATM   24  C12 UNL     1      11.810 -23.607 -20.998  1.00  0.00     0.158 C 
HETATM   25 BR1  UNL     1      10.938 -22.754 -22.516  1.00  0.00    -0.080 Br
HETATM   26  C13 UNL     1      11.721 -22.687 -19.786  1.00  0.00    -0.012 C 
HETATM   27  C14 UNL     1      11.326 -23.596 -18.610  1.00  0.00     0.017 C 
HETATM   28  C15 UNL     1      10.610 -21.690 -19.989  1.00  0.00     0.017 C 
ENDBRANCH   3  18
TORSDOF 4
ENDMDL
MODEL 5
REMARK VINA RESULT: -6.547096924      2.001      2.727
REMARK  4 active torsions:
REMARK  status: ('A' for Active; 'I' for Inactive)
REMARK       I    between atoms: N1_3  and  C3_5 
REMARK       I    between atoms: C3_5  and  N3_9 
REMARK    1  A    between atoms: N3_9  and  C6_12 
REMARK    2  A    between atoms: C6_12  and  C7_13 
REMARK    3  A    between atoms: C7_13  and  N4_14 
REMARK       I    between atoms: N4_14  and  C8_16 
REMARK    4  A    between atoms: C8_16  and  C9_18 
ROOT
HETATM    1  N4  UNL     1      14.783 -20.551 -19.267  1.00  0.00    -0.359 N 
ATOM      2  H4  UNL     1      14.460 -19.968 -20.039  1.00  0.00     0.162 HD
HETATM    3  C8  UNL     1      14.345 -21.883 -19.181  1.00  0.00     0.224 C 
HETATM    4  O1  UNL     1      14.769 -22.575 -18.210  1.00  0.00    -0.273 OA
ENDROOT
BRANCH   1   5
HETATM    5  C7  UNL     1      15.668 -19.999 -18.297  1.00  0.00     0.151 C 
BRANCH   5   6
HETATM    6  C6  UNL     1      15.112 -18.947 -17.415  1.00  0.00     0.266 C 
BRANCH   6   7
HETATM    7  N3  UNL     1      15.191 -19.143 -16.020  1.00  0.00    -0.013 N 
HETATM    8  C3  UNL     1      14.398 -18.112 -15.406  1.00  0.00     0.276 C 
HETATM    9  N1  UNL     1      14.947 -16.903 -14.901  1.00  0.00    -0.336 N 
HETATM   10  N2  UNL     1      13.128 -18.266 -15.294  1.00  0.00    -0.365 N 
HETATM   11  C2  UNL     1      14.516 -16.279 -13.879  1.00  0.00     0.059 C 
ATOM     12  H1  UNL     1      15.746 -16.505 -15.395  1.00  0.00     0.167 HD
HETATM   13  C1  UNL     1      13.382 -16.696 -13.043  1.00  0.00     0.055 C 
ATOM     14  H22 UNL     1      12.565 -17.535 -14.858  1.00  0.00     0.159 HD
ATOM     15  H21 UNL     1      12.733 -19.134 -15.656  1.00  0.00     0.159 HD
HETATM   16  C4  UNL     1      16.557 -18.847 -15.571  1.00  0.00     0.283 C 
HETATM   17  C5  UNL     1      14.710 -20.383 -15.524  1.00  0.00     0.283 C 
ENDBRANCH   6   7
ENDBRANCH   5   6
ENDBRANCH   1   5
BRANCH   3  18
HETATM   18  C9  UNL     1      13.422 -22.493 -20.167  1.00  0.00     0.105 C 
HETATM   19  C10 UNL     1      13.759 -24.003 -20.299  1.00  0.00     0.137 C 
HETATM   20  N5  UNL     1      13.176 -24.392 -21.573  1.00  0.00    -0.359 N 
HETATM   21  C11 UNL     1      11.944 -23.764 -21.926  1.00  0.00     0.232 C 
ATOM     22  H5  UNL     1      13.623 -25.076 -22.182  1.00  0.00     0.162 HD
HETATM   23  O2  UNL     1      11.519 -23.897 -23.096  1.00  0.00    -0.272 OA
HETATM   24  C12 UNL     1      11.151 -22.966 -20.977  1.00  0.00     0.158 C 
HETATM   25 BR1  UNL     1      10.344 -21.491 -21.962  1.00  0.00    -0.080 Br
HETATM   26  C13 UNL     1      11.976 -22.407 -19.823  1.00  0.00    -0.012 C 
HETATM   27  C14 UNL     1      11.633 -23.289 -18.611  1.00  0.00     0.017 C 
HETATM   28  C15 UNL     1      11.525 -21.003 -19.513  1.00  0.00     0.017 C 
ENDBRANCH   3  18
TORSDOF 4
ENDMDL
