MODEL 1
REMARK VINA RESULT: -6.628344756      0.000      0.000
REMARK  8 active torsions:
REMARK  status: ('A' for Active; 'I' for Inactive)
REMARK    1  A    between atoms: O1_2  and  C2_3 
REMARK    2  A    between atoms: C9_11  and  C10_12 
REMARK    3  A    between atoms: C10_12  and  C11_13 
REMARK    4  A    between atoms: C11_13  and  C12_14 
REMARK    5  A    between atoms: C12_14  and  C13_15 
REMARK    6  A    between atoms: C13_15  and  N1_16 
REMARK    7  A    between atoms: C16_22  and  C17_23 
REMARK    8  A    between atoms: C17_23  and  O3_24 
ROOT
HETATM    1  C2  UNL     1     -14.503  -0.834  -1.252  1.00  0.00     0.075 A 
HETATM    2  C3  UNL     1     -15.045  -0.415  -0.050  1.00  0.00     0.052 A 
HETATM    3  C4  UNL     1     -16.274   0.211   0.023  1.00  0.00     0.009 A 
HETATM    4  C5  UNL     1     -17.048   0.727   1.063  1.00  0.00    -0.015 A 
HETATM    5  C6  UNL     1     -18.205   1.244   0.528  1.00  0.00     0.061 A 
HETATM    6  O2  UNL     1     -18.137   1.051  -0.771  1.00  0.00    -0.314 OA
HETATM    7  C7  UNL     1     -17.017   0.446  -1.111  1.00  0.00     0.087 A 
HETATM    8  C8  UNL     1     -16.489   0.032  -2.326  1.00  0.00     0.048 A 
HETATM    9  C9  UNL     1     -15.255  -0.595  -2.383  1.00  0.00    -0.022 A 
HETATM   10  C14 UNL     1     -19.240   1.873   1.416  1.00  0.00     0.066 C 
HETATM   11  C15 UNL     1     -19.142   1.386   2.815  1.00  0.00     0.013 C 
HETATM   12  C16 UNL     1     -17.772   1.323   3.383  1.00  0.00     0.014 C 
HETATM   13  C18 UNL     1     -16.721   0.736   2.507  1.00  0.00     0.049 C 
ENDROOT
BRANCH   9  14
HETATM   14  C10 UNL     1     -14.684  -1.046  -3.693  1.00  0.00     0.041 C 
BRANCH  14  15
HETATM   15  C11 UNL     1     -15.437  -0.343  -4.786  1.00  0.00     0.006 C 
BRANCH  15  16
HETATM   16  C12 UNL     1     -14.484   0.032  -5.875  1.00  0.00     0.027 C 
BRANCH  16  17
HETATM   17  C13 UNL     1     -15.169   0.403  -7.171  1.00  0.00     0.229 C 
BRANCH  17  18
HETATM   18  N1  UNL     1     -14.418  -0.185  -8.273  1.00  0.00    -0.079 N 
ATOM     19  H13 UNL     1     -13.434  -0.326  -8.046  1.00  0.00     0.274 HD
ATOM     20  H12 UNL     1     -14.665  -1.161  -8.438  1.00  0.00     0.274 HD
ATOM     21  H11 UNL     1     -14.551   0.397  -9.101  1.00  0.00     0.274 HD
ENDBRANCH  17  18
ENDBRANCH  16  17
ENDBRANCH  15  16
ENDBRANCH  14  15
ENDBRANCH   9  14
BRANCH   1  22
HETATM   22  O1  UNL     1     -13.294  -1.456  -1.376  1.00  0.00    -0.355 OA
HETATM   23  C1  UNL     1     -13.001  -2.774  -1.003  1.00  0.00     0.210 C 
ENDBRANCH   1  22
BRANCH  12  24
HETATM   24  C17 UNL     1     -17.305   2.657   3.947  1.00  0.00     0.169 C 
BRANCH  24  25
HETATM   25  O3  UNL     1     -16.674   3.407   2.956  1.00  0.00    -0.400 OA
ATOM     26  H3  UNL     1     -16.685   4.329   3.184  1.00  0.00     0.209 HD
ENDBRANCH  24  25
ENDBRANCH  12  24
TORSDOF 8
ENDMDL
MODEL 2
REMARK VINA RESULT: -6.612355995      2.447      2.611
REMARK  8 active torsions:
REMARK  status: ('A' for Active; 'I' for Inactive)
REMARK    1  A    between atoms: O1_2  and  C2_3 
REMARK    2  A    between atoms: C9_11  and  C10_12 
REMARK    3  A    between atoms: C10_12  and  C11_13 
REMARK    4  A    between atoms: C11_13  and  C12_14 
REMARK    5  A    between atoms: C12_14  and  C13_15 
REMARK    6  A    between atoms: C13_15  and  N1_16 
REMARK    7  A    between atoms: C16_22  and  C17_23 
REMARK    8  A    between atoms: C17_23  and  O3_24 
ROOT
HETATM    1  C2  UNL     1     -14.663  -1.665  -1.864  1.00  0.00     0.075 A 
HETATM    2  C3  UNL     1     -15.631  -1.997  -0.932  1.00  0.00     0.052 A 
HETATM    3  C4  UNL     1     -16.923  -1.518  -1.013  1.00  0.00     0.009 A 
HETATM    4  C5  UNL     1     -18.075  -1.678  -0.242  1.00  0.00    -0.015 A 
HETATM    5  C6  UNL     1     -19.088  -0.947  -0.818  1.00  0.00     0.061 A 
HETATM    6  O2  UNL     1     -18.577  -0.373  -1.884  1.00  0.00    -0.314 OA
HETATM    7  C7  UNL     1     -17.306  -0.682  -2.037  1.00  0.00     0.087 A 
HETATM    8  C8  UNL     1     -16.348  -0.338  -2.982  1.00  0.00     0.048 A 
HETATM    9  C9  UNL     1     -15.055  -0.827  -2.886  1.00  0.00    -0.022 A 
HETATM   10  C14 UNL     1     -20.457  -0.927  -0.201  1.00  0.00     0.066 C 
HETATM   11  C15 UNL     1     -20.702  -2.119   0.649  1.00  0.00     0.013 C 
HETATM   12  C16 UNL     1     -19.598  -2.495   1.567  1.00  0.00     0.014 C 
HETATM   13  C18 UNL     1     -18.227  -2.487   0.989  1.00  0.00     0.049 C 
ENDROOT
BRANCH   9  14
HETATM   14  C10 UNL     1     -14.020  -0.460  -3.906  1.00  0.00     0.041 C 
BRANCH  14  15
HETATM   15  C11 UNL     1     -14.697   0.353  -4.973  1.00  0.00     0.006 C 
BRANCH  15  16
HETATM   16  C12 UNL     1     -14.120  -0.005  -6.304  1.00  0.00     0.027 C 
BRANCH  16  17
HETATM   17  C13 UNL     1     -15.100   0.145  -7.444  1.00  0.00     0.229 C 
BRANCH  17  18
HETATM   18  N1  UNL     1     -14.400  -0.131  -8.693  1.00  0.00    -0.079 N 
ATOM     19  H13 UNL     1     -15.037  -0.257  -9.479  1.00  0.00     0.274 HD
ATOM     20  H12 UNL     1     -13.898   0.682  -9.048  1.00  0.00     0.274 HD
ATOM     21  H11 UNL     1     -13.789  -0.936  -8.550  1.00  0.00     0.274 HD
ENDBRANCH  17  18
ENDBRANCH  16  17
ENDBRANCH  15  16
ENDBRANCH  14  15
ENDBRANCH   9  14
BRANCH   1  22
HETATM   22  O1  UNL     1     -13.373  -2.111  -1.826  1.00  0.00    -0.355 OA
HETATM   23  C1  UNL     1     -12.927  -3.297  -1.230  1.00  0.00     0.210 C 
ENDBRANCH   1  22
BRANCH  12  24
HETATM   24  C17 UNL     1     -19.626  -1.714   2.873  1.00  0.00     0.169 C 
BRANCH  24  25
HETATM   25  O3  UNL     1     -18.536  -0.848   2.942  1.00  0.00    -0.400 OA
ATOM     26  H3  UNL     1     -17.832  -1.244   3.440  1.00  0.00     0.209 HD
ENDBRANCH  24  25
ENDBRANCH  12  24
TORSDOF 8
ENDMDL
MODEL 3
REMARK VINA RESULT: -6.596931485      1.722      1.989
REMARK  8 active torsions:
REMARK  status: ('A' for Active; 'I' for Inactive)
REMARK    1  A    between atoms: O1_2  and  C2_3 
REMARK    2  A    between atoms: C9_11  and  C10_12 
REMARK    3  A    between atoms: C10_12  and  C11_13 
REMARK    4  A    between atoms: C11_13  and  C12_14 
REMARK    5  A    between atoms: C12_14  and  C13_15 
REMARK    6  A    between atoms: C13_15  and  N1_16 
REMARK    7  A    between atoms: C16_22  and  C17_23 
REMARK    8  A    between atoms: C17_23  and  O3_24 
ROOT
HETATM    1  C2  UNL     1     -14.795  -0.383  -0.742  1.00  0.00     0.075 A 
HETATM    2  C3  UNL     1     -15.819  -0.355   0.188  1.00  0.00     0.052 A 
HETATM    3  C4  UNL     1     -17.149  -0.359  -0.184  1.00  0.00     0.009 A 
HETATM    4  C5  UNL     1     -18.359  -0.336   0.511  1.00  0.00    -0.015 A 
HETATM    5  C6  UNL     1     -19.386  -0.355  -0.405  1.00  0.00     0.061 A 
HETATM    6  O2  UNL     1     -18.827  -0.387  -1.595  1.00  0.00    -0.314 OA
HETATM    7  C7  UNL     1     -17.512  -0.390  -1.512  1.00  0.00     0.087 A 
HETATM    8  C8  UNL     1     -16.497  -0.419  -2.458  1.00  0.00     0.048 A 
HETATM    9  C9  UNL     1     -15.168  -0.415  -2.068  1.00  0.00    -0.022 A 
HETATM   10  C14 UNL     1     -20.815  -0.336   0.055  1.00  0.00     0.066 C 
HETATM   11  C15 UNL     1     -20.960  -0.841   1.442  1.00  0.00     0.013 C 
HETATM   12  C16 UNL     1     -19.971  -0.327   2.424  1.00  0.00     0.014 C 
HETATM   13  C18 UNL     1     -18.551  -0.302   1.978  1.00  0.00     0.049 C 
ENDROOT
BRANCH   9  14
HETATM   14  C10 UNL     1     -14.070  -0.448  -3.088  1.00  0.00     0.041 C 
BRANCH  14  15
HETATM   15  C11 UNL     1     -14.685  -0.814  -4.410  1.00  0.00     0.006 C 
BRANCH  15  16
HETATM   16  C12 UNL     1     -14.053   0.005  -5.488  1.00  0.00     0.027 C 
BRANCH  16  17
HETATM   17  C13 UNL     1     -15.000   0.350  -6.614  1.00  0.00     0.229 C 
BRANCH  17  18
HETATM   18  N1  UNL     1     -14.424  -0.131  -7.864  1.00  0.00    -0.079 N 
ATOM     19  H13 UNL     1     -13.406  -0.183  -7.832  1.00  0.00     0.274 HD
ATOM     20  H12 UNL     1     -14.610  -1.120  -8.026  1.00  0.00     0.274 HD
ATOM     21  H11 UNL     1     -14.763   0.461  -8.624  1.00  0.00     0.274 HD
ENDBRANCH  17  18
ENDBRANCH  16  17
ENDBRANCH  15  16
ENDBRANCH  14  15
ENDBRANCH   9  14
BRANCH   1  22
HETATM   22  O1  UNL     1     -13.466  -0.379  -0.424  1.00  0.00    -0.355 OA
HETATM   23  C1  UNL     1     -12.921  -0.111   0.837  1.00  0.00     0.210 C 
ENDBRANCH   1  22
BRANCH  12  24
HETATM   24  C17 UNL     1     -20.367   1.022   3.007  1.00  0.00     0.169 C 
BRANCH  24  25
HETATM   25  O3  UNL     1     -19.666   2.047   2.373  1.00  0.00    -0.400 OA
ATOM     26  H3  UNL     1     -19.087   2.479   2.990  1.00  0.00     0.209 HD
ENDBRANCH  24  25
ENDBRANCH  12  24
TORSDOF 8
ENDMDL
MODEL 4
REMARK VINA RESULT: -6.516582373      1.112      1.219
REMARK  8 active torsions:
REMARK  status: ('A' for Active; 'I' for Inactive)
REMARK    1  A    between atoms: O1_2  and  C2_3 
REMARK    2  A    between atoms: C9_11  and  C10_12 
REMARK    3  A    between atoms: C10_12  and  C11_13 
REMARK    4  A    between atoms: C11_13  and  C12_14 
REMARK    5  A    between atoms: C12_14  and  C13_15 
REMARK    6  A    between atoms: C13_15  and  N1_16 
REMARK    7  A    between atoms: C16_22  and  C17_23 
REMARK    8  A    between atoms: C17_23  and  O3_24 
ROOT
HETATM    1  C2  UNL     1     -14.568  -1.122  -1.530  1.00  0.00     0.075 A 
HETATM    2  C3  UNL     1     -15.365  -1.086  -0.399  1.00  0.00     0.052 A 
HETATM    3  C4  UNL     1     -16.607  -0.485  -0.394  1.00  0.00     0.009 A 
HETATM    4  C5  UNL     1     -17.601  -0.301   0.568  1.00  0.00    -0.015 A 
HETATM    5  C6  UNL     1     -18.644   0.385  -0.010  1.00  0.00     0.061 A 
HETATM    6  O2  UNL     1     -18.300   0.606  -1.260  1.00  0.00    -0.314 OA
HETATM    7  C7  UNL     1     -17.110   0.111  -1.529  1.00  0.00     0.087 A 
HETATM    8  C8  UNL     1     -16.325   0.084  -2.674  1.00  0.00     0.048 A 
HETATM    9  C9  UNL     1     -15.080  -0.523  -2.662  1.00  0.00    -0.022 A 
HETATM   10  C14 UNL     1     -19.865   0.730   0.792  1.00  0.00     0.066 C 
HETATM   11  C15 UNL     1     -20.038  -0.171   1.958  1.00  0.00     0.013 C 
HETATM   12  C16 UNL     1     -18.813  -0.442   2.752  1.00  0.00     0.014 C 
HETATM   13  C18 UNL     1     -17.580  -0.751   1.978  1.00  0.00     0.049 C 
ENDROOT
BRANCH   9  14
HETATM   14  C10 UNL     1     -14.231  -0.556  -3.897  1.00  0.00     0.041 C 
BRANCH  14  15
HETATM   15  C11 UNL     1     -15.132  -0.322  -5.076  1.00  0.00     0.006 C 
BRANCH  15  16
HETATM   16  C12 UNL     1     -14.302   0.063  -6.258  1.00  0.00     0.027 C 
BRANCH  16  17
HETATM   17  C13 UNL     1     -15.103   0.220  -7.530  1.00  0.00     0.229 C 
BRANCH  17  18
HETATM   18  N1  UNL     1     -14.268  -0.183  -8.654  1.00  0.00    -0.079 N 
ATOM     19  H13 UNL     1     -13.315  -0.413  -8.371  1.00  0.00     0.274 HD
ATOM     20  H12 UNL     1     -14.527  -1.096  -9.027  1.00  0.00     0.274 HD
ATOM     21  H11 UNL     1     -14.300   0.553  -9.361  1.00  0.00     0.274 HD
ENDBRANCH  17  18
ENDBRANCH  16  17
ENDBRANCH  15  16
ENDBRANCH  14  15
ENDBRANCH   9  14
BRANCH   1  22
HETATM   22  O1  UNL     1     -13.333  -1.703  -1.584  1.00  0.00    -0.355 OA
HETATM   23  C1  UNL     1     -13.033  -3.034  -1.268  1.00  0.00     0.210 C 
ENDBRANCH   1  22
BRANCH  12  24
HETATM   24  C17 UNL     1     -18.531   0.638   3.787  1.00  0.00     0.169 C 
BRANCH  24  25
HETATM   25  O3  UNL     1     -17.207   1.064   3.693  1.00  0.00    -0.400 OA
ATOM     26  H3  UNL     1     -17.124   1.953   4.016  1.00  0.00     0.209 HD
ENDBRANCH  24  25
ENDBRANCH  12  24
TORSDOF 8
ENDMDL
MODEL 5
REMARK VINA RESULT: -6.451768031      2.326      3.830
REMARK  8 active torsions:
REMARK  status: ('A' for Active; 'I' for Inactive)
REMARK    1  A    between atoms: O1_2  and  C2_3 
REMARK    2  A    between atoms: C9_11  and  C10_12 
REMARK    3  A    between atoms: C10_12  and  C11_13 
REMARK    4  A    between atoms: C11_13  and  C12_14 
REMARK    5  A    between atoms: C12_14  and  C13_15 
REMARK    6  A    between atoms: C13_15  and  N1_16 
REMARK    7  A    between atoms: C16_22  and  C17_23 
REMARK    8  A    between atoms: C17_23  and  O3_24 
ROOT
HETATM    1  C2  UNL     1     -16.085  -0.212  -1.625  1.00  0.00     0.075 A 
HETATM    2  C3  UNL     1     -15.953  -0.022  -0.260  1.00  0.00     0.052 A 
HETATM    3  C4  UNL     1     -14.734  -0.121   0.380  1.00  0.00     0.009 A 
HETATM    4  C5  UNL     1     -14.311   0.015   1.703  1.00  0.00    -0.015 A 
HETATM    5  C6  UNL     1     -12.953  -0.199   1.749  1.00  0.00     0.061 A 
HETATM    6  O2  UNL     1     -12.571  -0.452   0.516  1.00  0.00    -0.314 OA
HETATM    7  C7  UNL     1     -13.587  -0.417  -0.321  1.00  0.00     0.087 A 
HETATM    8  C8  UNL     1     -13.700  -0.610  -1.691  1.00  0.00     0.048 A 
HETATM    9  C9  UNL     1     -14.931  -0.507  -2.319  1.00  0.00    -0.022 A 
HETATM   10  C14 UNL     1     -12.213  -0.118   3.053  1.00  0.00     0.066 C 
HETATM   11  C15 UNL     1     -12.936   0.707   4.052  1.00  0.00     0.013 C 
HETATM   12  C16 UNL     1     -14.395   0.456   4.164  1.00  0.00     0.014 C 
HETATM   13  C18 UNL     1     -15.144   0.336   2.884  1.00  0.00     0.049 C 
ENDROOT
BRANCH   9  14
HETATM   14  C10 UNL     1     -15.056  -0.712  -3.799  1.00  0.00     0.041 C 
BRANCH  14  15
HETATM   15  C11 UNL     1     -13.741  -0.340  -4.424  1.00  0.00     0.006 C 
BRANCH  15  16
HETATM   16  C12 UNL     1     -13.974   0.088  -5.837  1.00  0.00     0.027 C 
BRANCH  16  17
HETATM   17  C13 UNL     1     -15.400  -0.109  -6.298  1.00  0.00     0.229 C 
BRANCH  17  18
HETATM   18  N1  UNL     1     -15.467   0.180  -7.725  1.00  0.00    -0.079 N 
ATOM     19  H13 UNL     1     -14.552   0.152  -8.174  1.00  0.00     0.274 HD
ATOM     20  H12 UNL     1     -15.907  -0.571  -8.256  1.00  0.00     0.274 HD
ATOM     21  H11 UNL     1     -15.938   1.077  -7.851  1.00  0.00     0.274 HD
ENDBRANCH  17  18
ENDBRANCH  16  17
ENDBRANCH  15  16
ENDBRANCH  14  15
ENDBRANCH   9  14
BRANCH   1  22
HETATM   22  O1  UNL     1     -17.267  -0.126  -2.304  1.00  0.00    -0.355 OA
HETATM   23  C1  UNL     1     -18.535  -0.426  -1.792  1.00  0.00     0.210 C 
ENDBRANCH   1  22
BRANCH  12  24
HETATM   24  C17 UNL     1     -14.722  -0.714   5.081  1.00  0.00     0.169 C 
BRANCH  24  25
HETATM   25  O3  UNL     1     -15.786  -1.451   4.563  1.00  0.00    -0.400 OA
ATOM     26  H3  UNL     1     -15.560  -1.801   3.709  1.00  0.00     0.209 HD
ENDBRANCH  24  25
ENDBRANCH  12  24
TORSDOF 8
ENDMDL
