MODEL 1
REMARK VINA RESULT: -8.070935510      0.000      0.000
REMARK  10 active torsions:
REMARK  status: ('A' for Active; 'I' for Inactive)
REMARK    1  A    between atoms: C2_2  and  C4_4 
REMARK    2  A    between atoms: C4_4  and  C5_5 
REMARK    3  A    between atoms: C5_5  and  O1_6 
REMARK    4  A    between atoms: C5_5  and  C6_8 
REMARK    5  A    between atoms: C6_8  and  C7_9 
REMARK    6  A    between atoms: C6_8  and  N1_12 
REMARK    7  A    between atoms: C7_9  and  O2_10 
REMARK    8  A    between atoms: N1_12  and  C8_14 
REMARK    9  A    between atoms: C8_14  and  C9_15 
REMARK   10  A    between atoms: C9_15  and  C11_17 
ROOT
HETATM    1  N1  UNL     1      13.254  61.012  23.977  1.00  0.00    -0.393 N 
ATOM      2  H1  UNL     1      12.511  61.325  24.602  1.00  0.00     0.159 HD
ENDROOT
BRANCH   1   3
HETATM    3  C6  UNL     1      13.776  61.918  23.029  1.00  0.00     0.133 C 
BRANCH   3   4
HETATM    4  C5  UNL     1      12.787  62.900  22.472  1.00  0.00     0.143 C 
BRANCH   4   5
HETATM    5  C4  UNL     1      11.389  62.408  22.766  1.00  0.00     0.037 C 
BRANCH   5   6
HETATM    6  C2  UNL     1      10.631  63.388  23.654  1.00  0.00    -0.020 C 
HETATM    7  C1  UNL     1      10.134  64.582  22.909  1.00  0.00     0.009 C 
HETATM    8  C3  UNL     1       9.393  62.621  24.139  1.00  0.00     0.009 C 
ENDBRANCH   5   6
ENDBRANCH   4   5
BRANCH   4   9
HETATM    9  O1  UNL     1      12.945  63.247  21.156  1.00  0.00    -0.393 OA
ATOM     10  H1  UNL     1      13.091  64.180  21.048  1.00  0.00     0.210 HD
ENDBRANCH   4   9
ENDBRANCH   3   4
BRANCH   3  11
HETATM   11  C7  UNL     1      15.039  62.598  23.409  1.00  0.00     0.191 C 
BRANCH  11  12
HETATM   12  O2  UNL     1      16.206  61.959  23.030  1.00  0.00    -0.399 OA
ATOM     13  H2  UNL     1      16.733  62.409  22.381  1.00  0.00     0.209 HD
ENDBRANCH  11  12
ENDBRANCH   3  11
ENDBRANCH   1   3
BRANCH   1  14
HETATM   14  C8  UNL     1      13.719  59.701  24.086  1.00  0.00     0.060 C 
BRANCH  14  15
HETATM   15  C9  UNL     1      12.617  58.681  24.295  1.00  0.00     0.024 C 
HETATM   16  C10 UNL     1      11.379  59.341  24.809  1.00  0.00     0.016 C 
BRANCH  15  17
HETATM   17  C11 UNL     1      12.417  57.744  23.140  1.00  0.00    -0.000 C 
HETATM   18  C12 UNL     1      12.872  56.348  23.532  1.00  0.00     0.005 C 
HETATM   19  C13 UNL     1      12.444  55.338  22.461  1.00  0.00     0.006 C 
HETATM   20  C14 UNL     1      10.953  55.239  22.583  1.00  0.00     0.079 C 
HETATM   21  C15 UNL     1      10.256  56.546  22.558  1.00  0.00     0.244 C 
HETATM   22  F1  UNL     1       9.384  56.518  21.455  1.00  0.00    -0.206 F 
HETATM   23  F2  UNL     1       9.386  56.595  23.659  1.00  0.00    -0.206 F 
HETATM   24  C16 UNL     1      11.103  57.773  22.475  1.00  0.00     0.084 C 
ENDBRANCH  15  17
ENDBRANCH  14  15
ENDBRANCH   1  14
TORSDOF 10
ENDMDL
MODEL 2
REMARK VINA RESULT: -7.775385802      2.830      6.392
REMARK  10 active torsions:
REMARK  status: ('A' for Active; 'I' for Inactive)
REMARK    1  A    between atoms: C2_2  and  C4_4 
REMARK    2  A    between atoms: C4_4  and  C5_5 
REMARK    3  A    between atoms: C5_5  and  O1_6 
REMARK    4  A    between atoms: C5_5  and  C6_8 
REMARK    5  A    between atoms: C6_8  and  C7_9 
REMARK    6  A    between atoms: C6_8  and  N1_12 
REMARK    7  A    between atoms: C7_9  and  O2_10 
REMARK    8  A    between atoms: N1_12  and  C8_14 
REMARK    9  A    between atoms: C8_14  and  C9_15 
REMARK   10  A    between atoms: C9_15  and  C11_17 
ROOT
HETATM    1  N1  UNL     1      12.510  61.352  23.193  1.00  0.00    -0.393 N 
ATOM      2  H1  UNL     1      12.129  60.641  22.569  1.00  0.00     0.159 HD
ENDROOT
BRANCH   1   3
HETATM    3  C6  UNL     1      13.608  61.021  24.017  1.00  0.00     0.133 C 
BRANCH   3   4
HETATM    4  C5  UNL     1      13.713  59.570  24.388  1.00  0.00     0.143 C 
BRANCH   4   5
HETATM    5  C4  UNL     1      12.354  58.927  24.242  1.00  0.00     0.037 C 
BRANCH   5   6
HETATM    6  C2  UNL     1      12.349  57.885  23.129  1.00  0.00    -0.020 C 
HETATM    7  C1  UNL     1      12.790  56.537  23.595  1.00  0.00     0.009 C 
HETATM    8  C3  UNL     1      10.879  57.750  22.707  1.00  0.00     0.009 C 
ENDBRANCH   5   6
ENDBRANCH   4   5
BRANCH   4   9
HETATM    9  O1  UNL     1      14.289  59.289  25.598  1.00  0.00    -0.393 OA
ATOM     10  H1  UNL     1      13.801  58.633  26.083  1.00  0.00     0.210 HD
ENDBRANCH   4   9
ENDBRANCH   3   4
BRANCH   3  11
HETATM   11  C7  UNL     1      14.924  61.554  23.589  1.00  0.00     0.191 C 
BRANCH  11  12
HETATM   12  O2  UNL     1      16.020  60.762  23.882  1.00  0.00    -0.399 OA
ATOM     13  H2  UNL     1      16.137  59.996  23.334  1.00  0.00     0.209 HD
ENDBRANCH  11  12
ENDBRANCH   3  11
ENDBRANCH   1   3
BRANCH   1  14
HETATM   14  C8  UNL     1      11.927  62.620  23.206  1.00  0.00     0.060 C 
BRANCH  14  15
HETATM   15  C9  UNL     1      10.428  62.597  23.426  1.00  0.00     0.024 C 
HETATM   16  C10 UNL     1       9.943  61.196  23.611  1.00  0.00     0.016 C 
BRANCH  15  17
HETATM   17  C11 UNL     1       9.938  63.588  24.440  1.00  0.00    -0.000 C 
HETATM   18  C12 UNL     1       9.536  64.876  23.742  1.00  0.00     0.005 C 
HETATM   19  C13 UNL     1       8.805  65.799  24.724  1.00  0.00     0.006 C 
HETATM   20  C14 UNL     1       7.481  65.141  24.974  1.00  0.00     0.079 C 
HETATM   21  C15 UNL     1       7.579  63.717  25.372  1.00  0.00     0.244 C 
HETATM   22  F1  UNL     1       6.991  63.610  26.644  1.00  0.00    -0.206 F 
HETATM   23  F2  UNL     1       6.714  62.977  24.550  1.00  0.00    -0.206 F 
HETATM   24  C16 UNL     1       8.943  63.110  25.416  1.00  0.00     0.084 C 
ENDBRANCH  15  17
ENDBRANCH  14  15
ENDBRANCH   1  14
TORSDOF 10
ENDMDL
MODEL 3
REMARK VINA RESULT: -7.731224148      1.506      2.286
REMARK  10 active torsions:
REMARK  status: ('A' for Active; 'I' for Inactive)
REMARK    1  A    between atoms: C2_2  and  C4_4 
REMARK    2  A    between atoms: C4_4  and  C5_5 
REMARK    3  A    between atoms: C5_5  and  O1_6 
REMARK    4  A    between atoms: C5_5  and  C6_8 
REMARK    5  A    between atoms: C6_8  and  C7_9 
REMARK    6  A    between atoms: C6_8  and  N1_12 
REMARK    7  A    between atoms: C7_9  and  O2_10 
REMARK    8  A    between atoms: N1_12  and  C8_14 
REMARK    9  A    between atoms: C8_14  and  C9_15 
REMARK   10  A    between atoms: C9_15  and  C11_17 
ROOT
HETATM    1  N1  UNL     1      10.842  61.038  24.184  1.00  0.00    -0.393 N 
ATOM      2  H1  UNL     1      10.696  61.189  25.182  1.00  0.00     0.159 HD
ENDROOT
BRANCH   1   3
HETATM    3  C6  UNL     1      11.097  62.152  23.355  1.00  0.00     0.133 C 
BRANCH   3   4
HETATM    4  C5  UNL     1      10.359  63.406  23.727  1.00  0.00     0.143 C 
BRANCH   4   5
HETATM    5  C4  UNL     1       9.163  63.039  24.573  1.00  0.00     0.037 C 
BRANCH   5   6
HETATM    6  C2  UNL     1       8.117  64.148  24.567  1.00  0.00    -0.020 C 
HETATM    7  C1  UNL     1       6.747  63.655  24.892  1.00  0.00     0.009 C 
HETATM    8  C3  UNL     1       8.527  65.098  25.701  1.00  0.00     0.009 C 
ENDBRANCH   5   6
ENDBRANCH   4   5
BRANCH   4   9
HETATM    9  O1  UNL     1      10.024  64.246  22.698  1.00  0.00    -0.393 OA
ATOM     10  H1  UNL     1      10.586  64.127  21.941  1.00  0.00     0.210 HD
ENDBRANCH   4   9
ENDBRANCH   3   4
BRANCH   3  11
HETATM   11  C7  UNL     1      12.524  62.441  23.076  1.00  0.00     0.191 C 
BRANCH  11  12
HETATM   12  O2  UNL     1      12.771  63.299  22.020  1.00  0.00    -0.399 OA
ATOM     13  H2  UNL     1      13.666  63.320  21.703  1.00  0.00     0.209 HD
ENDBRANCH  11  12
ENDBRANCH   3  11
ENDBRANCH   1   3
BRANCH   1  14
HETATM   14  C8  UNL     1      10.783  59.737  23.682  1.00  0.00     0.060 C 
BRANCH  14  15
HETATM   15  C9  UNL     1      12.135  59.054  23.610  1.00  0.00     0.024 C 
HETATM   16  C10 UNL     1      12.749  58.953  24.968  1.00  0.00     0.016 C 
BRANCH  15  17
HETATM   17  C11 UNL     1      12.143  57.788  22.803  1.00  0.00    -0.000 C 
HETATM   18  C12 UNL     1      12.793  56.675  23.607  1.00  0.00     0.005 C 
HETATM   19  C13 UNL     1      12.584  55.330  22.903  1.00  0.00     0.006 C 
HETATM   20  C14 UNL     1      11.123  55.026  23.052  1.00  0.00     0.079 C 
HETATM   21  C15 UNL     1      10.230  56.128  22.625  1.00  0.00     0.244 C 
HETATM   22  F1  UNL     1       9.430  55.620  21.587  1.00  0.00    -0.206 F 
HETATM   23  F2  UNL     1       9.311  56.367  23.658  1.00  0.00    -0.206 F 
HETATM   24  C16 UNL     1      10.875  57.394  22.165  1.00  0.00     0.084 C 
ENDBRANCH  15  17
ENDBRANCH  14  15
ENDBRANCH   1  14
TORSDOF 10
ENDMDL
MODEL 4
REMARK VINA RESULT: -7.682722839      0.685      1.018
REMARK  10 active torsions:
REMARK  status: ('A' for Active; 'I' for Inactive)
REMARK    1  A    between atoms: C2_2  and  C4_4 
REMARK    2  A    between atoms: C4_4  and  C5_5 
REMARK    3  A    between atoms: C5_5  and  O1_6 
REMARK    4  A    between atoms: C5_5  and  C6_8 
REMARK    5  A    between atoms: C6_8  and  C7_9 
REMARK    6  A    between atoms: C6_8  and  N1_12 
REMARK    7  A    between atoms: C7_9  and  O2_10 
REMARK    8  A    between atoms: N1_12  and  C8_14 
REMARK    9  A    between atoms: C8_14  and  C9_15 
REMARK   10  A    between atoms: C9_15  and  C11_17 
ROOT
HETATM    1  N1  UNL     1      13.382  61.126  24.034  1.00  0.00    -0.393 N 
ATOM      2  H1  UNL     1      12.749  61.550  24.713  1.00  0.00     0.159 HD
ENDROOT
BRANCH   1   3
HETATM    3  C6  UNL     1      13.923  61.932  23.009  1.00  0.00     0.133 C 
BRANCH   3   4
HETATM    4  C5  UNL     1      13.096  63.127  22.633  1.00  0.00     0.143 C 
BRANCH   4   5
HETATM    5  C4  UNL     1      11.949  62.675  21.761  1.00  0.00     0.037 C 
BRANCH   5   6
HETATM    6  C2  UNL     1      10.619  63.229  22.260  1.00  0.00    -0.020 C 
HETATM    7  C1  UNL     1      10.575  63.381  23.744  1.00  0.00     0.009 C 
HETATM    8  C3  UNL     1      10.520  64.641  21.667  1.00  0.00     0.009 C 
ENDBRANCH   5   6
ENDBRANCH   4   5
BRANCH   4   9
HETATM    9  O1  UNL     1      13.768  64.190  22.090  1.00  0.00    -0.393 OA
ATOM     10  H1  UNL     1      14.706  64.131  22.233  1.00  0.00     0.210 HD
ENDBRANCH   4   9
ENDBRANCH   3   4
BRANCH   3  11
HETATM   11  C7  UNL     1      15.351  62.305  23.161  1.00  0.00     0.191 C 
BRANCH  11  12
HETATM   12  O2  UNL     1      16.094  62.340  21.995  1.00  0.00    -0.399 OA
ATOM     13  H2  UNL     1      15.758  61.822  21.274  1.00  0.00     0.209 HD
ENDBRANCH  11  12
ENDBRANCH   3  11
ENDBRANCH   1   3
BRANCH   1  14
HETATM   14  C8  UNL     1      13.684  59.768  24.148  1.00  0.00     0.060 C 
BRANCH  14  15
HETATM   15  C9  UNL     1      12.459  58.881  24.241  1.00  0.00     0.024 C 
HETATM   16  C10 UNL     1      11.234  59.697  24.497  1.00  0.00     0.016 C 
BRANCH  15  17
HETATM   17  C11 UNL     1      12.343  57.873  23.135  1.00  0.00    -0.000 C 
HETATM   18  C12 UNL     1      12.812  56.515  23.631  1.00  0.00     0.005 C 
HETATM   19  C13 UNL     1      12.467  55.433  22.602  1.00  0.00     0.006 C 
HETATM   20  C14 UNL     1      10.974  55.298  22.655  1.00  0.00     0.079 C 
HETATM   21  C15 UNL     1      10.246  56.581  22.517  1.00  0.00     0.244 C 
HETATM   22  F1  UNL     1       9.434  56.465  21.376  1.00  0.00    -0.206 F 
HETATM   23  F2  UNL     1       9.320  56.669  23.568  1.00  0.00    -0.206 F 
HETATM   24  C16 UNL     1      11.065  57.825  22.405  1.00  0.00     0.084 C 
ENDBRANCH  15  17
ENDBRANCH  14  15
ENDBRANCH   1  14
TORSDOF 10
ENDMDL
MODEL 5
REMARK VINA RESULT: -7.681602440      1.390      1.823
REMARK  10 active torsions:
REMARK  status: ('A' for Active; 'I' for Inactive)
REMARK    1  A    between atoms: C2_2  and  C4_4 
REMARK    2  A    between atoms: C4_4  and  C5_5 
REMARK    3  A    between atoms: C5_5  and  O1_6 
REMARK    4  A    between atoms: C5_5  and  C6_8 
REMARK    5  A    between atoms: C6_8  and  C7_9 
REMARK    6  A    between atoms: C6_8  and  N1_12 
REMARK    7  A    between atoms: C7_9  and  O2_10 
REMARK    8  A    between atoms: N1_12  and  C8_14 
REMARK    9  A    between atoms: C8_14  and  C9_15 
REMARK   10  A    between atoms: C9_15  and  C11_17 
ROOT
HETATM    1  N1  UNL     1      13.015  61.557  23.609  1.00  0.00    -0.393 N 
ATOM      2  H1  UNL     1      12.148  62.036  23.851  1.00  0.00     0.159 HD
ENDROOT
BRANCH   1   3
HETATM    3  C6  UNL     1      13.957  62.221  22.792  1.00  0.00     0.133 C 
BRANCH   3   4
HETATM    4  C5  UNL     1      13.387  63.277  21.890  1.00  0.00     0.143 C 
BRANCH   4   5
HETATM    5  C4  UNL     1      12.054  62.803  21.362  1.00  0.00     0.037 C 
BRANCH   5   6
HETATM    6  C2  UNL     1      11.812  63.298  19.940  1.00  0.00    -0.020 C 
HETATM    7  C1  UNL     1      11.126  62.288  19.083  1.00  0.00     0.009 C 
HETATM    8  C3  UNL     1      10.850  64.486  20.083  1.00  0.00     0.009 C 
ENDBRANCH   5   6
ENDBRANCH   4   5
BRANCH   4   9
HETATM    9  O1  UNL     1      14.205  63.733  20.891  1.00  0.00    -0.393 OA
ATOM     10  H1  UNL     1      13.798  64.427  20.385  1.00  0.00     0.210 HD
ENDBRANCH   4   9
ENDBRANCH   3   4
BRANCH   3  11
HETATM   11  C7  UNL     1      15.177  62.713  23.477  1.00  0.00     0.191 C 
BRANCH  11  12
HETATM   12  O2  UNL     1      16.364  62.553  22.784  1.00  0.00    -0.399 OA
ATOM     13  H2  UNL     1      16.716  63.336  22.378  1.00  0.00     0.209 HD
ENDBRANCH  11  12
ENDBRANCH   3  11
ENDBRANCH   1   3
BRANCH   1  14
HETATM   14  C8  UNL     1      13.232  60.267  24.094  1.00  0.00     0.060 C 
BRANCH  14  15
HETATM   15  C9  UNL     1      11.999  59.386  24.047  1.00  0.00     0.024 C 
HETATM   16  C10 UNL     1      10.762  60.215  23.930  1.00  0.00     0.016 C 
BRANCH  15  17
HETATM   17  C11 UNL     1      12.099  58.238  23.085  1.00  0.00    -0.000 C 
HETATM   18  C12 UNL     1      12.751  57.051  23.773  1.00  0.00     0.005 C 
HETATM   19  C13 UNL     1      12.632  55.803  22.891  1.00  0.00     0.006 C 
HETATM   20  C14 UNL     1      11.178  55.435  22.920  1.00  0.00     0.079 C 
HETATM   21  C15 UNL     1      10.264  56.553  22.590  1.00  0.00     0.244 C 
HETATM   22  F1  UNL     1       9.538  56.159  21.452  1.00  0.00    -0.206 F 
HETATM   23  F2  UNL     1       9.286  56.624  23.593  1.00  0.00    -0.206 F 
HETATM   24  C16 UNL     1      10.881  57.889  22.332  1.00  0.00     0.084 C 
ENDBRANCH  15  17
ENDBRANCH  14  15
ENDBRANCH   1  14
TORSDOF 10
ENDMDL
