MODEL 1
REMARK VINA RESULT: -8.215638045      0.000      0.000
REMARK  7 active torsions:
REMARK  status: ('A' for Active; 'I' for Inactive)
REMARK    1  A    between atoms: C2_2  and  C11_19 
REMARK    2  A    between atoms: C3_3  and  O1_4 
REMARK    3  A    between atoms: C3_3  and  C4_6 
REMARK    4  A    between atoms: C6_11  and  C7_12 
REMARK    5  A    between atoms: C7_12  and  C8_13 
REMARK    6  A    between atoms: C11_19  and  O3_20 
REMARK    7  A    between atoms: C11_19  and  C12_22 
ROOT
HETATM    1  C4  UNL     1      23.240  46.731  61.602  1.00  0.00     0.112 A 
HETATM    2  N1  UNL     1      22.074  46.539  62.301  1.00  0.00    -0.326 N 
ATOM      3  H1  UNL     1      22.088  46.474  63.319  1.00  0.00     0.168 HD
HETATM    4  C5  UNL     1      20.964  46.442  61.661  1.00  0.00     0.184 A 
HETATM    5  O2  UNL     1      19.682  46.259  61.991  1.00  0.00    -0.278 OA
HETATM    6  C6  UNL     1      18.941  46.235  60.929  1.00  0.00     0.127 A 
HETATM    7  N2  UNL     1      19.687  46.400  59.831  1.00  0.00    -0.331 N 
ATOM      8  H2  UNL     1      19.374  46.423  58.861  1.00  0.00     0.168 HD
HETATM    9  C10 UNL     1      20.964  46.529  60.306  1.00  0.00     0.130 A 
HETATM   10  S1  UNL     1      22.624  46.756  60.023  1.00  0.00    -0.047 SA
ENDROOT
BRANCH   1  11
HETATM   11  C3  UNL     1      24.528  46.818  62.248  1.00  0.00     0.108 C 
HETATM   12  C2  UNL     1      25.748  46.156  62.167  1.00  0.00     0.003 C 
HETATM   13  C1  UNL     1      26.691  46.647  63.122  1.00  0.00     0.054 C 
BRANCH  12  14
HETATM   14  C11 UNL     1      26.271  45.110  61.365  1.00  0.00     0.056 C 
BRANCH  14  15
HETATM   15  O3  UNL     1      27.020  45.530  60.347  1.00  0.00    -0.364 OA
ATOM     16  H3  UNL     1      26.522  45.890  59.623  1.00  0.00     0.217 HD
ENDBRANCH  14  15
BRANCH  14  17
HETATM   17  C12 UNL     1      26.149  43.684  61.425  1.00  0.00     0.043 C 
HETATM   18  C13 UNL     1      26.619  43.044  60.098  1.00  0.00     0.011 C 
HETATM   19  C14 UNL     1      25.530  43.297  59.126  1.00  0.00     0.001 C 
HETATM   20  C15 UNL     1      24.316  43.640  59.938  1.00  0.00     0.001 C 
HETATM   21  C16 UNL     1      24.680  43.258  61.362  1.00  0.00     0.011 C 
ENDBRANCH  14  17
ENDBRANCH  12  14
BRANCH  11  22
HETATM   22  O1  UNL     1      24.520  47.814  63.173  1.00  0.00    -0.357 OA
ATOM     23  H1  UNL     1      24.412  48.678  62.793  1.00  0.00     0.217 HD
ENDBRANCH  11  22
ENDBRANCH   1  11
BRANCH   6  24
HETATM   24  C7  UNL     1      17.456  46.044  61.005  1.00  0.00     0.084 C 
BRANCH  24  25
HETATM   25  C8  UNL     1      16.781  47.110  60.183  1.00  0.00     0.003 C 
HETATM   26  C9  UNL     1      17.056  48.463  60.824  1.00  0.00     0.005 C 
ENDBRANCH  24  25
ENDBRANCH   6  24
TORSDOF 7
ENDMDL
MODEL 2
REMARK VINA RESULT: -7.940536483      0.662      1.305
REMARK  7 active torsions:
REMARK  status: ('A' for Active; 'I' for Inactive)
REMARK    1  A    between atoms: C2_2  and  C11_19 
REMARK    2  A    between atoms: C3_3  and  O1_4 
REMARK    3  A    between atoms: C3_3  and  C4_6 
REMARK    4  A    between atoms: C6_11  and  C7_12 
REMARK    5  A    between atoms: C7_12  and  C8_13 
REMARK    6  A    between atoms: C11_19  and  O3_20 
REMARK    7  A    between atoms: C11_19  and  C12_22 
ROOT
HETATM    1  C4  UNL     1      23.125  46.761  61.688  1.00  0.00     0.112 A 
HETATM    2  N1  UNL     1      21.942  46.620  62.370  1.00  0.00    -0.326 N 
ATOM      3  H1  UNL     1      21.934  46.614  63.390  1.00  0.00     0.168 HD
HETATM    4  C5  UNL     1      20.845  46.496  61.713  1.00  0.00     0.184 A 
HETATM    5  O2  UNL     1      19.555  46.344  62.024  1.00  0.00    -0.278 OA
HETATM    6  C6  UNL     1      18.837  46.266  60.948  1.00  0.00     0.127 A 
HETATM    7  N2  UNL     1      19.607  46.360  59.860  1.00  0.00    -0.331 N 
ATOM      8  H2  UNL     1      19.316  46.331  58.883  1.00  0.00     0.168 HD
HETATM    9  C10 UNL     1      20.875  46.506  60.355  1.00  0.00     0.130 A 
HETATM   10  S1  UNL     1      22.543  46.701  60.097  1.00  0.00    -0.047 SA
ENDROOT
BRANCH   1  11
HETATM   11  C3  UNL     1      24.400  46.874  62.355  1.00  0.00     0.108 C 
HETATM   12  C2  UNL     1      25.687  46.382  62.169  1.00  0.00     0.003 C 
HETATM   13  C1  UNL     1      26.575  46.792  63.212  1.00  0.00     0.054 C 
BRANCH  12  14
HETATM   14  C11 UNL     1      26.320  45.572  61.193  1.00  0.00     0.056 C 
BRANCH  14  15
HETATM   15  O3  UNL     1      27.567  45.944  60.905  1.00  0.00    -0.364 OA
ATOM     16  H3  UNL     1      28.013  45.362  60.301  1.00  0.00     0.217 HD
ENDBRANCH  14  15
BRANCH  14  17
HETATM   17  C12 UNL     1      25.885  44.430  60.445  1.00  0.00     0.043 C 
HETATM   18  C13 UNL     1      25.316  43.348  61.391  1.00  0.00     0.011 C 
HETATM   19  C14 UNL     1      26.494  42.726  62.040  1.00  0.00     0.001 C 
HETATM   20  C15 UNL     1      27.677  43.087  61.192  1.00  0.00     0.001 C 
HETATM   21  C16 UNL     1      27.083  43.641  59.909  1.00  0.00     0.011 C 
ENDBRANCH  14  17
ENDBRANCH  12  14
BRANCH  11  22
HETATM   22  O1  UNL     1      24.284  47.671  63.450  1.00  0.00    -0.357 OA
ATOM     23  H1  UNL     1      24.572  48.563  63.296  1.00  0.00     0.217 HD
ENDBRANCH  11  22
ENDBRANCH   1  11
BRANCH   6  24
HETATM   24  C7  UNL     1      17.349  46.093  61.003  1.00  0.00     0.084 C 
BRANCH  24  25
HETATM   25  C8  UNL     1      16.698  47.176  60.184  1.00  0.00     0.003 C 
HETATM   26  C9  UNL     1      17.038  48.524  60.804  1.00  0.00     0.005 C 
ENDBRANCH  24  25
ENDBRANCH   6  24
TORSDOF 7
ENDMDL
MODEL 3
REMARK VINA RESULT: -7.917775492      1.120      1.369
REMARK  7 active torsions:
REMARK  status: ('A' for Active; 'I' for Inactive)
REMARK    1  A    between atoms: C2_2  and  C11_19 
REMARK    2  A    between atoms: C3_3  and  O1_4 
REMARK    3  A    between atoms: C3_3  and  C4_6 
REMARK    4  A    between atoms: C6_11  and  C7_12 
REMARK    5  A    between atoms: C7_12  and  C8_13 
REMARK    6  A    between atoms: C11_19  and  O3_20 
REMARK    7  A    between atoms: C11_19  and  C12_22 
ROOT
HETATM    1  C4  UNL     1      23.459  46.410  61.201  1.00  0.00     0.112 A 
HETATM    2  N1  UNL     1      22.374  46.252  62.027  1.00  0.00    -0.326 N 
ATOM      3  H1  UNL     1      22.506  46.112  63.029  1.00  0.00     0.168 HD
HETATM    4  C5  UNL     1      21.191  46.284  61.528  1.00  0.00     0.184 A 
HETATM    5  O2  UNL     1      19.947  46.171  62.004  1.00  0.00    -0.278 OA
HETATM    6  C6  UNL     1      19.084  46.279  61.044  1.00  0.00     0.127 A 
HETATM    7  N2  UNL     1      19.702  46.470  59.874  1.00  0.00    -0.331 N 
ATOM      8  H2  UNL     1      19.278  46.588  58.954  1.00  0.00     0.168 HD
HETATM    9  C10 UNL     1      21.034  46.470  60.191  1.00  0.00     0.130 A 
HETATM   10  S1  UNL     1      22.660  46.596  59.717  1.00  0.00    -0.047 SA
ENDROOT
BRANCH   1  11
HETATM   11  C3  UNL     1      24.818  46.355  61.683  1.00  0.00     0.108 C 
HETATM   12  C2  UNL     1      25.889  45.473  61.594  1.00  0.00     0.003 C 
HETATM   13  C1  UNL     1      27.020  45.922  62.343  1.00  0.00     0.054 C 
BRANCH  12  14
HETATM   14  C11 UNL     1      26.119  44.236  60.938  1.00  0.00     0.056 C 
BRANCH  14  15
HETATM   15  O3  UNL     1      25.436  43.215  61.451  1.00  0.00    -0.364 OA
ATOM     16  H3  UNL     1      24.653  42.989  60.962  1.00  0.00     0.217 HD
ENDBRANCH  14  15
BRANCH  14  17
HETATM   17  C12 UNL     1      26.949  43.861  59.832  1.00  0.00     0.043 C 
HETATM   18  C13 UNL     1      27.203  45.075  58.909  1.00  0.00     0.011 C 
HETATM   19  C14 UNL     1      25.942  45.274  58.156  1.00  0.00     0.001 C 
HETATM   20  C15 UNL     1      25.175  43.991  58.280  1.00  0.00     0.001 C 
HETATM   21  C16 UNL     1      26.173  42.992  58.838  1.00  0.00     0.011 C 
ENDBRANCH  14  17
ENDBRANCH  12  14
BRANCH  11  22
HETATM   22  O1  UNL     1      25.099  47.466  62.414  1.00  0.00    -0.357 OA
ATOM     23  H1  UNL     1      24.339  47.823  62.859  1.00  0.00     0.217 HD
ENDBRANCH  11  22
ENDBRANCH   1  11
BRANCH   6  24
HETATM   24  C7  UNL     1      17.609  46.192  61.295  1.00  0.00     0.084 C 
BRANCH  24  25
HETATM   25  C8  UNL     1      16.888  47.050  60.288  1.00  0.00     0.003 C 
HETATM   26  C9  UNL     1      16.968  48.501  60.741  1.00  0.00     0.005 C 
ENDBRANCH  24  25
ENDBRANCH   6  24
TORSDOF 7
ENDMDL
MODEL 4
REMARK VINA RESULT: -7.809475414      3.992      5.795
REMARK  7 active torsions:
REMARK  status: ('A' for Active; 'I' for Inactive)
REMARK    1  A    between atoms: C2_2  and  C11_19 
REMARK    2  A    between atoms: C3_3  and  O1_4 
REMARK    3  A    between atoms: C3_3  and  C4_6 
REMARK    4  A    between atoms: C6_11  and  C7_12 
REMARK    5  A    between atoms: C7_12  and  C8_13 
REMARK    6  A    between atoms: C11_19  and  O3_20 
REMARK    7  A    between atoms: C11_19  and  C12_22 
ROOT
HETATM    1  C4  UNL     1      23.256  45.302  58.535  1.00  0.00     0.112 A 
HETATM    2  N1  UNL     1      22.982  46.647  58.587  1.00  0.00    -0.326 N 
ATOM      3  H1  UNL     1      22.873  47.115  59.487  1.00  0.00     0.168 HD
HETATM    4  C5  UNL     1      22.865  47.309  57.493  1.00  0.00     0.184 A 
HETATM    5  O2  UNL     1      22.611  48.580  57.166  1.00  0.00    -0.278 OA
HETATM    6  C6  UNL     1      22.602  48.722  55.879  1.00  0.00     0.127 A 
HETATM    7  N2  UNL     1      22.848  47.555  55.275  1.00  0.00    -0.331 N 
ATOM      8  H2  UNL     1      22.901  47.368  54.273  1.00  0.00     0.168 HD
HETATM    9  C10 UNL     1      23.012  46.669  56.304  1.00  0.00     0.130 A 
HETATM   10  S1  UNL     1      23.324  45.092  56.854  1.00  0.00    -0.047 SA
ENDROOT
BRANCH   1  11
HETATM   11  C3  UNL     1      23.371  44.485  59.719  1.00  0.00     0.108 C 
HETATM   12  C2  UNL     1      22.604  44.227  60.850  1.00  0.00     0.003 C 
HETATM   13  C1  UNL     1      23.263  43.339  61.756  1.00  0.00     0.054 C 
BRANCH  12  14
HETATM   14  C11 UNL     1      21.329  44.639  61.313  1.00  0.00     0.056 C 
BRANCH  14  15
HETATM   15  O3  UNL     1      20.645  43.684  61.940  1.00  0.00    -0.364 OA
ATOM     16  H3  UNL     1      21.148  43.216  62.597  1.00  0.00     0.217 HD
ENDBRANCH  14  15
BRANCH  14  17
HETATM   17  C12 UNL     1      20.620  45.882  61.236  1.00  0.00     0.043 C 
HETATM   18  C13 UNL     1      21.595  47.072  61.392  1.00  0.00     0.011 C 
HETATM   19  C14 UNL     1      21.934  47.122  62.834  1.00  0.00     0.001 C 
HETATM   20  C15 UNL     1      20.876  46.328  63.540  1.00  0.00     0.001 C 
HETATM   21  C16 UNL     1      19.790  46.115  62.501  1.00  0.00     0.011 C 
ENDBRANCH  14  17
ENDBRANCH  12  14
BRANCH  11  22
HETATM   22  O1  UNL     1      24.545  43.800  59.701  1.00  0.00    -0.357 OA
ATOM     23  H1  UNL     1      24.869  43.589  60.569  1.00  0.00     0.217 HD
ENDBRANCH  11  22
ENDBRANCH   1  11
BRANCH   6  24
HETATM   24  C7  UNL     1      22.343  50.049  55.232  1.00  0.00     0.084 C 
BRANCH  24  25
HETATM   25  C8  UNL     1      21.318  49.873  54.143  1.00  0.00     0.003 C 
HETATM   26  C9  UNL     1      20.591  51.196  53.942  1.00  0.00     0.005 C 
ENDBRANCH  24  25
ENDBRANCH   6  24
TORSDOF 7
ENDMDL
MODEL 5
REMARK VINA RESULT: -7.755322603      2.224      3.244
REMARK  7 active torsions:
REMARK  status: ('A' for Active; 'I' for Inactive)
REMARK    1  A    between atoms: C2_2  and  C11_19 
REMARK    2  A    between atoms: C3_3  and  O1_4 
REMARK    3  A    between atoms: C3_3  and  C4_6 
REMARK    4  A    between atoms: C6_11  and  C7_12 
REMARK    5  A    between atoms: C7_12  and  C8_13 
REMARK    6  A    between atoms: C11_19  and  O3_20 
REMARK    7  A    between atoms: C11_19  and  C12_22 
ROOT
HETATM    1  C4  UNL     1      23.068  46.176  58.901  1.00  0.00     0.112 A 
HETATM    2  N1  UNL     1      21.715  46.147  58.667  1.00  0.00    -0.326 N 
ATOM      3  H1  UNL     1      21.359  46.063  57.715  1.00  0.00     0.168 HD
HETATM    4  C5  UNL     1      20.902  46.227  59.659  1.00  0.00     0.184 A 
HETATM    5  O2  UNL     1      19.575  46.231  59.809  1.00  0.00    -0.278 OA
HETATM    6  C6  UNL     1      19.262  46.338  61.062  1.00  0.00     0.127 A 
HETATM    7  N2  UNL     1      20.363  46.410  61.817  1.00  0.00    -0.331 N 
ATOM      8  H2  UNL     1      20.422  46.498  62.831  1.00  0.00     0.168 HD
HETATM    9  C10 UNL     1      21.395  46.340  60.920  1.00  0.00     0.130 A 
HETATM   10  S1  UNL     1      23.061  46.322  60.590  1.00  0.00    -0.047 SA
ENDROOT
BRANCH   1  11
HETATM   11  C3  UNL     1      24.043  46.123  57.838  1.00  0.00     0.108 C 
HETATM   12  C2  UNL     1      25.130  45.326  57.500  1.00  0.00     0.003 C 
HETATM   13  C1  UNL     1      25.790  45.790  56.319  1.00  0.00     0.054 C 
BRANCH  12  14
HETATM   14  C11 UNL     1      25.736  44.169  58.051  1.00  0.00     0.056 C 
BRANCH  14  15
HETATM   15  O3  UNL     1      24.930  43.110  58.110  1.00  0.00    -0.364 OA
ATOM     16  H3  UNL     1      25.303  42.366  58.568  1.00  0.00     0.217 HD
ENDBRANCH  14  15
BRANCH  14  17
HETATM   17  C12 UNL     1      27.048  43.908  58.565  1.00  0.00     0.043 C 
HETATM   18  C13 UNL     1      26.982  42.887  59.724  1.00  0.00     0.011 C 
HETATM   19  C14 UNL     1      26.454  43.637  60.888  1.00  0.00     0.001 C 
HETATM   20  C15 UNL     1      26.645  45.090  60.569  1.00  0.00     0.001 C 
HETATM   21  C16 UNL     1      27.568  45.107  59.364  1.00  0.00     0.011 C 
ENDBRANCH  14  17
ENDBRANCH  12  14
BRANCH  11  22
HETATM   22  O1  UNL     1      23.818  47.128  56.949  1.00  0.00    -0.357 OA
ATOM     23  H1  UNL     1      23.047  47.644  57.155  1.00  0.00     0.217 HD
ENDBRANCH  11  22
ENDBRANCH   1  11
BRANCH   6  24
HETATM   24  C7  UNL     1      17.836  46.368  61.521  1.00  0.00     0.084 C 
BRANCH  24  25
HETATM   25  C8  UNL     1      16.982  46.965  60.434  1.00  0.00     0.003 C 
HETATM   26  C9  UNL     1      16.889  48.468  60.662  1.00  0.00     0.005 C 
ENDBRANCH  24  25
ENDBRANCH   6  24
TORSDOF 7
ENDMDL
