MODEL 1
REMARK VINA RESULT: -6.974079565      0.000      0.000
REMARK  3 active torsions:
REMARK  status: ('A' for Active; 'I' for Inactive)
REMARK    1  A    between atoms: C2_2  and  O1_5 
REMARK    2  A    between atoms: O1_5  and  C5_6 
REMARK       I    between atoms: C5_6  and  N1_8 
REMARK    3  A    between atoms: N1_8  and  C6_10 
ROOT
HETATM    1  C6  UNL     1       2.904 -10.718 -11.596  1.00  0.00     0.036 C 
HETATM    2  C7  UNL     1       1.549 -10.374 -11.080  1.00  0.00     0.035 C 
HETATM    3  C8  UNL     1       0.486 -11.397 -11.375  1.00  0.00    -0.012 C 
HETATM    4  C9  UNL     1       0.347 -12.448 -10.321  1.00  0.00     0.005 C 
HETATM    5  C10 UNL     1       1.485 -13.319 -10.069  1.00  0.00     0.005 C 
HETATM    6  C11 UNL     1       2.703 -13.144 -10.913  1.00  0.00    -0.012 C 
HETATM    7  C12 UNL     1       2.462 -13.490 -12.364  1.00  0.00     0.009 C 
HETATM    8  C13 UNL     1       1.962 -12.338 -13.163  1.00  0.00    -0.012 C 
HETATM    9  C14 UNL     1       0.573 -11.932 -12.774  1.00  0.00     0.009 C 
HETATM   10  C15 UNL     1       2.882 -11.168 -13.040  1.00  0.00     0.035 C 
HETATM   11  C16 UNL     1       3.417 -11.847 -10.716  1.00  0.00     0.035 C 
ENDROOT
BRANCH   1  12
HETATM   12  N1  UNL     1       3.794  -9.610 -11.482  1.00  0.00    -0.328 N 
HETATM   13  C5  UNL     1       3.525  -8.301 -11.977  1.00  0.00     0.361 C 
HETATM   14  O2  UNL     1       2.484  -7.956 -12.574  1.00  0.00    -0.238 OA
ATOM     15  H1  UNL     1       4.686  -9.765 -11.011  1.00  0.00     0.165 HD
BRANCH  13  16
HETATM   16  O1  UNL     1       4.473  -7.272 -11.811  1.00  0.00    -0.294 OA
BRANCH  16  17
HETATM   17  C2  UNL     1       4.399  -6.368 -10.727  1.00  0.00     0.061 C 
HETATM   18  C1  UNL     1       5.704  -5.658 -10.594  1.00  0.00     0.046 C 
HETATM   19  C3  UNL     1       4.147  -7.110  -9.412  1.00  0.00     0.046 C 
HETATM   20  C4  UNL     1       3.307  -5.352 -10.885  1.00  0.00     0.046 C 
ENDBRANCH  16  17
ENDBRANCH  13  16
ENDBRANCH   1  12
TORSDOF 3
ENDMDL
MODEL 2
REMARK VINA RESULT: -6.892287559      1.221      1.982
REMARK  3 active torsions:
REMARK  status: ('A' for Active; 'I' for Inactive)
REMARK    1  A    between atoms: C2_2  and  O1_5 
REMARK    2  A    between atoms: O1_5  and  C5_6 
REMARK       I    between atoms: C5_6  and  N1_8 
REMARK    3  A    between atoms: N1_8  and  C6_10 
ROOT
HETATM    1  C6  UNL     1       2.698 -10.784 -11.180  1.00  0.00     0.036 C 
HETATM    2  C7  UNL     1       2.667 -11.666  -9.979  1.00  0.00     0.035 C 
HETATM    3  C8  UNL     1       1.546 -12.669  -9.966  1.00  0.00    -0.012 C 
HETATM    4  C9  UNL     1       1.894 -13.975 -10.606  1.00  0.00     0.005 C 
HETATM    5  C10 UNL     1       2.228 -13.975 -12.022  1.00  0.00     0.005 C 
HETATM    6  C11 UNL     1       2.153 -12.681 -12.761  1.00  0.00    -0.012 C 
HETATM    7  C12 UNL     1       0.744 -12.143 -12.855  1.00  0.00     0.009 C 
HETATM    8  C13 UNL     1       0.365 -11.295 -11.692  1.00  0.00    -0.012 C 
HETATM    9  C14 UNL     1       0.243 -12.084 -10.423  1.00  0.00     0.009 C 
HETATM   10  C15 UNL     1       1.347 -10.186 -11.502  1.00  0.00     0.035 C 
HETATM   11  C16 UNL     1       3.158 -11.661 -12.335  1.00  0.00     0.035 C 
ENDROOT
BRANCH   1  12
HETATM   12  N1  UNL     1       3.635  -9.722 -11.014  1.00  0.00    -0.328 N 
HETATM   13  C5  UNL     1       3.473  -8.634 -10.107  1.00  0.00     0.361 C 
HETATM   14  O2  UNL     1       2.496  -8.469  -9.347  1.00  0.00    -0.238 OA
ATOM     15  H1  UNL     1       4.481  -9.742 -11.584  1.00  0.00     0.165 HD
BRANCH  13  16
HETATM   16  O1  UNL     1       4.460  -7.634 -10.017  1.00  0.00    -0.294 OA
BRANCH  16  17
HETATM   17  C2  UNL     1       4.488  -6.541 -10.914  1.00  0.00     0.061 C 
HETATM   18  C1  UNL     1       5.522  -6.794 -11.959  1.00  0.00     0.046 C 
HETATM   19  C3  UNL     1       4.877  -5.250 -10.190  1.00  0.00     0.046 C 
HETATM   20  C4  UNL     1       3.168  -6.299 -11.584  1.00  0.00     0.046 C 
ENDBRANCH  16  17
ENDBRANCH  13  16
ENDBRANCH   1  12
TORSDOF 3
ENDMDL
MODEL 3
REMARK VINA RESULT: -6.862657406      1.360      2.549
REMARK  3 active torsions:
REMARK  status: ('A' for Active; 'I' for Inactive)
REMARK    1  A    between atoms: C2_2  and  O1_5 
REMARK    2  A    between atoms: O1_5  and  C5_6 
REMARK       I    between atoms: C5_6  and  N1_8 
REMARK    3  A    between atoms: N1_8  and  C6_10 
ROOT
HETATM    1  C6  UNL     1       2.377 -10.990 -11.167  1.00  0.00     0.036 C 
HETATM    2  C7  UNL     1       3.074 -12.269 -10.854  1.00  0.00     0.035 C 
HETATM    3  C8  UNL     1       2.545 -13.470 -11.589  1.00  0.00    -0.012 C 
HETATM    4  C9  UNL     1       3.212 -13.718 -12.904  1.00  0.00     0.005 C 
HETATM    5  C10 UNL     1       3.087 -12.702 -13.938  1.00  0.00     0.005 C 
HETATM    6  C11 UNL     1       2.258 -11.497 -13.642  1.00  0.00    -0.012 C 
HETATM    7  C12 UNL     1       0.794 -11.827 -13.461  1.00  0.00     0.009 C 
HETATM    8  C13 UNL     1       0.446 -12.190 -12.061  1.00  0.00    -0.012 C 
HETATM    9  C14 UNL     1       1.046 -13.499 -11.642  1.00  0.00     0.009 C 
HETATM   10  C15 UNL     1       0.870 -11.116 -11.114  1.00  0.00     0.035 C 
HETATM   11  C16 UNL     1       2.808 -10.609 -12.575  1.00  0.00     0.035 C 
ENDROOT
BRANCH   1  12
HETATM   12  N1  UNL     1       2.775  -9.954 -10.272  1.00  0.00    -0.328 N 
HETATM   13  C5  UNL     1       2.266  -8.623 -10.296  1.00  0.00     0.361 C 
HETATM   14  O2  UNL     1       1.412  -8.193 -11.099  1.00  0.00    -0.238 OA
ATOM     15  H1  UNL     1       3.475 -10.182  -9.565  1.00  0.00     0.165 HD
BRANCH  13  16
HETATM   16  O1  UNL     1       2.725  -7.672  -9.365  1.00  0.00    -0.294 OA
BRANCH  16  17
HETATM   17  C2  UNL     1       3.745  -6.750  -9.693  1.00  0.00     0.061 C 
HETATM   18  C1  UNL     1       4.723  -6.682  -8.568  1.00  0.00     0.046 C 
HETATM   19  C3  UNL     1       3.171  -5.344  -9.883  1.00  0.00     0.046 C 
HETATM   20  C4  UNL     1       4.477  -7.109 -10.952  1.00  0.00     0.046 C 
ENDBRANCH  16  17
ENDBRANCH  13  16
ENDBRANCH   1  12
TORSDOF 3
ENDMDL
MODEL 4
REMARK VINA RESULT: -6.854827086      3.032      4.212
REMARK  3 active torsions:
REMARK  status: ('A' for Active; 'I' for Inactive)
REMARK    1  A    between atoms: C2_2  and  O1_5 
REMARK    2  A    between atoms: O1_5  and  C5_6 
REMARK       I    between atoms: C5_6  and  N1_8 
REMARK    3  A    between atoms: N1_8  and  C6_10 
ROOT
HETATM    1  C6  UNL     1       0.922 -10.197  -9.687  1.00  0.00     0.036 C 
HETATM    2  C7  UNL     1       1.674  -9.731 -10.886  1.00  0.00     0.035 C 
HETATM    3  C8  UNL     1       2.720 -10.691 -11.384  1.00  0.00    -0.012 C 
HETATM    4  C9  UNL     1       2.213 -11.672 -12.392  1.00  0.00     0.005 C 
HETATM    5  C10 UNL     1       1.178 -12.606 -11.977  1.00  0.00     0.005 C 
HETATM    6  C11 UNL     1       0.721 -12.563 -10.557  1.00  0.00    -0.012 C 
HETATM    7  C12 UNL     1       1.804 -12.969  -9.584  1.00  0.00     0.009 C 
HETATM    8  C13 UNL     1       2.660 -11.829  -9.155  1.00  0.00    -0.012 C 
HETATM    9  C14 UNL     1       3.515 -11.305 -10.269  1.00  0.00     0.009 C 
HETATM   10  C15 UNL     1       1.828 -10.722  -8.596  1.00  0.00     0.035 C 
HETATM   11  C16 UNL     1       0.005 -11.311 -10.170  1.00  0.00     0.035 C 
ENDROOT
BRANCH   1  12
HETATM   12  N1  UNL     1       0.120  -9.150  -9.144  1.00  0.00    -0.328 N 
HETATM   13  C5  UNL     1      -0.684  -8.263  -9.918  1.00  0.00     0.361 C 
HETATM   14  O2  UNL     1      -0.789  -8.284 -11.161  1.00  0.00    -0.238 OA
ATOM     15  H1  UNL     1       0.122  -9.028  -8.131  1.00  0.00     0.165 HD
BRANCH  13  16
HETATM   16  O1  UNL     1      -1.442  -7.260  -9.283  1.00  0.00    -0.294 OA
BRANCH  16  17
HETATM   17  C2  UNL     1      -0.898  -5.984  -9.011  1.00  0.00     0.061 C 
HETATM   18  C1  UNL     1      -1.515  -5.446  -7.763  1.00  0.00     0.046 C 
HETATM   19  C3  UNL     1      -1.220  -5.000 -10.139  1.00  0.00     0.046 C 
HETATM   20  C4  UNL     1       0.592  -6.005  -8.846  1.00  0.00     0.046 C 
ENDBRANCH  16  17
ENDBRANCH  13  16
ENDBRANCH   1  12
TORSDOF 3
ENDMDL
MODEL 5
REMARK VINA RESULT: -6.804479999      1.810      6.309
REMARK  3 active torsions:
REMARK  status: ('A' for Active; 'I' for Inactive)
REMARK    1  A    between atoms: C2_2  and  O1_5 
REMARK    2  A    between atoms: O1_5  and  C5_6 
REMARK       I    between atoms: C5_6  and  N1_8 
REMARK    3  A    between atoms: N1_8  and  C6_10 
ROOT
HETATM    1  C6  UNL     1       3.958  -7.782 -11.239  1.00  0.00     0.036 C 
HETATM    2  C7  UNL     1       2.793  -7.024 -11.775  1.00  0.00     0.035 C 
HETATM    3  C8  UNL     1       2.602  -5.657 -11.176  1.00  0.00    -0.012 C 
HETATM    4  C9  UNL     1       3.325  -4.570 -11.904  1.00  0.00     0.005 C 
HETATM    5  C10 UNL     1       4.778  -4.632 -11.959  1.00  0.00     0.005 C 
HETATM    6  C11 UNL     1       5.461  -5.748 -11.242  1.00  0.00    -0.012 C 
HETATM    7  C12 UNL     1       5.288  -5.670  -9.742  1.00  0.00     0.009 C 
HETATM    8  C13 UNL     1       4.056  -6.352  -9.261  1.00  0.00    -0.012 C 
HETATM    9  C14 UNL     1       2.805  -5.646  -9.690  1.00  0.00     0.009 C 
HETATM   10  C15 UNL     1       4.019  -7.770  -9.728  1.00  0.00     0.035 C 
HETATM   11  C16 UNL     1       5.197  -7.105 -11.806  1.00  0.00     0.035 C 
ENDROOT
BRANCH   1  12
HETATM   12  N1  UNL     1       3.937  -9.138 -11.681  1.00  0.00    -0.328 N 
HETATM   13  C5  UNL     1       2.886 -10.061 -11.409  1.00  0.00     0.361 C 
HETATM   14  O2  UNL     1       1.855  -9.806 -10.753  1.00  0.00    -0.238 OA
ATOM     15  H1  UNL     1       4.731  -9.470 -12.229  1.00  0.00     0.165 HD
BRANCH  13  16
HETATM   16  O1  UNL     1       2.960 -11.382 -11.893  1.00  0.00    -0.294 OA
BRANCH  16  17
HETATM   17  C2  UNL     1       2.324 -11.764 -13.096  1.00  0.00     0.061 C 
HETATM   18  C1  UNL     1       1.001 -12.374 -12.776  1.00  0.00     0.046 C 
HETATM   19  C3  UNL     1       3.146 -12.821 -13.838  1.00  0.00     0.046 C 
HETATM   20  C4  UNL     1       2.115 -10.616 -14.039  1.00  0.00     0.046 C 
ENDBRANCH  16  17
ENDBRANCH  13  16
ENDBRANCH   1  12
TORSDOF 3
ENDMDL
