MODEL 1
REMARK VINA RESULT: -5.904476273      0.000      0.000
REMARK  4 active torsions:
REMARK  status: ('A' for Active; 'I' for Inactive)
REMARK    1  A    between atoms: C2_2  and  N1_4 
REMARK    2  A    between atoms: N1_4  and  C4_6 
REMARK    3  A    between atoms: C4_6  and  N2_8 
REMARK    4  A    between atoms: N2_8  and  C5_10 
ROOT
HETATM    1  N2  UNL     1      28.968 -48.570 -12.098  1.00  0.00    -0.363 N 
ATOM      2  H2  UNL     1      28.234 -48.523 -11.391  1.00  0.00     0.162 HD
ENDROOT
BRANCH   1   3
HETATM    3  C4  UNL     1      30.278 -48.673 -11.624  1.00  0.00     0.168 C 
HETATM    4  S1  UNL     1      30.605 -49.320 -10.159  1.00  0.00    -0.041 SA
BRANCH   3   5
HETATM    5  N1  UNL     1      31.390 -48.229 -12.376  1.00  0.00    -0.363 N 
ATOM      6  H1  UNL     1      31.575 -47.226 -12.407  1.00  0.00     0.162 HD
BRANCH   5   7
HETATM    7  C2  UNL     1      32.274 -49.093 -13.098  1.00  0.00     0.075 C 
HETATM    8  C1  UNL     1      32.291 -48.733 -14.574  1.00  0.00     0.032 C 
HETATM    9  C3  UNL     1      33.671 -48.973 -12.521  1.00  0.00     0.032 C 
ENDBRANCH   5   7
ENDBRANCH   3   5
ENDBRANCH   1   3
BRANCH   1  10
HETATM   10  C5  UNL     1      28.539 -48.521 -13.464  1.00  0.00     0.083 C 
HETATM   11  C6  UNL     1      28.646 -49.808 -14.221  1.00  0.00     0.025 C 
HETATM   12  C7  UNL     1      28.346 -49.473 -15.685  1.00  0.00     0.002 C 
HETATM   13  C8  UNL     1      27.054 -48.743 -15.847  1.00  0.00     0.000 C 
HETATM   14  C9  UNL     1      26.287 -48.808 -14.546  1.00  0.00     0.002 C 
HETATM   15  C10 UNL     1      27.105 -48.041 -13.507  1.00  0.00     0.025 C 
ENDBRANCH   1  10
TORSDOF 4
ENDMDL
MODEL 2
REMARK VINA RESULT: -5.867092369      8.308      9.603
REMARK  4 active torsions:
REMARK  status: ('A' for Active; 'I' for Inactive)
REMARK    1  A    between atoms: C2_2  and  N1_4 
REMARK    2  A    between atoms: N1_4  and  C4_6 
REMARK    3  A    between atoms: C4_6  and  N2_8 
REMARK    4  A    between atoms: N2_8  and  C5_10 
ROOT
HETATM    1  N2  UNL     1      25.417 -42.835 -11.173  1.00  0.00    -0.363 N 
ATOM      2  H2  UNL     1      26.183 -43.504 -11.253  1.00  0.00     0.162 HD
ENDROOT
BRANCH   1   3
HETATM    3  C4  UNL     1      25.523 -41.677 -11.947  1.00  0.00     0.168 C 
HETATM    4  S1  UNL     1      26.220 -40.321 -11.359  1.00  0.00    -0.041 SA
BRANCH   3   5
HETATM    5  N1  UNL     1      25.039 -41.610 -13.274  1.00  0.00    -0.363 N 
ATOM      6  H1  UNL     1      25.656 -41.926 -14.023  1.00  0.00     0.162 HD
BRANCH   5   7
HETATM    7  C2  UNL     1      23.741 -41.128 -13.637  1.00  0.00     0.075 C 
HETATM    8  C1  UNL     1      23.769 -40.504 -15.023  1.00  0.00     0.032 C 
HETATM    9  C3  UNL     1      22.755 -42.278 -13.609  1.00  0.00     0.032 C 
ENDBRANCH   5   7
ENDBRANCH   3   5
ENDBRANCH   1   3
BRANCH   1  10
HETATM   10  C5  UNL     1      24.353 -43.190 -10.279  1.00  0.00     0.083 C 
HETATM   11  C6  UNL     1      24.168 -44.657 -10.046  1.00  0.00     0.025 C 
HETATM   12  C7  UNL     1      22.867 -44.805  -9.251  1.00  0.00     0.002 C 
HETATM   13  C8  UNL     1      22.853 -43.957  -8.023  1.00  0.00     0.000 C 
HETATM   14  C9  UNL     1      24.247 -43.424  -7.778  1.00  0.00     0.002 C 
HETATM   15  C10 UNL     1      24.585 -42.504  -8.951  1.00  0.00     0.025 C 
ENDBRANCH   1  10
TORSDOF 4
ENDMDL
MODEL 3
REMARK VINA RESULT: -5.775192503      1.802      5.095
REMARK  4 active torsions:
REMARK  status: ('A' for Active; 'I' for Inactive)
REMARK    1  A    between atoms: C2_2  and  N1_4 
REMARK    2  A    between atoms: N1_4  and  C4_6 
REMARK    3  A    between atoms: C4_6  and  N2_8 
REMARK    4  A    between atoms: N2_8  and  C5_10 
ROOT
HETATM    1  N2  UNL     1      30.288 -48.074 -11.293  1.00  0.00    -0.363 N 
ATOM      2  H2  UNL     1      30.379 -47.336 -10.595  1.00  0.00     0.162 HD
ENDROOT
BRANCH   1   3
HETATM    3  C4  UNL     1      29.041 -48.191 -11.911  1.00  0.00     0.168 C 
HETATM    4  S1  UNL     1      27.785 -47.238 -11.482  1.00  0.00    -0.041 SA
BRANCH   3   5
HETATM    5  N1  UNL     1      28.793 -49.132 -12.937  1.00  0.00    -0.363 N 
ATOM      6  H1  UNL     1      28.532 -50.079 -12.662  1.00  0.00     0.162 HD
BRANCH   5   7
HETATM    7  C2  UNL     1      28.883 -48.844 -14.337  1.00  0.00     0.075 C 
HETATM    8  C1  UNL     1      30.203 -49.338 -14.903  1.00  0.00     0.032 C 
HETATM    9  C3  UNL     1      27.729 -49.510 -15.059  1.00  0.00     0.032 C 
ENDBRANCH   5   7
ENDBRANCH   3   5
ENDBRANCH   1   3
BRANCH   1  10
HETATM   10  C5  UNL     1      31.455 -48.873 -11.529  1.00  0.00     0.083 C 
HETATM   11  C6  UNL     1      32.635 -48.143 -12.088  1.00  0.00     0.025 C 
HETATM   12  C7  UNL     1      33.668 -49.212 -12.456  1.00  0.00     0.002 C 
HETATM   13  C8  UNL     1      33.966 -50.130 -11.317  1.00  0.00     0.000 C 
HETATM   14  C9  UNL     1      33.374 -49.550 -10.052  1.00  0.00     0.002 C 
HETATM   15  C10 UNL     1      31.856 -49.543 -10.233  1.00  0.00     0.025 C 
ENDBRANCH   1  10
TORSDOF 4
ENDMDL
MODEL 4
REMARK VINA RESULT: -5.771076902      1.546      1.885
REMARK  4 active torsions:
REMARK  status: ('A' for Active; 'I' for Inactive)
REMARK    1  A    between atoms: C2_2  and  N1_4 
REMARK    2  A    between atoms: N1_4  and  C4_6 
REMARK    3  A    between atoms: C4_6  and  N2_8 
REMARK    4  A    between atoms: N2_8  and  C5_10 
ROOT
HETATM    1  N2  UNL     1      30.103 -48.962 -13.253  1.00  0.00    -0.363 N 
ATOM      2  H2  UNL     1      30.891 -49.532 -13.561  1.00  0.00     0.162 HD
ENDROOT
BRANCH   1   3
HETATM    3  C4  UNL     1      30.265 -48.287 -12.041  1.00  0.00     0.168 C 
HETATM    4  S1  UNL     1      29.027 -47.482 -11.342  1.00  0.00    -0.041 SA
BRANCH   3   5
HETATM    5  N1  UNL     1      31.500 -48.260 -11.351  1.00  0.00    -0.363 N 
ATOM      6  H1  UNL     1      31.697 -47.453 -10.759  1.00  0.00     0.162 HD
BRANCH   5   7
HETATM    7  C2  UNL     1      32.490 -49.291 -11.428  1.00  0.00     0.075 C 
HETATM    8  C1  UNL     1      33.580 -48.915 -12.418  1.00  0.00     0.032 C 
HETATM    9  C3  UNL     1      33.094 -49.507 -10.054  1.00  0.00     0.032 C 
ENDBRANCH   5   7
ENDBRANCH   3   5
ENDBRANCH   1   3
BRANCH   1  10
HETATM   10  C5  UNL     1      28.956 -48.945 -14.112  1.00  0.00     0.083 C 
HETATM   11  C6  UNL     1      29.242 -48.738 -15.566  1.00  0.00     0.025 C 
HETATM   12  C7  UNL     1      27.885 -48.540 -16.248  1.00  0.00     0.002 C 
HETATM   13  C8  UNL     1      26.926 -49.641 -15.935  1.00  0.00     0.000 C 
HETATM   14  C9  UNL     1      27.678 -50.772 -15.273  1.00  0.00     0.002 C 
HETATM   15  C10 UNL     1      28.197 -50.241 -13.936  1.00  0.00     0.025 C 
ENDBRANCH   1  10
TORSDOF 4
ENDMDL
MODEL 5
REMARK VINA RESULT: -5.766815025      0.580      1.423
REMARK  4 active torsions:
REMARK  status: ('A' for Active; 'I' for Inactive)
REMARK    1  A    between atoms: C2_2  and  N1_4 
REMARK    2  A    between atoms: N1_4  and  C4_6 
REMARK    3  A    between atoms: C4_6  and  N2_8 
REMARK    4  A    between atoms: N2_8  and  C5_10 
ROOT
HETATM    1  N2  UNL     1      29.090 -48.009 -12.496  1.00  0.00    -0.363 N 
ATOM      2  H2  UNL     1      28.798 -47.061 -12.259  1.00  0.00     0.162 HD
ENDROOT
BRANCH   1   3
HETATM    3  C4  UNL     1      30.242 -48.479 -11.861  1.00  0.00     0.168 C 
HETATM    4  S1  UNL     1      30.155 -49.433 -10.537  1.00  0.00    -0.041 SA
BRANCH   3   5
HETATM    5  N1  UNL     1      31.541 -48.162 -12.322  1.00  0.00    -0.363 N 
ATOM      6  H1  UNL     1      31.826 -47.182 -12.306  1.00  0.00     0.162 HD
BRANCH   5   7
HETATM    7  C2  UNL     1      32.482 -49.124 -12.811  1.00  0.00     0.075 C 
HETATM    8  C1  UNL     1      32.708 -48.945 -14.302  1.00  0.00     0.032 C 
HETATM    9  C3  UNL     1      33.792 -48.962 -12.067  1.00  0.00     0.032 C 
ENDBRANCH   5   7
ENDBRANCH   3   5
ENDBRANCH   1   3
BRANCH   1  10
HETATM   10  C5  UNL     1      28.272 -48.708 -13.443  1.00  0.00     0.083 C 
HETATM   11  C6  UNL     1      26.988 -48.031 -13.810  1.00  0.00     0.025 C 
HETATM   12  C7  UNL     1      26.194 -49.039 -14.647  1.00  0.00     0.002 C 
HETATM   13  C8  UNL     1      26.986 -49.573 -15.795  1.00  0.00     0.000 C 
HETATM   14  C9  UNL     1      28.236 -48.739 -15.957  1.00  0.00     0.002 C 
HETATM   15  C10 UNL     1      29.079 -48.950 -14.700  1.00  0.00     0.025 C 
ENDBRANCH   1  10
TORSDOF 4
ENDMDL
