MODEL 1
REMARK VINA RESULT: -5.524845943      0.000      0.000
REMARK  4 active torsions:
REMARK  status: ('A' for Active; 'I' for Inactive)
REMARK    1  A    between atoms: C2_2  and  C3_3 
REMARK    2  A    between atoms: C3_3  and  N1_4 
REMARK    3  A    between atoms: C3_3  and  C6_11 
REMARK       I    between atoms: N1_4  and  C4_6 
REMARK    4  A    between atoms: C4_6  and  C5_8 
ROOT
HETATM    1  C6  UNL     1     124.714 105.342 -44.871  1.00  0.00     0.209 C 
HETATM    2  C7  UNL     1     124.394 105.964 -43.527  1.00  0.00     0.041 C 
HETATM    3  C8  UNL     1     124.647 107.438 -43.873  1.00  0.00     0.018 C 
HETATM    4  C9  UNL     1     123.952 108.371 -42.956  1.00  0.00     0.007 C 
HETATM    5  C10 UNL     1     122.566 108.510 -43.521  1.00  0.00     0.002 C 
HETATM    6  C11 UNL     1     122.631 108.116 -44.975  1.00  0.00     0.033 C 
HETATM    7  C12 UNL     1     123.978 107.522 -45.229  1.00  0.00     0.190 C 
HETATM    8  N2  UNL     1     123.923 106.180 -45.753  1.00  0.00    -0.064 N 
ATOM      9  H21 UNL     1     122.970 105.839 -45.878  1.00  0.00     0.278 HD
ATOM     10  H22 UNL     1     124.214 106.120 -46.729  1.00  0.00     0.278 HD
ENDROOT
BRANCH   1  11
HETATM   11  C3  UNL     1     124.289 103.897 -44.905  1.00  0.00     0.114 C 
BRANCH  11  12
HETATM   12  C2  UNL     1     124.025 103.426 -46.295  1.00  0.00     0.023 C 
HETATM   13  C1  UNL     1     124.195 101.967 -46.512  1.00  0.00     0.007 C 
ENDBRANCH  11  12
BRANCH  11  14
HETATM   14  N1  UNL     1     125.269 103.106 -44.205  1.00  0.00    -0.352 N 
HETATM   15  C4  UNL     1     125.047 102.583 -42.912  1.00  0.00     0.251 C 
HETATM   16  O1  UNL     1     123.952 102.821 -42.359  1.00  0.00    -0.271 OA
ATOM     17  H1  UNL     1     126.161 102.915 -44.662  1.00  0.00     0.163 HD
BRANCH  15  18
HETATM   18  C5  UNL     1     126.065 101.781 -42.228  1.00  0.00     0.269 C 
HETATM   19 CL1  UNL     1     125.371 100.417 -41.326  1.00  0.00    -0.098 Cl
HETATM   20 CL2  UNL     1     127.014 102.743 -41.073  1.00  0.00    -0.098 Cl
ENDBRANCH  15  18
ENDBRANCH  11  14
ENDBRANCH   1  11
TORSDOF 4
ENDMDL
MODEL 2
REMARK VINA RESULT: -5.388882340      0.815      1.102
REMARK  4 active torsions:
REMARK  status: ('A' for Active; 'I' for Inactive)
REMARK    1  A    between atoms: C2_2  and  C3_3 
REMARK    2  A    between atoms: C3_3  and  N1_4 
REMARK    3  A    between atoms: C3_3  and  C6_11 
REMARK       I    between atoms: N1_4  and  C4_6 
REMARK    4  A    between atoms: C4_6  and  C5_8 
ROOT
HETATM    1  C6  UNL     1     124.372 105.107 -45.336  1.00  0.00     0.209 C 
HETATM    2  C7  UNL     1     124.352 105.844 -44.012  1.00  0.00     0.041 C 
HETATM    3  C8  UNL     1     124.223 107.282 -44.535  1.00  0.00     0.018 C 
HETATM    4  C9  UNL     1     123.671 108.213 -43.523  1.00  0.00     0.007 C 
HETATM    5  C10 UNL     1     122.179 108.071 -43.641  1.00  0.00     0.002 C 
HETATM    6  C11 UNL     1     121.886 107.506 -45.008  1.00  0.00     0.033 C 
HETATM    7  C12 UNL     1     123.184 107.090 -45.619  1.00  0.00     0.190 C 
HETATM    8  N2  UNL     1     123.222 105.698 -45.992  1.00  0.00    -0.064 N 
ATOM      9  H21 UNL     1     122.351 105.206 -45.790  1.00  0.00     0.278 HD
ATOM     10  H22 UNL     1     123.221 105.555 -47.003  1.00  0.00     0.278 HD
ENDROOT
BRANCH   1  11
HETATM   11  C3  UNL     1     124.224 103.624 -45.123  1.00  0.00     0.114 C 
BRANCH  11  12
HETATM   12  C2  UNL     1     124.148 102.880 -46.413  1.00  0.00     0.023 C 
HETATM   13  C1  UNL     1     124.317 101.409 -46.307  1.00  0.00     0.007 C 
ENDBRANCH  11  12
BRANCH  11  14
HETATM   14  N1  UNL     1     125.282 103.167 -44.256  1.00  0.00    -0.352 N 
HETATM   15  C4  UNL     1     125.048 102.709 -42.941  1.00  0.00     0.251 C 
HETATM   16  O1  UNL     1     123.872 102.702 -42.519  1.00  0.00    -0.271 OA
ATOM     17  H1  UNL     1     126.239 103.176 -44.608  1.00  0.00     0.163 HD
BRANCH  15  18
HETATM   18  C5  UNL     1     126.146 102.251 -42.086  1.00  0.00     0.269 C 
HETATM   19 CL1  UNL     1     127.573 101.745 -43.015  1.00  0.00    -0.098 Cl
HETATM   20 CL2  UNL     1     125.672 100.877 -41.063  1.00  0.00    -0.098 Cl
ENDBRANCH  15  18
ENDBRANCH  11  14
ENDBRANCH   1  11
TORSDOF 4
ENDMDL
MODEL 3
REMARK VINA RESULT: -5.127386474      3.912      6.146
REMARK  4 active torsions:
REMARK  status: ('A' for Active; 'I' for Inactive)
REMARK    1  A    between atoms: C2_2  and  C3_3 
REMARK    2  A    between atoms: C3_3  and  N1_4 
REMARK    3  A    between atoms: C3_3  and  C6_11 
REMARK       I    between atoms: N1_4  and  C4_6 
REMARK    4  A    between atoms: C4_6  and  C5_8 
ROOT
HETATM    1  C6  UNL     1     124.268 105.508 -43.051  1.00  0.00     0.209 C 
HETATM    2  C7  UNL     1     125.073 104.972 -41.884  1.00  0.00     0.041 C 
HETATM    3  C8  UNL     1     124.582 103.516 -41.897  1.00  0.00     0.018 C 
HETATM    4  C9  UNL     1     125.522 102.588 -41.228  1.00  0.00     0.007 C 
HETATM    5  C10 UNL     1     126.526 102.224 -42.285  1.00  0.00     0.002 C 
HETATM    6  C11 UNL     1     125.888 102.493 -43.624  1.00  0.00     0.033 C 
HETATM    7  C12 UNL     1     124.611 103.229 -43.383  1.00  0.00     0.190 C 
HETATM    8  N2  UNL     1     124.547 104.501 -44.058  1.00  0.00    -0.064 N 
ATOM      9  H21 UNL     1     125.382 104.706 -44.606  1.00  0.00     0.278 HD
ATOM     10  H22 UNL     1     123.878 104.512 -44.828  1.00  0.00     0.278 HD
ENDROOT
BRANCH   1  11
HETATM   11  C3  UNL     1     124.752 106.878 -43.447  1.00  0.00     0.114 C 
BRANCH  11  12
HETATM   12  C2  UNL     1     125.301 106.896 -44.834  1.00  0.00     0.023 C 
HETATM   13  C1  UNL     1     126.040 108.128 -45.206  1.00  0.00     0.007 C 
ENDBRANCH  11  12
BRANCH  11  14
HETATM   14  N1  UNL     1     123.689 107.828 -43.236  1.00  0.00    -0.352 N 
HETATM   15  C4  UNL     1     123.815 108.936 -42.370  1.00  0.00     0.251 C 
HETATM   16  O1  UNL     1     124.897 109.093 -41.766  1.00  0.00    -0.271 OA
ATOM     17  H1  UNL     1     122.808 107.694 -43.733  1.00  0.00     0.163 HD
BRANCH  15  18
HETATM   18  C5  UNL     1     122.714 109.885 -42.178  1.00  0.00     0.269 C 
HETATM   19 CL1  UNL     1     122.935 110.910 -40.745  1.00  0.00    -0.098 Cl
HETATM   20 CL2  UNL     1     121.146 109.066 -42.001  1.00  0.00    -0.098 Cl
ENDBRANCH  15  18
ENDBRANCH  11  14
ENDBRANCH   1  11
TORSDOF 4
ENDMDL
MODEL 4
REMARK VINA RESULT: -5.085030273      3.097      5.483
REMARK  4 active torsions:
REMARK  status: ('A' for Active; 'I' for Inactive)
REMARK    1  A    between atoms: C2_2  and  C3_3 
REMARK    2  A    between atoms: C3_3  and  N1_4 
REMARK    3  A    between atoms: C3_3  and  C6_11 
REMARK       I    between atoms: N1_4  and  C4_6 
REMARK    4  A    between atoms: C4_6  and  C5_8 
ROOT
HETATM    1  C6  UNL     1     124.239 103.761 -44.296  1.00  0.00     0.209 C 
HETATM    2  C7  UNL     1     124.555 104.119 -42.857  1.00  0.00     0.041 C 
HETATM    3  C8  UNL     1     124.637 102.703 -42.267  1.00  0.00     0.018 C 
HETATM    4  C9  UNL     1     125.420 102.650 -41.011  1.00  0.00     0.007 C 
HETATM    5  C10 UNL     1     126.851 102.513 -41.451  1.00  0.00     0.002 C 
HETATM    6  C11 UNL     1     126.839 101.968 -42.857  1.00  0.00     0.033 C 
HETATM    7  C12 UNL     1     125.428 101.998 -43.348  1.00  0.00     0.190 C 
HETATM    8  N2  UNL     1     125.258 102.763 -44.558  1.00  0.00    -0.064 N 
ATOM      9  H21 UNL     1     126.130 103.165 -44.903  1.00  0.00     0.278 HD
ATOM     10  H22 UNL     1     125.050 102.183 -45.371  1.00  0.00     0.278 HD
ENDROOT
BRANCH   1  11
HETATM   11  C3  UNL     1     124.365 104.970 -45.185  1.00  0.00     0.114 C 
BRANCH  11  12
HETATM   12  C2  UNL     1     123.408 104.924 -46.328  1.00  0.00     0.023 C 
HETATM   13  C1  UNL     1     122.232 105.821 -46.207  1.00  0.00     0.007 C 
ENDBRANCH  11  12
BRANCH  11  14
HETATM   14  N1  UNL     1     124.242 106.159 -44.379  1.00  0.00    -0.352 N 
HETATM   15  C4  UNL     1     124.994 107.328 -44.623  1.00  0.00     0.251 C 
HETATM   16  O1  UNL     1     125.798 107.325 -45.581  1.00  0.00    -0.271 OA
ATOM     17  H1  UNL     1     123.584 106.155 -43.600  1.00  0.00     0.163 HD
BRANCH  15  18
HETATM   18  C5  UNL     1     124.845 108.521 -43.785  1.00  0.00     0.269 C 
HETATM   19 CL1  UNL     1     126.149 109.701 -44.033  1.00  0.00    -0.098 Cl
HETATM   20 CL2  UNL     1     124.819 108.124 -42.052  1.00  0.00    -0.098 Cl
ENDBRANCH  15  18
ENDBRANCH  11  14
ENDBRANCH   1  11
TORSDOF 4
ENDMDL
MODEL 5
REMARK VINA RESULT: -5.049601121      3.205      4.550
REMARK  4 active torsions:
REMARK  status: ('A' for Active; 'I' for Inactive)
REMARK    1  A    between atoms: C2_2  and  C3_3 
REMARK    2  A    between atoms: C3_3  and  N1_4 
REMARK    3  A    between atoms: C3_3  and  C6_11 
REMARK       I    between atoms: N1_4  and  C4_6 
REMARK    4  A    between atoms: C4_6  and  C5_8 
ROOT
HETATM    1  C6  UNL     1     123.368 107.993 -43.180  1.00  0.00     0.209 C 
HETATM    2  C7  UNL     1     123.723 109.304 -43.853  1.00  0.00     0.041 C 
HETATM    3  C8  UNL     1     122.416 110.069 -43.602  1.00  0.00     0.018 C 
HETATM    4  C9  UNL     1     122.588 111.538 -43.674  1.00  0.00     0.007 C 
HETATM    5  C10 UNL     1     123.049 111.942 -42.302  1.00  0.00     0.002 C 
HETATM    6  C11 UNL     1     122.638 110.849 -41.348  1.00  0.00     0.033 C 
HETATM    7  C12 UNL     1     122.149 109.694 -42.160  1.00  0.00     0.190 C 
HETATM    8  N2  UNL     1     122.866 108.470 -41.905  1.00  0.00    -0.064 N 
ATOM      9  H21 UNL     1     123.598 108.574 -41.202  1.00  0.00     0.278 HD
ATOM     10  H22 UNL     1     122.307 107.774 -41.411  1.00  0.00     0.278 HD
ENDROOT
BRANCH   1  11
HETATM   11  C3  UNL     1     124.587 107.120 -43.036  1.00  0.00     0.114 C 
BRANCH  11  12
HETATM   12  C2  UNL     1     124.969 106.926 -41.608  1.00  0.00     0.023 C 
HETATM   13  C1  UNL     1     124.864 105.533 -41.107  1.00  0.00     0.007 C 
ENDBRANCH  11  12
BRANCH  11  14
HETATM   14  N1  UNL     1     124.363 105.885 -43.745  1.00  0.00    -0.352 N 
HETATM   15  C4  UNL     1     124.868 105.646 -45.042  1.00  0.00     0.251 C 
HETATM   16  O1  UNL     1     125.535 106.549 -45.591  1.00  0.00    -0.271 OA
ATOM     17  H1  UNL     1     123.818 105.153 -43.291  1.00  0.00     0.163 HD
BRANCH  15  18
HETATM   18  C5  UNL     1     124.623 104.378 -45.735  1.00  0.00     0.269 C 
HETATM   19 CL1  UNL     1     123.154 104.416 -46.734  1.00  0.00    -0.098 Cl
HETATM   20 CL2  UNL     1     124.453 103.017 -44.605  1.00  0.00    -0.098 Cl
ENDBRANCH  15  18
ENDBRANCH  11  14
ENDBRANCH   1  11
TORSDOF 4
ENDMDL
