MODEL 1
REMARK VINA RESULT: -4.615875834      0.000      0.000
REMARK  4 active torsions:
REMARK  status: ('A' for Active; 'I' for Inactive)
REMARK    1  A    between atoms: C1_2  and  C2_3 
REMARK       I    between atoms: C1_2  and  N1_7 
REMARK    2  A    between atoms: C2_3  and  C3_4 
REMARK    3  A    between atoms: C3_4  and  C4_5 
REMARK    4  A    between atoms: N1_7  and  C5_9 
ROOT
HETATM    1  O1  UNL     1     125.476 106.100 -40.528  1.00  0.00    -0.274 OA
HETATM    2  C1  UNL     1     124.898 105.439 -41.416  1.00  0.00     0.217 C 
HETATM    3  N1  UNL     1     124.421 106.091 -42.580  1.00  0.00    -0.355 N 
ATOM      4  H1  UNL     1     123.948 105.553 -43.307  1.00  0.00     0.162 HD
ENDROOT
BRANCH   3   5
HETATM    5  C5  UNL     1     124.599 107.494 -42.738  1.00  0.00     0.098 C 
HETATM    6  C6  UNL     1     123.342 108.294 -42.475  1.00  0.00     0.026 C 
HETATM    7  C7  UNL     1     123.403 109.505 -43.381  1.00  0.00     0.003 C 
HETATM    8  C8  UNL     1     124.775 109.418 -44.058  1.00  0.00     0.018 C 
HETATM    9  C9  UNL     1     124.907 107.894 -44.172  1.00  0.00     0.080 C 
HETATM   10 BR1  UNL     1     123.496 107.310 -45.353  1.00  0.00    -0.089 Br
ENDBRANCH   3   5
BRANCH   2  11
HETATM   11  C2  UNL     1     124.719 103.980 -41.242  1.00  0.00     0.104 C 
BRANCH  11  12
HETATM   12  C3  UNL     1     124.728 103.324 -42.581  1.00  0.00     0.024 C 
BRANCH  12  13
HETATM   13  C4  UNL     1     125.854 102.323 -42.706  1.00  0.00     0.115 C 
HETATM   14 CL1  UNL     1     126.848 102.373 -41.238  1.00  0.00    -0.130 Cl
ENDBRANCH  12  13
ENDBRANCH  11  12
ENDBRANCH   2  11
TORSDOF 4
ENDMDL
MODEL 2
REMARK VINA RESULT: -4.415113625      2.377      2.836
REMARK  4 active torsions:
REMARK  status: ('A' for Active; 'I' for Inactive)
REMARK    1  A    between atoms: C1_2  and  C2_3 
REMARK       I    between atoms: C1_2  and  N1_7 
REMARK    2  A    between atoms: C2_3  and  C3_4 
REMARK    3  A    between atoms: C3_4  and  C4_5 
REMARK    4  A    between atoms: N1_7  and  C5_9 
ROOT
HETATM    1  O1  UNL     1     124.374 104.027 -46.081  1.00  0.00    -0.274 OA
HETATM    2  C1  UNL     1     124.508 104.034 -44.839  1.00  0.00     0.217 C 
HETATM    3  N1  UNL     1     124.486 105.264 -44.136  1.00  0.00    -0.355 N 
ATOM      4  H1  UNL     1     124.596 105.272 -43.121  1.00  0.00     0.162 HD
ENDROOT
BRANCH   3   5
HETATM    5  C5  UNL     1     124.311 106.488 -44.840  1.00  0.00     0.098 C 
HETATM    6  C6  UNL     1     125.609 107.213 -45.119  1.00  0.00     0.026 C 
HETATM    7  C7  UNL     1     125.290 108.692 -45.100  1.00  0.00     0.003 C 
HETATM    8  C8  UNL     1     123.770 108.763 -44.926  1.00  0.00     0.018 C 
HETATM    9  C9  UNL     1     123.557 107.533 -44.034  1.00  0.00     0.080 C 
HETATM   10 BR1  UNL     1     124.478 107.896 -42.375  1.00  0.00    -0.089 Br
ENDBRANCH   3   5
BRANCH   2  11
HETATM   11  C2  UNL     1     124.689 102.755 -44.116  1.00  0.00     0.104 C 
BRANCH  11  12
HETATM   12  C3  UNL     1     124.767 103.029 -42.652  1.00  0.00     0.024 C 
BRANCH  12  13
HETATM   13  C4  UNL     1     125.418 101.887 -41.904  1.00  0.00     0.115 C 
HETATM   14 CL1  UNL     1     126.948 102.445 -41.200  1.00  0.00    -0.130 Cl
ENDBRANCH  12  13
ENDBRANCH  11  12
ENDBRANCH   2  11
TORSDOF 4
ENDMDL
MODEL 3
REMARK VINA RESULT: -4.379522209      1.420      1.420
REMARK  4 active torsions:
REMARK  status: ('A' for Active; 'I' for Inactive)
REMARK    1  A    between atoms: C1_2  and  C2_3 
REMARK       I    between atoms: C1_2  and  N1_7 
REMARK    2  A    between atoms: C2_3  and  C3_4 
REMARK    3  A    between atoms: C3_4  and  C4_5 
REMARK    4  A    between atoms: N1_7  and  C5_9 
ROOT
HETATM    1  O1  UNL     1     125.362 106.088 -40.415  1.00  0.00    -0.274 OA
HETATM    2  C1  UNL     1     124.964 105.434 -41.402  1.00  0.00     0.217 C 
HETATM    3  N1  UNL     1     124.344 106.103 -42.486  1.00  0.00    -0.355 N 
ATOM      4  H1  UNL     1     124.018 105.571 -43.293  1.00  0.00     0.162 HD
ENDROOT
BRANCH   3   5
HETATM    5  C5  UNL     1     124.175 107.516 -42.452  1.00  0.00     0.098 C 
HETATM    6  C6  UNL     1     122.958 107.995 -43.213  1.00  0.00     0.026 C 
HETATM    7  C7  UNL     1     123.304 109.362 -43.764  1.00  0.00     0.003 C 
HETATM    8  C8  UNL     1     124.690 109.676 -43.191  1.00  0.00     0.018 C 
HETATM    9  C9  UNL     1     125.286 108.262 -43.174  1.00  0.00     0.080 C 
HETATM   10 BR1  UNL     1     125.394 107.693 -45.016  1.00  0.00    -0.089 Br
ENDBRANCH   3   5
BRANCH   2  11
HETATM   11  C2  UNL     1     125.145 103.965 -41.427  1.00  0.00     0.104 C 
BRANCH  11  12
HETATM   12  C3  UNL     1     124.534 103.419 -42.673  1.00  0.00     0.024 C 
BRANCH  12  13
HETATM   13  C4  UNL     1     125.447 102.423 -43.353  1.00  0.00     0.115 C 
HETATM   14 CL1  UNL     1     124.767 101.989 -44.933  1.00  0.00    -0.130 Cl
ENDBRANCH  12  13
ENDBRANCH  11  12
ENDBRANCH   2  11
TORSDOF 4
ENDMDL
MODEL 4
REMARK VINA RESULT: -4.342725337      2.598      5.344
REMARK  4 active torsions:
REMARK  status: ('A' for Active; 'I' for Inactive)
REMARK    1  A    between atoms: C1_2  and  C2_3 
REMARK       I    between atoms: C1_2  and  N1_7 
REMARK    2  A    between atoms: C2_3  and  C3_4 
REMARK    3  A    between atoms: C3_4  and  C4_5 
REMARK    4  A    between atoms: N1_7  and  C5_9 
ROOT
HETATM    1  O1  UNL     1     125.433 106.094 -40.380  1.00  0.00    -0.274 OA
HETATM    2  C1  UNL     1     124.919 106.090 -41.518  1.00  0.00     0.217 C 
HETATM    3  N1  UNL     1     124.670 104.859 -42.174  1.00  0.00    -0.355 N 
ATOM      4  H1  UNL     1     124.250 104.854 -43.103  1.00  0.00     0.162 HD
ENDROOT
BRANCH   3   5
HETATM    5  C5  UNL     1     125.004 103.630 -41.538  1.00  0.00     0.098 C 
HETATM    6  C6  UNL     1     126.494 103.395 -41.428  1.00  0.00     0.026 C 
HETATM    7  C7  UNL     1     126.703 101.898 -41.516  1.00  0.00     0.003 C 
HETATM    8  C8  UNL     1     125.290 101.307 -41.555  1.00  0.00     0.018 C 
HETATM    9  C9  UNL     1     124.573 102.412 -42.341  1.00  0.00     0.080 C 
HETATM   10 BR1  UNL     1     125.376 102.444 -44.096  1.00  0.00    -0.089 Br
ENDBRANCH   3   5
BRANCH   2  11
HETATM   11  C2  UNL     1     124.574 107.374 -42.169  1.00  0.00     0.104 C 
BRANCH  11  12
HETATM   12  C3  UNL     1     123.970 107.098 -43.505  1.00  0.00     0.024 C 
BRANCH  12  13
HETATM   13  C4  UNL     1     124.448 108.082 -44.548  1.00  0.00     0.115 C 
HETATM   14 CL1  UNL     1     126.219 108.038 -44.629  1.00  0.00    -0.130 Cl
ENDBRANCH  12  13
ENDBRANCH  11  12
ENDBRANCH   2  11
TORSDOF 4
ENDMDL
MODEL 5
REMARK VINA RESULT: -4.331547170      3.838      4.205
REMARK  4 active torsions:
REMARK  status: ('A' for Active; 'I' for Inactive)
REMARK    1  A    between atoms: C1_2  and  C2_3 
REMARK       I    between atoms: C1_2  and  N1_7 
REMARK    2  A    between atoms: C2_3  and  C3_4 
REMARK    3  A    between atoms: C3_4  and  C4_5 
REMARK    4  A    between atoms: N1_7  and  C5_9 
ROOT
HETATM    1  O1  UNL     1     123.447 104.783 -46.645  1.00  0.00    -0.274 OA
HETATM    2  C1  UNL     1     124.129 104.378 -45.680  1.00  0.00     0.217 C 
HETATM    3  N1  UNL     1     124.666 105.310 -44.758  1.00  0.00    -0.355 N 
ATOM      4  H1  UNL     1     125.224 104.981 -43.969  1.00  0.00     0.162 HD
ENDROOT
BRANCH   3   5
HETATM    5  C5  UNL     1     124.430 106.703 -44.928  1.00  0.00     0.098 C 
HETATM    6  C6  UNL     1     125.697 107.526 -44.989  1.00  0.00     0.026 C 
HETATM    7  C7  UNL     1     125.366 108.874 -44.386  1.00  0.00     0.003 C 
HETATM    8  C8  UNL     1     123.861 108.817 -44.103  1.00  0.00     0.018 C 
HETATM    9  C9  UNL     1     123.725 107.334 -43.737  1.00  0.00     0.080 C 
HETATM   10 BR1  UNL     1     124.759 107.071 -42.128  1.00  0.00    -0.089 Br
ENDBRANCH   3   5
BRANCH   2  11
HETATM   11  C2  UNL     1     124.369 102.927 -45.512  1.00  0.00     0.104 C 
BRANCH  11  12
HETATM   12  C3  UNL     1     124.033 102.226 -46.785  1.00  0.00     0.024 C 
BRANCH  12  13
HETATM   13  C4  UNL     1     124.325 100.744 -46.700  1.00  0.00     0.115 C 
HETATM   14 CL1  UNL     1     123.992  99.991 -48.271  1.00  0.00    -0.130 Cl
ENDBRANCH  12  13
ENDBRANCH  11  12
ENDBRANCH   2  11
TORSDOF 4
ENDMDL
