MODEL 1
REMARK VINA RESULT: -4.782941587      0.000      0.000
REMARK  3 active torsions:
REMARK  status: ('A' for Active; 'I' for Inactive)
REMARK    1  A    between atoms: C1_2  and  C2_3 
REMARK       I    between atoms: C1_2  and  N1_5 
REMARK    2  A    between atoms: N1_5  and  C3_7 
REMARK    3  A    between atoms: C3_7  and  C4_8 
ROOT
HETATM    1  C3  UNL     1     117.781  96.629 -39.639  1.00  0.00     0.043 C 
HETATM    2  C5  UNL     1     117.853  95.115 -39.641  1.00  0.00     0.032 C 
HETATM    3  C6  UNL     1     119.030  94.902 -40.580  1.00  0.00     0.012 C 
HETATM    4  C7  UNL     1     120.054  95.794 -39.912  1.00  0.00    -0.038 C 
HETATM    5  C8  UNL     1     121.346  95.969 -40.605  1.00  0.00     0.010 C 
HETATM    6  C9  UNL     1     121.882  94.787 -39.817  1.00  0.00     0.002 C 
HETATM    7  C10 UNL     1     120.764  95.032 -38.821  1.00  0.00     0.010 C 
HETATM    8  C11 UNL     1     119.270  96.977 -39.509  1.00  0.00     0.041 C 
ENDROOT
BRANCH   1   9
HETATM    9  N1  UNL     1     117.272  97.054 -40.901  1.00  0.00    -0.349 N 
HETATM   10  C1  UNL     1     117.518  98.308 -41.524  1.00  0.00     0.246 C 
HETATM   11  O1  UNL     1     118.251  99.124 -40.916  1.00  0.00    -0.271 OA
ATOM     12  H1  UNL     1     116.676  96.396 -41.405  1.00  0.00     0.163 HD
BRANCH  10  13
HETATM   13  C2  UNL     1     116.948  98.669 -42.838  1.00  0.00     0.324 C 
HETATM   14  F1  UNL     1     116.612  97.595 -43.605  1.00  0.00    -0.246 F 
ENDBRANCH  10  13
ENDBRANCH   1   9
BRANCH   1  15
HETATM   15  C4  UNL     1     117.004  97.145 -38.452  1.00  0.00     0.116 C 
HETATM   16 BR1  UNL     1     117.200  95.952 -36.948  1.00  0.00    -0.094 Br
ENDBRANCH   1  15
TORSDOF 3
ENDMDL
MODEL 2
REMARK VINA RESULT: -4.545666330     10.010     11.405
REMARK  3 active torsions:
REMARK  status: ('A' for Active; 'I' for Inactive)
REMARK    1  A    between atoms: C1_2  and  C2_3 
REMARK       I    between atoms: C1_2  and  N1_5 
REMARK    2  A    between atoms: N1_5  and  C3_7 
REMARK    3  A    between atoms: C3_7  and  C4_8 
ROOT
HETATM    1  C3  UNL     1     125.015 102.871 -44.337  1.00  0.00     0.043 C 
HETATM    2  C5  UNL     1     123.868 103.445 -43.529  1.00  0.00     0.032 C 
HETATM    3  C6  UNL     1     124.353 104.875 -43.350  1.00  0.00     0.012 C 
HETATM    4  C7  UNL     1     124.630 105.234 -44.793  1.00  0.00    -0.038 C 
HETATM    5  C8  UNL     1     125.255 106.546 -45.051  1.00  0.00     0.010 C 
HETATM    6  C9  UNL     1     123.862 107.136 -45.186  1.00  0.00     0.002 C 
HETATM    7  C10 UNL     1     123.366 105.727 -45.451  1.00  0.00     0.010 C 
HETATM    8  C11 UNL     1     125.243 104.008 -45.341  1.00  0.00     0.041 C 
ENDROOT
BRANCH   1   9
HETATM    9  N1  UNL     1     126.141 102.727 -43.474  1.00  0.00    -0.349 N 
HETATM   10  C1  UNL     1     126.156 102.052 -42.223  1.00  0.00     0.246 C 
HETATM   11  O1  UNL     1     125.085 101.527 -41.833  1.00  0.00    -0.271 OA
ATOM     12  H1  UNL     1     127.017 103.149 -43.782  1.00  0.00     0.163 HD
BRANCH  10  13
HETATM   13  C2  UNL     1     127.370 101.950 -41.387  1.00  0.00     0.324 C 
HETATM   14  F1  UNL     1     128.096 100.819 -41.610  1.00  0.00    -0.246 F 
ENDBRANCH  10  13
ENDBRANCH   1   9
BRANCH   1  15
HETATM   15  C4  UNL     1     124.612 101.602 -45.046  1.00  0.00     0.116 C 
HETATM   16 BR1  UNL     1     124.103 101.980 -46.869  1.00  0.00    -0.094 Br
ENDBRANCH   1  15
TORSDOF 3
ENDMDL
MODEL 3
REMARK VINA RESULT: -4.528176727     11.934     13.506
REMARK  3 active torsions:
REMARK  status: ('A' for Active; 'I' for Inactive)
REMARK    1  A    between atoms: C1_2  and  C2_3 
REMARK       I    between atoms: C1_2  and  N1_5 
REMARK    2  A    between atoms: N1_5  and  C3_7 
REMARK    3  A    between atoms: C3_7  and  C4_8 
ROOT
HETATM    1  C3  UNL     1     124.361 107.564 -43.641  1.00  0.00     0.043 C 
HETATM    2  C5  UNL     1     123.400 107.593 -44.813  1.00  0.00     0.032 C 
HETATM    3  C6  UNL     1     122.072 107.628 -44.072  1.00  0.00     0.012 C 
HETATM    4  C7  UNL     1     122.322 108.807 -43.157  1.00  0.00    -0.038 C 
HETATM    5  C8  UNL     1     121.284 109.108 -42.152  1.00  0.00     0.010 C 
HETATM    6  C9  UNL     1     120.638 110.043 -43.159  1.00  0.00     0.002 C 
HETATM    7  C10 UNL     1     121.977 110.090 -43.869  1.00  0.00     0.010 C 
HETATM    8  C11 UNL     1     123.723 108.624 -42.734  1.00  0.00     0.041 C 
ENDROOT
BRANCH   1   9
HETATM    9  N1  UNL     1     124.292 106.275 -43.037  1.00  0.00    -0.349 N 
HETATM   10  C1  UNL     1     124.845 105.909 -41.780  1.00  0.00     0.246 C 
HETATM   11  O1  UNL     1     125.453 106.795 -41.133  1.00  0.00    -0.271 OA
ATOM     12  H1  UNL     1     123.799 105.548 -43.555  1.00  0.00     0.163 HD
BRANCH  10  13
HETATM   13  C2  UNL     1     124.728 104.544 -41.226  1.00  0.00     0.324 C 
HETATM   14  F1  UNL     1     125.910 103.868 -41.178  1.00  0.00    -0.246 F 
ENDBRANCH  10  13
ENDBRANCH   1   9
BRANCH   1  15
HETATM   15  C4  UNL     1     125.752 107.981 -44.056  1.00  0.00     0.116 C 
HETATM   16 BR1  UNL     1     125.683 109.072 -45.646  1.00  0.00    -0.094 Br
ENDBRANCH   1  15
TORSDOF 3
ENDMDL
MODEL 4
REMARK VINA RESULT: -4.319862745     11.748     13.328
REMARK  3 active torsions:
REMARK  status: ('A' for Active; 'I' for Inactive)
REMARK    1  A    between atoms: C1_2  and  C2_3 
REMARK       I    between atoms: C1_2  and  N1_5 
REMARK    2  A    between atoms: N1_5  and  C3_7 
REMARK    3  A    between atoms: C3_7  and  C4_8 
ROOT
HETATM    1  C3  UNL     1     124.446 107.289 -44.262  1.00  0.00     0.043 C 
HETATM    2  C5  UNL     1     123.403 107.511 -45.340  1.00  0.00     0.032 C 
HETATM    3  C6  UNL     1     122.136 107.486 -44.499  1.00  0.00     0.012 C 
HETATM    4  C7  UNL     1     122.503 108.519 -43.455  1.00  0.00    -0.038 C 
HETATM    5  C8  UNL     1     121.556 108.712 -42.340  1.00  0.00     0.010 C 
HETATM    6  C9  UNL     1     120.879 109.798 -43.157  1.00  0.00     0.002 C 
HETATM    7  C10 UNL     1     122.163 109.899 -43.958  1.00  0.00     0.010 C 
HETATM    8  C11 UNL     1     123.923 108.234 -43.173  1.00  0.00     0.041 C 
ENDROOT
BRANCH   1   9
HETATM    9  N1  UNL     1     124.365 105.932 -43.835  1.00  0.00    -0.349 N 
HETATM   10  C1  UNL     1     124.599 104.785 -44.641  1.00  0.00     0.246 C 
HETATM   11  O1  UNL     1     124.909 104.973 -45.843  1.00  0.00    -0.271 OA
ATOM     12  H1  UNL     1     124.116 105.768 -42.859  1.00  0.00     0.163 HD
BRANCH  10  13
HETATM   13  C2  UNL     1     124.492 103.407 -44.117  1.00  0.00     0.324 C 
HETATM   14  F1  UNL     1     125.687 102.759 -44.031  1.00  0.00    -0.246 F 
ENDBRANCH  10  13
ENDBRANCH   1   9
BRANCH   1  15
HETATM   15  C4  UNL     1     125.819 107.713 -44.726  1.00  0.00     0.116 C 
HETATM   16 BR1  UNL     1     125.696 109.259 -45.874  1.00  0.00    -0.094 Br
ENDBRANCH   1  15
TORSDOF 3
ENDMDL
MODEL 5
REMARK VINA RESULT: -4.308641485     11.557     13.137
REMARK  3 active torsions:
REMARK  status: ('A' for Active; 'I' for Inactive)
REMARK    1  A    between atoms: C1_2  and  C2_3 
REMARK       I    between atoms: C1_2  and  N1_5 
REMARK    2  A    between atoms: N1_5  and  C3_7 
REMARK    3  A    between atoms: C3_7  and  C4_8 
ROOT
HETATM    1  C3  UNL     1     124.338 107.539 -42.711  1.00  0.00     0.043 C 
HETATM    2  C5  UNL     1     124.700 107.895 -44.139  1.00  0.00     0.032 C 
HETATM    3  C6  UNL     1     123.462 107.392 -44.865  1.00  0.00     0.012 C 
HETATM    4  C7  UNL     1     122.392 108.101 -44.065  1.00  0.00    -0.038 C 
HETATM    5  C8  UNL     1     120.988 107.773 -44.383  1.00  0.00     0.010 C 
HETATM    6  C9  UNL     1     120.987 108.921 -45.376  1.00  0.00     0.002 C 
HETATM    7  C10 UNL     1     122.173 109.487 -44.616  1.00  0.00     0.010 C 
HETATM    8  C11 UNL     1     122.874 107.995 -42.675  1.00  0.00     0.041 C 
ENDROOT
BRANCH   1   9
HETATM    9  N1  UNL     1     124.429 106.123 -42.568  1.00  0.00    -0.349 N 
HETATM   10  C1  UNL     1     124.917 105.427 -41.428  1.00  0.00     0.246 C 
HETATM   11  O1  UNL     1     125.304 106.112 -40.451  1.00  0.00    -0.271 OA
ATOM     12  H1  UNL     1     124.115 105.557 -43.356  1.00  0.00     0.163 HD
BRANCH  10  13
HETATM   13  C2  UNL     1     124.978 103.952 -41.362  1.00  0.00     0.324 C 
HETATM   14  F1  UNL     1     126.232 103.465 -41.146  1.00  0.00    -0.246 F 
ENDBRANCH  10  13
ENDBRANCH   1   9
BRANCH   1  15
HETATM   15  C4  UNL     1     125.168 108.317 -41.719  1.00  0.00     0.116 C 
HETATM   16 BR1  UNL     1     124.479 110.109 -41.523  1.00  0.00    -0.094 Br
ENDBRANCH   1  15
TORSDOF 3
ENDMDL
