MODEL 1
REMARK VINA RESULT: -5.287591332      0.000      0.000
REMARK  3 active torsions:
REMARK  status: ('A' for Active; 'I' for Inactive)
REMARK    1  A    between atoms: C1_2  and  C2_3 
REMARK       I    between atoms: C1_2  and  N1_7 
REMARK    2  A    between atoms: C2_3  and  C3_4 
REMARK    3  A    between atoms: N1_7  and  C6_9 
ROOT
HETATM    1  C6  UNL     1      90.541  97.731 -44.543  1.00  0.00     0.119 C 
HETATM    2  C7  UNL     1      91.576  98.559 -43.794  1.00  0.00     0.108 C 
HETATM    3  C8  UNL     1      90.985  99.098 -42.542  1.00  0.00     0.246 C 
HETATM    4  F1  UNL     1      90.293  98.164 -41.801  1.00  0.00    -0.206 F 
HETATM    5  F2  UNL     1      91.983  99.702 -41.791  1.00  0.00    -0.206 F 
HETATM    6  C9  UNL     1      89.934 100.137 -42.953  1.00  0.00     0.083 C 
HETATM    7  C10 UNL     1      88.774  99.320 -43.473  1.00  0.00     0.042 C 
HETATM    8  C11 UNL     1      89.213  98.344 -44.519  1.00  0.00    -0.050 C 
HETATM    9  C12 UNL     1      88.333  98.044 -45.463  1.00  0.00     0.060 C 
HETATM   10 BR1  UNL     1      88.676  96.828 -46.903  1.00  0.00    -0.063 Br
ENDROOT
BRANCH   1  11
HETATM   11  N1  UNL     1      90.625  96.390 -44.037  1.00  0.00    -0.352 N 
HETATM   12  C1  UNL     1      91.288  95.318 -44.698  1.00  0.00     0.218 C 
HETATM   13  O1  UNL     1      91.860  95.491 -45.798  1.00  0.00    -0.274 OA
ATOM     14  H1  UNL     1      90.180  96.192 -43.141  1.00  0.00     0.163 HD
BRANCH  12  15
HETATM   15  C2  UNL     1      91.343  93.945 -44.140  1.00  0.00     0.107 C 
BRANCH  15  16
HETATM   16  C3  UNL     1      92.473  93.748 -43.190  1.00  0.00    -0.006 A 
HETATM   17  C4  UNL     1      92.461  92.748 -42.126  1.00  0.00     0.005 A 
HETATM   18  C5  UNL     1      92.235  94.199 -41.776  1.00  0.00     0.005 A 
ENDBRANCH  15  16
ENDBRANCH  12  15
ENDBRANCH   1  11
TORSDOF 3
ENDMDL
MODEL 2
REMARK VINA RESULT: -4.961236973      2.519      3.170
REMARK  3 active torsions:
REMARK  status: ('A' for Active; 'I' for Inactive)
REMARK    1  A    between atoms: C1_2  and  C2_3 
REMARK       I    between atoms: C1_2  and  N1_7 
REMARK    2  A    between atoms: C2_3  and  C3_4 
REMARK    3  A    between atoms: N1_7  and  C6_9 
ROOT
HETATM    1  C6  UNL     1      90.742 100.040 -42.548  1.00  0.00     0.119 C 
HETATM    2  C7  UNL     1      92.087 100.734 -42.707  1.00  0.00     0.108 C 
HETATM    3  C8  UNL     1      92.345 101.614 -41.538  1.00  0.00     0.246 C 
HETATM    4  F1  UNL     1      92.103 101.015 -40.321  1.00  0.00    -0.206 F 
HETATM    5  F2  UNL     1      93.641 102.104 -41.613  1.00  0.00    -0.206 F 
HETATM    6  C9  UNL     1      91.340 102.771 -41.618  1.00  0.00     0.083 C 
HETATM    7  C10 UNL     1      90.020 102.158 -41.214  1.00  0.00     0.042 C 
HETATM    8  C11 UNL     1      89.713 100.932 -42.015  1.00  0.00    -0.050 C 
HETATM    9  C12 UNL     1      88.434 100.671 -42.242  1.00  0.00     0.060 C 
HETATM   10 BR1  UNL     1      87.807  99.165 -43.246  1.00  0.00    -0.063 Br
ENDROOT
BRANCH   1  11
HETATM   11  N1  UNL     1      90.974  98.832 -41.808  1.00  0.00    -0.352 N 
HETATM   12  C1  UNL     1      91.143  97.546 -42.394  1.00  0.00     0.218 C 
HETATM   13  O1  UNL     1      91.102  97.390 -43.636  1.00  0.00    -0.274 OA
ATOM     14  H1  UNL     1      91.022  98.900 -40.792  1.00  0.00     0.163 HD
BRANCH  12  15
HETATM   15  C2  UNL     1      91.374  96.322 -41.588  1.00  0.00     0.107 C 
BRANCH  15  16
HETATM   16  C3  UNL     1      92.069  95.247 -42.348  1.00  0.00    -0.006 A 
HETATM   17  C4  UNL     1      91.437  93.980 -42.704  1.00  0.00     0.005 A 
HETATM   18  C5  UNL     1      92.430  94.013 -41.567  1.00  0.00     0.005 A 
ENDBRANCH  15  16
ENDBRANCH  12  15
ENDBRANCH   1  11
TORSDOF 3
ENDMDL
MODEL 3
REMARK VINA RESULT: -4.922979142      1.437      1.664
REMARK  3 active torsions:
REMARK  status: ('A' for Active; 'I' for Inactive)
REMARK    1  A    between atoms: C1_2  and  C2_3 
REMARK       I    between atoms: C1_2  and  N1_7 
REMARK    2  A    between atoms: C2_3  and  C3_4 
REMARK    3  A    between atoms: N1_7  and  C6_9 
ROOT
HETATM    1  C6  UNL     1      89.709  98.585 -44.617  1.00  0.00     0.119 C 
HETATM    2  C7  UNL     1      90.961  99.450 -44.639  1.00  0.00     0.108 C 
HETATM    3  C8  UNL     1      91.358  99.803 -43.251  1.00  0.00     0.246 C 
HETATM    4  F1  UNL     1      91.365  98.734 -42.381  1.00  0.00    -0.206 F 
HETATM    5  F2  UNL     1      92.589 100.443 -43.278  1.00  0.00    -0.206 F 
HETATM    6  C9  UNL     1      90.283 100.752 -42.705  1.00  0.00     0.083 C 
HETATM    7  C10 UNL     1      89.093  99.863 -42.432  1.00  0.00     0.042 C 
HETATM    8  C11 UNL     1      88.731  99.042 -43.629  1.00  0.00    -0.050 C 
HETATM    9  C12 UNL     1      87.452  98.734 -43.779  1.00  0.00     0.060 C 
HETATM   10 BR1  UNL     1      86.760  97.701 -45.236  1.00  0.00    -0.063 Br
ENDROOT
BRANCH   1  11
HETATM   11  N1  UNL     1      90.140  97.221 -44.493  1.00  0.00    -0.352 N 
HETATM   12  C1  UNL     1      90.188  96.289 -45.568  1.00  0.00     0.218 C 
HETATM   13  O1  UNL     1      89.849  96.619 -46.727  1.00  0.00    -0.274 OA
ATOM     14  H1  UNL     1      90.431  96.897 -43.571  1.00  0.00     0.163 HD
BRANCH  12  15
HETATM   15  C2  UNL     1      90.634  94.885 -45.391  1.00  0.00     0.107 C 
BRANCH  15  16
HETATM   16  C3  UNL     1      91.768  94.751 -44.435  1.00  0.00    -0.006 A 
HETATM   17  C4  UNL     1      92.341  93.465 -44.047  1.00  0.00     0.005 A 
HETATM   18  C5  UNL     1      91.430  94.187 -43.083  1.00  0.00     0.005 A 
ENDBRANCH  15  16
ENDBRANCH  12  15
ENDBRANCH   1  11
TORSDOF 3
ENDMDL
MODEL 4
REMARK VINA RESULT: -4.885229939      2.894      5.440
REMARK  3 active torsions:
REMARK  status: ('A' for Active; 'I' for Inactive)
REMARK    1  A    between atoms: C1_2  and  C2_3 
REMARK       I    between atoms: C1_2  and  N1_7 
REMARK    2  A    between atoms: C2_3  and  C3_4 
REMARK    3  A    between atoms: N1_7  and  C6_9 
ROOT
HETATM    1  C6  UNL     1      91.297  96.131 -44.204  1.00  0.00     0.119 C 
HETATM    2  C7  UNL     1      91.964  95.019 -44.999  1.00  0.00     0.108 C 
HETATM    3  C8  UNL     1      91.729  93.710 -44.336  1.00  0.00     0.246 C 
HETATM    4  F1  UNL     1      90.419  93.498 -43.963  1.00  0.00    -0.206 F 
HETATM    5  F2  UNL     1      92.192  92.693 -45.158  1.00  0.00    -0.206 F 
HETATM    6  C9  UNL     1      92.518  93.724 -43.021  1.00  0.00     0.083 C 
HETATM    7  C10 UNL     1      91.729  94.638 -42.113  1.00  0.00     0.042 C 
HETATM    8  C11 UNL     1      91.458  95.960 -42.760  1.00  0.00    -0.050 C 
HETATM    9  C12 UNL     1      91.371  97.011 -41.959  1.00  0.00     0.060 C 
HETATM   10 BR1  UNL     1      91.039  98.798 -42.564  1.00  0.00    -0.063 Br
ENDROOT
BRANCH   1  11
HETATM   11  N1  UNL     1      89.947  96.240 -44.679  1.00  0.00    -0.352 N 
HETATM   12  C1  UNL     1      89.485  97.246 -45.573  1.00  0.00     0.218 C 
HETATM   13  O1  UNL     1      90.259  98.124 -46.017  1.00  0.00    -0.274 OA
ATOM     14  H1  UNL     1      89.272  95.548 -44.353  1.00  0.00     0.163 HD
BRANCH  12  15
HETATM   15  C2  UNL     1      88.076  97.323 -46.032  1.00  0.00     0.107 C 
BRANCH  15  16
HETATM   16  C3  UNL     1      87.315  98.432 -45.391  1.00  0.00    -0.006 A 
HETATM   17  C4  UNL     1      87.392  98.737 -43.965  1.00  0.00     0.005 A 
HETATM   18  C5  UNL     1      86.175  98.022 -44.500  1.00  0.00     0.005 A 
ENDBRANCH  15  16
ENDBRANCH  12  15
ENDBRANCH   1  11
TORSDOF 3
ENDMDL
MODEL 5
REMARK VINA RESULT: -4.846157804      3.696      5.554
REMARK  3 active torsions:
REMARK  status: ('A' for Active; 'I' for Inactive)
REMARK    1  A    between atoms: C1_2  and  C2_3 
REMARK       I    between atoms: C1_2  and  N1_7 
REMARK    2  A    between atoms: C2_3  and  C3_4 
REMARK    3  A    between atoms: N1_7  and  C6_9 
ROOT
HETATM    1  C6  UNL     1      92.348  93.924 -44.029  1.00  0.00     0.119 C 
HETATM    2  C7  UNL     1      93.579  93.261 -43.428  1.00  0.00     0.108 C 
HETATM    3  C8  UNL     1      93.279  92.789 -42.051  1.00  0.00     0.246 C 
HETATM    4  F1  UNL     1      92.093  92.096 -41.942  1.00  0.00    -0.206 F 
HETATM    5  F2  UNL     1      94.349  92.039 -41.584  1.00  0.00    -0.206 F 
HETATM    6  C9  UNL     1      93.091  94.038 -41.180  1.00  0.00     0.083 C 
HETATM    7  C10 UNL     1      91.740  94.583 -41.583  1.00  0.00     0.042 C 
HETATM    8  C11 UNL     1      91.638  94.764 -43.064  1.00  0.00    -0.050 C 
HETATM    9  C12 UNL     1      90.863  95.749 -43.495  1.00  0.00     0.060 C 
HETATM   10 BR1  UNL     1      90.589  96.170 -45.343  1.00  0.00    -0.063 Br
ENDROOT
BRANCH   1  11
HETATM   11  N1  UNL     1      91.572  92.889 -44.654  1.00  0.00    -0.352 N 
HETATM   12  C1  UNL     1      91.392  92.752 -46.059  1.00  0.00     0.218 C 
HETATM   13  O1  UNL     1      91.924  93.553 -46.861  1.00  0.00    -0.274 OA
ATOM     14  H1  UNL     1      91.119  92.205 -44.048  1.00  0.00     0.163 HD
BRANCH  12  15
HETATM   15  C2  UNL     1      90.575  91.669 -46.659  1.00  0.00     0.107 C 
BRANCH  15  16
HETATM   16  C3  UNL     1      90.646  91.644 -48.147  1.00  0.00    -0.006 A 
HETATM   17  C4  UNL     1      89.542  92.056 -49.009  1.00  0.00     0.005 A 
HETATM   18  C5  UNL     1      89.826  90.583 -48.829  1.00  0.00     0.005 A 
ENDBRANCH  15  16
ENDBRANCH  12  15
ENDBRANCH   1  11
TORSDOF 3
ENDMDL
