MODEL 1
REMARK VINA RESULT: -8.942575115      0.000      0.000
REMARK  6 active torsions:
REMARK  status: ('A' for Active; 'I' for Inactive)
REMARK    1  A    between atoms: N2_7  and  C3_8 
REMARK    2  A    between atoms: C10_16  and  C11_17 
REMARK    3  A    between atoms: C11_17  and  C20_29 
REMARK    4  A    between atoms: C12_18  and  C13_19 
REMARK    5  A    between atoms: C13_19  and  O3_20 
REMARK    6  A    between atoms: O3_20  and  C14_21 
ROOT
HETATM    1  O1  UNL     1      -1.931 -40.611  -5.077  1.00  0.00    -0.267 OA
HETATM    2  C1  UNL     1      -1.142 -40.287  -5.990  1.00  0.00     0.263 A 
HETATM    3  N1  UNL     1      -1.686 -40.185  -7.242  1.00  0.00    -0.275 N 
ATOM      4  H1  UNL     1      -2.681 -40.381  -7.358  1.00  0.00     0.173 HD
HETATM    5  C2  UNL     1      -0.977 -39.842  -8.318  1.00  0.00     0.330 A 
HETATM    6  O2  UNL     1      -1.508 -39.758  -9.456  1.00  0.00    -0.246 OA
HETATM    7  N2  UNL     1       0.315 -39.595  -8.126  1.00  0.00    -0.284 N 
HETATM    8  C9  UNL     1       0.945 -39.673  -6.904  1.00  0.00     0.126 A 
HETATM    9 CL1  UNL     1       2.658 -39.331  -6.839  1.00  0.00    -0.063 Cl
HETATM   10  C10 UNL     1       0.223 -40.025  -5.796  1.00  0.00     0.079 A 
ENDROOT
BRANCH  10  11
HETATM   11  C11 UNL     1       0.841 -40.202  -4.462  1.00  0.00    -0.013 C 
HETATM   12  C12 UNL     1       0.917 -39.230  -3.573  1.00  0.00     0.010 C 
BRANCH  12  13
HETATM   13  C13 UNL     1       1.481 -39.233  -2.226  1.00  0.00     0.204 C 
BRANCH  13  14
HETATM   14  O3  UNL     1       0.825 -38.466  -1.277  1.00  0.00    -0.346 OA
BRANCH  14  15
HETATM   15  C14 UNL     1       1.346 -37.627  -0.339  1.00  0.00     0.090 A 
HETATM   16  C15 UNL     1       2.016 -36.448  -0.557  1.00  0.00     0.040 A 
HETATM   17  C16 UNL     1       2.518 -35.638   0.452  1.00  0.00     0.026 A 
HETATM   18  C17 UNL     1       2.351 -36.013   1.748  1.00  0.00     0.035 A 
HETATM   19 CL2  UNL     1       2.951 -35.059   3.098  1.00  0.00    -0.084 Cl
HETATM   20  C18 UNL     1       1.692 -37.177   2.021  1.00  0.00     0.050 A 
HETATM   21  C19 UNL     1       1.198 -37.970   1.025  1.00  0.00     0.069 A 
HETATM   22 CL3  UNL     1       0.362 -39.448   1.435  1.00  0.00    -0.081 Cl
ENDBRANCH  14  15
ENDBRANCH  13  14
ENDBRANCH  12  13
BRANCH  11  23
HETATM   23  C20 UNL     1       1.553 -41.486  -4.233  1.00  0.00     0.261 C 
HETATM   24  F1  UNL     1       0.730 -42.530  -3.821  1.00  0.00    -0.251 F 
ENDBRANCH  11  23
ENDBRANCH  10  11
BRANCH   7  25
HETATM   25  C3  UNL     1       1.133 -39.222  -9.229  1.00  0.00     0.096 C 
HETATM   26  C4  UNL     1       0.552 -38.388 -10.297  1.00  0.00     0.026 C 
HETATM   27  C5  UNL     1       1.732 -37.670 -10.984  1.00  0.00     0.002 C 
HETATM   28  C6  UNL     1       2.822 -38.668 -11.224  1.00  0.00     0.000 C 
HETATM   29  C7  UNL     1       2.338 -40.098 -11.246  1.00  0.00     0.002 C 
HETATM   30  C8  UNL     1       1.572 -40.466 -10.000  1.00  0.00     0.026 C 
ENDBRANCH   7  25
TORSDOF 6
ENDMDL
MODEL 2
REMARK VINA RESULT: -8.651840133      4.380      6.086
REMARK  6 active torsions:
REMARK  status: ('A' for Active; 'I' for Inactive)
REMARK    1  A    between atoms: N2_7  and  C3_8 
REMARK    2  A    between atoms: C10_16  and  C11_17 
REMARK    3  A    between atoms: C11_17  and  C20_29 
REMARK    4  A    between atoms: C12_18  and  C13_19 
REMARK    5  A    between atoms: C13_19  and  O3_20 
REMARK    6  A    between atoms: O3_20  and  C14_21 
ROOT
HETATM    1  O1  UNL     1      -0.611 -35.994 -11.304  1.00  0.00    -0.267 OA
HETATM    2  C1  UNL     1      -0.395 -37.167 -11.676  1.00  0.00     0.263 A 
HETATM    3  N1  UNL     1      -0.455 -37.388 -13.026  1.00  0.00    -0.275 N 
ATOM      4  H1  UNL     1      -0.673 -36.602 -13.638  1.00  0.00     0.173 HD
HETATM    5  C2  UNL     1      -0.241 -38.583 -13.578  1.00  0.00     0.330 A 
HETATM    6  O2  UNL     1      -0.303 -38.752 -14.824  1.00  0.00    -0.246 OA
HETATM    7  N2  UNL     1       0.042 -39.581 -12.748  1.00  0.00    -0.284 N 
HETATM    8  C9  UNL     1       0.122 -39.450 -11.379  1.00  0.00     0.126 A 
HETATM    9 CL1  UNL     1       0.487 -40.877 -10.437  1.00  0.00    -0.063 Cl
HETATM   10  C10 UNL     1      -0.097 -38.228 -10.806  1.00  0.00     0.079 A 
ENDROOT
BRANCH  10  11
HETATM   11  C11 UNL     1      -0.101 -38.020  -9.340  1.00  0.00    -0.013 C 
HETATM   12  C12 UNL     1       0.861 -38.461  -8.551  1.00  0.00     0.010 C 
BRANCH  12  13
HETATM   13  C13 UNL     1       1.016 -38.342  -7.104  1.00  0.00     0.204 C 
BRANCH  13  14
HETATM   14  O3  UNL     1       0.170 -39.112  -6.323  1.00  0.00    -0.346 OA
BRANCH  14  15
HETATM   15  C14 UNL     1       0.474 -39.951  -5.295  1.00  0.00     0.090 A 
HETATM   16  C15 UNL     1       1.606 -39.940  -4.517  1.00  0.00     0.040 A 
HETATM   17  C16 UNL     1       1.848 -40.828  -3.479  1.00  0.00     0.026 A 
HETATM   18  C17 UNL     1       0.922 -41.781  -3.192  1.00  0.00     0.035 A 
HETATM   19 CL2  UNL     1       1.135 -42.953  -1.899  1.00  0.00    -0.084 Cl
HETATM   20  C18 UNL     1      -0.222 -41.837  -3.934  1.00  0.00     0.050 A 
HETATM   21  C19 UNL     1      -0.457 -40.961  -4.954  1.00  0.00     0.069 A 
HETATM   22 CL3  UNL     1      -1.940 -41.081  -5.869  1.00  0.00    -0.081 Cl
ENDBRANCH  14  15
ENDBRANCH  13  14
ENDBRANCH  12  13
BRANCH  11  23
HETATM   23  C20 UNL     1      -1.346 -37.453  -8.759  1.00  0.00     0.261 C 
HETATM   24  F1  UNL     1      -2.504 -37.792  -9.451  1.00  0.00    -0.251 F 
ENDBRANCH  11  23
ENDBRANCH  10  11
BRANCH   7  25
HETATM   25  C3  UNL     1       0.284 -40.884 -13.267  1.00  0.00     0.096 C 
HETATM   26  C4  UNL     1      -0.595 -41.991 -12.848  1.00  0.00     0.026 C 
HETATM   27  C5  UNL     1      -0.508 -43.062 -13.954  1.00  0.00     0.002 C 
HETATM   28  C6  UNL     1       0.931 -43.251 -14.323  1.00  0.00     0.000 C 
HETATM   29  C7  UNL     1       1.893 -42.807 -13.247  1.00  0.00     0.002 C 
HETATM   30  C8  UNL     1       1.657 -41.381 -12.817  1.00  0.00     0.026 C 
ENDBRANCH   7  25
TORSDOF 6
ENDMDL
MODEL 3
REMARK VINA RESULT: -8.476599136      3.643      9.751
REMARK  6 active torsions:
REMARK  status: ('A' for Active; 'I' for Inactive)
REMARK    1  A    between atoms: N2_7  and  C3_8 
REMARK    2  A    between atoms: C10_16  and  C11_17 
REMARK    3  A    between atoms: C11_17  and  C20_29 
REMARK    4  A    between atoms: C12_18  and  C13_19 
REMARK    5  A    between atoms: C13_19  and  O3_20 
REMARK    6  A    between atoms: O3_20  and  C14_21 
ROOT
HETATM    1  O1  UNL     1      -1.787 -39.757  -8.876  1.00  0.00    -0.267 OA
HETATM    2  C1  UNL     1      -1.117 -39.909  -7.832  1.00  0.00     0.263 A 
HETATM    3  N1  UNL     1      -1.780 -40.460  -6.769  1.00  0.00    -0.275 N 
ATOM      4  H1  UNL     1      -2.764 -40.705  -6.884  1.00  0.00     0.173 HD
HETATM    5  C2  UNL     1      -1.201 -40.691  -5.591  1.00  0.00     0.330 A 
HETATM    6  O2  UNL     1      -1.841 -41.200  -4.632  1.00  0.00    -0.246 OA
HETATM    7  N2  UNL     1       0.080 -40.359  -5.481  1.00  0.00    -0.284 N 
HETATM    8  C9  UNL     1       0.825 -39.800  -6.496  1.00  0.00     0.126 A 
HETATM    9 CL1  UNL     1       2.497 -39.408  -6.169  1.00  0.00    -0.063 Cl
HETATM   10  C10 UNL     1       0.237 -39.559  -7.708  1.00  0.00     0.079 A 
ENDROOT
BRANCH  10  11
HETATM   11  C11 UNL     1       0.947 -38.895  -8.824  1.00  0.00    -0.013 C 
HETATM   12  C12 UNL     1       1.755 -39.540  -9.644  1.00  0.00     0.010 C 
BRANCH  12  13
HETATM   13  C13 UNL     1       2.522 -39.048 -10.786  1.00  0.00     0.204 C 
BRANCH  13  14
HETATM   14  O3  UNL     1       2.172 -39.547 -12.029  1.00  0.00    -0.346 OA
BRANCH  14  15
HETATM   15  C14 UNL     1       1.142 -39.186 -12.843  1.00  0.00     0.090 A 
HETATM   16  C15 UNL     1       0.694 -37.914 -13.105  1.00  0.00     0.040 A 
HETATM   17  C16 UNL     1      -0.365 -37.619 -13.952  1.00  0.00     0.026 A 
HETATM   18  C17 UNL     1      -1.020 -38.635 -14.574  1.00  0.00     0.035 A 
HETATM   19 CL2  UNL     1      -2.374 -38.366 -15.663  1.00  0.00    -0.084 Cl
HETATM   20  C18 UNL     1      -0.616 -39.919 -14.348  1.00  0.00     0.050 A 
HETATM   21  C19 UNL     1       0.427 -40.205 -13.515  1.00  0.00     0.069 A 
HETATM   22 CL3  UNL     1       0.900 -41.868 -13.266  1.00  0.00    -0.081 Cl
ENDBRANCH  14  15
ENDBRANCH  13  14
ENDBRANCH  12  13
BRANCH  11  23
HETATM   23  C20 UNL     1       0.862 -37.412  -8.868  1.00  0.00     0.261 C 
HETATM   24  F1  UNL     1      -0.261 -36.924  -9.527  1.00  0.00    -0.251 F 
ENDBRANCH  11  23
ENDBRANCH  10  11
BRANCH   7  25
HETATM   25  C3  UNL     1       0.764 -40.579  -4.252  1.00  0.00     0.096 C 
HETATM   26  C4  UNL     1       0.366 -41.722  -3.411  1.00  0.00     0.026 C 
HETATM   27  C5  UNL     1       1.585 -42.063  -2.529  1.00  0.00     0.002 C 
HETATM   28  C6  UNL     1       2.142 -40.790  -1.973  1.00  0.00     0.000 C 
HETATM   29  C7  UNL     1       1.149 -39.653  -1.953  1.00  0.00     0.002 C 
HETATM   30  C8  UNL     1       0.540 -39.397  -3.309  1.00  0.00     0.026 C 
ENDBRANCH   7  25
TORSDOF 6
ENDMDL
MODEL 4
REMARK VINA RESULT: -8.281680826      3.641      9.591
REMARK  6 active torsions:
REMARK  status: ('A' for Active; 'I' for Inactive)
REMARK    1  A    between atoms: N2_7  and  C3_8 
REMARK    2  A    between atoms: C10_16  and  C11_17 
REMARK    3  A    between atoms: C11_17  and  C20_29 
REMARK    4  A    between atoms: C12_18  and  C13_19 
REMARK    5  A    between atoms: C13_19  and  O3_20 
REMARK    6  A    between atoms: O3_20  and  C14_21 
ROOT
HETATM    1  O1  UNL     1      -1.756 -39.717  -8.956  1.00  0.00    -0.267 OA
HETATM    2  C1  UNL     1      -1.095 -39.870  -7.906  1.00  0.00     0.263 A 
HETATM    3  N1  UNL     1      -1.760 -40.447  -6.858  1.00  0.00    -0.275 N 
ATOM      4  H1  UNL     1      -2.738 -40.709  -6.988  1.00  0.00     0.173 HD
HETATM    5  C2  UNL     1      -1.190 -40.683  -5.676  1.00  0.00     0.330 A 
HETATM    6  O2  UNL     1      -1.831 -41.217  -4.733  1.00  0.00    -0.246 OA
HETATM    7  N2  UNL     1       0.084 -40.329  -5.547  1.00  0.00    -0.284 N 
HETATM    8  C9  UNL     1       0.829 -39.742  -6.546  1.00  0.00     0.126 A 
HETATM    9 CL1  UNL     1       2.489 -39.323  -6.194  1.00  0.00    -0.063 Cl
HETATM   10  C10 UNL     1       0.250 -39.496  -7.761  1.00  0.00     0.079 A 
ENDROOT
BRANCH  10  11
HETATM   11  C11 UNL     1       0.961 -38.804  -8.860  1.00  0.00    -0.013 C 
HETATM   12  C12 UNL     1       1.737 -39.435  -9.722  1.00  0.00     0.010 C 
BRANCH  12  13
HETATM   13  C13 UNL     1       2.498 -38.915 -10.854  1.00  0.00     0.204 C 
BRANCH  13  14
HETATM   14  O3  UNL     1       2.465 -39.663 -12.020  1.00  0.00    -0.346 OA
BRANCH  14  15
HETATM   15  C14 UNL     1       1.580 -40.625 -12.400  1.00  0.00     0.090 A 
HETATM   16  C15 UNL     1       0.284 -40.447 -12.818  1.00  0.00     0.040 A 
HETATM   17  C16 UNL     1      -0.563 -41.479 -13.195  1.00  0.00     0.026 A 
HETATM   18  C17 UNL     1      -0.106 -42.759 -13.157  1.00  0.00     0.035 A 
HETATM   19 CL2  UNL     1      -1.101 -44.136 -13.613  1.00  0.00    -0.084 Cl
HETATM   20  C18 UNL     1       1.175 -42.993 -12.749  1.00  0.00     0.050 A 
HETATM   21  C19 UNL     1       2.005 -41.974 -12.379  1.00  0.00     0.069 A 
HETATM   22 CL3  UNL     1       3.636 -42.335 -11.867  1.00  0.00    -0.081 Cl
ENDBRANCH  14  15
ENDBRANCH  13  14
ENDBRANCH  12  13
BRANCH  11  23
HETATM   23  C20 UNL     1       0.917 -37.319  -8.839  1.00  0.00     0.261 C 
HETATM   24  F1  UNL     1      -0.310 -36.779  -9.212  1.00  0.00    -0.251 F 
ENDBRANCH  11  23
ENDBRANCH  10  11
BRANCH   7  25
HETATM   25  C3  UNL     1       0.757 -40.552  -4.313  1.00  0.00     0.096 C 
HETATM   26  C4  UNL     1       0.358 -41.702  -3.483  1.00  0.00     0.026 C 
HETATM   27  C5  UNL     1       1.570 -42.042  -2.592  1.00  0.00     0.002 C 
HETATM   28  C6  UNL     1       2.116 -40.769  -2.023  1.00  0.00     0.000 C 
HETATM   29  C7  UNL     1       1.116 -39.638  -2.006  1.00  0.00     0.002 C 
HETATM   30  C8  UNL     1       0.518 -39.377  -3.366  1.00  0.00     0.026 C 
ENDBRANCH   7  25
TORSDOF 6
ENDMDL
MODEL 5
REMARK VINA RESULT: -8.086406512      3.646      9.625
REMARK  6 active torsions:
REMARK  status: ('A' for Active; 'I' for Inactive)
REMARK    1  A    between atoms: N2_7  and  C3_8 
REMARK    2  A    between atoms: C10_16  and  C11_17 
REMARK    3  A    between atoms: C11_17  and  C20_29 
REMARK    4  A    between atoms: C12_18  and  C13_19 
REMARK    5  A    between atoms: C13_19  and  O3_20 
REMARK    6  A    between atoms: O3_20  and  C14_21 
ROOT
HETATM    1  O1  UNL     1      -1.752 -39.677  -8.933  1.00  0.00    -0.267 OA
HETATM    2  C1  UNL     1      -1.090 -39.837  -7.885  1.00  0.00     0.263 A 
HETATM    3  N1  UNL     1      -1.760 -40.401  -6.833  1.00  0.00    -0.275 N 
ATOM      4  H1  UNL     1      -2.742 -40.647  -6.958  1.00  0.00     0.173 HD
HETATM    5  C2  UNL     1      -1.190 -40.643  -5.653  1.00  0.00     0.330 A 
HETATM    6  O2  UNL     1      -1.836 -41.163  -4.705  1.00  0.00    -0.246 OA
HETATM    7  N2  UNL     1       0.090 -40.309  -5.529  1.00  0.00    -0.284 N 
HETATM    8  C9  UNL     1       0.841 -39.737  -6.532  1.00  0.00     0.126 A 
HETATM    9 CL1  UNL     1       2.509 -39.345  -6.188  1.00  0.00    -0.063 Cl
HETATM   10  C10 UNL     1       0.262 -39.486  -7.746  1.00  0.00     0.079 A 
ENDROOT
BRANCH  10  11
HETATM   11  C11 UNL     1       0.980 -38.808  -8.850  1.00  0.00    -0.013 C 
HETATM   12  C12 UNL     1       1.820 -39.437  -9.651  1.00  0.00     0.010 C 
BRANCH  12  13
HETATM   13  C13 UNL     1       2.599 -38.930 -10.778  1.00  0.00     0.204 C 
BRANCH  13  14
HETATM   14  O3  UNL     1       2.254 -39.403 -12.033  1.00  0.00    -0.346 OA
BRANCH  14  15
HETATM   15  C14 UNL     1       1.574 -40.535 -12.369  1.00  0.00     0.090 A 
HETATM   16  C15 UNL     1       1.987 -41.834 -12.205  1.00  0.00     0.040 A 
HETATM   17  C16 UNL     1       1.237 -42.943 -12.570  1.00  0.00     0.026 A 
HETATM   18  C17 UNL     1       0.011 -42.760 -13.129  1.00  0.00     0.035 A 
HETATM   19 CL2  UNL     1      -1.015 -44.098 -13.627  1.00  0.00    -0.084 Cl
HETATM   20  C18 UNL     1      -0.448 -41.488 -13.316  1.00  0.00     0.050 A 
HETATM   21  C19 UNL     1       0.293 -40.400 -12.954  1.00  0.00     0.069 A 
HETATM   22 CL3  UNL     1      -0.347 -38.796 -13.217  1.00  0.00    -0.081 Cl
ENDBRANCH  14  15
ENDBRANCH  13  14
ENDBRANCH  12  13
BRANCH  11  23
HETATM   23  C20 UNL     1       0.860 -37.328  -8.902  1.00  0.00     0.261 C 
HETATM   24  F1  UNL     1      -0.308 -36.871  -9.503  1.00  0.00    -0.251 F 
ENDBRANCH  11  23
ENDBRANCH  10  11
BRANCH   7  25
HETATM   25  C3  UNL     1       0.765 -40.540  -4.297  1.00  0.00     0.096 C 
HETATM   26  C4  UNL     1       0.354 -41.685  -3.465  1.00  0.00     0.026 C 
HETATM   27  C5  UNL     1       1.565 -42.039  -2.578  1.00  0.00     0.002 C 
HETATM   28  C6  UNL     1       2.127 -40.772  -2.011  1.00  0.00     0.000 C 
HETATM   29  C7  UNL     1       1.140 -39.629  -1.991  1.00  0.00     0.002 C 
HETATM   30  C8  UNL     1       0.542 -39.362  -3.350  1.00  0.00     0.026 C 
ENDBRANCH   7  25
TORSDOF 6
ENDMDL
