MODEL 1
REMARK VINA RESULT: -8.620281554      0.000      0.000
REMARK  17 active torsions:
REMARK  status: ('A' for Active; 'I' for Inactive)
REMARK    1  A    between atoms: N1_1  and  C1_4 
REMARK    2  A    between atoms: N4_13  and  C5_14 
REMARK    3  A    between atoms: C6_16  and  C7_17 
REMARK    4  A    between atoms: C7_17  and  O3_18 
REMARK    5  A    between atoms: C7_17  and  C8_20 
REMARK    6  A    between atoms: C8_20  and  C9_22 
REMARK    7  A    between atoms: C9_22  and  O5_23 
REMARK    8  A    between atoms: C9_22  and  C10_25 
REMARK    9  A    between atoms: C10_25  and  C11_27 
REMARK   10  A    between atoms: C11_27  and  O7_28 
REMARK   11  A    between atoms: C11_27  and  C12_30 
REMARK   12  A    between atoms: C12_30  and  O8_31 
REMARK   13  A    between atoms: C12_30  and  C13_33 
REMARK   14  A    between atoms: C13_33  and  N5_34 
REMARK   15  A    between atoms: C13_33  and  C14_38 
REMARK       I    between atoms: C14_38  and  N6_40 
REMARK   16  A    between atoms: N6_40  and  N7_42 
REMARK   17  A    between atoms: C16_47  and  O11_48 
ROOT
HETATM    1  C7  UNL     1     -16.099 -66.801 -52.366  1.00  0.00     0.227 C 
ENDROOT
BRANCH   1   2
HETATM    2  C6  UNL     1     -15.436 -66.548 -51.025  1.00  0.00     0.232 C 
HETATM    3  O2  UNL     1     -14.689 -67.633 -50.609  1.00  0.00    -0.347 OA
HETATM    4  C5  UNL     1     -13.472 -67.214 -50.119  1.00  0.00     0.267 C 
HETATM    5  C16 UNL     1     -13.193 -65.913 -50.776  1.00  0.00     0.239 C 
HETATM    6  C15 UNL     1     -14.545 -65.388 -51.037  1.00  0.00     0.191 C 
HETATM    7  O10 UNL     1     -14.822 -64.221 -51.219  1.00  0.00    -0.292 OA
BRANCH   4   8
HETATM    8  N4  UNL     1     -13.518 -67.154 -48.671  1.00  0.00    -0.296 N 
HETATM    9  C4  UNL     1     -14.540 -66.911 -47.846  1.00  0.00     0.188 A 
HETATM   10  N3  UNL     1     -14.131 -66.953 -46.570  1.00  0.00    -0.345 N 
HETATM   11  C3  UNL     1     -12.796 -67.232 -46.587  1.00  0.00     0.147 A 
ATOM     12  H3  UNL     1     -14.709 -66.803 -45.743  1.00  0.00     0.167 HD
HETATM   13  C2  UNL     1     -11.882 -67.387 -45.541  1.00  0.00     0.290 A 
HETATM   14  C17 UNL     1     -12.434 -67.354 -47.905  1.00  0.00     0.159 A 
HETATM   15  N2  UNL     1     -10.617 -67.665 -45.887  1.00  0.00    -0.154 N 
HETATM   16  O1  UNL     1     -12.275 -67.264 -44.360  1.00  0.00    -0.265 OA
HETATM   17  C1  UNL     1     -10.270 -67.782 -47.179  1.00  0.00     0.680 A 
ATOM     18  H2  UNL     1      -9.911 -67.789 -45.162  1.00  0.00     0.187 HD
HETATM   19  N8  UNL     1     -11.128 -67.638 -48.198  1.00  0.00    -0.174 N 
ATOM     20  H8  UNL     1     -10.817 -67.737 -49.164  1.00  0.00     0.186 HD
BRANCH  17  21
HETATM   21  N1  UNL     1      -9.028 -68.052 -47.432  1.00  0.00    -0.234 N 
ATOM     22  H12 UNL     1      -8.297 -67.598 -46.882  1.00  0.00     0.174 HD
ATOM     23  H11 UNL     1      -8.843 -68.716 -48.183  1.00  0.00     0.174 HD
ENDBRANCH  17  21
ENDBRANCH   4   8
BRANCH   5  24
HETATM   24  O11 UNL     1     -12.425 -65.044 -50.009  1.00  0.00    -0.383 OA
ATOM     25  H11 UNL     1     -12.906 -64.299 -49.669  1.00  0.00     0.210 HD
ENDBRANCH   5  24
ENDBRANCH   1   2
BRANCH   1  26
HETATM   26  O3  UNL     1     -15.233 -67.049 -53.376  1.00  0.00    -0.385 OA
ATOM     27  H3  UNL     1     -14.568 -66.380 -53.492  1.00  0.00     0.210 HD
ENDBRANCH   1  26
BRANCH   1  28
HETATM   28  C8  UNL     1     -17.127 -67.862 -52.266  1.00  0.00     0.194 C 
HETATM   29  O4  UNL     1     -18.017 -67.624 -51.428  1.00  0.00    -0.292 OA
BRANCH  28  30
HETATM   30  C9  UNL     1     -17.203 -69.115 -53.023  1.00  0.00     0.262 C 
BRANCH  30  31
HETATM   31  O5  UNL     1     -17.216 -68.728 -54.387  1.00  0.00    -0.380 OA
ATOM     32  H5  UNL     1     -16.522 -69.231 -54.796  1.00  0.00     0.211 HD
ENDBRANCH  30  31
BRANCH  30  33
HETATM   33  C10 UNL     1     -18.435 -69.916 -52.778  1.00  0.00     0.193 C 
HETATM   34  O6  UNL     1     -18.337 -70.826 -51.962  1.00  0.00    -0.292 OA
BRANCH  33  35
HETATM   35  C11 UNL     1     -19.743 -69.728 -53.408  1.00  0.00     0.222 C 
BRANCH  35  36
HETATM   36  O7  UNL     1     -19.834 -68.335 -53.738  1.00  0.00    -0.385 OA
ATOM     37  H7  UNL     1     -20.090 -68.294 -54.652  1.00  0.00     0.210 HD
ENDBRANCH  35  36
BRANCH  35  38
HETATM   38  C12 UNL     1     -20.942 -70.015 -52.578  1.00  0.00     0.194 C 
BRANCH  38  39
HETATM   39  O8  UNL     1     -22.072 -70.148 -53.376  1.00  0.00    -0.390 OA
ATOM     40  H8  UNL     1     -22.829 -70.378 -52.850  1.00  0.00     0.210 HD
ENDBRANCH  38  39
BRANCH  38  41
HETATM   41  C13 UNL     1     -21.172 -69.232 -51.347  1.00  0.00     0.307 C 
BRANCH  41  42
HETATM   42  N5  UNL     1     -22.385 -68.466 -51.300  1.00  0.00    -0.064 N 
ATOM     43  H53 UNL     1     -22.168 -67.485 -51.119  1.00  0.00     0.275 HD
ATOM     44  H52 UNL     1     -22.786 -68.396 -52.235  1.00  0.00     0.275 HD
ATOM     45  H51 UNL     1     -23.097 -68.788 -50.643  1.00  0.00     0.275 HD
ENDBRANCH  41  42
BRANCH  41  46
HETATM   46  C14 UNL     1     -20.868 -69.979 -50.109  1.00  0.00     0.269 C 
HETATM   47  O9  UNL     1     -20.490 -69.266 -49.117  1.00  0.00    -0.269 OA
HETATM   48  N6  UNL     1     -20.981 -71.386 -49.999  1.00  0.00    -0.275 N 
ATOM     49  H6  UNL     1     -21.284 -71.929 -50.807  1.00  0.00     0.189 HD
BRANCH  48  50
HETATM   50  N7  UNL     1     -20.686 -72.036 -48.811  1.00  0.00    -0.343 N 
ATOM     51  H72 UNL     1     -20.012 -71.607 -48.176  1.00  0.00     0.176 HD
ATOM     52  H71 UNL     1     -21.131 -72.922 -48.572  1.00  0.00     0.176 HD
ENDBRANCH  48  50
ENDBRANCH  41  46
ENDBRANCH  38  41
ENDBRANCH  35  38
ENDBRANCH  33  35
ENDBRANCH  30  33
ENDBRANCH  28  30
ENDBRANCH   1  28
TORSDOF 17
ENDMDL
MODEL 2
REMARK VINA RESULT: -8.555042285      2.346      3.428
REMARK  17 active torsions:
REMARK  status: ('A' for Active; 'I' for Inactive)
REMARK    1  A    between atoms: N1_1  and  C1_4 
REMARK    2  A    between atoms: N4_13  and  C5_14 
REMARK    3  A    between atoms: C6_16  and  C7_17 
REMARK    4  A    between atoms: C7_17  and  O3_18 
REMARK    5  A    between atoms: C7_17  and  C8_20 
REMARK    6  A    between atoms: C8_20  and  C9_22 
REMARK    7  A    between atoms: C9_22  and  O5_23 
REMARK    8  A    between atoms: C9_22  and  C10_25 
REMARK    9  A    between atoms: C10_25  and  C11_27 
REMARK   10  A    between atoms: C11_27  and  O7_28 
REMARK   11  A    between atoms: C11_27  and  C12_30 
REMARK   12  A    between atoms: C12_30  and  O8_31 
REMARK   13  A    between atoms: C12_30  and  C13_33 
REMARK   14  A    between atoms: C13_33  and  N5_34 
REMARK   15  A    between atoms: C13_33  and  C14_38 
REMARK       I    between atoms: C14_38  and  N6_40 
REMARK   16  A    between atoms: N6_40  and  N7_42 
REMARK   17  A    between atoms: C16_47  and  O11_48 
ROOT
HETATM    1  C7  UNL     1     -18.361 -66.076 -49.917  1.00  0.00     0.227 C 
ENDROOT
BRANCH   1   2
HETATM    2  C6  UNL     1     -17.232 -65.899 -48.920  1.00  0.00     0.232 C 
HETATM    3  O2  UNL     1     -16.372 -66.980 -48.922  1.00  0.00    -0.347 OA
HETATM    4  C5  UNL     1     -15.064 -66.549 -48.905  1.00  0.00     0.267 C 
HETATM    5  C16 UNL     1     -15.075 -65.189 -49.501  1.00  0.00     0.239 C 
HETATM    6  C15 UNL     1     -16.427 -64.704 -49.172  1.00  0.00     0.191 C 
HETATM    7  O10 UNL     1     -16.763 -63.540 -49.130  1.00  0.00    -0.292 OA
BRANCH   4   8
HETATM    8  N4  UNL     1     -14.545 -66.603 -47.552  1.00  0.00    -0.296 N 
HETATM    9  C4  UNL     1     -15.165 -66.447 -46.379  1.00  0.00     0.188 A 
HETATM   10  N3  UNL     1     -14.294 -66.579 -45.369  1.00  0.00    -0.345 N 
HETATM   11  C3  UNL     1     -13.073 -66.828 -45.923  1.00  0.00     0.147 A 
ATOM     12  H3  UNL     1     -14.505 -66.506 -44.373  1.00  0.00     0.167 HD
HETATM   13  C2  UNL     1     -11.827 -67.044 -45.329  1.00  0.00     0.290 A 
HETATM   14  C17 UNL     1     -13.251 -66.839 -47.284  1.00  0.00     0.159 A 
HETATM   15  N2  UNL     1     -10.798 -67.267 -46.159  1.00  0.00    -0.154 N 
HETATM   16  O1  UNL     1     -11.731 -67.022 -44.082  1.00  0.00    -0.265 OA
HETATM   17  C1  UNL     1     -10.980 -67.276 -47.489  1.00  0.00     0.680 A 
ATOM     18  H2  UNL     1      -9.867 -67.432 -45.775  1.00  0.00     0.187 HD
HETATM   19  N8  UNL     1     -12.165 -67.071 -48.081  1.00  0.00    -0.174 N 
ATOM     20  H8  UNL     1     -12.253 -67.087 -49.097  1.00  0.00     0.186 HD
BRANCH  17  21
HETATM   21  N1  UNL     1      -9.935 -67.498 -48.224  1.00  0.00    -0.234 N 
ATOM     22  H12 UNL     1      -9.123 -67.955 -47.809  1.00  0.00     0.174 HD
ATOM     23  H11 UNL     1      -9.983 -67.198 -49.197  1.00  0.00     0.174 HD
ENDBRANCH  17  21
ENDBRANCH   4   8
BRANCH   5  24
HETATM   24  O11 UNL     1     -14.077 -64.351 -49.017  1.00  0.00    -0.383 OA
ATOM     25  H11 UNL     1     -13.523 -63.978 -49.693  1.00  0.00     0.210 HD
ENDBRANCH   5  24
ENDBRANCH   1   2
BRANCH   1  26
HETATM   26  O3  UNL     1     -18.138 -67.034 -50.846  1.00  0.00    -0.385 OA
ATOM     27  H3  UNL     1     -18.928 -67.417 -51.209  1.00  0.00     0.210 HD
ENDBRANCH   1  26
BRANCH   1  28
HETATM   28  C8  UNL     1     -19.658 -66.281 -49.232  1.00  0.00     0.194 C 
HETATM   29  O4  UNL     1     -19.553 -66.760 -48.087  1.00  0.00    -0.292 OA
BRANCH  28  30
HETATM   30  C9  UNL     1     -21.001 -65.990 -49.743  1.00  0.00     0.262 C 
BRANCH  30  31
HETATM   31  O5  UNL     1     -21.629 -65.225 -48.728  1.00  0.00    -0.380 OA
ATOM     32  H5  UNL     1     -22.081 -64.526 -49.185  1.00  0.00     0.211 HD
ENDBRANCH  30  31
BRANCH  30  33
HETATM   33  C10 UNL     1     -21.849 -67.191 -49.981  1.00  0.00     0.193 C 
HETATM   34  O6  UNL     1     -22.691 -67.439 -49.124  1.00  0.00    -0.292 OA
BRANCH  33  35
HETATM   35  C11 UNL     1     -21.782 -68.100 -51.127  1.00  0.00     0.222 C 
BRANCH  35  36
HETATM   36  O7  UNL     1     -23.138 -68.423 -51.464  1.00  0.00    -0.385 OA
ATOM     37  H7  UNL     1     -23.202 -69.371 -51.432  1.00  0.00     0.210 HD
ENDBRANCH  35  36
BRANCH  35  38
HETATM   38  C12 UNL     1     -21.106 -69.407 -50.916  1.00  0.00     0.194 C 
BRANCH  38  39
HETATM   39  O8  UNL     1     -20.188 -69.324 -49.877  1.00  0.00    -0.390 OA
ATOM     40  H8  UNL     1     -19.451 -68.778 -50.123  1.00  0.00     0.210 HD
ENDBRANCH  38  39
BRANCH  38  41
HETATM   41  C13 UNL     1     -20.615 -70.162 -52.086  1.00  0.00     0.307 C 
BRANCH  41  42
HETATM   42  N5  UNL     1     -21.420 -70.087 -53.273  1.00  0.00    -0.064 N 
ATOM     43  H53 UNL     1     -22.080 -69.313 -53.194  1.00  0.00     0.275 HD
ATOM     44  H52 UNL     1     -20.852 -69.766 -54.056  1.00  0.00     0.275 HD
ATOM     45  H51 UNL     1     -21.918 -70.939 -53.534  1.00  0.00     0.275 HD
ENDBRANCH  41  42
BRANCH  41  46
HETATM   46  C14 UNL     1     -19.163 -70.011 -52.318  1.00  0.00     0.269 C 
HETATM   47  O9  UNL     1     -18.420 -70.859 -51.714  1.00  0.00    -0.269 OA
HETATM   48  N6  UNL     1     -18.606 -69.007 -53.146  1.00  0.00    -0.275 N 
ATOM     49  H6  UNL     1     -19.223 -68.343 -53.614  1.00  0.00     0.189 HD
BRANCH  48  50
HETATM   50  N7  UNL     1     -17.236 -68.913 -53.330  1.00  0.00    -0.343 N 
ATOM     51  H72 UNL     1     -16.629 -68.976 -52.512  1.00  0.00     0.176 HD
ATOM     52  H71 UNL     1     -16.838 -68.782 -54.261  1.00  0.00     0.176 HD
ENDBRANCH  48  50
ENDBRANCH  41  46
ENDBRANCH  38  41
ENDBRANCH  35  38
ENDBRANCH  33  35
ENDBRANCH  30  33
ENDBRANCH  28  30
ENDBRANCH   1  28
TORSDOF 17
ENDMDL
MODEL 3
REMARK VINA RESULT: -8.489089662      1.268      1.716
REMARK  17 active torsions:
REMARK  status: ('A' for Active; 'I' for Inactive)
REMARK    1  A    between atoms: N1_1  and  C1_4 
REMARK    2  A    between atoms: N4_13  and  C5_14 
REMARK    3  A    between atoms: C6_16  and  C7_17 
REMARK    4  A    between atoms: C7_17  and  O3_18 
REMARK    5  A    between atoms: C7_17  and  C8_20 
REMARK    6  A    between atoms: C8_20  and  C9_22 
REMARK    7  A    between atoms: C9_22  and  O5_23 
REMARK    8  A    between atoms: C9_22  and  C10_25 
REMARK    9  A    between atoms: C10_25  and  C11_27 
REMARK   10  A    between atoms: C11_27  and  O7_28 
REMARK   11  A    between atoms: C11_27  and  C12_30 
REMARK   12  A    between atoms: C12_30  and  O8_31 
REMARK   13  A    between atoms: C12_30  and  C13_33 
REMARK   14  A    between atoms: C13_33  and  N5_34 
REMARK   15  A    between atoms: C13_33  and  C14_38 
REMARK       I    between atoms: C14_38  and  N6_40 
REMARK   16  A    between atoms: N6_40  and  N7_42 
REMARK   17  A    between atoms: C16_47  and  O11_48 
ROOT
HETATM    1  C7  UNL     1     -16.284 -66.684 -52.502  1.00  0.00     0.227 C 
ENDROOT
BRANCH   1   2
HETATM    2  C6  UNL     1     -15.663 -66.409 -51.146  1.00  0.00     0.232 C 
HETATM    3  O2  UNL     1     -15.006 -67.518 -50.648  1.00  0.00    -0.347 OA
HETATM    4  C5  UNL     1     -13.786 -67.153 -50.123  1.00  0.00     0.267 C 
HETATM    5  C16 UNL     1     -13.396 -65.904 -50.825  1.00  0.00     0.239 C 
HETATM    6  C15 UNL     1     -14.699 -65.309 -51.170  1.00  0.00     0.191 C 
HETATM    7  O10 UNL     1     -14.892 -64.137 -51.417  1.00  0.00    -0.292 OA
BRANCH   4   8
HETATM    8  N4  UNL     1     -13.889 -67.020 -48.683  1.00  0.00    -0.296 N 
HETATM    9  C4  UNL     1     -14.947 -66.759 -47.910  1.00  0.00     0.188 A 
HETATM   10  N3  UNL     1     -14.586 -66.726 -46.620  1.00  0.00    -0.345 N 
HETATM   11  C3  UNL     1     -13.246 -66.976 -46.572  1.00  0.00     0.147 A 
ATOM     12  H3  UNL     1     -15.198 -66.547 -45.823  1.00  0.00     0.167 HD
HETATM   13  C2  UNL     1     -12.369 -67.056 -45.487  1.00  0.00     0.290 A 
HETATM   14  C17 UNL     1     -12.831 -67.157 -47.868  1.00  0.00     0.159 A 
HETATM   15  N2  UNL     1     -11.086 -67.323 -45.771  1.00  0.00    -0.154 N 
HETATM   16  O1  UNL     1     -12.810 -66.882 -44.329  1.00  0.00    -0.265 OA
HETATM   17  C1  UNL     1     -10.688 -67.497 -47.041  1.00  0.00     0.680 A 
ATOM     18  H2  UNL     1     -10.406 -67.393 -45.014  1.00  0.00     0.187 HD
HETATM   19  N8  UNL     1     -11.510 -67.425 -48.097  1.00  0.00    -0.174 N 
ATOM     20  H8  UNL     1     -11.160 -67.565 -49.045  1.00  0.00     0.186 HD
BRANCH  17  21
HETATM   21  N1  UNL     1      -9.431 -67.751 -47.233  1.00  0.00    -0.234 N 
ATOM     22  H12 UNL     1      -8.739 -67.351 -46.599  1.00  0.00     0.174 HD
ATOM     23  H11 UNL     1      -9.197 -68.350 -48.025  1.00  0.00     0.174 HD
ENDBRANCH  17  21
ENDBRANCH   4   8
BRANCH   5  24
HETATM   24  O11 UNL     1     -12.606 -65.050 -50.065  1.00  0.00    -0.383 OA
ATOM     25  H11 UNL     1     -12.648 -64.140 -50.336  1.00  0.00     0.210 HD
ENDBRANCH   5  24
ENDBRANCH   1   2
BRANCH   1  26
HETATM   26  O3  UNL     1     -15.518 -67.441 -53.321  1.00  0.00    -0.385 OA
ATOM     27  H3  UNL     1     -15.853 -68.317 -53.470  1.00  0.00     0.210 HD
ENDBRANCH   1  26
BRANCH   1  28
HETATM   28  C8  UNL     1     -17.646 -67.249 -52.366  1.00  0.00     0.194 C 
HETATM   29  O4  UNL     1     -18.478 -66.451 -51.892  1.00  0.00    -0.292 OA
BRANCH  28  30
HETATM   30  C9  UNL     1     -18.100 -68.598 -52.717  1.00  0.00     0.262 C 
BRANCH  30  31
HETATM   31  O5  UNL     1     -17.746 -68.769 -54.078  1.00  0.00    -0.380 OA
ATOM     32  H5  UNL     1     -18.564 -68.715 -54.558  1.00  0.00     0.211 HD
ENDBRANCH  30  31
BRANCH  30  33
HETATM   33  C10 UNL     1     -19.571 -68.806 -52.612  1.00  0.00     0.193 C 
HETATM   34  O6  UNL     1     -20.234 -68.494 -53.596  1.00  0.00    -0.292 OA
BRANCH  33  35
HETATM   35  C11 UNL     1     -20.303 -69.342 -51.463  1.00  0.00     0.222 C 
BRANCH  35  36
HETATM   36  O7  UNL     1     -19.798 -68.654 -50.309  1.00  0.00    -0.385 OA
ATOM     37  H7  UNL     1     -20.443 -68.777 -49.623  1.00  0.00     0.210 HD
ENDBRANCH  35  36
BRANCH  35  38
HETATM   38  C12 UNL     1     -20.131 -70.788 -51.165  1.00  0.00     0.194 C 
BRANCH  38  39
HETATM   39  O8  UNL     1     -20.561 -71.564 -52.233  1.00  0.00    -0.390 OA
ATOM     40  H8  UNL     1     -20.208 -72.444 -52.173  1.00  0.00     0.210 HD
ENDBRANCH  38  39
BRANCH  38  41
HETATM   41  C13 UNL     1     -20.546 -71.307 -49.846  1.00  0.00     0.307 C 
BRANCH  41  42
HETATM   42  N5  UNL     1     -21.527 -70.531 -49.140  1.00  0.00    -0.064 N 
ATOM     43  H53 UNL     1     -22.463 -70.862 -49.373  1.00  0.00     0.275 HD
ATOM     44  H52 UNL     1     -21.494 -70.756 -48.146  1.00  0.00     0.275 HD
ATOM     45  H51 UNL     1     -21.477 -69.520 -49.267  1.00  0.00     0.275 HD
ENDBRANCH  41  42
BRANCH  41  46
HETATM   46  C14 UNL     1     -20.793 -72.764 -49.838  1.00  0.00     0.269 C 
HETATM   47  O9  UNL     1     -19.821 -73.487 -50.248  1.00  0.00    -0.269 OA
HETATM   48  N6  UNL     1     -22.009 -73.347 -49.410  1.00  0.00    -0.275 N 
ATOM     49  H6  UNL     1     -22.768 -72.746 -49.089  1.00  0.00     0.189 HD
BRANCH  48  50
HETATM   50  N7  UNL     1     -22.185 -74.722 -49.419  1.00  0.00    -0.343 N 
ATOM     51  H72 UNL     1     -22.098 -75.230 -48.539  1.00  0.00     0.176 HD
ATOM     52  H71 UNL     1     -22.397 -75.218 -50.285  1.00  0.00     0.176 HD
ENDBRANCH  48  50
ENDBRANCH  41  46
ENDBRANCH  38  41
ENDBRANCH  35  38
ENDBRANCH  33  35
ENDBRANCH  30  33
ENDBRANCH  28  30
ENDBRANCH   1  28
TORSDOF 17
ENDMDL
MODEL 4
REMARK VINA RESULT: -8.463830963      1.121      1.126
REMARK  17 active torsions:
REMARK  status: ('A' for Active; 'I' for Inactive)
REMARK    1  A    between atoms: N1_1  and  C1_4 
REMARK    2  A    between atoms: N4_13  and  C5_14 
REMARK    3  A    between atoms: C6_16  and  C7_17 
REMARK    4  A    between atoms: C7_17  and  O3_18 
REMARK    5  A    between atoms: C7_17  and  C8_20 
REMARK    6  A    between atoms: C8_20  and  C9_22 
REMARK    7  A    between atoms: C9_22  and  O5_23 
REMARK    8  A    between atoms: C9_22  and  C10_25 
REMARK    9  A    between atoms: C10_25  and  C11_27 
REMARK   10  A    between atoms: C11_27  and  O7_28 
REMARK   11  A    between atoms: C11_27  and  C12_30 
REMARK   12  A    between atoms: C12_30  and  O8_31 
REMARK   13  A    between atoms: C12_30  and  C13_33 
REMARK   14  A    between atoms: C13_33  and  N5_34 
REMARK   15  A    between atoms: C13_33  and  C14_38 
REMARK       I    between atoms: C14_38  and  N6_40 
REMARK   16  A    between atoms: N6_40  and  N7_42 
REMARK   17  A    between atoms: C16_47  and  O11_48 
ROOT
HETATM    1  C7  UNL     1     -16.083 -66.842 -52.295  1.00  0.00     0.227 C 
ENDROOT
BRANCH   1   2
HETATM    2  C6  UNL     1     -15.396 -66.581 -50.968  1.00  0.00     0.232 C 
HETATM    3  O2  UNL     1     -14.667 -67.675 -50.543  1.00  0.00    -0.347 OA
HETATM    4  C5  UNL     1     -13.435 -67.274 -50.077  1.00  0.00     0.267 C 
HETATM    5  C16 UNL     1     -13.136 -65.991 -50.760  1.00  0.00     0.239 C 
HETATM    6  C15 UNL     1     -14.481 -65.441 -51.012  1.00  0.00     0.191 C 
HETATM    7  O10 UNL     1     -14.734 -64.272 -51.211  1.00  0.00    -0.292 OA
BRANCH   4   8
HETATM    8  N4  UNL     1     -13.460 -67.188 -48.629  1.00  0.00    -0.296 N 
HETATM    9  C4  UNL     1     -14.469 -66.927 -47.794  1.00  0.00     0.188 A 
HETATM   10  N3  UNL     1     -14.042 -66.947 -46.524  1.00  0.00    -0.345 N 
HETATM   11  C3  UNL     1     -12.708 -67.232 -46.555  1.00  0.00     0.147 A 
ATOM     12  H3  UNL     1     -14.607 -66.781 -45.691  1.00  0.00     0.167 HD
HETATM   13  C2  UNL     1     -11.779 -67.371 -45.520  1.00  0.00     0.290 A 
HETATM   14  C17 UNL     1     -12.365 -67.378 -47.876  1.00  0.00     0.159 A 
HETATM   15  N2  UNL     1     -10.520 -67.659 -45.880  1.00  0.00    -0.154 N 
HETATM   16  O1  UNL     1     -12.155 -67.225 -44.336  1.00  0.00    -0.265 OA
HETATM   17  C1  UNL     1     -10.192 -67.800 -47.174  1.00  0.00     0.680 A 
ATOM     18  H2  UNL     1      -9.804 -67.772 -45.162  1.00  0.00     0.187 HD
HETATM   19  N8  UNL     1     -11.065 -67.671 -48.183  1.00  0.00    -0.174 N 
ATOM     20  H8  UNL     1     -10.768 -67.788 -49.152  1.00  0.00     0.186 HD
BRANCH  17  21
HETATM   21  N1  UNL     1      -8.955 -68.079 -47.440  1.00  0.00    -0.234 N 
ATOM     22  H12 UNL     1      -8.539 -67.730 -48.304  1.00  0.00     0.174 HD
ATOM     23  H11 UNL     1      -8.452 -68.644 -46.756  1.00  0.00     0.174 HD
ENDBRANCH  17  21
ENDBRANCH   4   8
BRANCH   5  24
HETATM   24  O11 UNL     1     -12.339 -65.126 -50.019  1.00  0.00    -0.383 OA
ATOM     25  H11 UNL     1     -12.665 -64.955 -49.143  1.00  0.00     0.210 HD
ENDBRANCH   5  24
ENDBRANCH   1   2
BRANCH   1  26
HETATM   26  O3  UNL     1     -15.240 -67.168 -53.303  1.00  0.00    -0.385 OA
ATOM     27  H3  UNL     1     -15.003 -66.439 -53.863  1.00  0.00     0.210 HD
ENDBRANCH   1  26
BRANCH   1  28
HETATM   28  C8  UNL     1     -17.164 -67.844 -52.154  1.00  0.00     0.194 C 
HETATM   29  O4  UNL     1     -18.059 -67.510 -51.355  1.00  0.00    -0.292 OA
BRANCH  28  30
HETATM   30  C9  UNL     1     -17.286 -69.138 -52.831  1.00  0.00     0.262 C 
BRANCH  30  31
HETATM   31  O5  UNL     1     -17.179 -68.848 -54.214  1.00  0.00    -0.380 OA
ATOM     32  H5  UNL     1     -17.554 -67.982 -54.318  1.00  0.00     0.211 HD
ENDBRANCH  30  31
BRANCH  30  33
HETATM   33  C10 UNL     1     -18.589 -69.829 -52.623  1.00  0.00     0.193 C 
HETATM   34  O6  UNL     1     -18.612 -70.691 -51.751  1.00  0.00    -0.292 OA
BRANCH  33  35
HETATM   35  C11 UNL     1     -19.837 -69.584 -53.347  1.00  0.00     0.222 C 
BRANCH  35  36
HETATM   36  O7  UNL     1     -19.827 -68.196 -53.709  1.00  0.00    -0.385 OA
ATOM     37  H7  UNL     1     -18.915 -67.930 -53.716  1.00  0.00     0.210 HD
ENDBRANCH  35  36
BRANCH  35  38
HETATM   38  C12 UNL     1     -21.106 -69.786 -52.599  1.00  0.00     0.194 C 
BRANCH  38  39
HETATM   39  O8  UNL     1     -22.038 -70.454 -53.383  1.00  0.00    -0.390 OA
ATOM     40  H8  UNL     1     -21.795 -71.366 -53.488  1.00  0.00     0.210 HD
ENDBRANCH  38  39
BRANCH  38  41
HETATM   41  C13 UNL     1     -21.674 -68.663 -51.825  1.00  0.00     0.307 C 
BRANCH  41  42
HETATM   42  N5  UNL     1     -23.100 -68.512 -51.882  1.00  0.00    -0.064 N 
ATOM     43  H53 UNL     1     -23.357 -67.559 -51.624  1.00  0.00     0.275 HD
ATOM     44  H52 UNL     1     -23.411 -68.530 -52.853  1.00  0.00     0.275 HD
ATOM     45  H51 UNL     1     -23.646 -69.177 -51.333  1.00  0.00     0.275 HD
ENDBRANCH  41  42
BRANCH  41  46
HETATM   46  C14 UNL     1     -21.094 -68.528 -50.473  1.00  0.00     0.269 C 
HETATM   47  O9  UNL     1     -21.115 -69.588 -49.759  1.00  0.00    -0.269 OA
HETATM   48  N6  UNL     1     -20.545 -67.321 -49.976  1.00  0.00    -0.275 N 
ATOM     49  H6  UNL     1     -20.543 -66.490 -50.568  1.00  0.00     0.189 HD
BRANCH  48  50
HETATM   50  N7  UNL     1     -20.011 -67.251 -48.699  1.00  0.00    -0.343 N 
ATOM     51  H72 UNL     1     -20.440 -66.614 -48.027  1.00  0.00     0.176 HD
ATOM     52  H71 UNL     1     -19.208 -67.821 -48.433  1.00  0.00     0.176 HD
ENDBRANCH  48  50
ENDBRANCH  41  46
ENDBRANCH  38  41
ENDBRANCH  35  38
ENDBRANCH  33  35
ENDBRANCH  30  33
ENDBRANCH  28  30
ENDBRANCH   1  28
TORSDOF 17
ENDMDL
MODEL 5
REMARK VINA RESULT: -8.412831670      4.402      6.249
REMARK  17 active torsions:
REMARK  status: ('A' for Active; 'I' for Inactive)
REMARK    1  A    between atoms: N1_1  and  C1_4 
REMARK    2  A    between atoms: N4_13  and  C5_14 
REMARK    3  A    between atoms: C6_16  and  C7_17 
REMARK    4  A    between atoms: C7_17  and  O3_18 
REMARK    5  A    between atoms: C7_17  and  C8_20 
REMARK    6  A    between atoms: C8_20  and  C9_22 
REMARK    7  A    between atoms: C9_22  and  O5_23 
REMARK    8  A    between atoms: C9_22  and  C10_25 
REMARK    9  A    between atoms: C10_25  and  C11_27 
REMARK   10  A    between atoms: C11_27  and  O7_28 
REMARK   11  A    between atoms: C11_27  and  C12_30 
REMARK   12  A    between atoms: C12_30  and  O8_31 
REMARK   13  A    between atoms: C12_30  and  C13_33 
REMARK   14  A    between atoms: C13_33  and  N5_34 
REMARK   15  A    between atoms: C13_33  and  C14_38 
REMARK       I    between atoms: C14_38  and  N6_40 
REMARK   16  A    between atoms: N6_40  and  N7_42 
REMARK   17  A    between atoms: C16_47  and  O11_48 
ROOT
HETATM    1  C7  UNL     1     -17.757 -69.608 -53.134  1.00  0.00     0.227 C 
ENDROOT
BRANCH   1   2
HETATM    2  C6  UNL     1     -17.877 -68.131 -52.808  1.00  0.00     0.232 C 
HETATM    3  O2  UNL     1     -17.678 -67.884 -51.464  1.00  0.00    -0.347 OA
HETATM    4  C5  UNL     1     -16.858 -66.791 -51.297  1.00  0.00     0.267 C 
HETATM    5  C16 UNL     1     -16.042 -66.699 -52.533  1.00  0.00     0.239 C 
HETATM    6  C15 UNL     1     -16.926 -67.302 -53.547  1.00  0.00     0.191 C 
HETATM    7  O10 UNL     1     -16.846 -67.121 -54.744  1.00  0.00    -0.292 OA
BRANCH   4   8
HETATM    8  N4  UNL     1     -17.657 -65.612 -51.021  1.00  0.00    -0.296 N 
HETATM    9  C4  UNL     1     -17.381 -64.317 -51.197  1.00  0.00     0.188 A 
HETATM   10  N3  UNL     1     -18.415 -63.561 -50.803  1.00  0.00    -0.345 N 
HETATM   11  C3  UNL     1     -19.386 -64.411 -50.359  1.00  0.00     0.147 A 
ATOM     12  H3  UNL     1     -18.468 -62.543 -50.830  1.00  0.00     0.167 HD
HETATM   13  C2  UNL     1     -20.659 -64.154 -49.843  1.00  0.00     0.290 A 
HETATM   14  C17 UNL     1     -18.894 -65.684 -50.504  1.00  0.00     0.159 A 
HETATM   15  N2  UNL     1     -21.389 -65.222 -49.490  1.00  0.00    -0.154 N 
HETATM   16  O1  UNL     1     -21.050 -62.970 -49.737  1.00  0.00    -0.265 OA
HETATM   17  C1  UNL     1     -20.900 -66.464 -49.633  1.00  0.00     0.680 A 
ATOM     18  H2  UNL     1     -22.326 -65.088 -49.108  1.00  0.00     0.187 HD
HETATM   19  N8  UNL     1     -19.684 -66.735 -50.126  1.00  0.00    -0.174 N 
ATOM     20  H8  UNL     1     -19.356 -67.696 -50.216  1.00  0.00     0.186 HD
BRANCH  17  21
HETATM   21  N1  UNL     1     -21.668 -67.443 -49.269  1.00  0.00    -0.234 N 
ATOM     22  H12 UNL     1     -22.594 -67.237 -48.892  1.00  0.00     0.174 HD
ATOM     23  H11 UNL     1     -21.296 -68.386 -49.379  1.00  0.00     0.174 HD
ENDBRANCH  17  21
ENDBRANCH   4   8
BRANCH   5  24
HETATM   24  O11 UNL     1     -15.658 -65.404 -52.865  1.00  0.00    -0.383 OA
ATOM     25  H11 UNL     1     -16.384 -64.828 -53.073  1.00  0.00     0.210 HD
ENDBRANCH   5  24
ENDBRANCH   1   2
BRANCH   1  26
HETATM   26  O3  UNL     1     -16.907 -70.287 -52.329  1.00  0.00    -0.385 OA
ATOM     27  H3  UNL     1     -16.208 -70.735 -52.790  1.00  0.00     0.210 HD
ENDBRANCH   1  26
BRANCH   1  28
HETATM   28  C8  UNL     1     -19.086 -70.259 -53.184  1.00  0.00     0.194 C 
HETATM   29  O4  UNL     1     -19.867 -69.747 -54.009  1.00  0.00    -0.292 OA
BRANCH  28  30
HETATM   30  C9  UNL     1     -19.559 -71.399 -52.393  1.00  0.00     0.262 C 
BRANCH  30  31
HETATM   31  O5  UNL     1     -20.752 -71.826 -53.029  1.00  0.00    -0.380 OA
ATOM     32  H5  UNL     1     -20.583 -72.719 -53.305  1.00  0.00     0.211 HD
ENDBRANCH  30  31
BRANCH  30  33
HETATM   33  C10 UNL     1     -19.902 -71.076 -50.981  1.00  0.00     0.193 C 
HETATM   34  O6  UNL     1     -20.235 -69.917 -50.755  1.00  0.00    -0.292 OA
BRANCH  33  35
HETATM   35  C11 UNL     1     -19.884 -71.994 -49.841  1.00  0.00     0.222 C 
BRANCH  35  36
HETATM   36  O7  UNL     1     -19.734 -73.312 -50.389  1.00  0.00    -0.385 OA
ATOM     37  H7  UNL     1     -20.382 -73.856 -49.956  1.00  0.00     0.210 HD
ENDBRANCH  35  36
BRANCH  35  38
HETATM   38  C12 UNL     1     -21.108 -72.055 -49.000  1.00  0.00     0.194 C 
BRANCH  38  39
HETATM   39  O8  UNL     1     -21.313 -70.849 -48.343  1.00  0.00    -0.390 OA
ATOM     40  H8  UNL     1     -21.190 -70.118 -48.937  1.00  0.00     0.210 HD
ENDBRANCH  38  39
BRANCH  38  41
HETATM   41  C13 UNL     1     -21.344 -73.242 -48.153  1.00  0.00     0.307 C 
BRANCH  41  42
HETATM   42  N5  UNL     1     -21.394 -73.010 -46.737  1.00  0.00    -0.064 N 
ATOM     43  H53 UNL     1     -20.564 -73.403 -46.292  1.00  0.00     0.275 HD
ATOM     44  H52 UNL     1     -21.255 -72.019 -46.544  1.00  0.00     0.275 HD
ATOM     45  H51 UNL     1     -22.232 -73.341 -46.256  1.00  0.00     0.275 HD
ENDBRANCH  41  42
BRANCH  41  46
HETATM   46  C14 UNL     1     -22.404 -74.133 -48.669  1.00  0.00     0.269 C 
HETATM   47  O9  UNL     1     -23.260 -74.525 -47.803  1.00  0.00    -0.269 OA
HETATM   48  N6  UNL     1     -22.492 -74.538 -50.022  1.00  0.00    -0.275 N 
ATOM     49  H6  UNL     1     -21.795 -74.211 -50.690  1.00  0.00     0.189 HD
BRANCH  48  50
HETATM   50  N7  UNL     1     -23.511 -75.373 -50.453  1.00  0.00    -0.343 N 
ATOM     51  H72 UNL     1     -23.287 -76.347 -50.662  1.00  0.00     0.176 HD
ATOM     52  H71 UNL     1     -24.465 -75.027 -50.559  1.00  0.00     0.176 HD
ENDBRANCH  48  50
ENDBRANCH  41  46
ENDBRANCH  38  41
ENDBRANCH  35  38
ENDBRANCH  33  35
ENDBRANCH  30  33
ENDBRANCH  28  30
ENDBRANCH   1  28
TORSDOF 17
ENDMDL
