MODEL 1
REMARK VINA RESULT: -4.856230797      0.000      0.000
REMARK  0 active torsions:
REMARK  status: ('A' for Active; 'I' for Inactive)
ROOT
HETATM    1  C1  UNL     1      38.015   1.814   5.236  1.00  0.00     0.356 C 
HETATM    2  N1  UNL     1      37.365   0.695   4.606  1.00  0.00     0.009 N 
HETATM    3  O1  UNL     1      38.059   0.372   3.495  1.00  0.00    -0.065 OA
HETATM    4  C2  UNL     1      35.963   0.945   4.326  1.00  0.00     0.311 C 
HETATM    5  C3  UNL     1      35.548  -0.115   3.299  1.00  0.00     0.036 C 
HETATM    6  C4  UNL     1      36.139  -1.440   3.634  1.00  0.00     0.004 C 
HETATM    7  C5  UNL     1      36.637  -1.583   5.024  1.00  0.00     0.036 C 
HETATM    8  C6  UNL     1      37.377  -0.414   5.565  1.00  0.00     0.311 C 
ENDROOT
TORSDOF 0
ENDMDL
MODEL 2
REMARK VINA RESULT: -4.832661478      1.355      1.820
REMARK  0 active torsions:
REMARK  status: ('A' for Active; 'I' for Inactive)
ROOT
HETATM    1  C1  UNL     1      37.824   1.043   3.741  1.00  0.00     0.356 C 
HETATM    2  N1  UNL     1      37.093  -0.110   4.197  1.00  0.00     0.009 N 
HETATM    3  O1  UNL     1      37.918  -0.864   4.953  1.00  0.00    -0.065 OA
HETATM    4  C2  UNL     1      36.502  -0.866   3.109  1.00  0.00     0.311 C 
HETATM    5  C3  UNL     1      36.158  -2.240   3.695  1.00  0.00     0.036 C 
HETATM    6  C4  UNL     1      35.588  -2.108   5.064  1.00  0.00     0.004 C 
HETATM    7  C5  UNL     1      35.098  -0.753   5.422  1.00  0.00     0.036 C 
HETATM    8  C6  UNL     1      35.961   0.377   4.991  1.00  0.00     0.311 C 
ENDROOT
TORSDOF 0
ENDMDL
MODEL 3
REMARK VINA RESULT: -4.824231817      1.050      2.373
REMARK  0 active torsions:
REMARK  status: ('A' for Active; 'I' for Inactive)
ROOT
HETATM    1  C1  UNL     1      37.348  -0.775   5.577  1.00  0.00     0.356 C 
HETATM    2  N1  UNL     1      36.955   0.188   4.583  1.00  0.00     0.009 N 
HETATM    3  O1  UNL     1      38.025   0.459   3.808  1.00  0.00    -0.065 OA
HETATM    4  C2  UNL     1      36.379   1.388   5.162  1.00  0.00     0.311 C 
HETATM    5  C3  UNL     1      36.426   2.449   4.056  1.00  0.00     0.036 C 
HETATM    6  C4  UNL     1      36.055   1.861   2.739  1.00  0.00     0.004 C 
HETATM    7  C5  UNL     1      35.350   0.557   2.799  1.00  0.00     0.036 C 
HETATM    8  C6  UNL     1      35.879  -0.415   3.791  1.00  0.00     0.311 C 
ENDROOT
TORSDOF 0
ENDMDL
MODEL 4
REMARK VINA RESULT: -4.775492009      1.731      2.491
REMARK  0 active torsions:
REMARK  status: ('A' for Active; 'I' for Inactive)
ROOT
HETATM    1  C1  UNL     1      35.753   1.999   2.999  1.00  0.00     0.356 C 
HETATM    2  N1  UNL     1      35.674   0.811   3.808  1.00  0.00     0.009 N 
HETATM    3  O1  UNL     1      34.461   0.779   4.397  1.00  0.00    -0.065 OA
HETATM    4  C2  UNL     1      36.755   0.717   4.772  1.00  0.00     0.311 C 
HETATM    5  C3  UNL     1      36.300  -0.318   5.808  1.00  0.00     0.036 C 
HETATM    6  C4  UNL     1      35.628  -1.471   5.148  1.00  0.00     0.004 C 
HETATM    7  C5  UNL     1      35.875  -1.605   3.690  1.00  0.00     0.036 C 
HETATM    8  C6  UNL     1      35.849  -0.338   2.915  1.00  0.00     0.311 C 
ENDROOT
TORSDOF 0
ENDMDL
MODEL 5
REMARK VINA RESULT: -4.773478888      1.791      2.742
REMARK  0 active torsions:
REMARK  status: ('A' for Active; 'I' for Inactive)
ROOT
HETATM    1  C1  UNL     1      34.811   0.930   2.269  1.00  0.00     0.356 C 
HETATM    2  N1  UNL     1      35.402   0.524   3.517  1.00  0.00     0.009 N 
HETATM    3  O1  UNL     1      34.516   0.768   4.505  1.00  0.00    -0.065 OA
HETATM    4  C2  UNL     1      36.685   1.156   3.761  1.00  0.00     0.311 C 
HETATM    5  C3  UNL     1      36.958   0.978   5.260  1.00  0.00     0.036 C 
HETATM    6  C4  UNL     1      36.565  -0.384   5.714  1.00  0.00     0.004 C 
HETATM    7  C5  UNL     1      36.390  -1.390   4.637  1.00  0.00     0.036 C 
HETATM    8  C6  UNL     1      35.688  -0.910   3.419  1.00  0.00     0.311 C 
ENDROOT
TORSDOF 0
ENDMDL
