MODEL 1
REMARK VINA RESULT: -5.647606160      0.000      0.000
REMARK  2 active torsions:
REMARK  status: ('A' for Active; 'I' for Inactive)
REMARK    1  A    between atoms: C3_3  and  N1_6 
REMARK    2  A    between atoms: N1_6  and  C6_8 
ROOT
HETATM    1  C1  UNL     1      36.344  -2.533   3.728  1.00  0.00     0.015 C 
HETATM    2  C2  UNL     1      36.177  -1.338   3.647  1.00  0.00    -0.086 C 
HETATM    3  C3  UNL     1      35.991   0.093   3.519  1.00  0.00     0.086 C 
HETATM    4  C4  UNL     1      37.146   0.629   2.688  1.00  0.00     0.052 C 
HETATM    5  C5  UNL     1      34.750   0.367   2.620  1.00  0.00     0.052 C 
ENDROOT
BRANCH   3   6
HETATM    6  N1  UNL     1      35.756   0.795   4.695  1.00  0.00    -0.371 N 
ATOM      7  H1  UNL     1      35.130   0.385   5.388  1.00  0.00     0.161 HD
BRANCH   6   8
HETATM    8  C6  UNL     1      36.338   2.035   4.975  1.00  0.00     0.179 C 
HETATM    9  C7  UNL     1      35.492   3.204   4.701  1.00  0.00     0.104 C 
HETATM   10  N2  UNL     1      34.839   4.143   4.453  1.00  0.00    -0.191 NA
ENDBRANCH   6   8
ENDBRANCH   3   6
TORSDOF 2
ENDMDL
MODEL 2
REMARK VINA RESULT: -5.384440963      2.126      3.111
REMARK  2 active torsions:
REMARK  status: ('A' for Active; 'I' for Inactive)
REMARK    1  A    between atoms: C3_3  and  N1_6 
REMARK    2  A    between atoms: N1_6  and  C6_8 
ROOT
HETATM    1  C1  UNL     1      34.598   0.609   2.452  1.00  0.00     0.015 C 
HETATM    2  C2  UNL     1      35.298   0.042   3.260  1.00  0.00    -0.086 C 
HETATM    3  C3  UNL     1      36.110  -0.657   4.234  1.00  0.00     0.086 C 
HETATM    4  C4  UNL     1      35.194  -1.067   5.378  1.00  0.00     0.052 C 
HETATM    5  C5  UNL     1      36.562  -2.021   3.637  1.00  0.00     0.052 C 
ENDROOT
BRANCH   3   6
HETATM    6  N1  UNL     1      37.279  -0.023   4.635  1.00  0.00    -0.371 N 
ATOM      7  H1  UNL     1      38.155  -0.544   4.586  1.00  0.00     0.161 HD
BRANCH   6   8
HETATM    8  C6  UNL     1      37.314   1.294   5.104  1.00  0.00     0.179 C 
HETATM    9  C7  UNL     1      38.655   1.870   5.263  1.00  0.00     0.104 C 
HETATM   10  N2  UNL     1      39.721   2.327   5.427  1.00  0.00    -0.191 NA
ENDBRANCH   6   8
ENDBRANCH   3   6
TORSDOF 2
ENDMDL
MODEL 3
REMARK VINA RESULT: -5.252242690      1.331      2.430
REMARK  2 active torsions:
REMARK  status: ('A' for Active; 'I' for Inactive)
REMARK    1  A    between atoms: C3_3  and  N1_6 
REMARK    2  A    between atoms: N1_6  and  C6_8 
ROOT
HETATM    1  C1  UNL     1      34.516   0.462   2.338  1.00  0.00     0.015 C 
HETATM    2  C2  UNL     1      35.256  -0.059   3.140  1.00  0.00    -0.086 C 
HETATM    3  C3  UNL     1      36.117  -0.703   4.111  1.00  0.00     0.086 C 
HETATM    4  C4  UNL     1      35.278  -0.976   5.351  1.00  0.00     0.052 C 
HETATM    5  C5  UNL     1      36.478  -2.130   3.607  1.00  0.00     0.052 C 
ENDROOT
BRANCH   3   6
HETATM    6  N1  UNL     1      37.333  -0.083   4.368  1.00  0.00    -0.371 N 
ATOM      7  H1  UNL     1      38.176  -0.477   3.951  1.00  0.00     0.161 HD
BRANCH   6   8
HETATM    8  C6  UNL     1      37.457   1.056   5.171  1.00  0.00     0.179 C 
HETATM    9  C7  UNL     1      36.876   2.285   4.614  1.00  0.00     0.104 C 
HETATM   10  N2  UNL     1      36.448   3.277   4.164  1.00  0.00    -0.191 NA
ENDBRANCH   6   8
ENDBRANCH   3   6
TORSDOF 2
ENDMDL
MODEL 4
REMARK VINA RESULT: -5.177544176      1.653      2.140
REMARK  2 active torsions:
REMARK  status: ('A' for Active; 'I' for Inactive)
REMARK    1  A    between atoms: C3_3  and  N1_6 
REMARK    2  A    between atoms: N1_6  and  C6_8 
ROOT
HETATM    1  C1  UNL     1      36.360  -2.466   3.723  1.00  0.00     0.015 C 
HETATM    2  C2  UNL     1      36.298  -1.258   3.703  1.00  0.00    -0.086 C 
HETATM    3  C3  UNL     1      36.225   0.187   3.647  1.00  0.00     0.086 C 
HETATM    4  C4  UNL     1      37.048   0.637   2.449  1.00  0.00     0.052 C 
HETATM    5  C5  UNL     1      34.777   0.610   3.260  1.00  0.00     0.052 C 
ENDROOT
BRANCH   3   6
HETATM    6  N1  UNL     1      36.506   0.869   4.824  1.00  0.00    -0.371 N 
ATOM      7  H1  UNL     1      36.248   0.434   5.710  1.00  0.00     0.161 HD
BRANCH   6   8
HETATM    8  C6  UNL     1      37.127   2.122   4.853  1.00  0.00     0.179 C 
HETATM    9  C7  UNL     1      38.535   2.118   5.272  1.00  0.00     0.104 C 
HETATM   10  N2  UNL     1      39.647   2.129   5.638  1.00  0.00    -0.191 NA
ENDBRANCH   6   8
ENDBRANCH   3   6
TORSDOF 2
ENDMDL
MODEL 5
REMARK VINA RESULT: -5.146904981      1.755      2.275
REMARK  2 active torsions:
REMARK  status: ('A' for Active; 'I' for Inactive)
REMARK    1  A    between atoms: C3_3  and  N1_6 
REMARK    2  A    between atoms: N1_6  and  C6_8 
ROOT
HETATM    1  C1  UNL     1      35.287  -1.171   5.249  1.00  0.00     0.015 C 
HETATM    2  C2  UNL     1      35.567  -0.270   4.493  1.00  0.00    -0.086 C 
HETATM    3  C3  UNL     1      35.908   0.787   3.563  1.00  0.00     0.086 C 
HETATM    4  C4  UNL     1      36.999   0.253   2.648  1.00  0.00     0.052 C 
HETATM    5  C5  UNL     1      34.713   1.018   2.593  1.00  0.00     0.052 C 
ENDROOT
BRANCH   3   6
HETATM    6  N1  UNL     1      36.181   2.033   4.115  1.00  0.00    -0.371 N 
ATOM      7  H1  UNL     1      35.909   2.866   3.592  1.00  0.00     0.161 HD
BRANCH   6   8
HETATM    8  C6  UNL     1      36.812   2.201   5.351  1.00  0.00     0.179 C 
HETATM    9  C7  UNL     1      38.280   2.149   5.322  1.00  0.00     0.104 C 
HETATM   10  N2  UNL     1      39.448   2.074   5.315  1.00  0.00    -0.191 NA
ENDBRANCH   6   8
ENDBRANCH   3   6
TORSDOF 2
ENDMDL
