MODEL 1
REMARK VINA RESULT: -6.131063212      0.000      0.000
REMARK  8 active torsions:
REMARK  status: ('A' for Active; 'I' for Inactive)
REMARK    1  A    between atoms: C3_4  and  N2_5 
REMARK    2  A    between atoms: N2_5  and  N3_7 
REMARK    3  A    between atoms: N3_7  and  N4_8 
REMARK    4  A    between atoms: C4_11  and  C5_12 
REMARK    5  A    between atoms: C5_12  and  O1_13 
REMARK    6  A    between atoms: C7_16  and  O2_17 
REMARK    7  A    between atoms: C8_19  and  O3_20 
REMARK    8  A    between atoms: O3_20  and  C9_21 
ROOT
HETATM    1  C1  UNL     1     -25.557  -4.801  -7.476  1.00  0.00     0.221 C 
HETATM    2  N1  UNL     1     -26.590  -5.312  -7.594  1.00  0.00    -0.461 NA
HETATM    3  C2  UNL     1     -27.836  -5.938  -7.759  1.00  0.00     0.218 C 
HETATM    4  C3  UNL     1     -28.897  -4.898  -7.678  1.00  0.00     0.159 C 
HETATM    5  C4  UNL     1     -28.745  -4.196  -6.348  1.00  0.00     0.040 C 
HETATM    6  C6  UNL     1     -28.761  -5.141  -5.206  1.00  0.00     0.043 C 
HETATM    7  C7  UNL     1     -28.837  -6.576  -5.545  1.00  0.00     0.150 C 
HETATM    8  C8  UNL     1     -28.009  -7.009  -6.718  1.00  0.00     0.189 C 
ENDROOT
BRANCH   4   9
HETATM    9  N2  UNL     1     -28.630  -3.914  -8.731  1.00  0.00    -0.244 N 
ATOM     10  H2  UNL     1     -28.490  -2.931  -8.499  1.00  0.00     0.197 HD
BRANCH   9  11
HETATM   11  N3  UNL     1     -28.577  -4.296  -9.903  1.00  0.00    -0.248 NA
BRANCH  11  12
HETATM   12  N4  UNL     1     -28.588  -4.499 -11.121  1.00  0.00    -0.261 N 
ATOM     13  H42 UNL     1     -28.914  -3.539 -11.231  1.00  0.00     0.193 HD
ATOM     14  H41 UNL     1     -28.546  -4.814 -12.090  1.00  0.00     0.193 HD
ENDBRANCH  11  12
ENDBRANCH   9  11
ENDBRANCH   4   9
BRANCH   8  15
HETATM   15  O3  UNL     1     -28.600  -8.104  -7.337  1.00  0.00    -0.366 OA
BRANCH  15  16
HETATM   16  C9  UNL     1     -28.598  -9.194  -6.479  1.00  0.00     0.291 C 
HETATM   17  C10 UNL     1     -29.794 -10.015  -6.648  1.00  0.00     0.085 C 
HETATM   18  N5  UNL     1     -30.730 -10.670  -6.775  1.00  0.00    -0.195 NA
ENDBRANCH  15  16
ENDBRANCH   8  15
BRANCH   5  19
HETATM   19  C5  UNL     1     -29.812  -3.126  -6.231  1.00  0.00     0.171 C 
BRANCH  19  20
HETATM   20  O1  UNL     1     -29.160  -1.884  -6.169  1.00  0.00    -0.400 OA
ATOM     21  H1  UNL     1     -29.669  -1.268  -6.683  1.00  0.00     0.209 HD
ENDBRANCH  19  20
ENDBRANCH   5  19
BRANCH   7  22
HETATM   22  O2  UNL     1     -30.179  -6.977  -5.656  1.00  0.00    -0.393 OA
ATOM     23  H2  UNL     1     -30.411  -7.546  -4.931  1.00  0.00     0.210 HD
ENDBRANCH   7  22
TORSDOF 8
ENDMDL
MODEL 2
REMARK VINA RESULT: -5.521711602      4.880      6.394
REMARK  8 active torsions:
REMARK  status: ('A' for Active; 'I' for Inactive)
REMARK    1  A    between atoms: C3_4  and  N2_5 
REMARK    2  A    between atoms: N2_5  and  N3_7 
REMARK    3  A    between atoms: N3_7  and  N4_8 
REMARK    4  A    between atoms: C4_11  and  C5_12 
REMARK    5  A    between atoms: C5_12  and  O1_13 
REMARK    6  A    between atoms: C7_16  and  O2_17 
REMARK    7  A    between atoms: C8_19  and  O3_20 
REMARK    8  A    between atoms: O3_20  and  C9_21 
ROOT
HETATM    1  C1  UNL     1     -32.471  -5.257  -1.843  1.00  0.00     0.221 C 
HETATM    2  N1  UNL     1     -31.777  -6.153  -2.083  1.00  0.00    -0.461 NA
HETATM    3  C2  UNL     1     -30.950  -7.253  -2.361  1.00  0.00     0.218 C 
HETATM    4  C3  UNL     1     -29.616  -7.004  -1.750  1.00  0.00     0.159 C 
HETATM    5  C4  UNL     1     -29.096  -5.700  -2.310  1.00  0.00     0.040 C 
HETATM    6  C6  UNL     1     -29.074  -5.691  -3.793  1.00  0.00     0.043 C 
HETATM    7  C7  UNL     1     -29.623  -6.887  -4.463  1.00  0.00     0.150 C 
HETATM    8  C8  UNL     1     -30.864  -7.461  -3.848  1.00  0.00     0.189 C 
ENDROOT
BRANCH   4   9
HETATM    9  N2  UNL     1     -29.820  -6.818  -0.311  1.00  0.00    -0.244 N 
ATOM     10  H2  UNL     1     -29.294  -6.109   0.200  1.00  0.00     0.197 HD
BRANCH   9  11
HETATM   11  N3  UNL     1     -30.639  -7.532   0.272  1.00  0.00    -0.248 NA
BRANCH  11  12
HETATM   12  N4  UNL     1     -31.567  -8.085   0.871  1.00  0.00    -0.261 N 
ATOM     13  H42 UNL     1     -32.091  -8.049  -0.003  1.00  0.00     0.193 HD
ATOM     14  H41 UNL     1     -32.235  -8.538   1.493  1.00  0.00     0.193 HD
ENDBRANCH  11  12
ENDBRANCH   9  11
ENDBRANCH   4   9
BRANCH   8  15
HETATM   15  O3  UNL     1     -30.921  -8.829  -4.085  1.00  0.00    -0.366 OA
BRANCH  15  16
HETATM   16  C9  UNL     1     -31.245  -9.070  -5.412  1.00  0.00     0.291 C 
HETATM   17  C10 UNL     1     -31.195 -10.495  -5.728  1.00  0.00     0.085 C 
HETATM   18  N5  UNL     1     -31.163 -11.615  -5.987  1.00  0.00    -0.195 NA
ENDBRANCH  15  16
ENDBRANCH   8  15
BRANCH   5  19
HETATM   19  C5  UNL     1     -27.736  -5.412  -1.708  1.00  0.00     0.171 C 
BRANCH  19  20
HETATM   20  O1  UNL     1     -27.165  -6.642  -1.346  1.00  0.00    -0.400 OA
ATOM     21  H1  UNL     1     -26.293  -6.465  -1.013  1.00  0.00     0.209 HD
ENDBRANCH  19  20
ENDBRANCH   5  19
BRANCH   7  22
HETATM   22  O2  UNL     1     -28.615  -7.850  -4.638  1.00  0.00    -0.393 OA
ATOM     23  H2  UNL     1     -28.972  -8.723  -4.525  1.00  0.00     0.210 HD
ENDBRANCH   7  22
TORSDOF 8
ENDMDL
MODEL 3
REMARK VINA RESULT: -4.963695044      2.103      5.732
REMARK  8 active torsions:
REMARK  status: ('A' for Active; 'I' for Inactive)
REMARK    1  A    between atoms: C3_4  and  N2_5 
REMARK    2  A    between atoms: N2_5  and  N3_7 
REMARK    3  A    between atoms: N3_7  and  N4_8 
REMARK    4  A    between atoms: C4_11  and  C5_12 
REMARK    5  A    between atoms: C5_12  and  O1_13 
REMARK    6  A    between atoms: C7_16  and  O2_17 
REMARK    7  A    between atoms: C8_19  and  O3_20 
REMARK    8  A    between atoms: O3_20  and  C9_21 
ROOT
HETATM    1  C1  UNL     1     -28.882  -6.720  -2.681  1.00  0.00     0.221 C 
HETATM    2  N1  UNL     1     -29.310  -6.578  -3.748  1.00  0.00    -0.461 NA
HETATM    3  C2  UNL     1     -29.848  -6.396  -5.031  1.00  0.00     0.218 C 
HETATM    4  C3  UNL     1     -30.082  -7.735  -5.637  1.00  0.00     0.159 C 
HETATM    5  C4  UNL     1     -28.762  -8.472  -5.633  1.00  0.00     0.040 C 
HETATM    6  C6  UNL     1     -27.686  -7.705  -6.304  1.00  0.00     0.043 C 
HETATM    7  C7  UNL     1     -28.044  -6.353  -6.779  1.00  0.00     0.150 C 
HETATM    8  C8  UNL     1     -28.916  -5.554  -5.859  1.00  0.00     0.189 C 
ENDROOT
BRANCH   4   9
HETATM    9  N2  UNL     1     -30.997  -8.463  -4.753  1.00  0.00    -0.244 N 
ATOM     10  H2  UNL     1     -31.078  -8.210  -3.768  1.00  0.00     0.197 HD
BRANCH   9  11
HETATM   11  N3  UNL     1     -31.668  -9.386  -5.221  1.00  0.00    -0.248 NA
BRANCH  11  12
HETATM   12  N4  UNL     1     -32.218 -10.428  -5.593  1.00  0.00    -0.261 N 
ATOM     13  H42 UNL     1     -31.288 -10.840  -5.659  1.00  0.00     0.193 HD
ATOM     14  H41 UNL     1     -32.809 -11.206  -5.883  1.00  0.00     0.193 HD
ENDBRANCH  11  12
ENDBRANCH   9  11
ENDBRANCH   4   9
BRANCH   8  15
HETATM   15  O3  UNL     1     -29.694  -4.667  -6.594  1.00  0.00    -0.366 OA
BRANCH  15  16
HETATM   16  C9  UNL     1     -29.273  -3.365  -6.368  1.00  0.00     0.291 C 
HETATM   17  C10 UNL     1     -28.013  -3.079  -7.050  1.00  0.00     0.085 C 
HETATM   18  N5  UNL     1     -27.024  -2.843  -7.586  1.00  0.00    -0.195 NA
ENDBRANCH  15  16
ENDBRANCH   8  15
BRANCH   5  19
HETATM   19  C5  UNL     1     -28.962  -9.845  -6.243  1.00  0.00     0.171 C 
BRANCH  19  20
HETATM   20  O1  UNL     1     -29.754  -9.686  -7.392  1.00  0.00    -0.400 OA
ATOM     21  H1  UNL     1     -29.739 -10.510  -7.864  1.00  0.00     0.209 HD
ENDBRANCH  19  20
ENDBRANCH   5  19
BRANCH   7  22
HETATM   22  O2  UNL     1     -28.557  -6.419  -8.085  1.00  0.00    -0.393 OA
ATOM     23  H2  UNL     1     -28.612  -7.323  -8.371  1.00  0.00     0.210 HD
ENDBRANCH   7  22
TORSDOF 8
ENDMDL
MODEL 4
REMARK VINA RESULT: -4.431777390      2.704      5.771
REMARK  8 active torsions:
REMARK  status: ('A' for Active; 'I' for Inactive)
REMARK    1  A    between atoms: C3_4  and  N2_5 
REMARK    2  A    between atoms: N2_5  and  N3_7 
REMARK    3  A    between atoms: N3_7  and  N4_8 
REMARK    4  A    between atoms: C4_11  and  C5_12 
REMARK    5  A    between atoms: C5_12  and  O1_13 
REMARK    6  A    between atoms: C7_16  and  O2_17 
REMARK    7  A    between atoms: C8_19  and  O3_20 
REMARK    8  A    between atoms: O3_20  and  C9_21 
ROOT
HETATM    1  C1  UNL     1     -28.684  -6.613  -2.734  1.00  0.00     0.221 C 
HETATM    2  N1  UNL     1     -29.039  -6.462  -3.827  1.00  0.00    -0.461 NA
HETATM    3  C2  UNL     1     -29.479  -6.258  -5.144  1.00  0.00     0.218 C 
HETATM    4  C3  UNL     1     -30.372  -7.388  -5.520  1.00  0.00     0.159 C 
HETATM    5  C4  UNL     1     -29.587  -8.667  -5.336  1.00  0.00     0.040 C 
HETATM    6  C6  UNL     1     -28.307  -8.656  -6.083  1.00  0.00     0.043 C 
HETATM    7  C7  UNL     1     -27.976  -7.407  -6.797  1.00  0.00     0.150 C 
HETATM    8  C8  UNL     1     -28.295  -6.139  -6.064  1.00  0.00     0.189 C 
ENDROOT
BRANCH   4   9
HETATM    9  N2  UNL     1     -31.482  -7.409  -4.564  1.00  0.00    -0.244 N 
ATOM     10  H2  UNL     1     -32.410  -7.087  -4.840  1.00  0.00     0.197 HD
BRANCH   9  11
HETATM   11  N3  UNL     1     -31.276  -7.823  -3.421  1.00  0.00    -0.248 NA
BRANCH  11  12
HETATM   12  N4  UNL     1     -31.263  -8.240  -2.259  1.00  0.00    -0.261 N 
ATOM     13  H42 UNL     1     -32.010  -7.575  -2.061  1.00  0.00     0.193 HD
ATOM     14  H41 UNL     1     -31.135  -8.682  -1.349  1.00  0.00     0.193 HD
ENDBRANCH  11  12
ENDBRANCH   9  11
ENDBRANCH   4   9
BRANCH   8  15
HETATM   15  O3  UNL     1     -28.570  -5.123  -6.971  1.00  0.00    -0.366 OA
BRANCH  15  16
HETATM   16  C9  UNL     1     -27.407  -4.434  -7.283  1.00  0.00     0.291 C 
HETATM   17  C10 UNL     1     -27.377  -4.034  -8.687  1.00  0.00     0.085 C 
HETATM   18  N5  UNL     1     -27.345  -3.711  -9.789  1.00  0.00    -0.195 NA
ENDBRANCH  15  16
ENDBRANCH   8  15
BRANCH   5  19
HETATM   19  C5  UNL     1     -30.467  -9.844  -5.710  1.00  0.00     0.171 C 
BRANCH  19  20
HETATM   20  O1  UNL     1     -30.992 -10.373  -4.520  1.00  0.00    -0.400 OA
ATOM     21  H1  UNL     1     -31.476 -11.158  -4.746  1.00  0.00     0.209 HD
ENDBRANCH  19  20
ENDBRANCH   5  19
BRANCH   7  22
HETATM   22  O2  UNL     1     -28.518  -7.431  -8.093  1.00  0.00    -0.393 OA
ATOM     23  H2  UNL     1     -28.338  -6.611  -8.538  1.00  0.00     0.210 HD
ENDBRANCH   7  22
TORSDOF 8
ENDMDL
MODEL 5
REMARK VINA RESULT: -4.213074013      2.692      5.799
REMARK  8 active torsions:
REMARK  status: ('A' for Active; 'I' for Inactive)
REMARK    1  A    between atoms: C3_4  and  N2_5 
REMARK    2  A    between atoms: N2_5  and  N3_7 
REMARK    3  A    between atoms: N3_7  and  N4_8 
REMARK    4  A    between atoms: C4_11  and  C5_12 
REMARK    5  A    between atoms: C5_12  and  O1_13 
REMARK    6  A    between atoms: C7_16  and  O2_17 
REMARK    7  A    between atoms: C8_19  and  O3_20 
REMARK    8  A    between atoms: O3_20  and  C9_21 
ROOT
HETATM    1  C1  UNL     1     -28.640  -6.847  -2.918  1.00  0.00     0.221 C 
HETATM    2  N1  UNL     1     -29.002  -6.763  -4.015  1.00  0.00    -0.461 NA
HETATM    3  C2  UNL     1     -29.451  -6.640  -5.339  1.00  0.00     0.218 C 
HETATM    4  C3  UNL     1     -30.417  -7.738  -5.612  1.00  0.00     0.159 C 
HETATM    5  C4  UNL     1     -29.710  -9.045  -5.332  1.00  0.00     0.040 C 
HETATM    6  C6  UNL     1     -28.444  -9.175  -6.092  1.00  0.00     0.043 C 
HETATM    7  C7  UNL     1     -28.049  -8.011  -6.910  1.00  0.00     0.150 C 
HETATM    8  C8  UNL     1     -28.277  -6.669  -6.279  1.00  0.00     0.189 C 
ENDROOT
BRANCH   4   9
HETATM    9  N2  UNL     1     -31.511  -7.611  -4.644  1.00  0.00    -0.244 N 
ATOM     10  H2  UNL     1     -32.430  -7.283  -4.940  1.00  0.00     0.197 HD
BRANCH   9  11
HETATM   11  N3  UNL     1     -31.301  -7.909  -3.466  1.00  0.00    -0.248 NA
BRANCH  11  12
HETATM   12  N4  UNL     1     -31.285  -8.209  -2.268  1.00  0.00    -0.261 N 
ATOM     13  H42 UNL     1     -32.212  -8.612  -2.404  1.00  0.00     0.193 HD
ATOM     14  H41 UNL     1     -31.126  -8.388  -1.277  1.00  0.00     0.193 HD
ENDBRANCH  11  12
ENDBRANCH   9  11
ENDBRANCH   4   9
BRANCH   8  15
HETATM   15  O3  UNL     1     -28.504  -5.716  -7.264  1.00  0.00    -0.366 OA
BRANCH  15  16
HETATM   16  C9  UNL     1     -27.965  -4.497  -6.880  1.00  0.00     0.291 C 
HETATM   17  C10 UNL     1     -29.006  -3.524  -6.558  1.00  0.00     0.085 C 
HETATM   18  N5  UNL     1     -29.818  -2.752  -6.299  1.00  0.00    -0.195 NA
ENDBRANCH  15  16
ENDBRANCH   8  15
BRANCH   5  19
HETATM   19  C5  UNL     1     -30.667 -10.190  -5.598  1.00  0.00     0.171 C 
BRANCH  19  20
HETATM   20  O1  UNL     1     -31.233 -10.561  -4.368  1.00  0.00    -0.400 OA
ATOM     21  H1  UNL     1     -32.167 -10.666  -4.504  1.00  0.00     0.209 HD
ENDBRANCH  19  20
ENDBRANCH   5  19
BRANCH   7  22
HETATM   22  O2  UNL     1     -28.612  -8.105  -8.193  1.00  0.00    -0.393 OA
ATOM     23  H2  UNL     1     -29.431  -7.625  -8.227  1.00  0.00     0.210 HD
ENDBRANCH   7  22
TORSDOF 8
ENDMDL
