MODEL 1
REMARK VINA RESULT: -8.412596672      0.000      0.000
REMARK  7 active torsions:
REMARK  status: ('A' for Active; 'I' for Inactive)
REMARK    1  A    between atoms: O1_1  and  C1_3 
REMARK    2  A    between atoms: C1_3  and  C2_4 
REMARK    3  A    between atoms: C3_6  and  C4_7 
REMARK    4  A    between atoms: C5_8  and  C6_9 
REMARK    5  A    between atoms: C6_9  and  O3_10 
REMARK    6  A    between atoms: O3_10  and  C7_11 
REMARK    7  A    between atoms: C17_23  and  O6_24 
ROOT
HETATM    1  C6  UNL     1     -13.780 -31.129 -13.943  1.00  0.00     0.198 C 
ENDROOT
BRANCH   1   2
HETATM    2  C5  UNL     1     -13.562 -30.299 -15.126  1.00  0.00     0.002 C 
HETATM    3  C4  UNL     1     -12.481 -30.235 -15.832  1.00  0.00     0.035 C 
BRANCH   3   4
HETATM    4  C3  UNL     1     -11.229 -30.954 -15.640  1.00  0.00     0.078 A 
HETATM    5  O2  UNL     1     -10.306 -31.300 -16.497  1.00  0.00    -0.310 OA
HETATM    6  C2  UNL     1      -9.315 -31.941 -15.961  1.00  0.00     0.110 A 
HETATM    7  C17 UNL     1      -9.552 -32.060 -14.611  1.00  0.00     0.100 A 
HETATM    8  C16 UNL     1     -10.761 -31.436 -14.410  1.00  0.00     0.076 A 
BRANCH   6   9
HETATM    9  C1  UNL     1      -8.086 -32.494 -16.605  1.00  0.00     0.232 C 
BRANCH   9  10
HETATM   10  O1  UNL     1      -7.326 -31.410 -17.029  1.00  0.00    -0.394 OA
ATOM     11  H1  UNL     1      -6.496 -31.755 -17.337  1.00  0.00     0.209 HD
ENDBRANCH   9  10
ENDBRANCH   6   9
BRANCH   7  12
HETATM   12  O6  UNL     1      -8.747 -32.678 -13.642  1.00  0.00    -0.358 OA
ATOM     13  H6  UNL     1      -8.947 -33.442 -13.113  1.00  0.00     0.217 HD
ENDBRANCH   7  12
ENDBRANCH   3   4
ENDBRANCH   1   2
BRANCH   1  14
HETATM   14  O3  UNL     1     -13.772 -30.365 -12.757  1.00  0.00    -0.355 OA
BRANCH  14  15
HETATM   15  C7  UNL     1     -14.762 -30.830 -11.939  1.00  0.00     0.294 C 
HETATM   16  O4  UNL     1     -14.275 -31.515 -10.824  1.00  0.00    -0.356 OA
HETATM   17  C8  UNL     1     -15.333 -32.161 -10.216  1.00  0.00     0.197 C 
HETATM   18  C9  UNL     1     -16.679 -31.703 -10.661  1.00  0.00     0.195 C 
HETATM   19  O5  UNL     1     -16.792 -30.359 -10.882  1.00  0.00    -0.373 OA
HETATM   20  C10 UNL     1     -15.682 -29.757 -11.421  1.00  0.00     0.110 C 
HETATM   21  C11 UNL     1     -15.014 -28.962 -10.291  1.00  0.00     0.043 C 
HETATM   22  C15 UNL     1     -16.105 -28.769 -12.455  1.00  0.00     0.043 C 
HETATM   23  C12 UNL     1     -16.127 -28.182  -9.619  1.00  0.00     0.003 C 
HETATM   24  C13 UNL     1     -16.811 -27.246 -10.591  1.00  0.00     0.000 C 
HETATM   25  C14 UNL     1     -17.244 -27.940 -11.847  1.00  0.00     0.003 C 
ENDBRANCH  14  15
ENDBRANCH   1  14
TORSDOF 7
ENDMDL
MODEL 2
REMARK VINA RESULT: -8.407004238      2.952      7.551
REMARK  7 active torsions:
REMARK  status: ('A' for Active; 'I' for Inactive)
REMARK    1  A    between atoms: O1_1  and  C1_3 
REMARK    2  A    between atoms: C1_3  and  C2_4 
REMARK    3  A    between atoms: C3_6  and  C4_7 
REMARK    4  A    between atoms: C5_8  and  C6_9 
REMARK    5  A    between atoms: C6_9  and  O3_10 
REMARK    6  A    between atoms: O3_10  and  C7_11 
REMARK    7  A    between atoms: C17_23  and  O6_24 
ROOT
HETATM    1  C6  UNL     1     -16.832 -29.991 -10.694  1.00  0.00     0.198 C 
ENDROOT
BRANCH   1   2
HETATM    2  C5  UNL     1     -16.003 -29.102  -9.881  1.00  0.00     0.002 C 
HETATM    3  C4  UNL     1     -15.973 -27.812  -9.941  1.00  0.00     0.035 C 
BRANCH   3   4
HETATM    4  C3  UNL     1     -16.735 -26.926 -10.811  1.00  0.00     0.078 A 
HETATM    5  O2  UNL     1     -17.862 -27.118 -11.445  1.00  0.00    -0.310 OA
HETATM    6  C2  UNL     1     -18.248 -26.093 -12.137  1.00  0.00     0.110 A 
HETATM    7  C17 UNL     1     -17.322 -25.088 -11.982  1.00  0.00     0.100 A 
HETATM    8  C16 UNL     1     -16.367 -25.616 -11.144  1.00  0.00     0.076 A 
BRANCH   6   9
HETATM    9  C1  UNL     1     -19.467 -25.927 -12.984  1.00  0.00     0.232 C 
BRANCH   9  10
HETATM   10  O1  UNL     1     -19.034 -25.535 -14.246  1.00  0.00    -0.394 OA
ATOM     11  H1  UNL     1     -19.799 -25.514 -14.809  1.00  0.00     0.209 HD
ENDBRANCH   9  10
ENDBRANCH   6   9
BRANCH   7  12
HETATM   12  O6  UNL     1     -17.334 -23.803 -12.547  1.00  0.00    -0.358 OA
ATOM     13  H6  UNL     1     -17.183 -22.971 -12.115  1.00  0.00     0.217 HD
ENDBRANCH   7  12
ENDBRANCH   3   4
ENDBRANCH   1   2
BRANCH   1  14
HETATM   14  O3  UNL     1     -16.350 -30.093 -12.017  1.00  0.00    -0.355 OA
BRANCH  14  15
HETATM   15  C7  UNL     1     -15.303 -30.971 -12.026  1.00  0.00     0.294 C 
HETATM   16  O4  UNL     1     -15.670 -32.256 -12.427  1.00  0.00    -0.356 OA
HETATM   17  C8  UNL     1     -14.622 -33.112 -12.154  1.00  0.00     0.197 C 
HETATM   18  C9  UNL     1     -13.329 -32.435 -11.855  1.00  0.00     0.195 C 
HETATM   19  O5  UNL     1     -13.068 -31.324 -12.607  1.00  0.00    -0.373 OA
HETATM   20  C10 UNL     1     -14.160 -30.549 -12.910  1.00  0.00     0.110 C 
HETATM   21  C11 UNL     1     -14.489 -30.803 -14.388  1.00  0.00     0.043 C 
HETATM   22  C15 UNL     1     -13.797 -29.108 -12.788  1.00  0.00     0.043 C 
HETATM   23  C12 UNL     1     -13.171 -30.693 -15.130  1.00  0.00     0.003 C 
HETATM   24  C13 UNL     1     -12.551 -29.324 -14.954  1.00  0.00     0.000 C 
HETATM   25  C14 UNL     1     -12.459 -28.917 -13.515  1.00  0.00     0.003 C 
ENDBRANCH  14  15
ENDBRANCH   1  14
TORSDOF 7
ENDMDL
MODEL 3
REMARK VINA RESULT: -8.383810351      0.815      1.471
REMARK  7 active torsions:
REMARK  status: ('A' for Active; 'I' for Inactive)
REMARK    1  A    between atoms: O1_1  and  C1_3 
REMARK    2  A    between atoms: C1_3  and  C2_4 
REMARK    3  A    between atoms: C3_6  and  C4_7 
REMARK    4  A    between atoms: C5_8  and  C6_9 
REMARK    5  A    between atoms: C6_9  and  O3_10 
REMARK    6  A    between atoms: O3_10  and  C7_11 
REMARK    7  A    between atoms: C17_23  and  O6_24 
ROOT
HETATM    1  C6  UNL     1     -13.912 -31.105 -13.960  1.00  0.00     0.198 C 
ENDROOT
BRANCH   1   2
HETATM    2  C5  UNL     1     -13.479 -30.293 -15.097  1.00  0.00     0.002 C 
HETATM    3  C4  UNL     1     -12.331 -30.350 -15.688  1.00  0.00     0.035 C 
BRANCH   3   4
HETATM    4  C3  UNL     1     -11.198 -31.214 -15.387  1.00  0.00     0.078 A 
HETATM    5  O2  UNL     1     -10.955 -31.969 -14.348  1.00  0.00    -0.310 OA
HETATM    6  C2  UNL     1      -9.830 -32.608 -14.423  1.00  0.00     0.110 A 
HETATM    7  C17 UNL     1      -9.222 -32.281 -15.613  1.00  0.00     0.100 A 
HETATM    8  C16 UNL     1     -10.087 -31.401 -16.220  1.00  0.00     0.076 A 
BRANCH   6   9
HETATM    9  C1  UNL     1      -9.211 -33.554 -13.448  1.00  0.00     0.232 C 
BRANCH   9  10
HETATM   10  O1  UNL     1      -7.861 -33.231 -13.367  1.00  0.00    -0.394 OA
ATOM     11  H1  UNL     1      -7.677 -33.029 -12.457  1.00  0.00     0.209 HD
ENDBRANCH   9  10
ENDBRANCH   6   9
BRANCH   7  12
HETATM   12  O6  UNL     1      -7.991 -32.736 -16.111  1.00  0.00    -0.358 OA
ATOM     13  H6  UNL     1      -7.731 -33.629 -16.307  1.00  0.00     0.217 HD
ENDBRANCH   7  12
ENDBRANCH   3   4
ENDBRANCH   1   2
BRANCH   1  14
HETATM   14  O3  UNL     1     -13.838 -30.389 -12.746  1.00  0.00    -0.355 OA
BRANCH  14  15
HETATM   15  C7  UNL     1     -14.833 -30.835 -11.923  1.00  0.00     0.294 C 
HETATM   16  O4  UNL     1     -14.354 -31.528 -10.810  1.00  0.00    -0.356 OA
HETATM   17  C8  UNL     1     -15.420 -32.153 -10.196  1.00  0.00     0.197 C 
HETATM   18  C9  UNL     1     -16.760 -31.671 -10.635  1.00  0.00     0.195 C 
HETATM   19  O5  UNL     1     -16.849 -30.325 -10.856  1.00  0.00    -0.373 OA
HETATM   20  C10 UNL     1     -15.731 -29.744 -11.402  1.00  0.00     0.110 C 
HETATM   21  C11 UNL     1     -15.042 -28.961 -10.276  1.00  0.00     0.043 C 
HETATM   22  C15 UNL     1     -16.140 -28.750 -12.434  1.00  0.00     0.043 C 
HETATM   23  C12 UNL     1     -16.137 -28.159  -9.599  1.00  0.00     0.003 C 
HETATM   24  C13 UNL     1     -16.808 -27.212 -10.569  1.00  0.00     0.000 C 
HETATM   25  C14 UNL     1     -17.260 -27.899 -11.822  1.00  0.00     0.003 C 
ENDBRANCH  14  15
ENDBRANCH   1  14
TORSDOF 7
ENDMDL
MODEL 4
REMARK VINA RESULT: -8.297539946      2.862      4.992
REMARK  7 active torsions:
REMARK  status: ('A' for Active; 'I' for Inactive)
REMARK    1  A    between atoms: O1_1  and  C1_3 
REMARK    2  A    between atoms: C1_3  and  C2_4 
REMARK    3  A    between atoms: C3_6  and  C4_7 
REMARK    4  A    between atoms: C5_8  and  C6_9 
REMARK    5  A    between atoms: C6_9  and  O3_10 
REMARK    6  A    between atoms: O3_10  and  C7_11 
REMARK    7  A    between atoms: C17_23  and  O6_24 
ROOT
HETATM    1  C6  UNL     1     -12.314 -31.528 -13.913  1.00  0.00     0.198 C 
ENDROOT
BRANCH   1   2
HETATM    2  C5  UNL     1     -12.109 -30.529 -14.960  1.00  0.00     0.002 C 
HETATM    3  C4  UNL     1     -12.285 -29.253 -14.849  1.00  0.00     0.035 C 
BRANCH   3   4
HETATM    4  C3  UNL     1     -12.721 -28.496 -13.684  1.00  0.00     0.078 A 
HETATM    5  O2  UNL     1     -13.831 -28.555 -12.997  1.00  0.00    -0.310 OA
HETATM    6  C2  UNL     1     -13.874 -27.717 -12.009  1.00  0.00     0.110 A 
HETATM    7  C17 UNL     1     -12.698 -27.003 -11.991  1.00  0.00     0.100 A 
HETATM    8  C16 UNL     1     -11.971 -27.496 -13.050  1.00  0.00     0.076 A 
BRANCH   6   9
HETATM    9  C1  UNL     1     -14.958 -27.488 -11.008  1.00  0.00     0.232 C 
BRANCH   9  10
HETATM   10  O1  UNL     1     -15.118 -26.112 -10.889  1.00  0.00    -0.394 OA
ATOM     11  H1  UNL     1     -15.793 -25.965 -10.238  1.00  0.00     0.209 HD
ENDBRANCH   9  10
ENDBRANCH   6   9
BRANCH   7  12
HETATM   12  O6  UNL     1     -12.311 -25.993 -11.097  1.00  0.00    -0.358 OA
ATOM     13  H6  UNL     1     -11.434 -25.764 -10.814  1.00  0.00     0.217 HD
ENDBRANCH   7  12
ENDBRANCH   3   4
ENDBRANCH   1   2
BRANCH   1  14
HETATM   14  O3  UNL     1     -13.685 -31.780 -13.690  1.00  0.00    -0.355 OA
BRANCH  14  15
HETATM   15  C7  UNL     1     -13.794 -32.699 -12.684  1.00  0.00     0.294 C 
HETATM   16  O4  UNL     1     -12.566 -33.030 -12.108  1.00  0.00    -0.356 OA
HETATM   17  C8  UNL     1     -12.749 -34.135 -11.302  1.00  0.00     0.197 C 
HETATM   18  C9  UNL     1     -14.172 -34.450 -10.993  1.00  0.00     0.195 C 
HETATM   19  O5  UNL     1     -14.974 -33.364 -10.780  1.00  0.00    -0.373 OA
HETATM   20  C10 UNL     1     -14.699 -32.269 -11.560  1.00  0.00     0.110 C 
HETATM   21  C11 UNL     1     -13.999 -31.244 -10.656  1.00  0.00     0.043 C 
HETATM   22  C15 UNL     1     -15.976 -31.647 -12.013  1.00  0.00     0.043 C 
HETATM   23  C12 UNL     1     -14.837 -31.165  -9.394  1.00  0.00     0.003 C 
HETATM   24  C13 UNL     1     -16.252 -30.725  -9.697  1.00  0.00     0.000 C 
HETATM   25  C14 UNL     1     -16.887 -31.539 -10.783  1.00  0.00     0.003 C 
ENDBRANCH  14  15
ENDBRANCH   1  14
TORSDOF 7
ENDMDL
MODEL 5
REMARK VINA RESULT: -8.216468033      1.321      1.845
REMARK  7 active torsions:
REMARK  status: ('A' for Active; 'I' for Inactive)
REMARK    1  A    between atoms: O1_1  and  C1_3 
REMARK    2  A    between atoms: C1_3  and  C2_4 
REMARK    3  A    between atoms: C3_6  and  C4_7 
REMARK    4  A    between atoms: C5_8  and  C6_9 
REMARK    5  A    between atoms: C6_9  and  O3_10 
REMARK    6  A    between atoms: O3_10  and  C7_11 
REMARK    7  A    between atoms: C17_23  and  O6_24 
ROOT
HETATM    1  C6  UNL     1     -14.127 -31.222 -13.615  1.00  0.00     0.198 C 
ENDROOT
BRANCH   1   2
HETATM    2  C5  UNL     1     -13.805 -30.380 -14.766  1.00  0.00     0.002 C 
HETATM    3  C4  UNL     1     -12.694 -30.375 -15.427  1.00  0.00     0.035 C 
BRANCH   3   4
HETATM    4  C3  UNL     1     -11.504 -31.185 -15.206  1.00  0.00     0.078 A 
HETATM    5  O2  UNL     1     -11.206 -32.014 -14.242  1.00  0.00    -0.310 OA
HETATM    6  C2  UNL     1     -10.040 -32.567 -14.375  1.00  0.00     0.110 A 
HETATM    7  C17 UNL     1      -9.463 -32.092 -15.530  1.00  0.00     0.100 A 
HETATM    8  C16 UNL     1     -10.389 -31.220 -16.054  1.00  0.00     0.076 A 
BRANCH   6   9
HETATM    9  C1  UNL     1      -9.354 -33.555 -13.491  1.00  0.00     0.232 C 
BRANCH   9  10
HETATM   10  O1  UNL     1      -8.030 -33.147 -13.376  1.00  0.00    -0.394 OA
ATOM     11  H1  UNL     1      -7.488 -33.915 -13.517  1.00  0.00     0.209 HD
ENDBRANCH   9  10
ENDBRANCH   6   9
BRANCH   7  12
HETATM   12  O6  UNL     1      -8.208 -32.417 -16.068  1.00  0.00    -0.358 OA
ATOM     13  H6  UNL     1      -7.845 -33.280 -16.233  1.00  0.00     0.217 HD
ENDBRANCH   7  12
ENDBRANCH   3   4
ENDBRANCH   1   2
BRANCH   1  14
HETATM   14  O3  UNL     1     -15.405 -30.930 -13.093  1.00  0.00    -0.355 OA
BRANCH  14  15
HETATM   15  C7  UNL     1     -15.278 -30.689 -11.755  1.00  0.00     0.294 C 
HETATM   16  O4  UNL     1     -14.016 -31.017 -11.256  1.00  0.00    -0.356 OA
HETATM   17  C8  UNL     1     -14.072 -30.988  -9.878  1.00  0.00     0.197 C 
HETATM   18  C9  UNL     1     -15.278 -30.314  -9.320  1.00  0.00     0.195 C 
HETATM   19  O5  UNL     1     -15.689 -29.202 -10.000  1.00  0.00    -0.373 OA
HETATM   20  C10 UNL     1     -15.541 -29.259 -11.363  1.00  0.00     0.110 C 
HETATM   21  C11 UNL     1     -14.345 -28.365 -11.718  1.00  0.00     0.043 C 
HETATM   22  C15 UNL     1     -16.739 -28.660 -12.019  1.00  0.00     0.043 C 
HETATM   23  C12 UNL     1     -14.562 -27.065 -10.969  1.00  0.00     0.003 C 
HETATM   24  C13 UNL     1     -15.858 -26.401 -11.379  1.00  0.00     0.000 C 
HETATM   25  C14 UNL     1     -17.029 -27.334 -11.305  1.00  0.00     0.003 C 
ENDBRANCH  14  15
ENDBRANCH   1  14
TORSDOF 7
ENDMDL
