MODEL 1
REMARK VINA RESULT: -7.237156905      0.000      0.000
REMARK  5 active torsions:
REMARK  status: ('A' for Active; 'I' for Inactive)
REMARK    1  A    between atoms: C5_5  and  S1_6 
REMARK    2  A    between atoms: S1_6  and  C6_7 
REMARK    3  A    between atoms: C6_7  and  N1_9 
REMARK    4  A    between atoms: N2_12  and  C9_13 
REMARK    5  A    between atoms: C9_13  and  C10_14 
ROOT
HETATM    1  N1  UNL     1      10.670   0.746  15.094  1.00  0.00    -0.360 N 
HETATM    2  C7  UNL     1      10.011   1.975  14.625  1.00  0.00     0.169 C 
HETATM    3  C8  UNL     1      10.887   2.719  13.668  1.00  0.00     0.083 C 
HETATM    4  N2  UNL     1      11.344   1.937  12.588  1.00  0.00    -0.366 N 
HETATM    5  C15 UNL     1      11.483   0.556  12.831  1.00  0.00     0.147 C 
HETATM    6  C16 UNL     1      11.803   0.323  14.321  1.00  0.00     0.145 C 
ENDROOT
BRANCH   4   7
HETATM    7  C9  UNL     1      11.730   2.543  11.423  1.00  0.00     0.100 C 
BRANCH   7   8
HETATM    8  C10 UNL     1      11.217   1.959  10.176  1.00  0.00    -0.009 C 
HETATM    9  C11 UNL     1      11.980   1.552   9.178  1.00  0.00     0.012 C 
HETATM   10  C12 UNL     1      11.265   0.977   7.979  1.00  0.00     0.260 C 
HETATM   11  N3  UNL     1      10.254   0.033   8.324  1.00  0.00    -0.069 N 
HETATM   12  C13 UNL     1       9.383   0.463   9.375  1.00  0.00     0.274 C 
ATOM     13  H32 UNL     1       9.715  -0.231   7.499  1.00  0.00     0.277 HD
ATOM     14  H31 UNL     1      10.671  -0.869   8.553  1.00  0.00     0.277 HD
HETATM   15  C14 UNL     1       9.733   1.791   9.950  1.00  0.00     0.229 C 
HETATM   16  F1  UNL     1       9.142   1.872  11.213  1.00  0.00    -0.242 F 
ENDBRANCH   7   8
ENDBRANCH   4   7
BRANCH   1  17
HETATM   17  C6  UNL     1      10.153   0.073  16.227  1.00  0.00     0.137 C 
HETATM   18  S2  UNL     1       8.534  -0.422  16.007  1.00  0.00    -0.053 SA
BRANCH  17  19
HETATM   19  S1  UNL     1      10.821  -0.337  17.761  1.00  0.00    -0.096 SA
BRANCH  19  20
HETATM   20  C5  UNL     1      11.835   0.779  18.658  1.00  0.00     0.055 C 
HETATM   21  C4  UNL     1      13.323   0.550  18.392  1.00  0.00     0.016 C 
HETATM   22  C3  UNL     1      13.530   1.469  17.172  1.00  0.00     0.005 C 
HETATM   23  C2  UNL     1      12.904   2.723  17.733  1.00  0.00    -0.017 C 
HETATM   24  C1  UNL     1      12.697   3.788  16.671  1.00  0.00     0.010 C 
HETATM   25  C17 UNL     1      11.591   2.235  18.262  1.00  0.00     0.019 C 
ENDBRANCH  19  20
ENDBRANCH  17  19
ENDBRANCH   1  17
TORSDOF 5
ENDMDL
MODEL 2
REMARK VINA RESULT: -7.079896646      1.538      2.189
REMARK  5 active torsions:
REMARK  status: ('A' for Active; 'I' for Inactive)
REMARK    1  A    between atoms: C5_5  and  S1_6 
REMARK    2  A    between atoms: S1_6  and  C6_7 
REMARK    3  A    between atoms: C6_7  and  N1_9 
REMARK    4  A    between atoms: N2_12  and  C9_13 
REMARK    5  A    between atoms: C9_13  and  C10_14 
ROOT
HETATM    1  N1  UNL     1       9.670   0.077  15.641  1.00  0.00    -0.360 N 
HETATM    2  C7  UNL     1      10.317  -0.629  14.524  1.00  0.00     0.169 C 
HETATM    3  C8  UNL     1       9.519  -0.483  13.266  1.00  0.00     0.083 C 
HETATM    4  N2  UNL     1       9.228   0.853  12.929  1.00  0.00    -0.366 N 
HETATM    5  C15 UNL     1       9.130   1.762  14.001  1.00  0.00     0.147 C 
HETATM    6  C16 UNL     1       8.654   1.020  15.265  1.00  0.00     0.145 C 
ENDROOT
BRANCH   4   7
HETATM    7  C9  UNL     1       8.947   1.183  11.630  1.00  0.00     0.100 C 
BRANCH   7   8
HETATM    8  C10 UNL     1      10.092   1.537  10.778  1.00  0.00    -0.009 C 
HETATM    9  C11 UNL     1      11.247   1.984  11.236  1.00  0.00     0.012 C 
HETATM   10  C12 UNL     1      12.303   2.292  10.202  1.00  0.00     0.260 C 
HETATM   11  N3  UNL     1      12.454   1.263   9.226  1.00  0.00    -0.069 N 
HETATM   12  C13 UNL     1      11.220   0.787   8.679  1.00  0.00     0.274 C 
ATOM     13  H32 UNL     1      13.081   1.568   8.480  1.00  0.00     0.277 HD
ATOM     14  H31 UNL     1      12.999   0.489   9.604  1.00  0.00     0.277 HD
HETATM   15  C14 UNL     1      10.008   1.414   9.275  1.00  0.00     0.229 C 
HETATM   16  F1  UNL     1       8.927   0.568   9.019  1.00  0.00    -0.242 F 
ENDBRANCH   7   8
ENDBRANCH   4   7
BRANCH   1  17
HETATM   17  C6  UNL     1      10.087  -0.195  16.965  1.00  0.00     0.137 C 
HETATM   18  S2  UNL     1       9.597  -1.742  17.496  1.00  0.00    -0.053 SA
BRANCH  17  19
HETATM   19  S1  UNL     1      10.973   0.710  18.132  1.00  0.00    -0.096 SA
BRANCH  19  20
HETATM   20  C5  UNL     1      12.587   1.316  17.803  1.00  0.00     0.055 C 
HETATM   21  C4  UNL     1      13.040   1.009  16.376  1.00  0.00     0.016 C 
HETATM   22  C3  UNL     1      12.510   2.258  15.644  1.00  0.00     0.005 C 
HETATM   23  C2  UNL     1      13.087   3.311  16.560  1.00  0.00    -0.017 C 
HETATM   24  C1  UNL     1      12.526   4.692  16.273  1.00  0.00     0.010 C 
HETATM   25  C17 UNL     1      12.672   2.837  17.919  1.00  0.00     0.019 C 
ENDBRANCH  19  20
ENDBRANCH  17  19
ENDBRANCH   1  17
TORSDOF 5
ENDMDL
MODEL 3
REMARK VINA RESULT: -7.063521409      1.964      2.798
REMARK  5 active torsions:
REMARK  status: ('A' for Active; 'I' for Inactive)
REMARK    1  A    between atoms: C5_5  and  S1_6 
REMARK    2  A    between atoms: S1_6  and  C6_7 
REMARK    3  A    between atoms: C6_7  and  N1_9 
REMARK    4  A    between atoms: N2_12  and  C9_13 
REMARK    5  A    between atoms: C9_13  and  C10_14 
ROOT
HETATM    1  N1  UNL     1      11.588   1.351  16.025  1.00  0.00    -0.360 N 
HETATM    2  C7  UNL     1      10.645   2.363  15.524  1.00  0.00     0.169 C 
HETATM    3  C8  UNL     1      11.168   3.010  14.279  1.00  0.00     0.083 C 
HETATM    4  N2  UNL     1      11.525   2.096  13.269  1.00  0.00    -0.366 N 
HETATM    5  C15 UNL     1      11.947   0.822  13.699  1.00  0.00     0.147 C 
HETATM    6  C16 UNL     1      12.598   0.936  15.092  1.00  0.00     0.145 C 
ENDROOT
BRANCH   4   7
HETATM    7  C9  UNL     1      11.558   2.502  11.963  1.00  0.00     0.100 C 
BRANCH   7   8
HETATM    8  C10 UNL     1      11.034   1.557  10.966  1.00  0.00    -0.009 C 
HETATM    9  C11 UNL     1       9.813   1.056  10.988  1.00  0.00     0.012 C 
HETATM   10  C12 UNL     1       9.461   0.100   9.874  1.00  0.00     0.260 C 
HETATM   11  N3  UNL     1       9.842   0.572   8.583  1.00  0.00    -0.069 N 
HETATM   12  C13 UNL     1      11.178   1.083   8.517  1.00  0.00     0.274 C 
ATOM     13  H32 UNL     1       9.703  -0.155   7.881  1.00  0.00     0.277 HD
ATOM     14  H31 UNL     1       9.177   1.268   8.246  1.00  0.00     0.277 HD
HETATM   15  C14 UNL     1      11.896   1.080   9.821  1.00  0.00     0.229 C 
HETATM   16  F1  UNL     1      12.947   1.995   9.725  1.00  0.00    -0.242 F 
ENDBRANCH   7   8
ENDBRANCH   4   7
BRANCH   1  17
HETATM   17  C6  UNL     1      11.435   0.855  17.342  1.00  0.00     0.137 C 
HETATM   18  S2  UNL     1      10.063  -0.146  17.505  1.00  0.00    -0.053 SA
BRANCH  17  19
HETATM   19  S1  UNL     1      12.343   1.061  18.791  1.00  0.00    -0.096 SA
BRANCH  19  20
HETATM   20  C5  UNL     1      12.470  -0.212  19.992  1.00  0.00     0.055 C 
HETATM   21  C4  UNL     1      13.283  -1.405  19.488  1.00  0.00     0.016 C 
HETATM   22  C3  UNL     1      14.700  -0.972  19.913  1.00  0.00     0.005 C 
HETATM   23  C2  UNL     1      14.404  -0.637  21.355  1.00  0.00    -0.017 C 
HETATM   24  C1  UNL     1      15.556   0.091  22.025  1.00  0.00     0.010 C 
HETATM   25  C17 UNL     1      13.200   0.249  21.253  1.00  0.00     0.019 C 
ENDBRANCH  19  20
ENDBRANCH  17  19
ENDBRANCH   1  17
TORSDOF 5
ENDMDL
MODEL 4
REMARK VINA RESULT: -7.013667154      1.385      1.775
REMARK  5 active torsions:
REMARK  status: ('A' for Active; 'I' for Inactive)
REMARK    1  A    between atoms: C5_5  and  S1_6 
REMARK    2  A    between atoms: S1_6  and  C6_7 
REMARK    3  A    between atoms: C6_7  and  N1_9 
REMARK    4  A    between atoms: N2_12  and  C9_13 
REMARK    5  A    between atoms: C9_13  and  C10_14 
ROOT
HETATM    1  N1  UNL     1       9.862   0.435  15.906  1.00  0.00    -0.360 N 
HETATM    2  C7  UNL     1       9.076   1.666  15.731  1.00  0.00     0.169 C 
HETATM    3  C8  UNL     1       9.318   2.268  14.382  1.00  0.00     0.083 C 
HETATM    4  N2  UNL     1       9.112   1.372  13.315  1.00  0.00    -0.366 N 
HETATM    5  C15 UNL     1       9.335   0.009  13.590  1.00  0.00     0.147 C 
HETATM    6  C16 UNL     1      10.398  -0.127  14.698  1.00  0.00     0.145 C 
ENDROOT
BRANCH   4   7
HETATM    7  C9  UNL     1       8.826   1.855  12.066  1.00  0.00     0.100 C 
BRANCH   7   8
HETATM    8  C10 UNL     1       9.695   1.401  10.970  1.00  0.00    -0.009 C 
HETATM    9  C11 UNL     1       9.266   0.755   9.902  1.00  0.00     0.012 C 
HETATM   10  C12 UNL     1      10.314   0.374   8.884  1.00  0.00     0.260 C 
HETATM   11  N3  UNL     1      11.206   1.440   8.565  1.00  0.00    -0.069 N 
HETATM   12  C13 UNL     1      11.722   2.134   9.706  1.00  0.00     0.274 C 
ATOM     13  H32 UNL     1      11.968   1.104   7.977  1.00  0.00     0.277 HD
ATOM     14  H31 UNL     1      10.764   2.094   7.920  1.00  0.00     0.277 HD
HETATM   15  C14 UNL     1      11.185   1.650  11.007  1.00  0.00     0.229 C 
HETATM   16  F1  UNL     1      11.381   2.664  11.948  1.00  0.00    -0.242 F 
ENDBRANCH   7   8
ENDBRANCH   4   7
BRANCH   1  17
HETATM   17  C6  UNL     1      10.020  -0.107  17.203  1.00  0.00     0.137 C 
HETATM   18  S2  UNL     1       8.535  -0.596  17.889  1.00  0.00    -0.053 SA
BRANCH  17  19
HETATM   19  S1  UNL     1      11.390  -0.366  18.214  1.00  0.00    -0.096 SA
BRANCH  19  20
HETATM   20  C5  UNL     1      12.548   0.909  18.549  1.00  0.00     0.055 C 
HETATM   21  C4  UNL     1      13.763   0.845  17.622  1.00  0.00     0.016 C 
HETATM   22  C3  UNL     1      13.263   1.717  16.452  1.00  0.00     0.005 C 
HETATM   23  C2  UNL     1      12.808   2.915  17.251  1.00  0.00    -0.017 C 
HETATM   24  C1  UNL     1      11.999   3.890  16.414  1.00  0.00     0.010 C 
HETATM   25  C17 UNL     1      11.962   2.302  18.324  1.00  0.00     0.019 C 
ENDBRANCH  19  20
ENDBRANCH  17  19
ENDBRANCH   1  17
TORSDOF 5
ENDMDL
MODEL 5
REMARK VINA RESULT: -7.006189525      3.706      8.636
REMARK  5 active torsions:
REMARK  status: ('A' for Active; 'I' for Inactive)
REMARK    1  A    between atoms: C5_5  and  S1_6 
REMARK    2  A    between atoms: S1_6  and  C6_7 
REMARK    3  A    between atoms: C6_7  and  N1_9 
REMARK    4  A    between atoms: N2_12  and  C9_13 
REMARK    5  A    between atoms: C9_13  and  C10_14 
ROOT
HETATM    1  N1  UNL     1      11.525   1.509  15.684  1.00  0.00    -0.360 N 
HETATM    2  C7  UNL     1      10.544   0.875  16.577  1.00  0.00     0.169 C 
HETATM    3  C8  UNL     1      11.109  -0.364  17.199  1.00  0.00     0.083 C 
HETATM    4  N2  UNL     1      12.341  -0.162  17.850  1.00  0.00    -0.366 N 
HETATM    5  C15 UNL     1      13.152   0.875  17.348  1.00  0.00     0.147 C 
HETATM    6  C16 UNL     1      12.880   1.060  15.842  1.00  0.00     0.145 C 
ENDROOT
BRANCH   4   7
HETATM    7  C9  UNL     1      12.740  -1.024  18.836  1.00  0.00     0.100 C 
BRANCH   7   8
HETATM    8  C10 UNL     1      13.195  -0.418  20.096  1.00  0.00    -0.009 C 
HETATM    9  C11 UNL     1      12.396   0.174  20.966  1.00  0.00     0.012 C 
HETATM   10  C12 UNL     1      13.052   0.734  22.204  1.00  0.00     0.260 C 
HETATM   11  N3  UNL     1      13.965  -0.172  22.819  1.00  0.00    -0.069 N 
HETATM   12  C13 UNL     1      14.873  -0.799  21.907  1.00  0.00     0.274 C 
ATOM     13  H32 UNL     1      14.476   0.291  23.571  1.00  0.00     0.277 HD
ATOM     14  H31 UNL     1      13.461  -0.875  23.360  1.00  0.00     0.277 HD
HETATM   15  C14 UNL     1      14.655  -0.431  20.481  1.00  0.00     0.229 C 
HETATM   16  F1  UNL     1      15.250  -1.420  19.695  1.00  0.00    -0.242 F 
ENDBRANCH   7   8
ENDBRANCH   4   7
BRANCH   1  17
HETATM   17  C6  UNL     1      11.091   2.498  14.769  1.00  0.00     0.137 C 
HETATM   18  S2  UNL     1      11.166   4.071  15.428  1.00  0.00    -0.053 SA
BRANCH  17  19
HETATM   19  S1  UNL     1      10.508   2.431  13.150  1.00  0.00    -0.096 SA
BRANCH  19  20
HETATM   20  C5  UNL     1      11.236   1.384  11.945  1.00  0.00     0.055 C 
HETATM   21  C4  UNL     1      10.194   0.556  11.192  1.00  0.00     0.016 C 
HETATM   22  C3  UNL     1       9.861   1.520  10.036  1.00  0.00     0.005 C 
HETATM   23  C2  UNL     1      11.271   1.813   9.581  1.00  0.00    -0.017 C 
HETATM   24  C1  UNL     1      11.328   2.965   8.593  1.00  0.00     0.010 C 
HETATM   25  C17 UNL     1      11.968   2.169  10.857  1.00  0.00     0.019 C 
ENDBRANCH  19  20
ENDBRANCH  17  19
ENDBRANCH   1  17
TORSDOF 5
ENDMDL
