MODEL 1
REMARK VINA RESULT: -8.356655180      0.000      0.000
REMARK  19 active torsions:
REMARK  status: ('A' for Active; 'I' for Inactive)
REMARK    1  A    between atoms: O1_2  and  N1_3 
REMARK    2  A    between atoms: N1_3  and  C2_5 
REMARK    3  A    between atoms: C2_5  and  O2_6 
REMARK    4  A    between atoms: O2_6  and  N2_7 
REMARK    5  A    between atoms: C3_9  and  C5_11 
REMARK    6  A    between atoms: C5_11  and  O3_12 
REMARK    7  A    between atoms: C5_11  and  C6_14 
REMARK    8  A    between atoms: C6_14  and  N3_15 
REMARK    9  A    between atoms: C6_14  and  C7_19 
REMARK   10  A    between atoms: C7_19  and  O4_20 
REMARK   11  A    between atoms: C9_25  and  N5_26 
REMARK   12  A    between atoms: C10_31  and  N7_32 
REMARK   13  A    between atoms: N7_32  and  C11_34 
REMARK   14  A    between atoms: C16_44  and  O5_45 
REMARK   15  A    between atoms: C16_44  and  O6_47 
REMARK   16  A    between atoms: C17_49  and  C18_50 
REMARK   17  A    between atoms: C18_50  and  N12_55 
REMARK   18  A    between atoms: N11_51  and  O7_53 
REMARK   19  A    between atoms: N12_55  and  N13_57 
ROOT
HETATM    1  C2  UNL     1       5.846 -10.946  28.893  1.00  0.00     0.218 C 
HETATM    2  C8  UNL     1       5.152 -10.666  27.656  1.00  0.00     0.122 A 
HETATM    3  N4  UNL     1       3.960  -9.989  27.768  1.00  0.00    -0.186 N 
ATOM      4  H4  UNL     1       3.593  -9.730  28.683  1.00  0.00     0.184 HD
HETATM    5  C9  UNL     1       3.289  -9.676  26.651  1.00  0.00     0.678 A 
HETATM    6  N6  UNL     1       3.738  -9.998  25.422  1.00  0.00    -0.176 N 
ATOM      7  H6  UNL     1       3.185  -9.731  24.609  1.00  0.00     0.186 HD
HETATM    8  C10 UNL     1       4.889 -10.657  25.237  1.00  0.00     0.134 A 
HETATM    9  C17 UNL     1       5.601 -10.990  26.414  1.00  0.00     0.087 A 
ENDROOT
BRANCH   1  10
HETATM   10  N1  UNL     1       6.980 -11.509  28.920  1.00  0.00    -0.242 N 
ATOM     11  H1  UNL     1       7.778 -10.911  28.708  1.00  0.00     0.196 HD
BRANCH  10  12
HETATM   12  O1  UNL     1       7.270 -12.806  29.195  1.00  0.00    -0.283 OA
HETATM   13  C1  UNL     1       6.330 -13.828  29.387  1.00  0.00     0.237 C 
ENDBRANCH  10  12
ENDBRANCH   1  10
BRANCH   1  14
HETATM   14  O2  UNL     1       5.309 -10.614  30.141  1.00  0.00    -0.216 OA
BRANCH  14  15
HETATM   15  N2  UNL     1       5.716  -9.517  30.849  1.00  0.00    -0.265 N 
HETATM   16  C3  UNL     1       6.297  -9.537  31.986  1.00  0.00     0.037 C 
HETATM   17  C4  UNL     1       6.572 -10.840  32.632  1.00  0.00     0.068 C 
ATOM     18  H2  UNL     1       5.540  -8.603  30.433  1.00  0.00     0.194 HD
BRANCH  16  19
HETATM   19  C5  UNL     1       6.700  -8.296  32.656  1.00  0.00     0.197 C 
BRANCH  19  20
HETATM   20  O3  UNL     1       7.495  -7.482  31.825  1.00  0.00    -0.388 OA
ATOM     21  H3  UNL     1       8.355  -7.325  32.198  1.00  0.00     0.210 HD
ENDBRANCH  19  20
BRANCH  19  22
HETATM   22  C6  UNL     1       7.472  -8.481  33.921  1.00  0.00     0.241 C 
BRANCH  22  23
HETATM   23  N3  UNL     1       7.028  -7.684  35.017  1.00  0.00    -0.070 N 
ATOM     24  H33 UNL     1       7.000  -6.700  34.748  1.00  0.00     0.274 HD
ATOM     25  H32 UNL     1       6.036  -7.848  35.194  1.00  0.00     0.274 HD
ATOM     26  H31 UNL     1       7.563  -7.800  35.877  1.00  0.00     0.274 HD
ENDBRANCH  22  23
BRANCH  22  27
HETATM   27  C7  UNL     1       8.916  -8.060  33.624  1.00  0.00     0.199 C 
BRANCH  27  28
HETATM   28  O4  UNL     1       9.582  -9.187  33.185  1.00  0.00    -0.399 OA
ATOM     29  H4  UNL     1      10.505  -9.050  33.361  1.00  0.00     0.209 HD
ENDBRANCH  27  28
ENDBRANCH  22  27
ENDBRANCH  19  22
ENDBRANCH  16  19
ENDBRANCH  14  15
ENDBRANCH   1  14
BRANCH   9  30
HETATM   30  C18 UNL     1       6.841 -11.739  26.257  1.00  0.00     0.155 C 
HETATM   31  N11 UNL     1       8.000 -11.148  26.323  1.00  0.00    -0.251 N 
ATOM     32  H11 UNL     1       8.838 -11.717  26.207  1.00  0.00     0.196 HD
BRANCH  31  33
HETATM   33  O7  UNL     1       8.154  -9.819  26.537  1.00  0.00    -0.288 OA
ATOM     34  H7  UNL     1       8.472  -9.449  27.353  1.00  0.00     0.244 HD
ENDBRANCH  31  33
BRANCH  30  35
HETATM   35  N12 UNL     1       6.850 -13.136  25.995  1.00  0.00    -0.290 N 
ATOM     36  H12 UNL     1       6.366 -13.785  26.614  1.00  0.00     0.188 HD
BRANCH  35  37
HETATM   37  N13 UNL     1       7.535 -13.597  24.874  1.00  0.00    -0.344 N 
ATOM     38 2H13 UNL     1       7.069 -14.224  24.218  1.00  0.00     0.176 HD
ATOM     39 1H13 UNL     1       8.498 -13.294  24.733  1.00  0.00     0.176 HD
ENDBRANCH  35  37
ENDBRANCH  30  35
ENDBRANCH   9  30
BRANCH   5  40
HETATM   40  N5  UNL     1       2.177  -9.049  26.768  1.00  0.00    -0.234 N 
ATOM     41  H52 UNL     1       2.167  -8.033  26.687  1.00  0.00     0.174 HD
ATOM     42  H51 UNL     1       1.332  -9.595  26.938  1.00  0.00     0.174 HD
ENDBRANCH   5  40
BRANCH   8  43
HETATM   43  N7  UNL     1       5.354 -10.997  24.103  1.00  0.00    -0.363 N 
ATOM     44  H7  UNL     1       5.789 -11.918  24.054  1.00  0.00     0.161 HD
BRANCH  43  45
HETATM   45  C11 UNL     1       5.342 -10.237  22.881  1.00  0.00     0.173 A 
HETATM   46  C12 UNL     1       5.516  -8.728  23.205  1.00  0.00     0.200 A 
HETATM   47  N8  UNL     1       4.274  -7.973  22.653  1.00  0.00    -0.232 N 
HETATM   48  N9  UNL     1       3.140  -7.476  22.110  1.00  0.00    -0.287 N 
HETATM   49  N10 UNL     1       4.023  -8.982  22.301  1.00  0.00    -0.281 N 
HETATM   50  C13 UNL     1       2.445  -8.598  21.484  1.00  0.00     0.053 A 
ATOM     51  H9  UNL     1       2.830  -6.505  22.133  1.00  0.00     0.188 HD
HETATM   52  C14 UNL     1       1.222  -8.731  20.765  1.00  0.00     0.072 C 
HETATM   53  C15 UNL     1       3.264  -9.652  21.730  1.00  0.00     0.114 A 
HETATM   54  C16 UNL     1       4.159 -10.849  21.990  1.00  0.00     0.230 A 
ATOM     55  H10 UNL     1       4.780  -9.593  22.604  1.00  0.00     0.188 HD
BRANCH  54  56
HETATM   56  O5  UNL     1       4.646 -11.226  20.770  1.00  0.00    -0.359 OA
ATOM     57  H5  UNL     1       4.398 -12.126  20.589  1.00  0.00     0.213 HD
ENDBRANCH  54  56
BRANCH  54  58
HETATM   58  O6  UNL     1       3.570 -11.887  22.615  1.00  0.00    -0.359 OA
ATOM     59  H6  UNL     1       2.653 -11.953  22.377  1.00  0.00     0.213 HD
ENDBRANCH  54  58
ENDBRANCH  43  45
ENDBRANCH   8  43
TORSDOF 19
ENDMDL
MODEL 2
REMARK VINA RESULT: -8.293272877      1.054      1.352
REMARK  19 active torsions:
REMARK  status: ('A' for Active; 'I' for Inactive)
REMARK    1  A    between atoms: O1_2  and  N1_3 
REMARK    2  A    between atoms: N1_3  and  C2_5 
REMARK    3  A    between atoms: C2_5  and  O2_6 
REMARK    4  A    between atoms: O2_6  and  N2_7 
REMARK    5  A    between atoms: C3_9  and  C5_11 
REMARK    6  A    between atoms: C5_11  and  O3_12 
REMARK    7  A    between atoms: C5_11  and  C6_14 
REMARK    8  A    between atoms: C6_14  and  N3_15 
REMARK    9  A    between atoms: C6_14  and  C7_19 
REMARK   10  A    between atoms: C7_19  and  O4_20 
REMARK   11  A    between atoms: C9_25  and  N5_26 
REMARK   12  A    between atoms: C10_31  and  N7_32 
REMARK   13  A    between atoms: N7_32  and  C11_34 
REMARK   14  A    between atoms: C16_44  and  O5_45 
REMARK   15  A    between atoms: C16_44  and  O6_47 
REMARK   16  A    between atoms: C17_49  and  C18_50 
REMARK   17  A    between atoms: C18_50  and  N12_55 
REMARK   18  A    between atoms: N11_51  and  O7_53 
REMARK   19  A    between atoms: N12_55  and  N13_57 
ROOT
HETATM    1  C2  UNL     1       6.347 -10.649  28.812  1.00  0.00     0.218 C 
HETATM    2  C8  UNL     1       5.414 -10.547  27.713  1.00  0.00     0.122 A 
HETATM    3  N4  UNL     1       4.187  -9.999  28.007  1.00  0.00    -0.186 N 
ATOM      4  H4  UNL     1       3.961  -9.710  28.958  1.00  0.00     0.184 HD
HETATM    5  C9  UNL     1       3.294  -9.853  27.019  1.00  0.00     0.678 A 
HETATM    6  N6  UNL     1       3.551 -10.220  25.749  1.00  0.00    -0.176 N 
ATOM      7  H6  UNL     1       2.832 -10.082  25.039  1.00  0.00     0.186 HD
HETATM    8  C10 UNL     1       4.723 -10.761  25.390  1.00  0.00     0.134 A 
HETATM    9  C17 UNL     1       5.669 -10.919  26.430  1.00  0.00     0.087 A 
ENDROOT
BRANCH   1  10
HETATM   10  N1  UNL     1       7.529 -11.081  28.659  1.00  0.00    -0.242 N 
ATOM     11  H1  UNL     1       7.645 -12.091  28.725  1.00  0.00     0.196 HD
BRANCH  10  12
HETATM   12  O1  UNL     1       8.660 -10.371  28.418  1.00  0.00    -0.283 OA
HETATM   13  C1  UNL     1       8.786  -8.978  28.523  1.00  0.00     0.237 C 
ENDBRANCH  10  12
ENDBRANCH   1  10
BRANCH   1  14
HETATM   14  O2  UNL     1       6.006 -10.280  30.118  1.00  0.00    -0.216 OA
BRANCH  14  15
HETATM   15  N2  UNL     1       6.806  -9.483  30.889  1.00  0.00    -0.265 N 
HETATM   16  C3  UNL     1       7.398  -9.838  31.963  1.00  0.00     0.037 C 
HETATM   17  C4  UNL     1       7.230 -11.225  32.455  1.00  0.00     0.068 C 
ATOM     18  H2  UNL     1       6.940  -8.521  30.580  1.00  0.00     0.194 HD
BRANCH  16  19
HETATM   19  C5  UNL     1       8.241  -8.901  32.712  1.00  0.00     0.197 C 
BRANCH  19  20
HETATM   20  O3  UNL     1       9.518  -9.436  32.976  1.00  0.00    -0.388 OA
ATOM     21  H3  UNL     1       9.768  -9.327  33.887  1.00  0.00     0.210 HD
ENDBRANCH  19  20
BRANCH  19  22
HETATM   22  C6  UNL     1       7.691  -8.465  34.030  1.00  0.00     0.241 C 
BRANCH  22  23
HETATM   23  N3  UNL     1       6.463  -7.743  33.958  1.00  0.00    -0.070 N 
ATOM     24  H33 UNL     1       6.503  -7.055  33.207  1.00  0.00     0.274 HD
ATOM     25  H32 UNL     1       5.719  -8.347  33.607  1.00  0.00     0.274 HD
ATOM     26  H31 UNL     1       6.175  -7.299  34.830  1.00  0.00     0.274 HD
ENDBRANCH  22  23
BRANCH  22  27
HETATM   27  C7  UNL     1       8.725  -7.520  34.651  1.00  0.00     0.199 C 
BRANCH  27  28
HETATM   28  O4  UNL     1       9.287  -8.186  35.723  1.00  0.00    -0.399 OA
ATOM     29  H4  UNL     1      10.194  -7.907  35.778  1.00  0.00     0.209 HD
ENDBRANCH  27  28
ENDBRANCH  22  27
ENDBRANCH  19  22
ENDBRANCH  16  19
ENDBRANCH  14  15
ENDBRANCH   1  14
BRANCH   9  30
HETATM   30  C18 UNL     1       6.944 -11.537  26.087  1.00  0.00     0.155 C 
HETATM   31  N11 UNL     1       7.943 -10.825  25.649  1.00  0.00    -0.251 N 
ATOM     32  H11 UNL     1       8.813 -11.305  25.424  1.00  0.00     0.196 HD
BRANCH  31  33
HETATM   33  O7  UNL     1       7.889  -9.482  25.475  1.00  0.00    -0.288 OA
ATOM     34  H7  UNL     1       8.200  -9.039  24.694  1.00  0.00     0.244 HD
ENDBRANCH  31  33
BRANCH  30  35
HETATM   35  N12 UNL     1       7.151 -12.939  26.183  1.00  0.00    -0.290 N 
ATOM     36  H12 UNL     1       7.037 -13.423  27.072  1.00  0.00     0.188 HD
BRANCH  35  37
HETATM   37  N13 UNL     1       7.514 -13.637  25.034  1.00  0.00    -0.344 N 
ATOM     38 2H13 UNL     1       7.100 -13.386  24.137  1.00  0.00     0.176 HD
ATOM     39 1H13 UNL     1       8.193 -14.393  25.118  1.00  0.00     0.176 HD
ENDBRANCH  35  37
ENDBRANCH  30  35
ENDBRANCH   9  30
BRANCH   5  40
HETATM   40  N5  UNL     1       2.152  -9.345  27.306  1.00  0.00    -0.234 N 
ATOM     41  H52 UNL     1       1.970  -8.368  27.079  1.00  0.00     0.174 HD
ATOM     42  H51 UNL     1       1.457  -9.943  27.754  1.00  0.00     0.174 HD
ENDBRANCH   5  40
BRANCH   8  43
HETATM   43  N7  UNL     1       5.015 -11.137  24.211  1.00  0.00    -0.363 N 
ATOM     44  H7  UNL     1       5.193 -12.133  24.089  1.00  0.00     0.161 HD
BRANCH  43  45
HETATM   45  C11 UNL     1       5.125 -10.325  23.028  1.00  0.00     0.173 A 
HETATM   46  C12 UNL     1       5.264  -8.832  23.433  1.00  0.00     0.200 A 
HETATM   47  N8  UNL     1       4.083  -8.050  22.792  1.00  0.00    -0.232 N 
HETATM   48  N9  UNL     1       3.009  -7.526  22.159  1.00  0.00    -0.287 N 
HETATM   49  N10 UNL     1       3.869  -9.041  22.372  1.00  0.00    -0.281 N 
HETATM   50  C13 UNL     1       2.382  -8.618  21.419  1.00  0.00     0.053 A 
ATOM     51  H9  UNL     1       2.696  -6.556  22.193  1.00  0.00     0.188 HD
HETATM   52  C14 UNL     1       1.238  -8.716  20.574  1.00  0.00     0.072 C 
HETATM   53  C15 UNL     1       3.173  -9.684  21.700  1.00  0.00     0.114 A 
HETATM   54  C16 UNL     1       4.038 -10.894  21.997  1.00  0.00     0.230 A 
ATOM     55  H10 UNL     1       4.593  -9.667  22.724  1.00  0.00     0.188 HD
BRANCH  54  56
HETATM   56  O5  UNL     1       4.647 -11.219  20.816  1.00  0.00    -0.359 OA
ATOM     57  H5  UNL     1       5.113 -10.464  20.477  1.00  0.00     0.213 HD
ENDBRANCH  54  56
BRANCH  54  58
HETATM   58  O6  UNL     1       3.391 -11.956  22.513  1.00  0.00    -0.359 OA
ATOM     59  H6  UNL     1       2.453 -11.878  22.387  1.00  0.00     0.213 HD
ENDBRANCH  54  58
ENDBRANCH  43  45
ENDBRANCH   8  43
TORSDOF 19
ENDMDL
MODEL 3
REMARK VINA RESULT: -8.184817257      2.152      9.525
REMARK  19 active torsions:
REMARK  status: ('A' for Active; 'I' for Inactive)
REMARK    1  A    between atoms: O1_2  and  N1_3 
REMARK    2  A    between atoms: N1_3  and  C2_5 
REMARK    3  A    between atoms: C2_5  and  O2_6 
REMARK    4  A    between atoms: O2_6  and  N2_7 
REMARK    5  A    between atoms: C3_9  and  C5_11 
REMARK    6  A    between atoms: C5_11  and  O3_12 
REMARK    7  A    between atoms: C5_11  and  C6_14 
REMARK    8  A    between atoms: C6_14  and  N3_15 
REMARK    9  A    between atoms: C6_14  and  C7_19 
REMARK   10  A    between atoms: C7_19  and  O4_20 
REMARK   11  A    between atoms: C9_25  and  N5_26 
REMARK   12  A    between atoms: C10_31  and  N7_32 
REMARK   13  A    between atoms: N7_32  and  C11_34 
REMARK   14  A    between atoms: C16_44  and  O5_45 
REMARK   15  A    between atoms: C16_44  and  O6_47 
REMARK   16  A    between atoms: C17_49  and  C18_50 
REMARK   17  A    between atoms: C18_50  and  N12_55 
REMARK   18  A    between atoms: N11_51  and  O7_53 
REMARK   19  A    between atoms: N12_55  and  N13_57 
ROOT
HETATM    1  C2  UNL     1       6.202 -10.963  26.431  1.00  0.00     0.218 C 
HETATM    2  C8  UNL     1       7.079 -10.498  27.483  1.00  0.00     0.122 A 
HETATM    3  N4  UNL     1       8.363 -10.179  27.107  1.00  0.00    -0.186 N 
ATOM      4  H4  UNL     1       8.666 -10.295  26.140  1.00  0.00     0.184 HD
HETATM    5  C9  UNL     1       9.209  -9.715  28.035  1.00  0.00     0.678 A 
HETATM    6  N6  UNL     1       8.850  -9.545  29.323  1.00  0.00    -0.176 N 
ATOM      7  H6  UNL     1       9.538  -9.185  29.984  1.00  0.00     0.186 HD
HETATM    8  C10 UNL     1       7.618  -9.835  29.761  1.00  0.00     0.134 A 
HETATM    9  C17 UNL     1       6.721 -10.327  28.784  1.00  0.00     0.087 A 
ENDROOT
BRANCH   1  10
HETATM   10  N1  UNL     1       4.981 -11.231  26.637  1.00  0.00    -0.242 N 
ATOM     11  H1  UNL     1       4.785 -11.809  27.453  1.00  0.00     0.196 HD
BRANCH  10  12
HETATM   12  O1  UNL     1       3.901 -10.848  25.911  1.00  0.00    -0.283 OA
HETATM   13  C1  UNL     1       3.395  -9.543  25.829  1.00  0.00     0.237 C 
ENDBRANCH  10  12
ENDBRANCH   1  10
BRANCH   1  14
HETATM   14  O2  UNL     1       6.646 -11.149  25.118  1.00  0.00    -0.216 OA
BRANCH  14  15
HETATM   15  N2  UNL     1       6.246 -10.346  24.085  1.00  0.00    -0.265 N 
HETATM   16  C3  UNL     1       5.551 -10.715  23.080  1.00  0.00     0.037 C 
HETATM   17  C4  UNL     1       5.121 -12.129  22.981  1.00  0.00     0.068 C 
ATOM     18  H2  UNL     1       6.527  -9.366  24.122  1.00  0.00     0.194 HD
BRANCH  16  19
HETATM   19  C5  UNL     1       5.170  -9.766  22.029  1.00  0.00     0.197 C 
BRANCH  19  20
HETATM   20  O3  UNL     1       5.627  -8.461  22.305  1.00  0.00    -0.388 OA
ATOM     21  H3  UNL     1       5.201  -7.812  21.758  1.00  0.00     0.210 HD
ENDBRANCH  19  20
BRANCH  19  22
HETATM   22  C6  UNL     1       3.701  -9.650  21.782  1.00  0.00     0.241 C 
BRANCH  22  23
HETATM   23  N3  UNL     1       3.246 -10.258  20.576  1.00  0.00    -0.070 N 
ATOM     24  H33 UNL     1       3.395 -11.266  20.612  1.00  0.00     0.274 HD
ATOM     25  H32 UNL     1       2.227 -10.231  20.529  1.00  0.00     0.274 HD
ATOM     26  H31 UNL     1       3.648  -9.871  19.723  1.00  0.00     0.274 HD
ENDBRANCH  22  23
BRANCH  22  27
HETATM   27  C7  UNL     1       3.389  -8.153  21.670  1.00  0.00     0.199 C 
BRANCH  27  28
HETATM   28  O4  UNL     1       2.781  -7.778  22.852  1.00  0.00    -0.399 OA
ATOM     29  H4  UNL     1       1.953  -8.241  22.897  1.00  0.00     0.209 HD
ENDBRANCH  27  28
ENDBRANCH  22  27
ENDBRANCH  19  22
ENDBRANCH  16  19
ENDBRANCH  14  15
ENDBRANCH   1  14
BRANCH   9  30
HETATM   30  C18 UNL     1       5.381 -10.689  29.228  1.00  0.00     0.155 C 
HETATM   31  N11 UNL     1       4.398  -9.836  29.170  1.00  0.00    -0.251 N 
ATOM     32  H11 UNL     1       3.479 -10.138  29.492  1.00  0.00     0.196 HD
BRANCH  31  33
HETATM   33  O7  UNL     1       4.529  -8.569  28.706  1.00  0.00    -0.288 OA
ATOM     34  H7  UNL     1       4.681  -7.816  29.264  1.00  0.00     0.244 HD
ENDBRANCH  31  33
BRANCH  30  35
HETATM   35  N12 UNL     1       5.085 -11.968  29.770  1.00  0.00    -0.290 N 
ATOM     36  H12 UNL     1       4.195 -12.145  30.235  1.00  0.00     0.188 HD
BRANCH  35  37
HETATM   37  N13 UNL     1       6.039 -12.976  29.653  1.00  0.00    -0.344 N 
ATOM     38 2H13 UNL     1       6.344 -13.279  28.728  1.00  0.00     0.176 HD
ATOM     39 1H13 UNL     1       6.414 -13.392  30.504  1.00  0.00     0.176 HD
ENDBRANCH  35  37
ENDBRANCH  30  35
ENDBRANCH   9  30
BRANCH   5  40
HETATM   40  N5  UNL     1      10.405  -9.425  27.674  1.00  0.00    -0.234 N 
ATOM     41  H52 UNL     1      10.995 -10.154  27.274  1.00  0.00     0.174 HD
ATOM     42  H51 UNL     1      10.727  -8.466  27.800  1.00  0.00     0.174 HD
ENDBRANCH   5  40
BRANCH   8  43
HETATM   43  N7  UNL     1       7.229  -9.707  30.965  1.00  0.00    -0.363 N 
ATOM     44  H7  UNL     1       6.361  -9.191  31.103  1.00  0.00     0.161 HD
BRANCH  43  45
HETATM   45  C11 UNL     1       7.868 -10.201  32.156  1.00  0.00     0.173 A 
HETATM   46  C12 UNL     1       7.040 -11.378  32.739  1.00  0.00     0.200 A 
HETATM   47  N8  UNL     1       6.616 -10.996  34.186  1.00  0.00    -0.232 N 
HETATM   48  N9  UNL     1       6.343 -10.513  35.418  1.00  0.00    -0.287 N 
HETATM   49  N10 UNL     1       7.219 -10.110  33.952  1.00  0.00    -0.281 N 
HETATM   50  C13 UNL     1       7.019  -9.223  35.525  1.00  0.00     0.053 A 
ATOM     51  H9  UNL     1       5.774 -10.962  36.135  1.00  0.00     0.188 HD
HETATM   52  C14 UNL     1       7.118  -8.235  36.548  1.00  0.00     0.072 C 
HETATM   53  C15 UNL     1       7.630  -9.088  34.321  1.00  0.00     0.114 A 
HETATM   54  C16 UNL     1       8.324  -8.907  32.984  1.00  0.00     0.230 A 
ATOM     55  H10 UNL     1       7.568 -10.238  33.002  1.00  0.00     0.188 HD
BRANCH  54  56
HETATM   56  O5  UNL     1       9.665  -8.975  33.245  1.00  0.00    -0.359 OA
ATOM     57  H5  UNL     1       9.900  -8.317  33.889  1.00  0.00     0.213 HD
ENDBRANCH  54  56
BRANCH  54  58
HETATM   58  O6  UNL     1       8.019  -7.776  32.321  1.00  0.00    -0.359 OA
ATOM     59  H6  UNL     1       7.261  -7.351  32.704  1.00  0.00     0.213 HD
ENDBRANCH  54  58
ENDBRANCH  43  45
ENDBRANCH   8  43
TORSDOF 19
ENDMDL
MODEL 4
REMARK VINA RESULT: -7.907242061      2.887      5.096
REMARK  19 active torsions:
REMARK  status: ('A' for Active; 'I' for Inactive)
REMARK    1  A    between atoms: O1_2  and  N1_3 
REMARK    2  A    between atoms: N1_3  and  C2_5 
REMARK    3  A    between atoms: C2_5  and  O2_6 
REMARK    4  A    between atoms: O2_6  and  N2_7 
REMARK    5  A    between atoms: C3_9  and  C5_11 
REMARK    6  A    between atoms: C5_11  and  O3_12 
REMARK    7  A    between atoms: C5_11  and  C6_14 
REMARK    8  A    between atoms: C6_14  and  N3_15 
REMARK    9  A    between atoms: C6_14  and  C7_19 
REMARK   10  A    between atoms: C7_19  and  O4_20 
REMARK   11  A    between atoms: C9_25  and  N5_26 
REMARK   12  A    between atoms: C10_31  and  N7_32 
REMARK   13  A    between atoms: N7_32  and  C11_34 
REMARK   14  A    between atoms: C16_44  and  O5_45 
REMARK   15  A    between atoms: C16_44  and  O6_47 
REMARK   16  A    between atoms: C17_49  and  C18_50 
REMARK   17  A    between atoms: C18_50  and  N12_55 
REMARK   18  A    between atoms: N11_51  and  O7_53 
REMARK   19  A    between atoms: N12_55  and  N13_57 
ROOT
HETATM    1  C2  UNL     1       7.450  -8.539  32.714  1.00  0.00     0.218 C 
HETATM    2  C8  UNL     1       6.469  -8.204  31.706  1.00  0.00     0.122 A 
HETATM    3  N4  UNL     1       5.576  -7.210  32.032  1.00  0.00    -0.186 N 
ATOM      4  H4  UNL     1       5.608  -6.763  32.948  1.00  0.00     0.184 HD
HETATM    5  C9  UNL     1       4.665  -6.839  31.124  1.00  0.00     0.678 A 
HETATM    6  N6  UNL     1       4.589  -7.401  29.902  1.00  0.00    -0.176 N 
ATOM      7  H6  UNL     1       3.874  -7.075  29.251  1.00  0.00     0.186 HD
HETATM    8  C10 UNL     1       5.423  -8.375  29.515  1.00  0.00     0.134 A 
HETATM    9  C17 UNL     1       6.387  -8.771  30.472  1.00  0.00     0.087 A 
ENDROOT
BRANCH   1  10
HETATM   10  N1  UNL     1       8.362  -9.394  32.513  1.00  0.00    -0.242 N 
ATOM     11  H1  UNL     1       8.896  -9.280  31.653  1.00  0.00     0.196 HD
BRANCH  10  12
HETATM   12  O1  UNL     1       8.719 -10.444  33.296  1.00  0.00    -0.283 OA
HETATM   13  C1  UNL     1       7.836 -11.258  34.020  1.00  0.00     0.237 C 
ENDBRANCH  10  12
ENDBRANCH   1  10
BRANCH   1  14
HETATM   14  O2  UNL     1       7.454  -7.939  33.978  1.00  0.00    -0.216 OA
BRANCH  14  15
HETATM   15  N2  UNL     1       8.606  -7.700  34.675  1.00  0.00    -0.265 N 
HETATM   16  C3  UNL     1       8.677  -7.336  35.896  1.00  0.00     0.037 C 
HETATM   17  C4  UNL     1       7.426  -7.141  36.664  1.00  0.00     0.068 C 
ATOM     18  H2  UNL     1       9.486  -7.823  34.174  1.00  0.00     0.194 HD
BRANCH  16  19
HETATM   19  C5  UNL     1       9.970  -7.114  36.550  1.00  0.00     0.197 C 
BRANCH  19  20
HETATM   20  O3  UNL     1       9.929  -7.429  37.923  1.00  0.00    -0.388 OA
ATOM     21  H3  UNL     1       9.960  -8.367  38.073  1.00  0.00     0.210 HD
ENDBRANCH  19  20
BRANCH  19  22
HETATM   22  C6  UNL     1      10.496  -5.718  36.458  1.00  0.00     0.241 C 
BRANCH  22  23
HETATM   23  N3  UNL     1      10.646  -5.220  35.131  1.00  0.00    -0.070 N 
ATOM     24  H33 UNL     1      11.297  -5.804  34.607  1.00  0.00     0.274 HD
ATOM     25  H32 UNL     1       9.793  -5.379  34.595  1.00  0.00     0.274 HD
ATOM     26  H31 UNL     1      10.923  -4.240  35.070  1.00  0.00     0.274 HD
ENDBRANCH  22  23
BRANCH  22  27
HETATM   27  C7  UNL     1      11.893  -5.730  37.088  1.00  0.00     0.199 C 
BRANCH  27  28
HETATM   28  O4  UNL     1      12.390  -4.445  36.990  1.00  0.00    -0.399 OA
ATOM     29  H4  UNL     1      13.199  -4.498  36.495  1.00  0.00     0.209 HD
ENDBRANCH  27  28
ENDBRANCH  22  27
ENDBRANCH  19  22
ENDBRANCH  16  19
ENDBRANCH  14  15
ENDBRANCH   1  14
BRANCH   9  30
HETATM   30  C18 UNL     1       7.291  -9.853  30.103  1.00  0.00     0.155 C 
HETATM   31  N11 UNL     1       8.322  -9.639  29.336  1.00  0.00    -0.251 N 
ATOM     32  H11 UNL     1       8.924 -10.430  29.107  1.00  0.00     0.196 HD
BRANCH  31  33
HETATM   33  O7  UNL     1       8.639  -8.425  28.823  1.00  0.00    -0.288 OA
ATOM     34  H7  UNL     1       8.019  -7.709  28.743  1.00  0.00     0.244 HD
ENDBRANCH  31  33
BRANCH  30  35
HETATM   35  N12 UNL     1       7.080 -11.191  30.532  1.00  0.00    -0.290 N 
ATOM     36  H12 UNL     1       7.832 -11.878  30.487  1.00  0.00     0.188 HD
BRANCH  35  37
HETATM   37  N13 UNL     1       5.823 -11.543  31.015  1.00  0.00    -0.344 N 
ATOM     38 2H13 UNL     1       5.051 -10.881  30.948  1.00  0.00     0.176 HD
ATOM     39 1H13 UNL     1       5.703 -12.466  31.431  1.00  0.00     0.176 HD
ENDBRANCH  35  37
ENDBRANCH  30  35
ENDBRANCH   9  30
BRANCH   5  40
HETATM   40  N5  UNL     1       3.835  -5.914  31.440  1.00  0.00    -0.234 N 
ATOM     41  H52 UNL     1       4.140  -5.160  32.056  1.00  0.00     0.174 HD
ATOM     42  H51 UNL     1       2.890  -5.963  31.060  1.00  0.00     0.174 HD
ENDBRANCH   5  40
BRANCH   8  43
HETATM   43  N7  UNL     1       5.389  -8.949  28.381  1.00  0.00    -0.363 N 
ATOM     44  H7  UNL     1       6.103  -8.662  27.712  1.00  0.00     0.161 HD
BRANCH  43  45
HETATM   45  C11 UNL     1       4.466  -9.955  27.928  1.00  0.00     0.173 A 
HETATM   46  C12 UNL     1       5.253 -11.204  27.444  1.00  0.00     0.200 A 
HETATM   47  N8  UNL     1       4.887 -11.452  25.953  1.00  0.00    -0.232 N 
HETATM   48  N9  UNL     1       4.457 -11.529  24.674  1.00  0.00    -0.287 N 
HETATM   49  N10 UNL     1       4.224 -10.599  26.144  1.00  0.00    -0.281 N 
HETATM   50  C13 UNL     1       3.472 -10.466  24.495  1.00  0.00     0.053 A 
ATOM     51  H9  UNL     1       4.761 -12.201  23.969  1.00  0.00     0.188 HD
HETATM   52  C14 UNL     1       2.672 -10.027  23.400  1.00  0.00     0.072 C 
HETATM   53  C15 UNL     1       3.428  -9.871  25.714  1.00  0.00     0.114 A 
HETATM   54  C16 UNL     1       3.358  -9.183  27.065  1.00  0.00     0.230 A 
ATOM     55  H10 UNL     1       4.369 -10.331  27.117  1.00  0.00     0.188 HD
BRANCH  54  56
HETATM   56  O5  UNL     1       2.113  -9.456  27.561  1.00  0.00    -0.359 OA
ATOM     57  H5  UNL     1       1.506  -9.596  26.844  1.00  0.00     0.213 HD
ENDBRANCH  54  56
BRANCH  54  58
HETATM   58  O6  UNL     1       3.592  -7.857  27.053  1.00  0.00    -0.359 OA
ATOM     59  H6  UNL     1       4.202  -7.613  27.739  1.00  0.00     0.213 HD
ENDBRANCH  54  58
ENDBRANCH  43  45
ENDBRANCH   8  43
TORSDOF 19
ENDMDL
MODEL 5
REMARK VINA RESULT: -7.873636253      2.324      9.859
REMARK  19 active torsions:
REMARK  status: ('A' for Active; 'I' for Inactive)
REMARK    1  A    between atoms: O1_2  and  N1_3 
REMARK    2  A    between atoms: N1_3  and  C2_5 
REMARK    3  A    between atoms: C2_5  and  O2_6 
REMARK    4  A    between atoms: O2_6  and  N2_7 
REMARK    5  A    between atoms: C3_9  and  C5_11 
REMARK    6  A    between atoms: C5_11  and  O3_12 
REMARK    7  A    between atoms: C5_11  and  C6_14 
REMARK    8  A    between atoms: C6_14  and  N3_15 
REMARK    9  A    between atoms: C6_14  and  C7_19 
REMARK   10  A    between atoms: C7_19  and  O4_20 
REMARK   11  A    between atoms: C9_25  and  N5_26 
REMARK   12  A    between atoms: C10_31  and  N7_32 
REMARK   13  A    between atoms: N7_32  and  C11_34 
REMARK   14  A    between atoms: C16_44  and  O5_45 
REMARK   15  A    between atoms: C16_44  and  O6_47 
REMARK   16  A    between atoms: C17_49  and  C18_50 
REMARK   17  A    between atoms: C18_50  and  N12_55 
REMARK   18  A    between atoms: N11_51  and  O7_53 
REMARK   19  A    between atoms: N12_55  and  N13_57 
ROOT
HETATM    1  C2  UNL     1       4.934  -9.369  28.638  1.00  0.00     0.218 C 
HETATM    2  C8  UNL     1       5.154  -8.522  29.789  1.00  0.00     0.122 A 
HETATM    3  N4  UNL     1       4.351  -7.410  29.888  1.00  0.00    -0.186 N 
ATOM      4  H4  UNL     1       3.662  -7.200  29.167  1.00  0.00     0.184 HD
HETATM    5  C9  UNL     1       4.492  -6.607  30.951  1.00  0.00     0.678 A 
HETATM    6  N6  UNL     1       5.389  -6.847  31.927  1.00  0.00    -0.176 N 
ATOM      7  H6  UNL     1       5.449  -6.201  32.713  1.00  0.00     0.186 HD
HETATM    8  C10 UNL     1       6.204  -7.910  31.896  1.00  0.00     0.134 A 
HETATM    9  C17 UNL     1       6.059  -8.760  30.776  1.00  0.00     0.087 A 
ENDROOT
BRANCH   1  10
HETATM   10  N1  UNL     1       5.566 -10.452  28.463  1.00  0.00    -0.242 N 
ATOM     11  H1  UNL     1       5.280 -11.234  29.051  1.00  0.00     0.196 HD
BRANCH  10  12
HETATM   12  O1  UNL     1       6.577 -10.707  27.594  1.00  0.00    -0.283 OA
HETATM   13  C1  UNL     1       6.832 -11.941  26.980  1.00  0.00     0.237 C 
ENDBRANCH  10  12
ENDBRANCH   1  10
BRANCH   1  14
HETATM   14  O2  UNL     1       4.008  -9.045  27.640  1.00  0.00    -0.216 OA
BRANCH  14  15
HETATM   15  N2  UNL     1       3.984  -9.675  26.427  1.00  0.00    -0.265 N 
HETATM   16  C3  UNL     1       3.591  -9.159  25.327  1.00  0.00     0.037 C 
HETATM   17  C4  UNL     1       3.109  -7.759  25.319  1.00  0.00     0.068 C 
ATOM     18  H2  UNL     1       4.307 -10.641  26.398  1.00  0.00     0.194 HD
BRANCH  16  19
HETATM   19  C5  UNL     1       3.615  -9.925  24.077  1.00  0.00     0.197 C 
BRANCH  19  20
HETATM   20  O3  UNL     1       2.508 -10.791  23.968  1.00  0.00    -0.388 OA
ATOM     21  H3  UNL     1       2.465 -11.207  23.114  1.00  0.00     0.210 HD
ENDBRANCH  19  20
BRANCH  19  22
HETATM   22  C6  UNL     1       4.829 -10.771  23.873  1.00  0.00     0.241 C 
BRANCH  22  23
HETATM   23  N3  UNL     1       6.040 -10.045  23.677  1.00  0.00    -0.070 N 
ATOM     24  H33 UNL     1       5.863  -9.042  23.738  1.00  0.00     0.274 HD
ATOM     25  H32 UNL     1       6.658 -10.165  24.480  1.00  0.00     0.274 HD
ATOM     26  H31 UNL     1       6.537 -10.265  22.814  1.00  0.00     0.274 HD
ENDBRANCH  22  23
BRANCH  22  27
HETATM   27  C7  UNL     1       4.590 -11.588  22.599  1.00  0.00     0.199 C 
BRANCH  27  28
HETATM   28  O4  UNL     1       4.205 -12.853  22.997  1.00  0.00    -0.399 OA
ATOM     29  H4  UNL     1       3.289 -12.950  22.766  1.00  0.00     0.209 HD
ENDBRANCH  27  28
ENDBRANCH  22  27
ENDBRANCH  19  22
ENDBRANCH  16  19
ENDBRANCH  14  15
ENDBRANCH   1  14
BRANCH   9  30
HETATM   30  C18 UNL     1       6.953  -9.909  30.687  1.00  0.00     0.155 C 
HETATM   31  N11 UNL     1       8.059  -9.851  30.001  1.00  0.00    -0.251 N 
ATOM     32  H11 UNL     1       8.650 -10.682  29.971  1.00  0.00     0.196 HD
BRANCH  31  33
HETATM   33  O7  UNL     1       8.468  -8.751  29.325  1.00  0.00    -0.288 OA
ATOM     34  H7  UNL     1       8.393  -7.866  29.663  1.00  0.00     0.244 HD
ENDBRANCH  31  33
BRANCH  30  35
HETATM   35  N12 UNL     1       6.652 -11.148  31.313  1.00  0.00    -0.290 N 
ATOM     36  H12 UNL     1       5.864 -11.713  30.999  1.00  0.00     0.188 HD
BRANCH  35  37
HETATM   37  N13 UNL     1       7.458 -11.573  32.366  1.00  0.00    -0.344 N 
ATOM     38 2H13 UNL     1       7.280 -12.475  32.808  1.00  0.00     0.176 HD
ATOM     39 1H13 UNL     1       8.217 -10.967  32.674  1.00  0.00     0.176 HD
ENDBRANCH  35  37
ENDBRANCH  30  35
ENDBRANCH   9  30
BRANCH   5  40
HETATM   40  N5  UNL     1       3.741  -5.570  31.031  1.00  0.00    -0.234 N 
ATOM     41  H52 UNL     1       3.145  -5.449  31.849  1.00  0.00     0.174 HD
ATOM     42  H51 UNL     1       3.769  -4.896  30.266  1.00  0.00     0.174 HD
ENDBRANCH   5  40
BRANCH   8  43
HETATM   43  N7  UNL     1       7.076  -8.179  32.783  1.00  0.00    -0.363 N 
ATOM     44  H7  UNL     1       8.050  -8.060  32.504  1.00  0.00     0.161 HD
BRANCH  43  45
HETATM   45  C11 UNL     1       6.854  -8.630  34.131  1.00  0.00     0.173 A 
HETATM   46  C12 UNL     1       5.932  -7.622  34.871  1.00  0.00     0.200 A 
HETATM   47  N8  UNL     1       6.703  -7.091  36.113  1.00  0.00    -0.232 N 
HETATM   48  N9  UNL     1       7.504  -6.742  37.144  1.00  0.00    -0.287 N 
HETATM   49  N10 UNL     1       7.451  -7.807  35.750  1.00  0.00    -0.281 N 
HETATM   50  C13 UNL     1       8.722  -7.538  37.020  1.00  0.00     0.053 A 
ATOM     51  H9  UNL     1       7.298  -6.055  37.869  1.00  0.00     0.188 HD
HETATM   52  C14 UNL     1       9.927  -7.634  37.776  1.00  0.00     0.072 C 
HETATM   53  C15 UNL     1       8.498  -8.285  35.909  1.00  0.00     0.114 A 
HETATM   54  C16 UNL     1       8.276  -9.132  34.671  1.00  0.00     0.230 A 
ATOM     55  H10 UNL     1       7.058  -8.239  34.914  1.00  0.00     0.188 HD
BRANCH  54  56
HETATM   56  O5  UNL     1       8.174 -10.423  35.112  1.00  0.00    -0.359 OA
ATOM     57  H5  UNL     1       9.024 -10.844  35.071  1.00  0.00     0.213 HD
ENDBRANCH  54  56
BRANCH  54  58
HETATM   58  O6  UNL     1       9.221  -9.023  33.717  1.00  0.00    -0.359 OA
ATOM     59  H6  UNL     1       9.993  -9.529  33.943  1.00  0.00     0.213 HD
ENDBRANCH  54  58
ENDBRANCH  43  45
ENDBRANCH   8  43
TORSDOF 19
ENDMDL
