MODEL 1
REMARK VINA RESULT: -5.474031252      0.000      0.000
REMARK  6 active torsions:
REMARK  status: ('A' for Active; 'I' for Inactive)
REMARK    1  A    between atoms: O1_1  and  C1_3 
REMARK    2  A    between atoms: C4_6  and  C5_7 
REMARK    3  A    between atoms: C7_10  and  C8_11 
REMARK    4  A    between atoms: N2_16  and  C11_17 
REMARK    5  A    between atoms: C11_17  and  C12_18 
REMARK    6  A    between atoms: N6_25  and  C13_26 
ROOT
HETATM    1  C1  UNL     1     -27.865  80.942   9.656  1.00  0.00     0.146 C 
HETATM    2  C2  UNL     1     -27.890  79.702  10.509  1.00  0.00     0.036 C 
HETATM    3  C3  UNL     1     -28.909  78.773   9.941  1.00  0.00     0.045 C 
HETATM    4  C4  UNL     1     -30.251  79.491   9.976  1.00  0.00     0.273 C 
HETATM    5  N2  UNL     1     -30.211  80.527   8.996  1.00  0.00     0.108 N 
HETATM    6  C18 UNL     1     -29.217  81.482   9.337  1.00  0.00     0.305 C 
ENDROOT
BRANCH   5   7
HETATM    7  C11 UNL     1     -31.469  81.238   8.865  1.00  0.00     0.352 C 
BRANCH   7   8
HETATM    8  C12 UNL     1     -32.001  81.271   7.515  1.00  0.00     0.144 A 
HETATM    9  N3  UNL     1     -31.360  81.708   6.416  1.00  0.00    -0.271 N 
HETATM   10  N4  UNL     1     -32.138  81.591   5.352  1.00  0.00    -0.227 N 
ATOM     11  H3  UNL     1     -30.409  82.078   6.405  1.00  0.00     0.190 HD
HETATM   12  N5  UNL     1     -33.268  81.081   5.781  1.00  0.00    -0.224 N 
ATOM     13  H4  UNL     1     -31.905  81.846   4.392  1.00  0.00     0.210 HD
HETATM   14  N6  UNL     1     -33.207  80.877   7.106  1.00  0.00    -0.257 N 
ATOM     15  H5  UNL     1     -34.074  80.871   5.192  1.00  0.00     0.210 HD
BRANCH  14  16
HETATM   16  C13 UNL     1     -34.278  80.326   7.869  1.00  0.00     0.111 C 
HETATM   17  C14 UNL     1     -35.047  79.257   7.135  1.00  0.00     0.027 C 
HETATM   18  C15 UNL     1     -36.512  79.632   7.182  1.00  0.00     0.002 C 
HETATM   19  C16 UNL     1     -36.419  81.155   7.125  1.00  0.00     0.002 C 
HETATM   20  C17 UNL     1     -35.343  81.386   8.194  1.00  0.00     0.027 C 
ENDBRANCH  14  16
ENDBRANCH   7   8
ENDBRANCH   5   7
BRANCH   4  21
HETATM   21  C5  UNL     1     -31.365  78.505   9.715  1.00  0.00     0.050 A 
HETATM   22  C6  UNL     1     -32.343  78.256  10.642  1.00  0.00     0.078 A 
HETATM   23  S1  UNL     1     -33.305  77.092   9.828  1.00  0.00    -0.086 SA
HETATM   24  C7  UNL     1     -32.410  77.003   8.382  1.00  0.00     0.055 A 
HETATM   25  N1  UNL     1     -31.443  77.846   8.584  1.00  0.00    -0.355 N 
ATOM     26  H1  UNL     1     -30.740  77.996   7.861  1.00  0.00     0.166 HD
BRANCH  24  27
HETATM   27  C8  UNL     1     -32.632  76.183   7.151  1.00  0.00     0.043 A 
HETATM   28  C9  UNL     1     -31.373  75.853   6.323  1.00  0.00     0.012 A 
HETATM   29  C10 UNL     1     -32.088  74.803   7.089  1.00  0.00     0.012 A 
ENDBRANCH  24  27
ENDBRANCH   4  21
BRANCH   1  30
HETATM   30  O1  UNL     1     -27.163  81.918  10.364  1.00  0.00    -0.394 OA
ATOM     31  H1  UNL     1     -26.748  81.487  11.103  1.00  0.00     0.210 HD
ENDBRANCH   1  30
TORSDOF 6
ENDMDL
MODEL 2
REMARK VINA RESULT: -5.471566263      2.753      5.781
REMARK  6 active torsions:
REMARK  status: ('A' for Active; 'I' for Inactive)
REMARK    1  A    between atoms: O1_1  and  C1_3 
REMARK    2  A    between atoms: C4_6  and  C5_7 
REMARK    3  A    between atoms: C7_10  and  C8_11 
REMARK    4  A    between atoms: N2_16  and  C11_17 
REMARK    5  A    between atoms: C11_17  and  C12_18 
REMARK    6  A    between atoms: N6_25  and  C13_26 
ROOT
HETATM    1  C1  UNL     1     -34.683  79.629   8.621  1.00  0.00     0.146 C 
HETATM    2  C2  UNL     1     -35.291  78.783   7.535  1.00  0.00     0.036 C 
HETATM    3  C3  UNL     1     -34.733  77.406   7.657  1.00  0.00     0.045 C 
HETATM    4  C4  UNL     1     -33.222  77.509   7.492  1.00  0.00     0.273 C 
HETATM    5  N2  UNL     1     -32.705  78.147   8.659  1.00  0.00     0.108 N 
HETATM    6  C18 UNL     1     -33.207  79.471   8.754  1.00  0.00     0.305 C 
ENDROOT
BRANCH   5   7
HETATM    7  C11 UNL     1     -31.256  78.229   8.669  1.00  0.00     0.352 C 
BRANCH   7   8
HETATM    8  C12 UNL     1     -30.681  78.511   9.972  1.00  0.00     0.144 A 
HETATM    9  N3  UNL     1     -31.060  77.972  11.144  1.00  0.00    -0.271 N 
HETATM   10  N4  UNL     1     -30.318  78.448  12.131  1.00  0.00    -0.227 N 
ATOM     11  H3  UNL     1     -31.813  77.293  11.257  1.00  0.00     0.190 HD
HETATM   12  N5  UNL     1     -29.473  79.287  11.581  1.00  0.00    -0.224 N 
ATOM     13  H4  UNL     1     -30.389  78.211  13.120  1.00  0.00     0.210 HD
HETATM   14  N6  UNL     1     -29.677  79.342  10.255  1.00  0.00    -0.257 N 
ATOM     15  H5  UNL     1     -28.764  79.818  12.086  1.00  0.00     0.210 HD
BRANCH  14  16
HETATM   16  C13 UNL     1     -28.912  80.160   9.373  1.00  0.00     0.111 C 
HETATM   17  C14 UNL     1     -27.564  80.541   9.928  1.00  0.00     0.027 C 
HETATM   18  C15 UNL     1     -27.442  82.046   9.844  1.00  0.00     0.002 C 
HETATM   19  C16 UNL     1     -28.890  82.464  10.091  1.00  0.00     0.002 C 
HETATM   20  C17 UNL     1     -29.599  81.512   9.119  1.00  0.00     0.027 C 
ENDBRANCH  14  16
ENDBRANCH   7   8
ENDBRANCH   5   7
BRANCH   4  21
HETATM   21  C5  UNL     1     -32.635  76.132   7.290  1.00  0.00     0.050 A 
HETATM   22  C6  UNL     1     -32.944  75.085   8.119  1.00  0.00     0.078 A 
HETATM   23  S1  UNL     1     -32.019  73.814   7.430  1.00  0.00    -0.086 SA
HETATM   24  C7  UNL     1     -31.313  74.690   6.151  1.00  0.00     0.055 A 
HETATM   25  N1  UNL     1     -31.805  75.882   6.306  1.00  0.00    -0.355 N 
ATOM     26  H1  UNL     1     -31.544  76.626   5.660  1.00  0.00     0.166 HD
BRANCH  24  27
HETATM   27  C8  UNL     1     -30.362  74.252   5.084  1.00  0.00     0.043 A 
HETATM   28  C9  UNL     1     -30.134  72.731   4.964  1.00  0.00     0.012 A 
HETATM   29  C10 UNL     1     -30.877  73.482   3.923  1.00  0.00     0.012 A 
ENDBRANCH  24  27
ENDBRANCH   4  21
BRANCH   1  30
HETATM   30  O1  UNL     1     -34.952  80.962   8.308  1.00  0.00    -0.394 OA
ATOM     31  H1  UNL     1     -34.567  81.496   8.994  1.00  0.00     0.210 HD
ENDBRANCH   1  30
TORSDOF 6
ENDMDL
MODEL 3
REMARK VINA RESULT: -5.464807033      3.385      4.804
REMARK  6 active torsions:
REMARK  status: ('A' for Active; 'I' for Inactive)
REMARK    1  A    between atoms: O1_1  and  C1_3 
REMARK    2  A    between atoms: C4_6  and  C5_7 
REMARK    3  A    between atoms: C7_10  and  C8_11 
REMARK    4  A    between atoms: N2_16  and  C11_17 
REMARK    5  A    between atoms: C11_17  and  C12_18 
REMARK    6  A    between atoms: N6_25  and  C13_26 
ROOT
HETATM    1  C1  UNL     1     -28.929  75.929  14.239  1.00  0.00     0.146 C 
HETATM    2  C2  UNL     1     -30.259  75.360  14.653  1.00  0.00     0.036 C 
HETATM    3  C3  UNL     1     -31.193  75.485  13.497  1.00  0.00     0.045 C 
HETATM    4  C4  UNL     1     -31.309  76.966  13.161  1.00  0.00     0.273 C 
HETATM    5  N2  UNL     1     -30.068  77.376  12.590  1.00  0.00     0.108 N 
HETATM    6  C18 UNL     1     -29.025  77.244  13.544  1.00  0.00     0.305 C 
ENDROOT
BRANCH   5   7
HETATM    7  C11 UNL     1     -30.075  78.757  12.143  1.00  0.00     0.352 C 
BRANCH   7   8
HETATM    8  C12 UNL     1     -29.187  79.029  11.027  1.00  0.00     0.144 A 
HETATM    9  N3  UNL     1     -27.893  79.385  11.106  1.00  0.00    -0.271 N 
HETATM   10  N4  UNL     1     -27.386  79.549   9.895  1.00  0.00    -0.227 N 
ATOM     11  H3  UNL     1     -27.375  79.511  11.977  1.00  0.00     0.190 HD
HETATM   12  N5  UNL     1     -28.360  79.297   9.054  1.00  0.00    -0.224 N 
ATOM     13  H4  UNL     1     -26.429  79.816   9.662  1.00  0.00     0.210 HD
HETATM   14  N6  UNL     1     -29.477  78.976   9.726  1.00  0.00    -0.257 N 
ATOM     15  H5  UNL     1     -28.280  79.338   8.038  1.00  0.00     0.210 HD
BRANCH  14  16
HETATM   16  C13 UNL     1     -30.710  78.642   9.093  1.00  0.00     0.111 C 
HETATM   17  C14 UNL     1     -30.581  78.431   7.606  1.00  0.00     0.027 C 
HETATM   18  C15 UNL     1     -31.606  79.314   6.928  1.00  0.00     0.002 C 
HETATM   19  C16 UNL     1     -31.618  80.514   7.871  1.00  0.00     0.002 C 
HETATM   20  C17 UNL     1     -31.733  79.783   9.214  1.00  0.00     0.027 C 
ENDBRANCH  14  16
ENDBRANCH   7   8
ENDBRANCH   5   7
BRANCH   4  21
HETATM   21  C5  UNL     1     -32.469  77.186  12.219  1.00  0.00     0.050 A 
HETATM   22  C6  UNL     1     -33.390  78.180  12.427  1.00  0.00     0.078 A 
HETATM   23  S1  UNL     1     -34.440  77.964  11.086  1.00  0.00    -0.086 SA
HETATM   24  C7  UNL     1     -33.645  76.643  10.363  1.00  0.00     0.055 A 
HETATM   25  N1  UNL     1     -32.641  76.434  11.159  1.00  0.00    -0.355 N 
ATOM     26  H1  UNL     1     -31.982  75.682  10.959  1.00  0.00     0.166 HD
BRANCH  24  27
HETATM   27  C8  UNL     1     -33.971  75.875   9.122  1.00  0.00     0.043 A 
HETATM   28  C9  UNL     1     -33.881  76.661   7.798  1.00  0.00     0.012 A 
HETATM   29  C10 UNL     1     -32.898  75.603   8.133  1.00  0.00     0.012 A 
ENDBRANCH  24  27
ENDBRANCH   4  21
BRANCH   1  30
HETATM   30  O1  UNL     1     -28.174  76.105  15.400  1.00  0.00    -0.394 OA
ATOM     31  H1  UNL     1     -27.271  75.907  15.182  1.00  0.00     0.210 HD
ENDBRANCH   1  30
TORSDOF 6
ENDMDL
MODEL 4
REMARK VINA RESULT: -5.447024654      1.872      3.033
REMARK  6 active torsions:
REMARK  status: ('A' for Active; 'I' for Inactive)
REMARK    1  A    between atoms: O1_1  and  C1_3 
REMARK    2  A    between atoms: C4_6  and  C5_7 
REMARK    3  A    between atoms: C7_10  and  C8_11 
REMARK    4  A    between atoms: N2_16  and  C11_17 
REMARK    5  A    between atoms: C11_17  and  C12_18 
REMARK    6  A    between atoms: N6_25  and  C13_26 
ROOT
HETATM    1  C1  UNL     1     -27.802  80.836   9.757  1.00  0.00     0.146 C 
HETATM    2  C2  UNL     1     -27.883  79.623  10.643  1.00  0.00     0.036 C 
HETATM    3  C3  UNL     1     -28.888  78.690  10.055  1.00  0.00     0.045 C 
HETATM    4  C4  UNL     1     -30.220  79.426  10.008  1.00  0.00     0.273 C 
HETATM    5  N2  UNL     1     -30.120  80.432   9.001  1.00  0.00     0.108 N 
HETATM    6  C18 UNL     1     -29.130  81.384   9.360  1.00  0.00     0.305 C 
ENDROOT
BRANCH   5   7
HETATM    7  C11 UNL     1     -31.361  81.155   8.792  1.00  0.00     0.352 C 
BRANCH   7   8
HETATM    8  C12 UNL     1     -31.643  81.471   7.404  1.00  0.00     0.144 A 
HETATM    9  N3  UNL     1     -31.871  80.589   6.415  1.00  0.00    -0.271 N 
HETATM   10  N4  UNL     1     -32.099  81.223   5.276  1.00  0.00    -0.227 N 
ATOM     11  H3  UNL     1     -31.868  79.575   6.527  1.00  0.00     0.190 HD
HETATM   12  N5  UNL     1     -32.015  82.503   5.547  1.00  0.00    -0.224 N 
ATOM     13  H4  UNL     1     -32.300  80.801   4.369  1.00  0.00     0.210 HD
HETATM   14  N6  UNL     1     -31.735  82.680   6.848  1.00  0.00    -0.257 N 
ATOM     15  H5  UNL     1     -32.143  83.254   4.869  1.00  0.00     0.210 HD
BRANCH  14  16
HETATM   16  C13 UNL     1     -31.586  83.962   7.455  1.00  0.00     0.111 C 
HETATM   17  C14 UNL     1     -32.320  85.058   6.727  1.00  0.00     0.027 C 
HETATM   18  C15 UNL     1     -31.330  86.166   6.447  1.00  0.00     0.002 C 
HETATM   19  C16 UNL     1     -30.054  85.359   6.220  1.00  0.00     0.002 C 
HETATM   20  C17 UNL     1     -30.120  84.428   7.437  1.00  0.00     0.027 C 
ENDBRANCH  14  16
ENDBRANCH   7   8
ENDBRANCH   5   7
BRANCH   4  21
HETATM   21  C5  UNL     1     -31.335  78.446   9.724  1.00  0.00     0.050 A 
HETATM   22  C6  UNL     1     -32.320  78.186  10.640  1.00  0.00     0.078 A 
HETATM   23  S1  UNL     1     -33.278  77.037   9.800  1.00  0.00    -0.086 SA
HETATM   24  C7  UNL     1     -32.373  76.968   8.360  1.00  0.00     0.055 A 
HETATM   25  N1  UNL     1     -31.405  77.805   8.582  1.00  0.00    -0.355 N 
ATOM     26  H1  UNL     1     -30.697  77.964   7.866  1.00  0.00     0.166 HD
BRANCH  24  27
HETATM   27  C8  UNL     1     -32.588  76.167   7.116  1.00  0.00     0.043 A 
HETATM   28  C9  UNL     1     -31.326  75.857   6.284  1.00  0.00     0.012 A 
HETATM   29  C10 UNL     1     -32.036  74.791   7.032  1.00  0.00     0.012 A 
ENDBRANCH  24  27
ENDBRANCH   4  21
BRANCH   1  30
HETATM   30  O1  UNL     1     -27.119  81.824  10.469  1.00  0.00    -0.394 OA
ATOM     31  H1  UNL     1     -27.063  82.589   9.907  1.00  0.00     0.210 HD
ENDBRANCH   1  30
TORSDOF 6
ENDMDL
MODEL 5
REMARK VINA RESULT: -5.417734394      3.572      6.569
REMARK  6 active torsions:
REMARK  status: ('A' for Active; 'I' for Inactive)
REMARK    1  A    between atoms: O1_1  and  C1_3 
REMARK    2  A    between atoms: C4_6  and  C5_7 
REMARK    3  A    between atoms: C7_10  and  C8_11 
REMARK    4  A    between atoms: N2_16  and  C11_17 
REMARK    5  A    between atoms: C11_17  and  C12_18 
REMARK    6  A    between atoms: N6_25  and  C13_26 
ROOT
HETATM    1  C1  UNL     1     -36.170  77.866   7.965  1.00  0.00     0.146 C 
HETATM    2  C2  UNL     1     -36.433  78.091   9.429  1.00  0.00     0.036 C 
HETATM    3  C3  UNL     1     -35.123  78.331  10.100  1.00  0.00     0.045 C 
HETATM    4  C4  UNL     1     -34.263  77.093   9.879  1.00  0.00     0.273 C 
HETATM    5  N2  UNL     1     -33.893  77.067   8.501  1.00  0.00     0.108 N 
HETATM    6  C18 UNL     1     -35.049  76.923   7.690  1.00  0.00     0.305 C 
ENDROOT
BRANCH   5   7
HETATM    7  C11 UNL     1     -32.994  75.976   8.174  1.00  0.00     0.352 C 
BRANCH   7   8
HETATM    8  C12 UNL     1     -31.902  76.346   7.292  1.00  0.00     0.144 A 
HETATM    9  N3  UNL     1     -31.192  77.487   7.336  1.00  0.00    -0.271 N 
HETATM   10  N4  UNL     1     -30.268  77.492   6.388  1.00  0.00    -0.227 N 
ATOM     11  H3  UNL     1     -31.344  78.242   8.005  1.00  0.00     0.190 HD
HETATM   12  N5  UNL     1     -30.396  76.354   5.747  1.00  0.00    -0.224 N 
ATOM     13  H4  UNL     1     -29.592  78.231   6.195  1.00  0.00     0.210 HD
HETATM   14  N6  UNL     1     -31.394  75.634   6.284  1.00  0.00    -0.257 N 
ATOM     15  H5  UNL     1     -29.822  76.061   4.957  1.00  0.00     0.210 HD
BRANCH  14  16
HETATM   16  C13 UNL     1     -31.778  74.345   5.812  1.00  0.00     0.111 C 
HETATM   17  C14 UNL     1     -31.459  73.234   6.780  1.00  0.00     0.027 C 
HETATM   18  C15 UNL     1     -30.665  72.187   6.032  1.00  0.00     0.002 C 
HETATM   19  C16 UNL     1     -29.871  73.066   5.068  1.00  0.00     0.002 C 
HETATM   20  C17 UNL     1     -31.004  73.956   4.541  1.00  0.00     0.027 C 
ENDBRANCH  14  16
ENDBRANCH   7   8
ENDBRANCH   5   7
BRANCH   4  21
HETATM   21  C5  UNL     1     -33.059  77.139  10.790  1.00  0.00     0.050 A 
HETATM   22  C6  UNL     1     -32.920  76.281  11.849  1.00  0.00     0.078 A 
HETATM   23  S1  UNL     1     -31.412  76.777  12.502  1.00  0.00    -0.086 SA
HETATM   24  C7  UNL     1     -31.066  78.026  11.397  1.00  0.00     0.055 A 
HETATM   25  N1  UNL     1     -32.092  78.005  10.601  1.00  0.00    -0.355 N 
ATOM     26  H1  UNL     1     -32.147  78.666   9.826  1.00  0.00     0.166 HD
BRANCH  24  27
HETATM   27  C8  UNL     1     -29.892  78.948  11.311  1.00  0.00     0.043 A 
HETATM   28  C9  UNL     1     -28.520  78.276  11.093  1.00  0.00     0.012 A 
HETATM   29  C10 UNL     1     -29.163  79.077  10.024  1.00  0.00     0.012 A 
ENDBRANCH  24  27
ENDBRANCH   4  21
BRANCH   1  30
HETATM   30  O1  UNL     1     -37.334  77.331   7.411  1.00  0.00    -0.394 OA
ATOM     31  H1  UNL     1     -37.114  76.473   7.066  1.00  0.00     0.210 HD
ENDBRANCH   1  30
TORSDOF 6
ENDMDL
