MODEL 1
REMARK VINA RESULT: -7.104827584      0.000      0.000
REMARK  9 active torsions:
REMARK  status: ('A' for Active; 'I' for Inactive)
REMARK    1  A    between atoms: C1_2  and  C2_4 
REMARK    2  A    between atoms: C2_4  and  O2_5 
REMARK    3  A    between atoms: C2_4  and  C3_7 
REMARK    4  A    between atoms: C3_7  and  O3_8 
REMARK    5  A    between atoms: C3_7  and  C4_10 
REMARK    6  A    between atoms: C4_10  and  N2_11 
REMARK    7  A    between atoms: C6_13  and  C7_14 
REMARK    8  A    between atoms: C8_17  and  N4_18 
REMARK    9  A    between atoms: C13_26  and  N6_27 
ROOT
HETATM    1  C7  UNL     1     -17.096 -15.225   5.039  1.00  0.00     0.228 C 
HETATM    2  N3  UNL     1     -16.964 -15.763   6.368  1.00  0.00    -0.358 N 
ATOM      3  H3  UNL     1     -16.046 -16.117   6.637  1.00  0.00     0.162 HD
HETATM    4  C8  UNL     1     -17.899 -15.836   7.242  1.00  0.00     0.127 C 
HETATM    5  C13 UNL     1     -19.256 -15.347   6.923  1.00  0.00     0.351 C 
HETATM    6  N7  UNL     1     -19.285 -14.408   5.841  1.00  0.00    -0.325 N 
ATOM      7  H7  UNL     1     -20.151 -13.925   5.603  1.00  0.00     0.165 HD
HETATM    8  C14 UNL     1     -18.112 -14.158   5.111  1.00  0.00     0.248 C 
HETATM    9  O4  UNL     1     -17.898 -13.074   4.524  1.00  0.00    -0.271 OA
ENDROOT
BRANCH   1  10
HETATM   10  C6  UNL     1     -17.590 -16.260   4.095  1.00  0.00     0.072 A 
HETATM   11  C5  UNL     1     -17.560 -17.616   4.343  1.00  0.00     0.136 A 
HETATM   12  N2  UNL     1     -18.082 -18.285   3.289  1.00  0.00    -0.282 N 
HETATM   13  N9  UNL     1     -18.423 -17.355   2.415  1.00  0.00    -0.020 NA
HETATM   14  N8  UNL     1     -18.140 -16.149   2.875  1.00  0.00    -0.284 N 
ATOM     15  H8  UNL     1     -18.311 -15.273   2.382  1.00  0.00     0.184 HD
BRANCH  12  16
HETATM   16  C4  UNL     1     -18.230 -19.746   3.158  1.00  0.00     0.180 C 
BRANCH  16  17
HETATM   17  C3  UNL     1     -17.998 -20.299   4.535  1.00  0.00     0.175 C 
BRANCH  17  18
HETATM   18  C2  UNL     1     -17.208 -21.603   4.477  1.00  0.00     0.237 C 
BRANCH  18  19
HETATM   19  C1  UNL     1     -16.337 -21.686   5.672  1.00  0.00     0.262 C 
HETATM   20  N1  UNL     1     -15.288 -22.640   5.752  1.00  0.00    -0.060 NA
HETATM   21  O1  UNL     1     -16.493 -20.922   6.649  1.00  0.00    -0.274 OA
ENDBRANCH  18  19
BRANCH  18  22
HETATM   22  O2  UNL     1     -18.185 -22.635   4.613  1.00  0.00    -0.384 OA
ATOM     23  H2  UNL     1     -17.996 -23.277   3.939  1.00  0.00     0.210 HD
ENDBRANCH  18  22
ENDBRANCH  17  18
BRANCH  17  24
HETATM   24  O3  UNL     1     -19.287 -20.556   5.055  1.00  0.00    -0.391 OA
ATOM     25  H3  UNL     1     -19.690 -21.260   4.562  1.00  0.00     0.210 HD
ENDBRANCH  17  24
ENDBRANCH  16  17
ENDBRANCH  12  16
ENDBRANCH   1  10
BRANCH   4  26
HETATM   26  N4  UNL     1     -17.663 -16.393   8.549  1.00  0.00    -0.365 N 
HETATM   27  C9  UNL     1     -18.289 -17.639   8.936  1.00  0.00     0.152 C 
HETATM   28  C10 UNL     1     -17.183 -18.635   9.209  1.00  0.00     0.252 C 
HETATM   29  N5  UNL     1     -15.939 -18.005   9.535  1.00  0.00    -0.072 N 
HETATM   30  C11 UNL     1     -16.090 -16.821  10.335  1.00  0.00     0.252 C 
ATOM     31  H52 UNL     1     -15.305 -18.667   9.983  1.00  0.00     0.277 HD
ATOM     32  H51 UNL     1     -15.403 -17.805   8.690  1.00  0.00     0.277 HD
HETATM   33  C12 UNL     1     -16.805 -15.750   9.521  1.00  0.00     0.152 C 
ENDBRANCH   4  26
BRANCH   5  34
HETATM   34  N6  UNL     1     -19.731 -14.582   8.096  1.00  0.00    -0.051 N 
ATOM     35  H63 UNL     1     -20.728 -14.703   8.275  1.00  0.00     0.277 HD
ATOM     36  H62 UNL     1     -19.392 -14.957   8.982  1.00  0.00     0.277 HD
ATOM     37  H61 UNL     1     -19.468 -13.607   7.946  1.00  0.00     0.277 HD
ENDBRANCH   5  34
TORSDOF 9
ENDMDL
MODEL 2
REMARK VINA RESULT: -6.928966767      3.182      5.654
REMARK  9 active torsions:
REMARK  status: ('A' for Active; 'I' for Inactive)
REMARK    1  A    between atoms: C1_2  and  C2_4 
REMARK    2  A    between atoms: C2_4  and  O2_5 
REMARK    3  A    between atoms: C2_4  and  C3_7 
REMARK    4  A    between atoms: C3_7  and  O3_8 
REMARK    5  A    between atoms: C3_7  and  C4_10 
REMARK    6  A    between atoms: C4_10  and  N2_11 
REMARK    7  A    between atoms: C6_13  and  C7_14 
REMARK    8  A    between atoms: C8_17  and  N4_18 
REMARK    9  A    between atoms: C13_26  and  N6_27 
ROOT
HETATM    1  C7  UNL     1     -17.562 -16.666   9.268  1.00  0.00     0.228 C 
HETATM    2  N3  UNL     1     -16.596 -15.807   9.901  1.00  0.00    -0.358 N 
ATOM      3  H3  UNL     1     -16.826 -14.815   9.963  1.00  0.00     0.162 HD
HETATM    4  C8  UNL     1     -15.472 -16.179  10.393  1.00  0.00     0.127 C 
HETATM    5  C13 UNL     1     -15.068 -17.599  10.336  1.00  0.00     0.351 C 
HETATM    6  N7  UNL     1     -16.169 -18.499  10.164  1.00  0.00    -0.325 N 
ATOM      7  H7  UNL     1     -16.022 -19.507  10.217  1.00  0.00     0.165 HD
HETATM    8  C14 UNL     1     -17.452 -17.984   9.923  1.00  0.00     0.248 C 
HETATM    9  O4  UNL     1     -18.498 -18.594  10.238  1.00  0.00    -0.271 OA
ENDROOT
BRANCH   1  10
HETATM   10  C6  UNL     1     -17.247 -16.847   7.828  1.00  0.00     0.072 A 
HETATM   11  C5  UNL     1     -17.454 -15.886   6.860  1.00  0.00     0.136 A 
HETATM   12  N2  UNL     1     -17.065 -16.361   5.654  1.00  0.00    -0.282 N 
HETATM   13  N9  UNL     1     -16.630 -17.588   5.882  1.00  0.00    -0.020 NA
HETATM   14  N8  UNL     1     -16.730 -17.893   7.164  1.00  0.00    -0.284 N 
ATOM     15  H8  UNL     1     -16.458 -18.782   7.582  1.00  0.00     0.184 HD
BRANCH  12  16
HETATM   16  C4  UNL     1     -17.122 -15.646   4.366  1.00  0.00     0.180 C 
BRANCH  16  17
HETATM   17  C3  UNL     1     -17.142 -16.717   3.312  1.00  0.00     0.175 C 
BRANCH  17  18
HETATM   18  C2  UNL     1     -16.135 -16.417   2.206  1.00  0.00     0.237 C 
BRANCH  18  19
HETATM   19  C1  UNL     1     -16.180 -14.969   1.901  1.00  0.00     0.262 C 
HETATM   20  N1  UNL     1     -17.315 -14.382   1.282  1.00  0.00    -0.060 NA
HETATM   21  O1  UNL     1     -15.223 -14.211   2.177  1.00  0.00    -0.274 OA
ENDBRANCH  18  19
BRANCH  18  22
HETATM   22  O2  UNL     1     -14.857 -16.670   2.789  1.00  0.00    -0.384 OA
ATOM     23  H2  UNL     1     -14.274 -16.896   2.074  1.00  0.00     0.210 HD
ENDBRANCH  18  22
ENDBRANCH  17  18
BRANCH  17  24
HETATM   24  O3  UNL     1     -18.449 -16.685   2.776  1.00  0.00    -0.391 OA
ATOM     25  H3  UNL     1     -19.057 -16.394   3.445  1.00  0.00     0.210 HD
ENDBRANCH  17  24
ENDBRANCH  16  17
ENDBRANCH  12  16
ENDBRANCH   1  10
BRANCH   4  26
HETATM   26  N4  UNL     1     -14.573 -15.237  11.008  1.00  0.00    -0.365 N 
HETATM   27  C9  UNL     1     -15.045 -14.349  12.049  1.00  0.00     0.152 C 
HETATM   28  C10 UNL     1     -14.264 -14.669  13.305  1.00  0.00     0.252 C 
HETATM   29  N5  UNL     1     -13.007 -15.298  13.030  1.00  0.00    -0.072 N 
HETATM   30  C11 UNL     1     -12.355 -14.782  11.857  1.00  0.00     0.252 C 
ATOM     31  H52 UNL     1     -12.390 -15.243  13.840  1.00  0.00     0.277 HD
ATOM     32  H51 UNL     1     -13.115 -16.310  12.968  1.00  0.00     0.277 HD
HETATM   33  C12 UNL     1     -13.181 -15.131  10.626  1.00  0.00     0.152 C 
ENDBRANCH   4  26
BRANCH   5  34
HETATM   34  N6  UNL     1     -14.504 -17.945  11.658  1.00  0.00    -0.051 N 
ATOM     35  H63 UNL     1     -13.494 -18.087  11.637  1.00  0.00     0.277 HD
ATOM     36  H62 UNL     1     -14.513 -17.164  12.314  1.00  0.00     0.277 HD
ATOM     37  H61 UNL     1     -15.014 -18.760  12.000  1.00  0.00     0.277 HD
ENDBRANCH   5  34
TORSDOF 9
ENDMDL
MODEL 3
REMARK VINA RESULT: -6.906340724      3.963      7.499
REMARK  9 active torsions:
REMARK  status: ('A' for Active; 'I' for Inactive)
REMARK    1  A    between atoms: C1_2  and  C2_4 
REMARK    2  A    between atoms: C2_4  and  O2_5 
REMARK    3  A    between atoms: C2_4  and  C3_7 
REMARK    4  A    between atoms: C3_7  and  O3_8 
REMARK    5  A    between atoms: C3_7  and  C4_10 
REMARK    6  A    between atoms: C4_10  and  N2_11 
REMARK    7  A    between atoms: C6_13  and  C7_14 
REMARK    8  A    between atoms: C8_17  and  N4_18 
REMARK    9  A    between atoms: C13_26  and  N6_27 
ROOT
HETATM    1  C7  UNL     1     -14.183 -18.189  10.402  1.00  0.00     0.228 C 
HETATM    2  N3  UNL     1     -14.083 -18.550  11.792  1.00  0.00    -0.358 N 
ATOM      3  H3  UNL     1     -14.588 -19.384  12.093  1.00  0.00     0.162 HD
HETATM    4  C8  UNL     1     -13.414 -17.916  12.683  1.00  0.00     0.127 C 
HETATM    5  C13 UNL     1     -12.661 -16.698  12.323  1.00  0.00     0.351 C 
HETATM    6  N7  UNL     1     -12.361 -16.605  10.925  1.00  0.00    -0.325 N 
ATOM      7  H7  UNL     1     -11.756 -15.861  10.578  1.00  0.00     0.165 HD
HETATM    8  C14 UNL     1     -12.907 -17.545  10.037  1.00  0.00     0.248 C 
HETATM    9  O4  UNL     1     -12.358 -17.854   8.956  1.00  0.00    -0.271 OA
ENDROOT
BRANCH   1  10
HETATM   10  C6  UNL     1     -15.269 -17.198  10.190  1.00  0.00     0.072 A 
HETATM   11  C5  UNL     1     -16.363 -17.407   9.377  1.00  0.00     0.136 A 
HETATM   12  N2  UNL     1     -17.164 -16.316   9.399  1.00  0.00    -0.282 N 
HETATM   13  N9  UNL     1     -16.569 -15.459  10.210  1.00  0.00    -0.020 NA
HETATM   14  N8  UNL     1     -15.446 -15.964  10.688  1.00  0.00    -0.284 N 
ATOM     15  H8  UNL     1     -14.813 -15.492  11.333  1.00  0.00     0.184 HD
BRANCH  12  16
HETATM   16  C4  UNL     1     -18.431 -16.137   8.667  1.00  0.00     0.180 C 
BRANCH  16  17
HETATM   17  C3  UNL     1     -18.042 -15.631   7.307  1.00  0.00     0.175 C 
BRANCH  17  18
HETATM   18  C2  UNL     1     -18.964 -14.502   6.857  1.00  0.00     0.237 C 
BRANCH  18  19
HETATM   19  C1  UNL     1     -18.380 -13.861   5.657  1.00  0.00     0.262 C 
HETATM   20  N1  UNL     1     -18.775 -12.558   5.253  1.00  0.00    -0.060 NA
HETATM   21  O1  UNL     1     -17.520 -14.441   4.957  1.00  0.00    -0.274 OA
ENDBRANCH  18  19
BRANCH  18  22
HETATM   22  O2  UNL     1     -20.162 -15.148   6.431  1.00  0.00    -0.384 OA
ATOM     23  H2  UNL     1     -20.451 -15.688   7.157  1.00  0.00     0.210 HD
ENDBRANCH  18  22
ENDBRANCH  17  18
BRANCH  17  24
HETATM   24  O3  UNL     1     -18.200 -16.737   6.440  1.00  0.00    -0.391 OA
ATOM     25  H3  UNL     1     -17.668 -17.459   6.752  1.00  0.00     0.210 HD
ENDBRANCH  17  24
ENDBRANCH  16  17
ENDBRANCH  12  16
ENDBRANCH   1  10
BRANCH   4  26
HETATM   26  N4  UNL     1     -13.377 -18.363  14.052  1.00  0.00    -0.365 N 
HETATM   27  C9  UNL     1     -13.962 -17.555  15.100  1.00  0.00     0.152 C 
HETATM   28  C10 UNL     1     -15.079 -18.363  15.724  1.00  0.00     0.252 C 
HETATM   29  N5  UNL     1     -14.918 -19.773  15.529  1.00  0.00    -0.072 N 
HETATM   30  C11 UNL     1     -13.550 -20.207  15.606  1.00  0.00     0.252 C 
ATOM     31  H52 UNL     1     -15.502 -20.297  16.181  1.00  0.00     0.277 HD
ATOM     32  H51 UNL     1     -15.342 -20.067  14.649  1.00  0.00     0.277 HD
HETATM   33  C12 UNL     1     -12.767 -19.616  14.442  1.00  0.00     0.152 C 
ENDBRANCH   4  26
BRANCH   5  34
HETATM   34  N6  UNL     1     -11.341 -16.789  12.984  1.00  0.00    -0.051 N 
ATOM     35  H63 UNL     1     -11.065 -15.924  13.447  1.00  0.00     0.277 HD
ATOM     36  H62 UNL     1     -11.349 -17.384  13.812  1.00  0.00     0.277 HD
ATOM     37  H61 UNL     1     -10.671 -17.095  12.278  1.00  0.00     0.277 HD
ENDBRANCH   5  34
TORSDOF 9
ENDMDL
MODEL 4
REMARK VINA RESULT: -6.853973993      4.407      7.685
REMARK  9 active torsions:
REMARK  status: ('A' for Active; 'I' for Inactive)
REMARK    1  A    between atoms: C1_2  and  C2_4 
REMARK    2  A    between atoms: C2_4  and  O2_5 
REMARK    3  A    between atoms: C2_4  and  C3_7 
REMARK    4  A    between atoms: C3_7  and  O3_8 
REMARK    5  A    between atoms: C3_7  and  C4_10 
REMARK    6  A    between atoms: C4_10  and  N2_11 
REMARK    7  A    between atoms: C6_13  and  C7_14 
REMARK    8  A    between atoms: C8_17  and  N4_18 
REMARK    9  A    between atoms: C13_26  and  N6_27 
ROOT
HETATM    1  C7  UNL     1     -13.788 -17.688  12.956  1.00  0.00     0.228 C 
HETATM    2  N3  UNL     1     -12.883 -16.679  12.474  1.00  0.00    -0.358 N 
ATOM      3  H3  UNL     1     -13.059 -15.718  12.768  1.00  0.00     0.162 HD
HETATM    4  C8  UNL     1     -11.876 -16.882  11.707  1.00  0.00     0.127 C 
HETATM    5  C13 UNL     1     -11.561 -18.246  11.236  1.00  0.00     0.351 C 
HETATM    6  N7  UNL     1     -12.124 -19.277  12.057  1.00  0.00    -0.325 N 
ATOM      7  H7  UNL     1     -11.886 -20.254  11.889  1.00  0.00     0.165 HD
HETATM    8  C14 UNL     1     -13.005 -18.931  13.093  1.00  0.00     0.248 C 
HETATM    9  O4  UNL     1     -13.152 -19.631  14.119  1.00  0.00    -0.271 OA
ENDROOT
BRANCH   1  10
HETATM   10  C6  UNL     1     -14.873 -17.940  11.973  1.00  0.00     0.072 A 
HETATM   11  C5  UNL     1     -15.111 -17.162  10.861  1.00  0.00     0.136 A 
HETATM   12  N2  UNL     1     -16.166 -17.657  10.173  1.00  0.00    -0.282 N 
HETATM   13  N9  UNL     1     -16.564 -18.717  10.853  1.00  0.00    -0.020 NA
HETATM   14  N8  UNL     1     -15.810 -18.901  11.923  1.00  0.00    -0.284 N 
ATOM     15  H8  UNL     1     -15.922 -19.653  12.603  1.00  0.00     0.184 HD
BRANCH  12  16
HETATM   16  C4  UNL     1     -16.739 -17.114   8.928  1.00  0.00     0.180 C 
BRANCH  16  17
HETATM   17  C3  UNL     1     -17.435 -18.270   8.267  1.00  0.00     0.175 C 
BRANCH  17  18
HETATM   18  C2  UNL     1     -17.249 -18.231   6.753  1.00  0.00     0.237 C 
BRANCH  18  19
HETATM   19  C1  UNL     1     -17.611 -19.553   6.195  1.00  0.00     0.262 C 
HETATM   20  N1  UNL     1     -18.937 -19.836   5.773  1.00  0.00    -0.060 NA
HETATM   21  O1  UNL     1     -16.765 -20.467   6.074  1.00  0.00    -0.274 OA
ENDBRANCH  18  19
BRANCH  18  22
HETATM   22  O2  UNL     1     -18.232 -17.309   6.283  1.00  0.00    -0.384 OA
ATOM     23  H2  UNL     1     -18.329 -16.649   6.960  1.00  0.00     0.210 HD
ENDBRANCH  18  22
ENDBRANCH  17  18
BRANCH  17  24
HETATM   24  O3  UNL     1     -18.804 -18.104   8.575  1.00  0.00    -0.391 OA
ATOM     25  H3  UNL     1     -19.279 -18.889   8.328  1.00  0.00     0.210 HD
ENDBRANCH  17  24
ENDBRANCH  16  17
ENDBRANCH  12  16
ENDBRANCH   1  10
BRANCH   4  26
HETATM   26  N4  UNL     1     -11.028 -15.798  11.280  1.00  0.00    -0.365 N 
HETATM   27  C9  UNL     1     -11.120 -15.286   9.930  1.00  0.00     0.152 C 
HETATM   28  C10 UNL     1     -11.541 -13.836  10.024  1.00  0.00     0.252 C 
HETATM   29  N5  UNL     1     -11.221 -13.248  11.290  1.00  0.00    -0.072 N 
HETATM   30  C11 UNL     1      -9.965 -13.697  11.826  1.00  0.00     0.252 C 
ATOM     31  H52 UNL     1     -11.247 -12.230  11.233  1.00  0.00     0.277 HD
ATOM     32  H51 UNL     1     -11.975 -13.398  11.960  1.00  0.00     0.277 HD
HETATM   33  C12 UNL     1     -10.060 -15.179  12.160  1.00  0.00     0.152 C 
ENDBRANCH   4  26
BRANCH   5  34
HETATM   34  N6  UNL     1     -10.099 -18.424  11.361  1.00  0.00    -0.051 N 
ATOM     35  H63 UNL     1      -9.760 -19.275  10.911  1.00  0.00     0.277 HD
ATOM     36  H62 UNL     1      -9.565 -17.759  10.801  1.00  0.00     0.277 HD
ATOM     37  H61 UNL     1      -9.874 -18.382  12.355  1.00  0.00     0.277 HD
ENDBRANCH   5  34
TORSDOF 9
ENDMDL
MODEL 5
REMARK VINA RESULT: -6.835586849      4.064      7.653
REMARK  9 active torsions:
REMARK  status: ('A' for Active; 'I' for Inactive)
REMARK    1  A    between atoms: C1_2  and  C2_4 
REMARK    2  A    between atoms: C2_4  and  O2_5 
REMARK    3  A    between atoms: C2_4  and  C3_7 
REMARK    4  A    between atoms: C3_7  and  O3_8 
REMARK    5  A    between atoms: C3_7  and  C4_10 
REMARK    6  A    between atoms: C4_10  and  N2_11 
REMARK    7  A    between atoms: C6_13  and  C7_14 
REMARK    8  A    between atoms: C8_17  and  N4_18 
REMARK    9  A    between atoms: C13_26  and  N6_27 
ROOT
HETATM    1  C7  UNL     1     -14.001 -18.273  10.469  1.00  0.00     0.228 C 
HETATM    2  N3  UNL     1     -13.896 -18.602  11.866  1.00  0.00    -0.358 N 
ATOM      3  H3  UNL     1     -14.369 -19.449  12.181  1.00  0.00     0.162 HD
HETATM    4  C8  UNL     1     -13.259 -17.924  12.748  1.00  0.00     0.127 C 
HETATM    5  C13 UNL     1     -12.552 -16.684  12.366  1.00  0.00     0.351 C 
HETATM    6  N7  UNL     1     -12.247 -16.607  10.969  1.00  0.00    -0.325 N 
ATOM      7  H7  UNL     1     -11.670 -15.847  10.610  1.00  0.00     0.165 HD
HETATM    8  C14 UNL     1     -12.750 -17.586  10.097  1.00  0.00     0.248 C 
HETATM    9  O4  UNL     1     -12.182 -17.895   9.026  1.00  0.00    -0.271 OA
ENDROOT
BRANCH   1  10
HETATM   10  C6  UNL     1     -15.125 -17.332  10.230  1.00  0.00     0.072 A 
HETATM   11  C5  UNL     1     -16.221 -17.613   9.442  1.00  0.00     0.136 A 
HETATM   12  N2  UNL     1     -17.060 -16.551   9.430  1.00  0.00    -0.282 N 
HETATM   13  N9  UNL     1     -16.486 -15.640  10.195  1.00  0.00    -0.020 NA
HETATM   14  N8  UNL     1     -15.340 -16.084  10.678  1.00  0.00    -0.284 N 
ATOM     15  H8  UNL     1     -14.716 -15.563  11.294  1.00  0.00     0.184 HD
BRANCH  12  16
HETATM   16  C4  UNL     1     -18.341 -16.449   8.708  1.00  0.00     0.180 C 
BRANCH  16  17
HETATM   17  C3  UNL     1     -18.027 -15.725   7.430  1.00  0.00     0.175 C 
BRANCH  17  18
HETATM   18  C2  UNL     1     -18.723 -14.368   7.382  1.00  0.00     0.237 C 
BRANCH  18  19
HETATM   19  C1  UNL     1     -20.187 -14.586   7.323  1.00  0.00     0.262 C 
HETATM   20  N1  UNL     1     -20.840 -14.864   6.093  1.00  0.00    -0.060 NA
HETATM   21  O1  UNL     1     -20.898 -14.534   8.350  1.00  0.00    -0.274 OA
ENDBRANCH  18  19
BRANCH  18  22
HETATM   22  O2  UNL     1     -18.453 -13.767   8.647  1.00  0.00    -0.384 OA
ATOM     23  H2  UNL     1     -18.576 -14.445   9.301  1.00  0.00     0.210 HD
ENDBRANCH  18  22
ENDBRANCH  17  18
BRANCH  17  24
HETATM   24  O3  UNL     1     -18.537 -16.549   6.401  1.00  0.00    -0.391 OA
ATOM     25  H3  UNL     1     -19.484 -16.594   6.474  1.00  0.00     0.210 HD
ENDBRANCH  17  24
ENDBRANCH  16  17
ENDBRANCH  12  16
ENDBRANCH   1  10
BRANCH   4  26
HETATM   26  N4  UNL     1     -13.213 -18.341  14.126  1.00  0.00    -0.365 N 
HETATM   27  C9  UNL     1     -13.831 -17.534  15.155  1.00  0.00     0.152 C 
HETATM   28  C10 UNL     1     -14.922 -18.368  15.790  1.00  0.00     0.252 C 
HETATM   29  N5  UNL     1     -14.709 -19.775  15.625  1.00  0.00    -0.072 N 
HETATM   30  C11 UNL     1     -13.327 -20.158  15.716  1.00  0.00     0.252 C 
ATOM     31  H52 UNL     1     -15.277 -20.307  16.285  1.00  0.00     0.277 HD
ATOM     32  H51 UNL     1     -15.118 -20.102  14.749  1.00  0.00     0.277 HD
HETATM   33  C12 UNL     1     -12.559 -19.563  14.544  1.00  0.00     0.152 C 
ENDBRANCH   4  26
BRANCH   5  34
HETATM   34  N6  UNL     1     -11.234 -16.709  13.036  1.00  0.00    -0.051 N 
ATOM     35  H63 UNL     1     -11.292 -16.532  14.039  1.00  0.00     0.277 HD
ATOM     36  H62 UNL     1     -10.831 -17.644  13.091  1.00  0.00     0.277 HD
ATOM     37  H61 UNL     1     -10.635 -16.043  12.548  1.00  0.00     0.277 HD
ENDBRANCH   5  34
TORSDOF 9
ENDMDL
