MODEL 1
REMARK VINA RESULT: -6.001398334      0.000      0.000
REMARK  12 active torsions:
REMARK  status: ('A' for Active; 'I' for Inactive)
REMARK    1  A    between atoms: C2_2  and  O1_3 
REMARK    2  A    between atoms: C2_2  and  C3_5 
REMARK    3  A    between atoms: C3_5  and  C4_6 
REMARK    4  A    between atoms: C3_5  and  C7_11 
REMARK    5  A    between atoms: C4_6  and  C6_8 
REMARK    6  A    between atoms: C6_8  and  O2_9 
REMARK    7  A    between atoms: C7_11  and  O3_12 
REMARK    8  A    between atoms: C7_11  and  S1_14 
REMARK    9  A    between atoms: S1_14  and  C8_15 
REMARK   10  A    between atoms: C8_15  and  C9_16 
REMARK   11  A    between atoms: C10_17  and  O4_18 
REMARK   12  A    between atoms: C14_23  and  O5_24 
ROOT
HETATM    1  C7  UNL     1      26.699 -40.005 -57.742  1.00  0.00     0.186 C 
ENDROOT
BRANCH   1   2
HETATM    2  C3  UNL     1      26.448 -41.478 -57.430  1.00  0.00     0.058 C 
BRANCH   2   3
HETATM    3  C2  UNL     1      25.038 -41.886 -57.341  1.00  0.00     0.121 C 
HETATM    4  C1  UNL     1      24.015 -40.795 -57.529  1.00  0.00     0.040 C 
BRANCH   3   5
HETATM    5  O1  UNL     1      24.823 -42.339 -56.014  1.00  0.00    -0.395 OA
ATOM      6  H1  UNL     1      25.340 -41.747 -55.479  1.00  0.00     0.210 HD
ENDBRANCH   3   5
ENDBRANCH   2   3
BRANCH   2   7
HETATM    7  C4  UNL     1      27.256 -42.238 -58.450  1.00  0.00     0.015 C 
HETATM    8  C5  UNL     1      26.352 -43.122 -59.269  1.00  0.00     0.012 C 
BRANCH   7   9
HETATM    9  C6  UNL     1      28.389 -43.040 -57.916  1.00  0.00     0.168 C 
BRANCH   9  10
HETATM   10  O2  UNL     1      29.617 -42.380 -57.984  1.00  0.00    -0.400 OA
ATOM     11  H2  UNL     1      30.229 -42.652 -57.311  1.00  0.00     0.209 HD
ENDBRANCH   9  10
ENDBRANCH   7   9
ENDBRANCH   2   7
ENDBRANCH   1   2
BRANCH   1  12
HETATM   12  O3  UNL     1      27.592 -40.009 -58.796  1.00  0.00    -0.385 OA
ATOM     13  H3  UNL     1      27.270 -40.677 -59.390  1.00  0.00     0.211 HD
ENDBRANCH   1  12
BRANCH   1  14
HETATM   14  S1  UNL     1      27.270 -39.074 -56.367  1.00  0.00    -0.137 SA
BRANCH  14  15
HETATM   15  C8  UNL     1      26.129 -38.861 -55.057  1.00  0.00     0.086 C 
BRANCH  15  16
HETATM   16  C9  UNL     1      26.096 -37.646 -54.252  1.00  0.00     0.052 C 
HETATM   17  C10 UNL     1      27.000 -37.626 -53.023  1.00  0.00     0.125 C 
HETATM   18  C11 UNL     1      26.437 -36.650 -52.068  1.00  0.00     0.032 C 
HETATM   19  C12 UNL     1      25.695 -35.480 -52.544  1.00  0.00     0.005 C 
HETATM   20  C13 UNL     1      25.248 -35.441 -53.973  1.00  0.00     0.032 C 
HETATM   21  C14 UNL     1      26.218 -36.287 -54.838  1.00  0.00     0.125 C 
BRANCH  17  22
HETATM   22  O4  UNL     1      28.326 -37.453 -53.303  1.00  0.00    -0.395 OA
ATOM     23  H4  UNL     1      28.499 -37.024 -54.133  1.00  0.00     0.210 HD
ENDBRANCH  17  22
BRANCH  21  24
HETATM   24  O5  UNL     1      27.491 -35.716 -54.605  1.00  0.00    -0.395 OA
ATOM     25  H5  UNL     1      27.448 -34.967 -54.022  1.00  0.00     0.210 HD
ENDBRANCH  21  24
ENDBRANCH  15  16
ENDBRANCH  14  15
ENDBRANCH   1  14
TORSDOF 12
ENDMDL
MODEL 2
REMARK VINA RESULT: -5.942076167      1.180      2.426
REMARK  12 active torsions:
REMARK  status: ('A' for Active; 'I' for Inactive)
REMARK    1  A    between atoms: C2_2  and  O1_3 
REMARK    2  A    between atoms: C2_2  and  C3_5 
REMARK    3  A    between atoms: C3_5  and  C4_6 
REMARK    4  A    between atoms: C3_5  and  C7_11 
REMARK    5  A    between atoms: C4_6  and  C6_8 
REMARK    6  A    between atoms: C6_8  and  O2_9 
REMARK    7  A    between atoms: C7_11  and  O3_12 
REMARK    8  A    between atoms: C7_11  and  S1_14 
REMARK    9  A    between atoms: S1_14  and  C8_15 
REMARK   10  A    between atoms: C8_15  and  C9_16 
REMARK   11  A    between atoms: C10_17  and  O4_18 
REMARK   12  A    between atoms: C14_23  and  O5_24 
ROOT
HETATM    1  C7  UNL     1      26.487 -39.843 -57.993  1.00  0.00     0.186 C 
ENDROOT
BRANCH   1   2
HETATM    2  C3  UNL     1      26.350 -41.350 -58.183  1.00  0.00     0.058 C 
BRANCH   2   3
HETATM    3  C2  UNL     1      26.968 -42.191 -57.147  1.00  0.00     0.121 C 
HETATM    4  C1  UNL     1      28.038 -43.145 -57.614  1.00  0.00     0.040 C 
BRANCH   3   5
HETATM    5  O1  UNL     1      25.949 -43.034 -56.638  1.00  0.00    -0.395 OA
ATOM      6  H1  UNL     1      26.035 -43.835 -57.142  1.00  0.00     0.210 HD
ENDBRANCH   3   5
ENDBRANCH   2   3
BRANCH   2   7
HETATM    7  C4  UNL     1      24.875 -41.588 -58.384  1.00  0.00     0.015 C 
HETATM    8  C5  UNL     1      24.610 -42.011 -59.805  1.00  0.00     0.012 C 
BRANCH   7   9
HETATM    9  C6  UNL     1      23.979 -40.458 -58.024  1.00  0.00     0.168 C 
BRANCH   9  10
HETATM   10  O2  UNL     1      22.798 -40.426 -58.767  1.00  0.00    -0.400 OA
ATOM     11  H2  UNL     1      22.852 -39.877 -59.540  1.00  0.00     0.209 HD
ENDBRANCH   9  10
ENDBRANCH   7   9
ENDBRANCH   2   7
ENDBRANCH   1   2
BRANCH   1  12
HETATM   12  O3  UNL     1      27.194 -39.404 -59.096  1.00  0.00    -0.385 OA
ATOM     13  H3  UNL     1      27.159 -38.456 -59.050  1.00  0.00     0.211 HD
ENDBRANCH   1  12
BRANCH   1  14
HETATM   14  S1  UNL     1      27.236 -39.383 -56.474  1.00  0.00    -0.137 SA
BRANCH  14  15
HETATM   15  C8  UNL     1      26.145 -39.079 -55.139  1.00  0.00     0.086 C 
BRANCH  15  16
HETATM   16  C9  UNL     1      26.160 -37.823 -54.400  1.00  0.00     0.052 C 
HETATM   17  C10 UNL     1      27.020 -37.791 -53.141  1.00  0.00     0.125 C 
HETATM   18  C11 UNL     1      26.486 -36.731 -52.260  1.00  0.00     0.032 C 
HETATM   19  C12 UNL     1      25.834 -35.547 -52.824  1.00  0.00     0.005 C 
HETATM   20  C13 UNL     1      25.441 -35.558 -54.269  1.00  0.00     0.032 C 
HETATM   21  C14 UNL     1      26.386 -36.508 -55.051  1.00  0.00     0.125 C 
BRANCH  17  22
HETATM   22  O4  UNL     1      28.364 -37.713 -53.379  1.00  0.00    -0.395 OA
ATOM     23  H4  UNL     1      28.899 -37.667 -52.595  1.00  0.00     0.210 HD
ENDBRANCH  17  22
BRANCH  21  24
HETATM   24  O5  UNL     1      27.683 -36.002 -54.801  1.00  0.00    -0.395 OA
ATOM     25  H5  UNL     1      27.720 -35.487 -54.003  1.00  0.00     0.210 HD
ENDBRANCH  21  24
ENDBRANCH  15  16
ENDBRANCH  14  15
ENDBRANCH   1  14
TORSDOF 12
ENDMDL
MODEL 3
REMARK VINA RESULT: -5.782881318      1.188      2.820
REMARK  12 active torsions:
REMARK  status: ('A' for Active; 'I' for Inactive)
REMARK    1  A    between atoms: C2_2  and  O1_3 
REMARK    2  A    between atoms: C2_2  and  C3_5 
REMARK    3  A    between atoms: C3_5  and  C4_6 
REMARK    4  A    between atoms: C3_5  and  C7_11 
REMARK    5  A    between atoms: C4_6  and  C6_8 
REMARK    6  A    between atoms: C6_8  and  O2_9 
REMARK    7  A    between atoms: C7_11  and  O3_12 
REMARK    8  A    between atoms: C7_11  and  S1_14 
REMARK    9  A    between atoms: S1_14  and  C8_15 
REMARK   10  A    between atoms: C8_15  and  C9_16 
REMARK   11  A    between atoms: C10_17  and  O4_18 
REMARK   12  A    between atoms: C14_23  and  O5_24 
ROOT
HETATM    1  C7  UNL     1      25.996 -41.505 -55.891  1.00  0.00     0.186 C 
ENDROOT
BRANCH   1   2
HETATM    2  C3  UNL     1      26.137 -40.955 -57.307  1.00  0.00     0.058 C 
BRANCH   2   3
HETATM    3  C2  UNL     1      27.495 -40.961 -57.870  1.00  0.00     0.121 C 
HETATM    4  C1  UNL     1      28.594 -41.438 -56.954  1.00  0.00     0.040 C 
BRANCH   3   5
HETATM    5  O1  UNL     1      27.834 -39.612 -58.146  1.00  0.00    -0.395 OA
ATOM      6  H1  UNL     1      28.207 -39.639 -59.019  1.00  0.00     0.210 HD
ENDBRANCH   3   5
ENDBRANCH   2   3
BRANCH   2   7
HETATM    7  C4  UNL     1      25.117 -41.708 -58.124  1.00  0.00     0.015 C 
HETATM    8  C5  UNL     1      25.798 -42.436 -59.253  1.00  0.00     0.012 C 
BRANCH   7   9
HETATM    9  C6  UNL     1      23.988 -40.902 -58.659  1.00  0.00     0.168 C 
BRANCH   9  10
HETATM   10  O2  UNL     1      23.297 -40.192 -57.675  1.00  0.00    -0.400 OA
ATOM     11  H2  UNL     1      22.454 -40.571 -57.457  1.00  0.00     0.209 HD
ENDBRANCH   9  10
ENDBRANCH   7   9
ENDBRANCH   2   7
ENDBRANCH   1   2
BRANCH   1  12
HETATM   12  O3  UNL     1      24.886 -42.327 -55.934  1.00  0.00    -0.385 OA
ATOM     13  H3  UNL     1      24.169 -41.789 -55.617  1.00  0.00     0.211 HD
ENDBRANCH   1  12
BRANCH   1  14
HETATM   14  S1  UNL     1      25.881 -40.266 -54.654  1.00  0.00    -0.137 SA
BRANCH  14  15
HETATM   15  C8  UNL     1      26.070 -38.614 -55.201  1.00  0.00     0.086 C 
BRANCH  15  16
HETATM   16  C9  UNL     1      26.064 -37.488 -54.274  1.00  0.00     0.052 C 
HETATM   17  C10 UNL     1      26.963 -37.619 -53.048  1.00  0.00     0.125 C 
HETATM   18  C11 UNL     1      26.419 -36.733 -51.998  1.00  0.00     0.032 C 
HETATM   19  C12 UNL     1      25.708 -35.502 -52.351  1.00  0.00     0.005 C 
HETATM   20  C13 UNL     1      25.269 -35.304 -53.769  1.00  0.00     0.032 C 
HETATM   21  C14 UNL     1      26.222 -36.080 -54.716  1.00  0.00     0.125 C 
BRANCH  17  22
HETATM   22  O4  UNL     1      28.294 -37.451 -53.306  1.00  0.00    -0.395 OA
ATOM     23  H4  UNL     1      28.549 -36.552 -53.479  1.00  0.00     0.210 HD
ENDBRANCH  17  22
BRANCH  21  24
HETATM   24  O5  UNL     1      27.508 -35.568 -54.423  1.00  0.00    -0.395 OA
ATOM     25  H5  UNL     1      27.512 -34.619 -54.364  1.00  0.00     0.210 HD
ENDBRANCH  21  24
ENDBRANCH  15  16
ENDBRANCH  14  15
ENDBRANCH   1  14
TORSDOF 12
ENDMDL
MODEL 4
REMARK VINA RESULT: -5.757312070      1.911      3.118
REMARK  12 active torsions:
REMARK  status: ('A' for Active; 'I' for Inactive)
REMARK    1  A    between atoms: C2_2  and  O1_3 
REMARK    2  A    between atoms: C2_2  and  C3_5 
REMARK    3  A    between atoms: C3_5  and  C4_6 
REMARK    4  A    between atoms: C3_5  and  C7_11 
REMARK    5  A    between atoms: C4_6  and  C6_8 
REMARK    6  A    between atoms: C6_8  and  O2_9 
REMARK    7  A    between atoms: C7_11  and  O3_12 
REMARK    8  A    between atoms: C7_11  and  S1_14 
REMARK    9  A    between atoms: S1_14  and  C8_15 
REMARK   10  A    between atoms: C8_15  and  C9_16 
REMARK   11  A    between atoms: C10_17  and  O4_18 
REMARK   12  A    between atoms: C14_23  and  O5_24 
ROOT
HETATM    1  C7  UNL     1      25.674 -41.449 -56.479  1.00  0.00     0.186 C 
ENDROOT
BRANCH   1   2
HETATM    2  C3  UNL     1      25.978 -41.089 -57.930  1.00  0.00     0.058 C 
BRANCH   2   3
HETATM    3  C2  UNL     1      27.398 -40.909 -58.266  1.00  0.00     0.121 C 
HETATM    4  C1  UNL     1      28.376 -41.042 -57.125  1.00  0.00     0.040 C 
BRANCH   3   5
HETATM    5  O1  UNL     1      27.553 -39.568 -58.701  1.00  0.00    -0.395 OA
ATOM      6  H1  UNL     1      27.753 -39.646 -59.627  1.00  0.00     0.210 HD
ENDBRANCH   3   5
ENDBRANCH   2   3
BRANCH   2   7
HETATM    7  C4  UNL     1      25.269 -42.136 -58.750  1.00  0.00     0.015 C 
HETATM    8  C5  UNL     1      26.275 -42.988 -59.479  1.00  0.00     0.012 C 
BRANCH   7   9
HETATM    9  C6  UNL     1      24.252 -41.631 -59.711  1.00  0.00     0.168 C 
BRANCH   9  10
HETATM   10  O2  UNL     1      24.288 -42.277 -60.948  1.00  0.00    -0.400 OA
ATOM     11  H2  UNL     1      23.514 -42.798 -61.124  1.00  0.00     0.209 HD
ENDBRANCH   9  10
ENDBRANCH   7   9
ENDBRANCH   2   7
ENDBRANCH   1   2
BRANCH   1  12
HETATM   12  O3  UNL     1      24.901 -42.592 -56.546  1.00  0.00    -0.385 OA
ATOM     13  H3  UNL     1      24.067 -42.305 -56.898  1.00  0.00     0.211 HD
ENDBRANCH   1  12
BRANCH   1  14
HETATM   14  S1  UNL     1      24.905 -40.158 -55.572  1.00  0.00    -0.137 SA
BRANCH  14  15
HETATM   15  C8  UNL     1      25.788 -39.564 -54.181  1.00  0.00     0.086 C 
BRANCH  15  16
HETATM   16  C9  UNL     1      26.492 -38.288 -54.201  1.00  0.00     0.052 C 
HETATM   17  C10 UNL     1      27.459 -38.069 -55.361  1.00  0.00     0.125 C 
HETATM   18  C11 UNL     1      28.454 -37.065 -54.931  1.00  0.00     0.032 C 
HETATM   19  C12 UNL     1      28.096 -36.020 -53.969  1.00  0.00     0.005 C 
HETATM   20  C13 UNL     1      26.820 -36.156 -53.197  1.00  0.00     0.032 C 
HETATM   21  C14 UNL     1      25.803 -36.984 -54.026  1.00  0.00     0.125 C 
BRANCH  17  22
HETATM   22  O4  UNL     1      26.852 -37.799 -56.555  1.00  0.00    -0.395 OA
ATOM     23  H4  UNL     1      26.495 -38.562 -56.995  1.00  0.00     0.210 HD
ENDBRANCH  17  22
BRANCH  21  24
HETATM   24  O5  UNL     1      25.679 -36.277 -55.244  1.00  0.00    -0.395 OA
ATOM     25  H5  UNL     1      25.879 -36.821 -55.998  1.00  0.00     0.210 HD
ENDBRANCH  21  24
ENDBRANCH  15  16
ENDBRANCH  14  15
ENDBRANCH   1  14
TORSDOF 12
ENDMDL
MODEL 5
REMARK VINA RESULT: -5.606321088      1.680      6.856
REMARK  12 active torsions:
REMARK  status: ('A' for Active; 'I' for Inactive)
REMARK    1  A    between atoms: C2_2  and  O1_3 
REMARK    2  A    between atoms: C2_2  and  C3_5 
REMARK    3  A    between atoms: C3_5  and  C4_6 
REMARK    4  A    between atoms: C3_5  and  C7_11 
REMARK    5  A    between atoms: C4_6  and  C6_8 
REMARK    6  A    between atoms: C6_8  and  O2_9 
REMARK    7  A    between atoms: C7_11  and  O3_12 
REMARK    8  A    between atoms: C7_11  and  S1_14 
REMARK    9  A    between atoms: S1_14  and  C8_15 
REMARK   10  A    between atoms: C8_15  and  C9_16 
REMARK   11  A    between atoms: C10_17  and  O4_18 
REMARK   12  A    between atoms: C14_23  and  O5_24 
ROOT
HETATM    1  C7  UNL     1      25.944 -39.437 -54.480  1.00  0.00     0.186 C 
ENDROOT
BRANCH   1   2
HETATM    2  C3  UNL     1      26.895 -38.245 -54.440  1.00  0.00     0.058 C 
BRANCH   2   3
HETATM    3  C2  UNL     1      27.460 -37.827 -55.731  1.00  0.00     0.121 C 
HETATM    4  C1  UNL     1      27.884 -38.935 -56.663  1.00  0.00     0.040 C 
BRANCH   3   5
HETATM    5  O1  UNL     1      28.664 -37.132 -55.450  1.00  0.00    -0.395 OA
ATOM      6  H1  UNL     1      29.306 -37.820 -55.325  1.00  0.00     0.210 HD
ENDBRANCH   3   5
ENDBRANCH   2   3
BRANCH   2   7
HETATM    7  C4  UNL     1      26.139 -37.164 -53.710  1.00  0.00     0.015 C 
HETATM    8  C5  UNL     1      25.884 -36.000 -54.631  1.00  0.00     0.012 C 
BRANCH   7   9
HETATM    9  C6  UNL     1      26.756 -36.677 -52.448  1.00  0.00     0.168 C 
BRANCH   9  10
HETATM   10  O2  UNL     1      26.742 -37.622 -51.421  1.00  0.00    -0.400 OA
ATOM     11  H2  UNL     1      27.089 -37.294 -50.601  1.00  0.00     0.209 HD
ENDBRANCH   9  10
ENDBRANCH   7   9
ENDBRANCH   2   7
ENDBRANCH   1   2
BRANCH   1  12
HETATM   12  O3  UNL     1      25.639 -39.698 -53.158  1.00  0.00    -0.385 OA
ATOM     13  H3  UNL     1      24.691 -39.670 -53.112  1.00  0.00     0.211 HD
ENDBRANCH   1  12
BRANCH   1  14
HETATM   14  S1  UNL     1      26.590 -40.836 -55.320  1.00  0.00    -0.137 SA
BRANCH  14  15
HETATM   15  C8  UNL     1      25.419 -41.860 -56.122  1.00  0.00     0.086 C 
BRANCH  15  16
HETATM   16  C9  UNL     1      25.387 -42.008 -57.572  1.00  0.00     0.052 C 
HETATM   17  C10 UNL     1      24.502 -41.023 -58.331  1.00  0.00     0.125 C 
HETATM   18  C11 UNL     1      24.141 -41.648 -59.620  1.00  0.00     0.032 C 
HETATM   19  C12 UNL     1      25.051 -42.588 -60.278  1.00  0.00     0.005 C 
HETATM   20  C13 UNL     1      26.200 -43.146 -59.496  1.00  0.00     0.032 C 
HETATM   21  C14 UNL     1      26.615 -42.133 -58.397  1.00  0.00     0.125 C 
BRANCH  17  22
HETATM   22  O4  UNL     1      25.021 -39.763 -58.430  1.00  0.00    -0.395 OA
ATOM     23  H4  UNL     1      25.487 -39.594 -59.241  1.00  0.00     0.210 HD
ENDBRANCH  17  22
BRANCH  21  24
HETATM   24  O5  UNL     1      26.908 -40.943 -59.103  1.00  0.00    -0.395 OA
ATOM     25  H5  UNL     1      27.298 -41.116 -59.953  1.00  0.00     0.210 HD
ENDBRANCH  21  24
ENDBRANCH  15  16
ENDBRANCH  14  15
ENDBRANCH   1  14
TORSDOF 12
ENDMDL
