MODEL 1
REMARK VINA RESULT: -5.547290445      0.000      0.000
REMARK  12 active torsions:
REMARK  status: ('A' for Active; 'I' for Inactive)
REMARK    1  A    between atoms: C3_3  and  N1_4 
REMARK    2  A    between atoms: N1_4  and  C4_5 
REMARK       I    between atoms: N1_4  and  C7_12 
REMARK    3  A    between atoms: C4_5  and  C5_6 
REMARK    4  A    between atoms: C5_6  and  C6_7 
REMARK    5  A    between atoms: C6_7  and  N2_8 
REMARK    6  A    between atoms: C7_12  and  C8_14 
REMARK    7  A    between atoms: C8_14  and  C9_15 
REMARK    8  A    between atoms: C9_15  and  C10_16 
REMARK    9  A    between atoms: C10_16  and  C11_17 
REMARK   10  A    between atoms: C11_17  and  N3_18 
REMARK   11  A    between atoms: N7_31  and  C17_32 
REMARK   12  A    between atoms: C19_34  and  O2_35 
ROOT
HETATM    1  C1  UNL     1       7.070   1.933  22.247  1.00  0.00     0.098 C 
HETATM    2  C2  UNL     1       8.271   2.144  22.314  1.00  0.00    -0.168 C 
HETATM    3  C3  UNL     1       9.706   2.396  22.411  1.00  0.00     0.205 C 
ENDROOT
BRANCH   3   4
HETATM    4  N1  UNL     1       9.911   3.808  22.843  1.00  0.00    -0.343 N 
HETATM    5  C7  UNL     1      10.898   4.103  23.800  1.00  0.00     0.220 C 
HETATM    6  O1  UNL     1      11.557   3.106  24.271  1.00  0.00    -0.273 OA
BRANCH   4   7
HETATM    7  C4  UNL     1       9.071   4.812  22.275  1.00  0.00     0.128 C 
BRANCH   7   8
HETATM    8  C5  UNL     1       8.052   5.426  23.172  1.00  0.00     0.047 C 
BRANCH   8   9
HETATM    9  C6  UNL     1       8.128   6.910  23.317  1.00  0.00     0.231 C 
BRANCH   9  10
HETATM   10  N2  UNL     1       9.073   7.486  22.350  1.00  0.00    -0.079 N 
ATOM     11  H23 UNL     1       9.807   8.020  22.813  1.00  0.00     0.274 HD
ATOM     12  H22 UNL     1       9.653   6.767  21.917  1.00  0.00     0.274 HD
ATOM     13  H21 UNL     1       8.584   8.045  21.650  1.00  0.00     0.274 HD
ENDBRANCH   9  10
ENDBRANCH   8   9
ENDBRANCH   7   8
ENDBRANCH   4   7
BRANCH   5  14
HETATM   14  C8  UNL     1      11.260   5.417  24.318  1.00  0.00     0.103 C 
BRANCH  14  15
HETATM   15  C9  UNL     1      11.349   5.432  25.840  1.00  0.00     0.011 C 
BRANCH  15  16
HETATM   16  C10 UNL     1      10.408   6.387  26.490  1.00  0.00     0.020 C 
BRANCH  16  17
HETATM   17  C11 UNL     1       9.137   5.612  26.860  1.00  0.00     0.121 C 
BRANCH  17  18
HETATM   18  N3  UNL     1       9.270   4.223  26.550  1.00  0.00    -0.374 N 
HETATM   19  C12 UNL     1       8.298   3.415  26.336  1.00  0.00     0.133 A 
HETATM   20  N4  UNL     1       6.994   3.751  26.368  1.00  0.00    -0.337 N 
HETATM   21  C15 UNL     1       8.596   2.090  26.047  1.00  0.00     0.122 A 
HETATM   22  C13 UNL     1       6.035   2.828  26.127  1.00  0.00     0.183 A 
ATOM     23  H4  UNL     1       6.726   4.713  26.575  1.00  0.00     0.168 HD
HETATM   24  N5  UNL     1       6.337   1.547  25.848  1.00  0.00    -0.336 N 
HETATM   25  C14 UNL     1       7.609   1.150  25.800  1.00  0.00     0.140 A 
ATOM     26  H5  UNL     1       5.589   0.876  25.671  1.00  0.00     0.168 HD
HETATM   27  N7  UNL     1       8.173  -0.041  25.552  1.00  0.00    -0.322 N 
HETATM   28  C16 UNL     1       9.506   0.162  25.642  1.00  0.00     0.185 A 
HETATM   29  N6  UNL     1       9.750   1.432  25.937  1.00  0.00    -0.346 N 
ATOM     30  H6  UNL     1      10.676   1.841  26.061  1.00  0.00     0.167 HD
ATOM     31  H3  UNL     1      10.215   3.843  26.494  1.00  0.00     0.161 HD
BRANCH  27  32
HETATM   32  C17 UNL     1       7.573  -1.280  25.251  1.00  0.00     0.095 C 
HETATM   33  C18 UNL     1       6.623  -1.280  24.075  1.00  0.00     0.058 C 
HETATM   34  C19 UNL     1       6.308  -2.760  23.993  1.00  0.00     0.130 C 
HETATM   35  C21 UNL     1       7.526  -3.488  24.523  1.00  0.00    -0.020 C 
HETATM   36  C22 UNL     1       8.085  -4.475  23.531  1.00  0.00     0.017 C 
HETATM   37  C23 UNL     1       7.185  -4.130  25.845  1.00  0.00     0.017 C 
HETATM   38  C24 UNL     1       8.534  -2.377  24.823  1.00  0.00     0.037 C 
BRANCH  34  39
HETATM   39  O2  UNL     1       5.903  -3.178  22.760  1.00  0.00    -0.390 OA
HETATM   40  C20 UNL     1       4.686  -2.653  22.348  1.00  0.00     0.202 C 
ENDBRANCH  34  39
ENDBRANCH  27  32
ENDBRANCH  17  18
ENDBRANCH  16  17
ENDBRANCH  15  16
ENDBRANCH  14  15
ENDBRANCH   5  14
ENDBRANCH   3   4
TORSDOF 12
ENDMDL
MODEL 2
REMARK VINA RESULT: -5.338759105      2.396      4.352
REMARK  12 active torsions:
REMARK  status: ('A' for Active; 'I' for Inactive)
REMARK    1  A    between atoms: C3_3  and  N1_4 
REMARK    2  A    between atoms: N1_4  and  C4_5 
REMARK       I    between atoms: N1_4  and  C7_12 
REMARK    3  A    between atoms: C4_5  and  C5_6 
REMARK    4  A    between atoms: C5_6  and  C6_7 
REMARK    5  A    between atoms: C6_7  and  N2_8 
REMARK    6  A    between atoms: C7_12  and  C8_14 
REMARK    7  A    between atoms: C8_14  and  C9_15 
REMARK    8  A    between atoms: C9_15  and  C10_16 
REMARK    9  A    between atoms: C10_16  and  C11_17 
REMARK   10  A    between atoms: C11_17  and  N3_18 
REMARK   11  A    between atoms: N7_31  and  C17_32 
REMARK   12  A    between atoms: C19_34  and  O2_35 
ROOT
HETATM    1  C1  UNL     1       7.103   5.414  28.760  1.00  0.00     0.098 C 
HETATM    2  C2  UNL     1       7.772   4.979  27.836  1.00  0.00    -0.168 C 
HETATM    3  C3  UNL     1       8.587   4.464  26.739  1.00  0.00     0.205 C 
ENDROOT
BRANCH   3   4
HETATM    4  N1  UNL     1       9.079   5.617  25.932  1.00  0.00    -0.343 N 
HETATM    5  C7  UNL     1       8.436   5.941  24.724  1.00  0.00     0.220 C 
HETATM    6  O1  UNL     1       7.458   5.185  24.373  1.00  0.00    -0.273 OA
BRANCH   4   7
HETATM    7  C4  UNL     1      10.209   6.341  26.416  1.00  0.00     0.128 C 
BRANCH   7   8
HETATM    8  C5  UNL     1       9.980   7.756  26.826  1.00  0.00     0.047 C 
BRANCH   8   9
HETATM    9  C6  UNL     1       9.842   7.988  28.294  1.00  0.00     0.231 C 
BRANCH   9  10
HETATM   10  N2  UNL     1       8.614   8.735  28.596  1.00  0.00    -0.079 N 
ATOM     11  H23 UNL     1       8.629   9.667  28.184  1.00  0.00     0.274 HD
ATOM     12  H22 UNL     1       7.810   8.356  28.094  1.00  0.00     0.274 HD
ATOM     13  H21 UNL     1       8.445   8.770  29.602  1.00  0.00     0.274 HD
ENDBRANCH   9  10
ENDBRANCH   8   9
ENDBRANCH   7   8
ENDBRANCH   4   7
BRANCH   5  14
HETATM   14  C8  UNL     1       8.755   7.042  23.823  1.00  0.00     0.103 C 
BRANCH  14  15
HETATM   15  C9  UNL     1       9.221   6.553  22.457  1.00  0.00     0.011 C 
BRANCH  15  16
HETATM   16  C10 UNL     1      10.691   6.318  22.371  1.00  0.00     0.020 C 
BRANCH  16  17
HETATM   17  C11 UNL     1      10.912   5.045  21.543  1.00  0.00     0.121 C 
BRANCH  17  18
HETATM   18  N3  UNL     1      10.207   3.935  22.103  1.00  0.00    -0.374 N 
HETATM   19  C12 UNL     1      10.475   3.376  23.225  1.00  0.00     0.133 A 
HETATM   20  N4  UNL     1      11.466   3.750  24.056  1.00  0.00    -0.337 N 
HETATM   21  C15 UNL     1       9.692   2.302  23.627  1.00  0.00     0.122 A 
HETATM   22  C13 UNL     1      11.673   3.099  25.223  1.00  0.00     0.183 A 
ATOM     23  H4  UNL     1      12.067   4.534  23.803  1.00  0.00     0.168 HD
HETATM   24  N5  UNL     1      10.908   2.060  25.602  1.00  0.00    -0.336 N 
HETATM   25  C14 UNL     1       9.909   1.640  24.825  1.00  0.00     0.140 A 
ATOM     26  H5  UNL     1      11.092   1.591  26.489  1.00  0.00     0.168 HD
HETATM   27  N7  UNL     1       9.015   0.650  24.961  1.00  0.00    -0.322 N 
HETATM   28  C16 UNL     1       8.245   0.700  23.852  1.00  0.00     0.185 A 
HETATM   29  N6  UNL     1       8.654   1.685  23.063  1.00  0.00    -0.346 N 
ATOM     30  H6  UNL     1       8.238   1.932  22.165  1.00  0.00     0.167 HD
ATOM     31  H3  UNL     1       9.426   3.557  21.566  1.00  0.00     0.161 HD
BRANCH  27  32
HETATM   32  C17 UNL     1       8.850  -0.281  26.006  1.00  0.00     0.095 C 
HETATM   33  C18 UNL     1       7.711  -1.260  25.838  1.00  0.00     0.058 C 
HETATM   34  C19 UNL     1       7.942  -2.141  27.050  1.00  0.00     0.130 C 
HETATM   35  C21 UNL     1       9.429  -2.102  27.330  1.00  0.00    -0.020 C 
HETATM   36  C22 UNL     1      10.051  -3.474  27.341  1.00  0.00     0.017 C 
HETATM   37  C23 UNL     1       9.673  -1.349  28.614  1.00  0.00     0.017 C 
HETATM   38  C24 UNL     1      10.009  -1.244  26.203  1.00  0.00     0.037 C 
BRANCH  34  39
HETATM   39  O2  UNL     1       7.431  -3.399  26.931  1.00  0.00    -0.390 OA
HETATM   40  C20 UNL     1       6.234  -3.598  27.605  1.00  0.00     0.202 C 
ENDBRANCH  34  39
ENDBRANCH  27  32
ENDBRANCH  17  18
ENDBRANCH  16  17
ENDBRANCH  15  16
ENDBRANCH  14  15
ENDBRANCH   5  14
ENDBRANCH   3   4
TORSDOF 12
ENDMDL
MODEL 3
REMARK VINA RESULT: -5.317895453      1.773      2.861
REMARK  12 active torsions:
REMARK  status: ('A' for Active; 'I' for Inactive)
REMARK    1  A    between atoms: C3_3  and  N1_4 
REMARK    2  A    between atoms: N1_4  and  C4_5 
REMARK       I    between atoms: N1_4  and  C7_12 
REMARK    3  A    between atoms: C4_5  and  C5_6 
REMARK    4  A    between atoms: C5_6  and  C6_7 
REMARK    5  A    between atoms: C6_7  and  N2_8 
REMARK    6  A    between atoms: C7_12  and  C8_14 
REMARK    7  A    between atoms: C8_14  and  C9_15 
REMARK    8  A    between atoms: C9_15  and  C10_16 
REMARK    9  A    between atoms: C10_16  and  C11_17 
REMARK   10  A    between atoms: C11_17  and  N3_18 
REMARK   11  A    between atoms: N7_31  and  C17_32 
REMARK   12  A    between atoms: C19_34  and  O2_35 
ROOT
HETATM    1  C1  UNL     1       6.932   4.579  22.368  1.00  0.00     0.098 C 
HETATM    2  C2  UNL     1       6.896   4.724  23.580  1.00  0.00    -0.168 C 
HETATM    3  C3  UNL     1       6.843   4.913  25.027  1.00  0.00     0.205 C 
ENDROOT
BRANCH   3   4
HETATM    4  N1  UNL     1       7.877   5.916  25.411  1.00  0.00    -0.343 N 
HETATM    5  C7  UNL     1       8.935   5.531  26.254  1.00  0.00     0.220 C 
HETATM    6  O1  UNL     1       8.926   4.316  26.669  1.00  0.00    -0.273 OA
BRANCH   4   7
HETATM    7  C4  UNL     1       7.736   7.248  24.918  1.00  0.00     0.128 C 
BRANCH   7   8
HETATM    8  C5  UNL     1       7.071   8.233  25.817  1.00  0.00     0.047 C 
BRANCH   8   9
HETATM    9  C6  UNL     1       7.622   9.620  25.775  1.00  0.00     0.231 C 
BRANCH   9  10
HETATM   10  N2  UNL     1       8.980   9.664  26.334  1.00  0.00    -0.079 N 
ATOM     11  H23 UNL     1       9.059   9.094  27.175  1.00  0.00     0.274 HD
ATOM     12  H22 UNL     1       9.646   9.164  25.744  1.00  0.00     0.274 HD
ATOM     13  H21 UNL     1       9.275  10.627  26.502  1.00  0.00     0.274 HD
ENDBRANCH   9  10
ENDBRANCH   8   9
ENDBRANCH   7   8
ENDBRANCH   4   7
BRANCH   5  14
HETATM   14  C8  UNL     1      10.046   6.359  26.709  1.00  0.00     0.103 C 
BRANCH  14  15
HETATM   15  C9  UNL     1      11.337   6.054  25.960  1.00  0.00     0.011 C 
BRANCH  15  16
HETATM   16  C10 UNL     1      11.170   5.965  24.481  1.00  0.00     0.020 C 
BRANCH  16  17
HETATM   17  C11 UNL     1      11.827   4.660  24.015  1.00  0.00     0.121 C 
BRANCH  17  18
HETATM   18  N3  UNL     1      11.213   3.523  24.626  1.00  0.00    -0.374 N 
HETATM   19  C12 UNL     1      10.448   2.685  24.029  1.00  0.00     0.133 A 
HETATM   20  N4  UNL     1      10.105   2.743  22.729  1.00  0.00    -0.337 N 
HETATM   21  C15 UNL     1       9.928   1.630  24.768  1.00  0.00     0.122 A 
HETATM   22  C13 UNL     1       9.291   1.809  22.185  1.00  0.00     0.183 A 
ATOM     23  H4  UNL     1      10.463   3.499  22.146  1.00  0.00     0.168 HD
HETATM   24  N5  UNL     1       8.793   0.792  22.911  1.00  0.00    -0.336 N 
HETATM   25  C14 UNL     1       9.096   0.677  24.204  1.00  0.00     0.140 A 
ATOM     26  H5  UNL     1       8.182   0.105  22.469  1.00  0.00     0.168 HD
HETATM   27  N7  UNL     1       8.741  -0.220  25.137  1.00  0.00    -0.322 N 
HETATM   28  C16 UNL     1       9.355   0.176  26.274  1.00  0.00     0.185 A 
HETATM   29  N6  UNL     1      10.059   1.277  26.047  1.00  0.00    -0.346 N 
ATOM     30  H6  UNL     1      10.613   1.777  26.742  1.00  0.00     0.167 HD
ATOM     31  H3  UNL     1      11.398   3.366  25.616  1.00  0.00     0.161 HD
BRANCH  27  32
HETATM   32  C17 UNL     1       7.915  -1.357  25.029  1.00  0.00     0.095 C 
HETATM   33  C18 UNL     1       6.743  -1.228  24.084  1.00  0.00     0.058 C 
HETATM   34  C19 UNL     1       6.204  -2.644  24.141  1.00  0.00     0.130 C 
HETATM   35  C21 UNL     1       7.388  -3.541  24.434  1.00  0.00    -0.020 C 
HETATM   36  C22 UNL     1       7.568  -4.617  23.394  1.00  0.00     0.017 C 
HETATM   37  C23 UNL     1       7.253  -4.104  25.827  1.00  0.00     0.017 C 
HETATM   38  C24 UNL     1       8.589  -2.593  24.459  1.00  0.00     0.037 C 
BRANCH  34  39
HETATM   39  O2  UNL     1       5.485  -3.012  23.044  1.00  0.00    -0.390 OA
HETATM   40  C20 UNL     1       4.638  -2.026  22.556  1.00  0.00     0.202 C 
ENDBRANCH  34  39
ENDBRANCH  27  32
ENDBRANCH  17  18
ENDBRANCH  16  17
ENDBRANCH  15  16
ENDBRANCH  14  15
ENDBRANCH   5  14
ENDBRANCH   3   4
TORSDOF 12
ENDMDL
MODEL 4
REMARK VINA RESULT: -5.276501807      1.877      3.626
REMARK  12 active torsions:
REMARK  status: ('A' for Active; 'I' for Inactive)
REMARK    1  A    between atoms: C3_3  and  N1_4 
REMARK    2  A    between atoms: N1_4  and  C4_5 
REMARK       I    between atoms: N1_4  and  C7_12 
REMARK    3  A    between atoms: C4_5  and  C5_6 
REMARK    4  A    between atoms: C5_6  and  C6_7 
REMARK    5  A    between atoms: C6_7  and  N2_8 
REMARK    6  A    between atoms: C7_12  and  C8_14 
REMARK    7  A    between atoms: C8_14  and  C9_15 
REMARK    8  A    between atoms: C9_15  and  C10_16 
REMARK    9  A    between atoms: C10_16  and  C11_17 
REMARK   10  A    between atoms: C11_17  and  N3_18 
REMARK   11  A    between atoms: N7_31  and  C17_32 
REMARK   12  A    between atoms: C19_34  and  O2_35 
ROOT
HETATM    1  C1  UNL     1       4.117   4.397  24.686  1.00  0.00     0.098 C 
HETATM    2  C2  UNL     1       5.286   4.075  24.545  1.00  0.00    -0.168 C 
HETATM    3  C3  UNL     1       6.684   3.683  24.393  1.00  0.00     0.205 C 
ENDROOT
BRANCH   3   4
HETATM    4  N1  UNL     1       7.534   4.663  25.129  1.00  0.00    -0.343 N 
HETATM    5  C7  UNL     1       8.413   5.493  24.411  1.00  0.00     0.220 C 
HETATM    6  O1  UNL     1       8.447   5.328  23.138  1.00  0.00    -0.273 OA
BRANCH   4   7
HETATM    7  C4  UNL     1       7.432   4.704  26.552  1.00  0.00     0.128 C 
BRANCH   7   8
HETATM    8  C5  UNL     1       8.207   3.684  27.313  1.00  0.00     0.047 C 
BRANCH   8   9
HETATM    9  C6  UNL     1       7.411   2.548  27.867  1.00  0.00     0.231 C 
BRANCH   9  10
HETATM   10  N2  UNL     1       8.137   1.877  28.953  1.00  0.00    -0.079 N 
ATOM     11  H23 UNL     1       8.899   2.453  29.308  1.00  0.00     0.274 HD
ATOM     12  H22 UNL     1       7.575   1.820  29.803  1.00  0.00     0.274 HD
ATOM     13  H21 UNL     1       8.467   0.957  28.658  1.00  0.00     0.274 HD
ENDBRANCH   9  10
ENDBRANCH   8   9
ENDBRANCH   7   8
ENDBRANCH   4   7
BRANCH   5  14
HETATM   14  C8  UNL     1       9.292   6.522  24.951  1.00  0.00     0.103 C 
BRANCH  14  15
HETATM   15  C9  UNL     1      10.765   6.197  24.731  1.00  0.00     0.011 C 
BRANCH  15  16
HETATM   16  C10 UNL     1      11.379   5.403  25.833  1.00  0.00     0.020 C 
BRANCH  16  17
HETATM   17  C11 UNL     1      12.058   4.180  25.204  1.00  0.00     0.121 C 
BRANCH  17  18
HETATM   18  N3  UNL     1      11.320   2.985  25.467  1.00  0.00    -0.374 N 
HETATM   19  C12 UNL     1      10.553   2.389  24.631  1.00  0.00     0.133 A 
HETATM   20  N4  UNL     1      10.324   2.794  23.368  1.00  0.00    -0.337 N 
HETATM   21  C15 UNL     1       9.903   1.232  25.044  1.00  0.00     0.122 A 
HETATM   22  C13 UNL     1       9.498   2.097  22.555  1.00  0.00     0.183 A 
ATOM     23  H4  UNL     1      10.780   3.638  23.019  1.00  0.00     0.168 HD
HETATM   24  N5  UNL     1       8.874   0.979  22.967  1.00  0.00    -0.336 N 
HETATM   25  C14 UNL     1       9.059   0.523  24.206  1.00  0.00     0.140 A 
ATOM     26  H5  UNL     1       8.257   0.478  22.328  1.00  0.00     0.168 HD
HETATM   27  N7  UNL     1       8.569  -0.542  24.857  1.00  0.00    -0.322 N 
HETATM   28  C16 UNL     1       9.110  -0.493  26.094  1.00  0.00     0.185 A 
HETATM   29  N6  UNL     1       9.903   0.566  26.198  1.00  0.00    -0.346 N 
ATOM     30  H6  UNL     1      10.429   0.828  27.031  1.00  0.00     0.167 HD
ATOM     31  H3  UNL     1      11.410   2.573  26.396  1.00  0.00     0.161 HD
BRANCH  27  32
HETATM   32  C17 UNL     1       7.680  -1.542  24.414  1.00  0.00     0.095 C 
HETATM   33  C18 UNL     1       8.048  -2.959  24.789  1.00  0.00     0.058 C 
HETATM   34  C19 UNL     1       6.826  -3.692  24.272  1.00  0.00     0.130 C 
HETATM   35  C21 UNL     1       5.673  -2.714  24.353  1.00  0.00    -0.020 C 
HETATM   36  C22 UNL     1       4.525  -3.243  25.172  1.00  0.00     0.017 C 
HETATM   37  C23 UNL     1       5.254  -2.325  22.957  1.00  0.00     0.017 C 
HETATM   38  C24 UNL     1       6.277  -1.463  24.994  1.00  0.00     0.037 C 
BRANCH  34  39
HETATM   39  O2  UNL     1       6.588  -4.885  24.887  1.00  0.00    -0.390 OA
HETATM   40  C20 UNL     1       6.737  -5.994  24.065  1.00  0.00     0.202 C 
ENDBRANCH  34  39
ENDBRANCH  27  32
ENDBRANCH  17  18
ENDBRANCH  16  17
ENDBRANCH  15  16
ENDBRANCH  14  15
ENDBRANCH   5  14
ENDBRANCH   3   4
TORSDOF 12
ENDMDL
MODEL 5
REMARK VINA RESULT: -5.257231258      1.627      3.129
REMARK  12 active torsions:
REMARK  status: ('A' for Active; 'I' for Inactive)
REMARK    1  A    between atoms: C3_3  and  N1_4 
REMARK    2  A    between atoms: N1_4  and  C4_5 
REMARK       I    between atoms: N1_4  and  C7_12 
REMARK    3  A    between atoms: C4_5  and  C5_6 
REMARK    4  A    between atoms: C5_6  and  C6_7 
REMARK    5  A    between atoms: C6_7  and  N2_8 
REMARK    6  A    between atoms: C7_12  and  C8_14 
REMARK    7  A    between atoms: C8_14  and  C9_15 
REMARK    8  A    between atoms: C9_15  and  C10_16 
REMARK    9  A    between atoms: C10_16  and  C11_17 
REMARK   10  A    between atoms: C11_17  and  N3_18 
REMARK   11  A    between atoms: N7_31  and  C17_32 
REMARK   12  A    between atoms: C19_34  and  O2_35 
ROOT
HETATM    1  C1  UNL     1       4.312   3.886  25.599  1.00  0.00     0.098 C 
HETATM    2  C2  UNL     1       5.497   3.722  25.354  1.00  0.00    -0.168 C 
HETATM    3  C3  UNL     1       6.917   3.525  25.077  1.00  0.00     0.205 C 
ENDROOT
BRANCH   3   4
HETATM    4  N1  UNL     1       7.627   4.817  25.301  1.00  0.00    -0.343 N 
HETATM    5  C7  UNL     1       8.551   4.926  26.355  1.00  0.00     0.220 C 
HETATM    6  O1  UNL     1       8.707   3.886  27.091  1.00  0.00    -0.273 OA
BRANCH   4   7
HETATM    7  C4  UNL     1       7.318   5.910  24.436  1.00  0.00     0.128 C 
BRANCH   7   8
HETATM    8  C5  UNL     1       7.872   5.853  23.053  1.00  0.00     0.047 C 
BRANCH   8   9
HETATM    9  C6  UNL     1       8.519   7.106  22.564  1.00  0.00     0.231 C 
BRANCH   9  10
HETATM   10  N2  UNL     1       8.313   8.210  23.512  1.00  0.00    -0.079 N 
ATOM     11  H23 UNL     1       8.197   7.869  24.466  1.00  0.00     0.274 HD
ATOM     12  H22 UNL     1       9.164   8.756  23.645  1.00  0.00     0.274 HD
ATOM     13  H21 UNL     1       7.530   8.797  23.224  1.00  0.00     0.274 HD
ENDBRANCH   9  10
ENDBRANCH   8   9
ENDBRANCH   7   8
ENDBRANCH   4   7
BRANCH   5  14
HETATM   14  C8  UNL     1       9.355   6.090  26.706  1.00  0.00     0.103 C 
BRANCH  14  15
HETATM   15  C9  UNL     1      10.830   5.892  26.378  1.00  0.00     0.011 C 
BRANCH  15  16
HETATM   16  C10 UNL     1      11.116   5.798  24.918  1.00  0.00     0.020 C 
BRANCH  16  17
HETATM   17  C11 UNL     1      11.975   4.548  24.690  1.00  0.00     0.121 C 
BRANCH  17  18
HETATM   18  N3  UNL     1      11.287   3.365  25.102  1.00  0.00    -0.374 N 
HETATM   19  C12 UNL     1      10.533   2.648  24.354  1.00  0.00     0.133 A 
HETATM   20  N4  UNL     1      10.272   2.897  23.057  1.00  0.00    -0.337 N 
HETATM   21  C15 UNL     1       9.934   1.525  24.909  1.00  0.00     0.122 A 
HETATM   22  C13 UNL     1       9.462   2.081  22.344  1.00  0.00     0.183 A 
ATOM     23  H4  UNL     1      10.690   3.711  22.605  1.00  0.00     0.168 HD
HETATM   24  N5  UNL     1       8.888   0.995  22.893  1.00  0.00    -0.336 N 
HETATM   25  C14 UNL     1       9.106   0.693  24.173  1.00  0.00     0.140 A 
ATOM     26  H5  UNL     1       8.282   0.401  22.327  1.00  0.00     0.168 HD
HETATM   27  N7  UNL     1       8.666  -0.307  24.951  1.00  0.00    -0.322 N 
HETATM   28  C16 UNL     1       9.222  -0.096  26.164  1.00  0.00     0.185 A 
HETATM   29  N6  UNL     1       9.975   0.996  26.131  1.00  0.00    -0.346 N 
ATOM     30  H6  UNL     1      10.502   1.372  26.919  1.00  0.00     0.167 HD
ATOM     31  H3  UNL     1      11.406   3.067  26.070  1.00  0.00     0.161 HD
BRANCH  27  32
HETATM   32  C17 UNL     1       7.811  -1.384  24.641  1.00  0.00     0.095 C 
HETATM   33  C18 UNL     1       8.034  -2.649  25.438  1.00  0.00     0.058 C 
HETATM   34  C19 UNL     1       6.878  -3.486  24.929  1.00  0.00     0.130 C 
HETATM   35  C21 UNL     1       5.782  -2.515  24.544  1.00  0.00    -0.020 C 
HETATM   36  C22 UNL     1       4.487  -2.793  25.261  1.00  0.00     0.017 C 
HETATM   37  C23 UNL     1       5.622  -2.516  23.044  1.00  0.00     0.017 C 
HETATM   38  C24 UNL     1       6.338  -1.141  24.925  1.00  0.00     0.037 C 
BRANCH  34  39
HETATM   39  O2  UNL     1       6.477  -4.465  25.788  1.00  0.00    -0.390 OA
HETATM   40  C20 UNL     1       7.154  -4.478  27.000  1.00  0.00     0.202 C 
ENDBRANCH  34  39
ENDBRANCH  27  32
ENDBRANCH  17  18
ENDBRANCH  16  17
ENDBRANCH  15  16
ENDBRANCH  14  15
ENDBRANCH   5  14
ENDBRANCH   3   4
TORSDOF 12
ENDMDL
