MODEL 1
REMARK VINA RESULT: -7.214783610      0.000      0.000
REMARK  13 active torsions:
REMARK  status: ('A' for Active; 'I' for Inactive)
REMARK    1  A    between atoms: O1_2  and  C2_3 
REMARK    2  A    between atoms: C2_3  and  C3_4 
REMARK    3  A    between atoms: C4_5  and  C5_6 
REMARK    4  A    between atoms: C5_6  and  O2_12 
REMARK    5  A    between atoms: N1_7  and  N2_9 
REMARK    6  A    between atoms: O2_12  and  C6_13 
REMARK    7  A    between atoms: C6_13  and  C7_14 
REMARK    8  A    between atoms: C7_14  and  C8_15 
REMARK    9  A    between atoms: C10_18  and  C11_19 
REMARK   10  A    between atoms: C11_19  and  O4_20 
REMARK   11  A    between atoms: C15_25  and  O5_26 
REMARK   12  A    between atoms: C16_28  and  C17_29 
REMARK   13  A    between atoms: C21_34  and  O7_35 
ROOT
HETATM    1  C6  UNL     1      19.077  68.819  30.762  1.00  0.00     0.180 C 
ENDROOT
BRANCH   1   2
HETATM    2  O2  UNL     1      19.497  68.269  29.548  1.00  0.00    -0.334 OA
BRANCH   2   3
HETATM    3  C5  UNL     1      18.639  67.356  28.898  1.00  0.00     0.169 C 
HETATM    4  N1  UNL     1      18.288  67.577  27.711  1.00  0.00    -0.286 N 
ATOM      5  H1  UNL     1      18.678  68.435  27.320  1.00  0.00     0.188 HD
BRANCH   3   6
HETATM    6  C4  UNL     1      18.214  66.200  29.668  1.00  0.00     0.052 A 
HETATM    7  C3  UNL     1      18.957  65.048  29.939  1.00  0.00     0.040 A 
HETATM    8  C21 UNL     1      18.166  64.227  30.694  1.00  0.00     0.192 A 
HETATM    9  O6  UNL     1      17.013  64.809  30.889  1.00  0.00    -0.299 OA
HETATM   10  C20 UNL     1      17.005  66.003  30.284  1.00  0.00     0.161 A 
BRANCH   7  11
HETATM   11  C2  UNL     1      20.333  64.839  29.459  1.00  0.00     0.211 C 
BRANCH  11  12
HETATM   12  O1  UNL     1      20.372  63.588  28.815  1.00  0.00    -0.391 OA
HETATM   13  C1  UNL     1      21.544  62.945  29.221  1.00  0.00     0.201 C 
ENDBRANCH  11  12
ENDBRANCH   7  11
BRANCH   8  14
HETATM   14  O7  UNL     1      18.586  62.969  31.156  1.00  0.00    -0.340 OA
ATOM     15  H7  UNL     1      19.177  62.858  31.892  1.00  0.00     0.220 HD
ENDBRANCH   8  14
ENDBRANCH   3   6
BRANCH   4  16
HETATM   16  N2  UNL     1      17.495  66.899  26.851  1.00  0.00    -0.343 N 
ATOM     17  H22 UNL     1      17.292  65.953  27.172  1.00  0.00     0.176 HD
ATOM     18  H21 UNL     1      17.069  67.153  25.960  1.00  0.00     0.176 HD
ENDBRANCH   4  16
ENDBRANCH   2   3
ENDBRANCH   1   2
BRANCH   1  19
HETATM   19  C7  UNL     1      20.176  68.778  31.795  1.00  0.00     0.059 C 
BRANCH  19  20
HETATM   20  C8  UNL     1      19.612  69.015  33.179  1.00  0.00     0.135 C 
HETATM   21  O3  UNL     1      20.561  68.854  34.187  1.00  0.00    -0.349 OA
HETATM   22  C9  UNL     1      19.972  68.340  35.329  1.00  0.00     0.050 C 
HETATM   23  C10 UNL     1      20.623  68.064  36.441  1.00  0.00     0.031 C 
HETATM   24  C12 UNL     1      18.496  68.159  35.075  1.00  0.00     0.056 C 
HETATM   25  C13 UNL     1      18.536  68.056  33.541  1.00  0.00     0.028 C 
HETATM   26  C16 UNL     1      17.994  66.826  35.520  1.00  0.00     0.028 C 
HETATM   27  C14 UNL     1      19.004  66.598  33.429  1.00  0.00     0.040 C 
HETATM   28  C15 UNL     1      17.919  65.958  34.314  1.00  0.00     0.123 C 
BRANCH  23  29
HETATM   29  C11 UNL     1      22.078  68.305  36.514  1.00  0.00     0.194 C 
BRANCH  29  30
HETATM   30  O4  UNL     1      22.394  69.647  36.429  1.00  0.00    -0.397 OA
ATOM     31  H4  UNL     1      23.284  69.791  36.131  1.00  0.00     0.209 HD
ENDBRANCH  29  30
ENDBRANCH  23  29
BRANCH  28  32
HETATM   32  O5  UNL     1      16.757  66.092  33.570  1.00  0.00    -0.395 OA
ATOM     33  H5  UNL     1      16.547  67.017  33.635  1.00  0.00     0.210 HD
ENDBRANCH  28  32
BRANCH  26  34
HETATM   34  C17 UNL     1      16.758  66.873  36.350  1.00  0.00    -0.015 C 
HETATM   35  C18 UNL     1      16.833  67.747  37.555  1.00  0.00     0.010 C 
HETATM   36  C19 UNL     1      16.297  65.504  36.805  1.00  0.00     0.010 C 
ENDBRANCH  26  34
ENDBRANCH  19  20
ENDBRANCH   1  19
TORSDOF 13
ENDMDL
MODEL 2
REMARK VINA RESULT: -7.104254242      1.431      2.021
REMARK  13 active torsions:
REMARK  status: ('A' for Active; 'I' for Inactive)
REMARK    1  A    between atoms: O1_2  and  C2_3 
REMARK    2  A    between atoms: C2_3  and  C3_4 
REMARK    3  A    between atoms: C4_5  and  C5_6 
REMARK    4  A    between atoms: C5_6  and  O2_12 
REMARK    5  A    between atoms: N1_7  and  N2_9 
REMARK    6  A    between atoms: O2_12  and  C6_13 
REMARK    7  A    between atoms: C6_13  and  C7_14 
REMARK    8  A    between atoms: C7_14  and  C8_15 
REMARK    9  A    between atoms: C10_18  and  C11_19 
REMARK   10  A    between atoms: C11_19  and  O4_20 
REMARK   11  A    between atoms: C15_25  and  O5_26 
REMARK   12  A    between atoms: C16_28  and  C17_29 
REMARK   13  A    between atoms: C21_34  and  O7_35 
ROOT
HETATM    1  C6  UNL     1      19.145  69.060  30.755  1.00  0.00     0.180 C 
ENDROOT
BRANCH   1   2
HETATM    2  O2  UNL     1      19.246  68.082  29.762  1.00  0.00    -0.334 OA
BRANCH   2   3
HETATM    3  C5  UNL     1      18.496  66.896  29.916  1.00  0.00     0.169 C 
HETATM    4  N1  UNL     1      17.290  66.968  30.263  1.00  0.00    -0.286 N 
ATOM      5  H1  UNL     1      16.960  67.923  30.404  1.00  0.00     0.188 HD
BRANCH   3   6
HETATM    6  C4  UNL     1      19.193  65.648  29.656  1.00  0.00     0.052 A 
HETATM    7  C3  UNL     1      20.001  65.346  28.557  1.00  0.00     0.040 A 
HETATM    8  C21 UNL     1      20.447  64.064  28.725  1.00  0.00     0.192 A 
HETATM    9  O6  UNL     1      19.963  63.587  29.841  1.00  0.00    -0.299 OA
HETATM   10  C20 UNL     1      19.200  64.516  30.431  1.00  0.00     0.161 A 
BRANCH   7  11
HETATM   11  C2  UNL     1      20.269  66.294  27.463  1.00  0.00     0.211 C 
BRANCH  11  12
HETATM   12  O1  UNL     1      21.657  66.524  27.431  1.00  0.00    -0.391 OA
HETATM   13  C1  UNL     1      21.854  67.838  27.000  1.00  0.00     0.201 C 
ENDBRANCH  11  12
ENDBRANCH   7  11
BRANCH   8  14
HETATM   14  O7  UNL     1      21.291  63.419  27.807  1.00  0.00    -0.340 OA
ATOM     15  H7  UNL     1      22.238  63.480  27.841  1.00  0.00     0.220 HD
ENDBRANCH   8  14
ENDBRANCH   3   6
BRANCH   4  16
HETATM   16  N2  UNL     1      16.345  66.028  30.484  1.00  0.00    -0.343 N 
ATOM     17  H22 UNL     1      16.529  65.163  29.975  1.00  0.00     0.176 HD
ATOM     18  H21 UNL     1      15.498  66.022  31.053  1.00  0.00     0.176 HD
ENDBRANCH   4  16
ENDBRANCH   2   3
ENDBRANCH   1   2
BRANCH   1  19
HETATM   19  C7  UNL     1      20.226  68.903  31.795  1.00  0.00     0.059 C 
BRANCH  19  20
HETATM   20  C8  UNL     1      19.661  69.106  33.184  1.00  0.00     0.135 C 
HETATM   21  O3  UNL     1      20.607  68.910  34.189  1.00  0.00    -0.349 OA
HETATM   22  C9  UNL     1      20.010  68.369  35.315  1.00  0.00     0.050 C 
HETATM   23  C10 UNL     1      20.656  68.057  36.421  1.00  0.00     0.031 C 
HETATM   24  C12 UNL     1      18.533  68.208  35.054  1.00  0.00     0.056 C 
HETATM   25  C13 UNL     1      18.576  68.147  33.517  1.00  0.00     0.028 C 
HETATM   26  C16 UNL     1      18.019  66.868  35.461  1.00  0.00     0.028 C 
HETATM   27  C14 UNL     1      19.032  66.689  33.366  1.00  0.00     0.040 C 
HETATM   28  C15 UNL     1      17.940  66.035  34.231  1.00  0.00     0.123 C 
BRANCH  23  29
HETATM   29  C11 UNL     1      22.113  68.285  36.504  1.00  0.00     0.194 C 
BRANCH  29  30
HETATM   30  O4  UNL     1      22.442  69.624  36.432  1.00  0.00    -0.397 OA
ATOM     31  H4  UNL     1      23.287  69.768  36.021  1.00  0.00     0.209 HD
ENDBRANCH  29  30
ENDBRANCH  23  29
BRANCH  28  32
HETATM   32  O5  UNL     1      16.780  66.199  33.488  1.00  0.00    -0.395 OA
ATOM     33  H5  UNL     1      16.274  66.830  33.988  1.00  0.00     0.210 HD
ENDBRANCH  28  32
BRANCH  26  34
HETATM   34  C17 UNL     1      16.782  66.903  36.289  1.00  0.00    -0.015 C 
HETATM   35  C18 UNL     1      16.871  67.718  37.534  1.00  0.00     0.010 C 
HETATM   36  C19 UNL     1      16.290  65.525  36.679  1.00  0.00     0.010 C 
ENDBRANCH  26  34
ENDBRANCH  19  20
ENDBRANCH   1  19
TORSDOF 13
ENDMDL
MODEL 3
REMARK VINA RESULT: -7.085279066      1.401      1.787
REMARK  13 active torsions:
REMARK  status: ('A' for Active; 'I' for Inactive)
REMARK    1  A    between atoms: O1_2  and  C2_3 
REMARK    2  A    between atoms: C2_3  and  C3_4 
REMARK    3  A    between atoms: C4_5  and  C5_6 
REMARK    4  A    between atoms: C5_6  and  O2_12 
REMARK    5  A    between atoms: N1_7  and  N2_9 
REMARK    6  A    between atoms: O2_12  and  C6_13 
REMARK    7  A    between atoms: C6_13  and  C7_14 
REMARK    8  A    between atoms: C7_14  and  C8_15 
REMARK    9  A    between atoms: C10_18  and  C11_19 
REMARK   10  A    between atoms: C11_19  and  O4_20 
REMARK   11  A    between atoms: C15_25  and  O5_26 
REMARK   12  A    between atoms: C16_28  and  C17_29 
REMARK   13  A    between atoms: C21_34  and  O7_35 
ROOT
HETATM    1  C6  UNL     1      19.071  68.906  30.725  1.00  0.00     0.180 C 
ENDROOT
BRANCH   1   2
HETATM    2  O2  UNL     1      19.254  67.935  29.736  1.00  0.00    -0.334 OA
BRANCH   2   3
HETATM    3  C5  UNL     1      18.271  66.932  29.598  1.00  0.00     0.169 C 
HETATM    4  N1  UNL     1      17.329  66.871  30.429  1.00  0.00    -0.286 N 
ATOM      5  H1  UNL     1      17.375  67.587  31.154  1.00  0.00     0.188 HD
BRANCH   3   6
HETATM    6  C4  UNL     1      18.423  66.022  28.476  1.00  0.00     0.052 A 
HETATM    7  C3  UNL     1      19.128  64.815  28.460  1.00  0.00     0.040 A 
HETATM    8  C21 UNL     1      19.005  64.294  27.201  1.00  0.00     0.192 A 
HETATM    9  O6  UNL     1      18.280  65.103  26.475  1.00  0.00    -0.299 OA
HETATM   10  C20 UNL     1      17.911  66.157  27.212  1.00  0.00     0.161 A 
BRANCH   7  11
HETATM   11  C2  UNL     1      19.844  64.278  29.628  1.00  0.00     0.211 C 
BRANCH  11  12
HETATM   12  O1  UNL     1      21.188  64.090  29.253  1.00  0.00    -0.391 OA
HETATM   13  C1  UNL     1      21.578  62.830  29.714  1.00  0.00     0.201 C 
ENDBRANCH  11  12
ENDBRANCH   7  11
BRANCH   8  14
HETATM   14  O7  UNL     1      19.589  63.077  26.814  1.00  0.00    -0.340 OA
ATOM     15  H7  UNL     1      19.122  62.250  26.826  1.00  0.00     0.220 HD
ENDBRANCH   8  14
ENDBRANCH   3   6
BRANCH   4  16
HETATM   16  N2  UNL     1      16.269  66.042  30.550  1.00  0.00    -0.343 N 
ATOM     17  H22 UNL     1      16.544  65.091  30.792  1.00  0.00     0.176 HD
ATOM     18  H21 UNL     1      15.265  66.188  30.447  1.00  0.00     0.176 HD
ENDBRANCH   4  16
ENDBRANCH   2   3
ENDBRANCH   1   2
BRANCH   1  19
HETATM   19  C7  UNL     1      20.182  68.870  31.745  1.00  0.00     0.059 C 
BRANCH  19  20
HETATM   20  C8  UNL     1      19.630  69.076  33.139  1.00  0.00     0.135 C 
HETATM   21  O3  UNL     1      20.589  68.900  34.134  1.00  0.00    -0.349 OA
HETATM   22  C9  UNL     1      20.013  68.360  35.271  1.00  0.00     0.050 C 
HETATM   23  C10 UNL     1      20.675  68.065  36.372  1.00  0.00     0.031 C 
HETATM   24  C12 UNL     1      18.535  68.177  35.027  1.00  0.00     0.056 C 
HETATM   25  C13 UNL     1      18.562  68.105  33.491  1.00  0.00     0.028 C 
HETATM   26  C16 UNL     1      18.044  66.834  35.450  1.00  0.00     0.028 C 
HETATM   27  C14 UNL     1      19.035  66.652  33.346  1.00  0.00     0.040 C 
HETATM   28  C15 UNL     1      17.961  65.990  34.228  1.00  0.00     0.123 C 
BRANCH  23  29
HETATM   29  C11 UNL     1      22.130  68.313  36.436  1.00  0.00     0.194 C 
BRANCH  29  30
HETATM   30  O4  UNL     1      22.438  69.657  36.382  1.00  0.00    -0.397 OA
ATOM     31  H4  UNL     1      22.524  69.974  35.491  1.00  0.00     0.209 HD
ENDBRANCH  29  30
ENDBRANCH  23  29
BRANCH  28  32
HETATM   32  O5  UNL     1      16.792  66.133  33.497  1.00  0.00    -0.395 OA
ATOM     33  H5  UNL     1      16.126  66.291  34.157  1.00  0.00     0.210 HD
ENDBRANCH  28  32
BRANCH  26  34
HETATM   34  C17 UNL     1      16.815  66.858  36.292  1.00  0.00    -0.015 C 
HETATM   35  C18 UNL     1      16.903  67.694  37.524  1.00  0.00     0.010 C 
HETATM   36  C19 UNL     1      16.354  65.478  36.708  1.00  0.00     0.010 C 
ENDBRANCH  26  34
ENDBRANCH  19  20
ENDBRANCH   1  19
TORSDOF 13
ENDMDL
MODEL 4
REMARK VINA RESULT: -7.028608224      2.364      3.835
REMARK  13 active torsions:
REMARK  status: ('A' for Active; 'I' for Inactive)
REMARK    1  A    between atoms: O1_2  and  C2_3 
REMARK    2  A    between atoms: C2_3  and  C3_4 
REMARK    3  A    between atoms: C4_5  and  C5_6 
REMARK    4  A    between atoms: C5_6  and  O2_12 
REMARK    5  A    between atoms: N1_7  and  N2_9 
REMARK    6  A    between atoms: O2_12  and  C6_13 
REMARK    7  A    between atoms: C6_13  and  C7_14 
REMARK    8  A    between atoms: C7_14  and  C8_15 
REMARK    9  A    between atoms: C10_18  and  C11_19 
REMARK   10  A    between atoms: C11_19  and  O4_20 
REMARK   11  A    between atoms: C15_25  and  O5_26 
REMARK   12  A    between atoms: C16_28  and  C17_29 
REMARK   13  A    between atoms: C21_34  and  O7_35 
ROOT
HETATM    1  C6  UNL     1      21.345  69.972  31.475  1.00  0.00     0.180 C 
ENDROOT
BRANCH   1   2
HETATM    2  O2  UNL     1      21.183  70.813  30.372  1.00  0.00    -0.334 OA
BRANCH   2   3
HETATM    3  C5  UNL     1      21.320  70.255  29.083  1.00  0.00     0.169 C 
HETATM    4  N1  UNL     1      22.304  69.512  28.833  1.00  0.00    -0.286 N 
ATOM      5  H1  UNL     1      22.932  69.383  29.626  1.00  0.00     0.188 HD
BRANCH   3   6
HETATM    6  C4  UNL     1      20.289  70.590  28.115  1.00  0.00     0.052 A 
HETATM    7  C3  UNL     1      19.183  69.814  27.761  1.00  0.00     0.040 A 
HETATM    8  C21 UNL     1      18.484  70.517  26.818  1.00  0.00     0.192 A 
HETATM    9  O6  UNL     1      19.096  71.648  26.590  1.00  0.00    -0.299 OA
HETATM   10  C20 UNL     1      20.191  71.727  27.356  1.00  0.00     0.161 A 
BRANCH   7  11
HETATM   11  C2  UNL     1      18.897  68.493  28.345  1.00  0.00     0.211 C 
BRANCH  11  12
HETATM   12  O1  UNL     1      19.873  67.598  27.867  1.00  0.00    -0.391 OA
HETATM   13  C1  UNL     1      20.040  66.605  28.835  1.00  0.00     0.201 C 
ENDBRANCH  11  12
ENDBRANCH   7  11
BRANCH   8  14
HETATM   14  O7  UNL     1      17.302  70.041  26.226  1.00  0.00    -0.340 OA
ATOM     15  H7  UNL     1      17.053  70.241  25.332  1.00  0.00     0.220 HD
ENDBRANCH   8  14
ENDBRANCH   3   6
BRANCH   4  16
HETATM   16  N2  UNL     1      22.690  68.852  27.719  1.00  0.00    -0.343 N 
ATOM     17  H22 UNL     1      22.052  68.096  27.473  1.00  0.00     0.176 HD
ATOM     18  H21 UNL     1      23.485  68.967  27.091  1.00  0.00     0.176 HD
ENDBRANCH   4  16
ENDBRANCH   2   3
ENDBRANCH   1   2
BRANCH   1  19
HETATM   19  C7  UNL     1      20.131  69.102  31.689  1.00  0.00     0.059 C 
BRANCH  19  20
HETATM   20  C8  UNL     1      19.622  69.240  33.108  1.00  0.00     0.135 C 
HETATM   21  O3  UNL     1      20.614  69.026  34.064  1.00  0.00    -0.349 OA
HETATM   22  C9  UNL     1      20.077  68.430  35.192  1.00  0.00     0.050 C 
HETATM   23  C10 UNL     1      20.775  68.090  36.257  1.00  0.00     0.031 C 
HETATM   24  C12 UNL     1      18.594  68.247  34.986  1.00  0.00     0.056 C 
HETATM   25  C13 UNL     1      18.572  68.245  33.448  1.00  0.00     0.028 C 
HETATM   26  C16 UNL     1      18.125  66.881  35.362  1.00  0.00     0.028 C 
HETATM   27  C14 UNL     1      19.050  66.804  33.222  1.00  0.00     0.040 C 
HETATM   28  C15 UNL     1      18.009  66.094  34.105  1.00  0.00     0.123 C 
BRANCH  23  29
HETATM   29  C11 UNL     1      22.230  68.346  36.287  1.00  0.00     0.194 C 
BRANCH  29  30
HETATM   30  O4  UNL     1      22.528  69.694  36.297  1.00  0.00    -0.397 OA
ATOM     31  H4  UNL     1      22.276  70.126  35.489  1.00  0.00     0.209 HD
ENDBRANCH  29  30
ENDBRANCH  23  29
BRANCH  28  32
HETATM   32  O5  UNL     1      16.816  66.261  33.419  1.00  0.00    -0.395 OA
ATOM     33  H5  UNL     1      16.294  66.808  33.994  1.00  0.00     0.210 HD
ENDBRANCH  28  32
BRANCH  26  34
HETATM   34  C17 UNL     1      16.923  66.857  36.242  1.00  0.00    -0.015 C 
HETATM   35  C18 UNL     1      17.033  67.662  37.492  1.00  0.00     0.010 C 
HETATM   36  C19 UNL     1      16.503  65.456  36.635  1.00  0.00     0.010 C 
ENDBRANCH  26  34
ENDBRANCH  19  20
ENDBRANCH   1  19
TORSDOF 13
ENDMDL
MODEL 5
REMARK VINA RESULT: -6.987963866      1.579      2.354
REMARK  13 active torsions:
REMARK  status: ('A' for Active; 'I' for Inactive)
REMARK    1  A    between atoms: O1_2  and  C2_3 
REMARK    2  A    between atoms: C2_3  and  C3_4 
REMARK    3  A    between atoms: C4_5  and  C5_6 
REMARK    4  A    between atoms: C5_6  and  O2_12 
REMARK    5  A    between atoms: N1_7  and  N2_9 
REMARK    6  A    between atoms: O2_12  and  C6_13 
REMARK    7  A    between atoms: C6_13  and  C7_14 
REMARK    8  A    between atoms: C7_14  and  C8_15 
REMARK    9  A    between atoms: C10_18  and  C11_19 
REMARK   10  A    between atoms: C11_19  and  O4_20 
REMARK   11  A    between atoms: C15_25  and  O5_26 
REMARK   12  A    between atoms: C16_28  and  C17_29 
REMARK   13  A    between atoms: C21_34  and  O7_35 
ROOT
HETATM    1  C6  UNL     1      19.090  69.003  30.689  1.00  0.00     0.180 C 
ENDROOT
BRANCH   1   2
HETATM    2  O2  UNL     1      19.192  68.058  29.664  1.00  0.00    -0.334 OA
BRANCH   2   3
HETATM    3  C5  UNL     1      18.397  66.894  29.750  1.00  0.00     0.169 C 
HETATM    4  N1  UNL     1      17.292  66.944  30.347  1.00  0.00    -0.286 N 
ATOM      5  H1  UNL     1      17.071  67.864  30.728  1.00  0.00     0.188 HD
BRANCH   3   6
HETATM    6  C4  UNL     1      18.930  65.696  29.126  1.00  0.00     0.052 A 
HETATM    7  C3  UNL     1      18.550  65.144  27.900  1.00  0.00     0.040 A 
HETATM    8  C21 UNL     1      19.310  64.022  27.710  1.00  0.00     0.192 A 
HETATM    9  O6  UNL     1      20.109  63.872  28.732  1.00  0.00    -0.299 OA
HETATM   10  C20 UNL     1      19.908  64.865  29.608  1.00  0.00     0.161 A 
BRANCH   7  11
HETATM   11  C2  UNL     1      17.511  65.727  27.034  1.00  0.00     0.211 C 
BRANCH  11  12
HETATM   12  O1  UNL     1      16.267  65.497  27.650  1.00  0.00    -0.391 OA
HETATM   13  C1  UNL     1      15.666  64.422  26.990  1.00  0.00     0.201 C 
ENDBRANCH  11  12
ENDBRANCH   7  11
BRANCH   8  14
HETATM   14  O7  UNL     1      19.200  63.205  26.574  1.00  0.00    -0.340 OA
ATOM     15  H7  UNL     1      18.508  63.302  25.930  1.00  0.00     0.220 HD
ENDBRANCH   8  14
ENDBRANCH   3   6
BRANCH   4  16
HETATM   16  N2  UNL     1      16.339  66.016  30.583  1.00  0.00    -0.343 N 
ATOM     17  H22 UNL     1      15.797  65.793  29.749  1.00  0.00     0.176 HD
ATOM     18  H21 UNL     1      16.066  65.506  31.423  1.00  0.00     0.176 HD
ENDBRANCH   4  16
ENDBRANCH   2   3
ENDBRANCH   1   2
BRANCH   1  19
HETATM   19  C7  UNL     1      20.169  68.812  31.725  1.00  0.00     0.059 C 
BRANCH  19  20
HETATM   20  C8  UNL     1      19.617  69.038  33.115  1.00  0.00     0.135 C 
HETATM   21  O3  UNL     1      20.576  68.870  34.114  1.00  0.00    -0.349 OA
HETATM   22  C9  UNL     1      19.997  68.347  35.257  1.00  0.00     0.050 C 
HETATM   23  C10 UNL     1      20.657  68.063  36.362  1.00  0.00     0.031 C 
HETATM   24  C12 UNL     1      18.518  68.166  35.015  1.00  0.00     0.056 C 
HETATM   25  C13 UNL     1      18.546  68.075  33.479  1.00  0.00     0.028 C 
HETATM   26  C16 UNL     1      18.022  66.829  35.454  1.00  0.00     0.028 C 
HETATM   27  C14 UNL     1      19.014  66.618  33.353  1.00  0.00     0.040 C 
HETATM   28  C15 UNL     1      17.938  65.971  34.242  1.00  0.00     0.123 C 
BRANCH  23  29
HETATM   29  C11 UNL     1      22.113  68.306  36.424  1.00  0.00     0.194 C 
BRANCH  29  30
HETATM   30  O4  UNL     1      22.424  69.652  36.395  1.00  0.00    -0.397 OA
ATOM     31  H4  UNL     1      23.080  69.885  37.042  1.00  0.00     0.209 HD
ENDBRANCH  29  30
ENDBRANCH  23  29
BRANCH  28  32
HETATM   32  O5  UNL     1      16.769  66.109  33.509  1.00  0.00    -0.395 OA
ATOM     33  H5  UNL     1      16.551  65.220  33.253  1.00  0.00     0.210 HD
ENDBRANCH  28  32
BRANCH  26  34
HETATM   34  C17 UNL     1      16.793  66.869  36.295  1.00  0.00    -0.015 C 
HETATM   35  C18 UNL     1      16.889  67.705  37.525  1.00  0.00     0.010 C 
HETATM   36  C19 UNL     1      16.316  65.494  36.712  1.00  0.00     0.010 C 
ENDBRANCH  26  34
ENDBRANCH  19  20
ENDBRANCH   1  19
TORSDOF 13
ENDMDL
