MODEL 1
REMARK VINA RESULT: -7.619979300      0.000      0.000
REMARK  12 active torsions:
REMARK  status: ('A' for Active; 'I' for Inactive)
REMARK    1  A    between atoms: C2_2  and  C3_3 
REMARK    2  A    between atoms: C3_3  and  C4_4 
REMARK    3  A    between atoms: C3_3  and  C6_6 
REMARK       I    between atoms: C6_6  and  N1_8 
REMARK       I    between atoms: N1_8  and  C7_10 
REMARK    4  A    between atoms: C7_10  and  C8_12 
REMARK    5  A    between atoms: C10_14  and  O3_15 
REMARK    6  A    between atoms: C12_18  and  S1_19 
REMARK    7  A    between atoms: S1_19  and  C13_20 
REMARK    8  A    between atoms: C15_22  and  O4_23 
REMARK    9  A    between atoms: O4_23  and  C16_24 
REMARK   10  A    between atoms: C19_27  and  O5_28 
REMARK   11  A    between atoms: C20_30  and  C21_31 
REMARK   12  A    between atoms: C21_31  and  O6_32 
ROOT
HETATM    1  C8  UNL     1      10.099  -2.071  32.799  1.00  0.00     0.094 C 
HETATM    2  C9  UNL     1       9.337  -3.158  33.458  1.00  0.00     0.047 C 
HETATM    3  C10 UNL     1      10.007  -3.445  34.758  1.00  0.00     0.120 C 
HETATM    4  C11 UNL     1      11.006  -2.321  34.960  1.00  0.00     0.048 C 
HETATM    5  C12 UNL     1      11.363  -1.861  33.586  1.00  0.00     0.065 C 
ENDROOT
BRANCH   5   6
HETATM    6  S1  UNL     1      11.718  -0.081  33.483  1.00  0.00    -0.132 SA
BRANCH   6   7
HETATM    7  C13 UNL     1      10.325   0.971  33.942  1.00  0.00     0.186 C 
HETATM    8  C14 UNL     1       9.583   1.535  32.778  1.00  0.00     0.077 C 
HETATM    9  C15 UNL     1      10.345   2.628  32.074  1.00  0.00     0.156 C 
HETATM   10  C19 UNL     1      11.272   3.351  33.022  1.00  0.00     0.178 C 
HETATM   11  C20 UNL     1      10.835   3.189  34.457  1.00  0.00     0.177 C 
HETATM   12  O7  UNL     1      10.799   1.895  34.829  1.00  0.00    -0.365 OA
BRANCH   9  13
HETATM   13  O4  UNL     1       9.428   3.540  31.571  1.00  0.00    -0.379 OA
BRANCH  13  14
HETATM   14  C16 UNL     1      10.038   4.577  30.878  1.00  0.00     0.114 C 
HETATM   15  C17 UNL     1       9.893   4.295  29.401  1.00  0.00     0.039 C 
HETATM   16  C18 UNL     1       9.331   5.905  31.142  1.00  0.00     0.039 C 
ENDBRANCH  13  14
ENDBRANCH   9  13
BRANCH  10  17
HETATM   17  O5  UNL     1      12.580   2.887  32.921  1.00  0.00    -0.390 OA
ATOM     18  H5  UNL     1      13.200   3.489  33.314  1.00  0.00     0.210 HD
ENDBRANCH  10  17
BRANCH  11  19
HETATM   19  C21 UNL     1      11.907   3.890  35.305  1.00  0.00     0.198 C 
BRANCH  19  20
HETATM   20  O6  UNL     1      12.797   2.978  35.828  1.00  0.00    -0.398 OA
ATOM     21  H6  UNL     1      12.414   2.509  36.561  1.00  0.00     0.209 HD
ENDBRANCH  19  20
ENDBRANCH  11  19
ENDBRANCH   6   7
ENDBRANCH   5   6
BRANCH   1  22
HETATM   22  C7  UNL     1      10.425  -2.431  31.371  1.00  0.00     0.229 C 
HETATM   23  N1  UNL     1      10.367  -3.817  31.053  1.00  0.00    -0.297 N 
HETATM   24  C6  UNL     1      10.629  -4.392  29.798  1.00  0.00     0.228 C 
ATOM     25  H1  UNL     1      10.111  -4.453  31.808  1.00  0.00     0.171 HD
HETATM   26  O1  UNL     1      10.567  -5.677  29.730  1.00  0.00    -0.273 OA
HETATM   27  O2  UNL     1      10.721  -1.572  30.531  1.00  0.00    -0.273 OA
BRANCH  24  28
HETATM   28  C3  UNL     1      10.962  -3.683  28.550  1.00  0.00     0.077 C 
BRANCH  28  29
HETATM   29  C2  UNL     1      11.497  -4.711  27.532  1.00  0.00     0.009 C 
HETATM   30  C1  UNL     1      12.483  -4.064  26.595  1.00  0.00     0.006 C 
ENDBRANCH  28  29
BRANCH  28  31
HETATM   31  C4  UNL     1       9.738  -3.106  27.868  1.00  0.00     0.009 C 
HETATM   32  C5  UNL     1      10.070  -1.674  27.475  1.00  0.00     0.006 C 
ENDBRANCH  28  31
ENDBRANCH  24  28
ENDBRANCH   1  22
BRANCH   3  33
HETATM   33  O3  UNL     1       9.126  -3.563  35.832  1.00  0.00    -0.396 OA
ATOM     34  H3  UNL     1       8.877  -4.458  36.028  1.00  0.00     0.210 HD
ENDBRANCH   3  33
TORSDOF 12
ENDMDL
MODEL 2
REMARK VINA RESULT: -7.615102915      3.652      5.193
REMARK  12 active torsions:
REMARK  status: ('A' for Active; 'I' for Inactive)
REMARK    1  A    between atoms: C2_2  and  C3_3 
REMARK    2  A    between atoms: C3_3  and  C4_4 
REMARK    3  A    between atoms: C3_3  and  C6_6 
REMARK       I    between atoms: C6_6  and  N1_8 
REMARK       I    between atoms: N1_8  and  C7_10 
REMARK    4  A    between atoms: C7_10  and  C8_12 
REMARK    5  A    between atoms: C10_14  and  O3_15 
REMARK    6  A    between atoms: C12_18  and  S1_19 
REMARK    7  A    between atoms: S1_19  and  C13_20 
REMARK    8  A    between atoms: C15_22  and  O4_23 
REMARK    9  A    between atoms: O4_23  and  C16_24 
REMARK   10  A    between atoms: C19_27  and  O5_28 
REMARK   11  A    between atoms: C20_30  and  C21_31 
REMARK   12  A    between atoms: C21_31  and  O6_32 
ROOT
HETATM    1  C8  UNL     1      10.142  -6.611  31.452  1.00  0.00     0.094 C 
HETATM    2  C9  UNL     1      10.460  -8.021  31.124  1.00  0.00     0.047 C 
HETATM    3  C10 UNL     1      11.137  -8.613  32.313  1.00  0.00     0.120 C 
HETATM    4  C11 UNL     1      10.959  -7.601  33.429  1.00  0.00     0.048 C 
HETATM    5  C12 UNL     1      10.833  -6.281  32.746  1.00  0.00     0.065 C 
ENDROOT
BRANCH   5   6
HETATM    6  S1  UNL     1       9.735  -5.117  33.608  1.00  0.00    -0.132 SA
BRANCH   6   7
HETATM    7  C13 UNL     1      10.594  -3.996  34.732  1.00  0.00     0.186 C 
HETATM    8  C14 UNL     1       9.688  -3.082  35.484  1.00  0.00     0.077 C 
HETATM    9  C15 UNL     1       9.114  -1.986  34.621  1.00  0.00     0.156 C 
HETATM   10  C19 UNL     1      10.044  -1.642  33.482  1.00  0.00     0.178 C 
HETATM   11  C20 UNL     1      11.464  -2.051  33.781  1.00  0.00     0.177 C 
HETATM   12  O7  UNL     1      11.570  -3.376  34.006  1.00  0.00    -0.365 OA
BRANCH   9  13
HETATM   13  O4  UNL     1       8.944  -0.858  35.410  1.00  0.00    -0.379 OA
BRANCH  13  14
HETATM   14  C16 UNL     1       9.393  -1.049  36.711  1.00  0.00     0.114 C 
HETATM   15  C17 UNL     1      10.404   0.031  37.014  1.00  0.00     0.039 C 
HETATM   16  C18 UNL     1       8.254  -0.879  37.716  1.00  0.00     0.039 C 
ENDBRANCH  13  14
ENDBRANCH   9  13
BRANCH  10  17
HETATM   17  O5  UNL     1       9.662  -2.264  32.297  1.00  0.00    -0.390 OA
ATOM     18  H5  UNL     1       9.988  -1.801  31.535  1.00  0.00     0.210 HD
ENDBRANCH  10  17
BRANCH  11  19
HETATM   19  C21 UNL     1      12.271  -1.727  32.515  1.00  0.00     0.198 C 
BRANCH  19  20
HETATM   20  O6  UNL     1      11.976  -0.464  32.051  1.00  0.00    -0.398 OA
ATOM     21  H6  UNL     1      12.530  -0.234  31.313  1.00  0.00     0.209 HD
ENDBRANCH  19  20
ENDBRANCH  11  19
ENDBRANCH   6   7
ENDBRANCH   5   6
BRANCH   1  22
HETATM   22  C7  UNL     1      10.609  -5.686  30.357  1.00  0.00     0.229 C 
HETATM   23  N1  UNL     1      10.995  -6.312  29.139  1.00  0.00    -0.297 N 
HETATM   24  C6  UNL     1      11.463  -5.662  27.984  1.00  0.00     0.228 C 
ATOM     25  H1  UNL     1      10.926  -7.329  29.101  1.00  0.00     0.171 HD
HETATM   26  O1  UNL     1      11.806  -6.418  26.999  1.00  0.00    -0.273 OA
HETATM   27  O2  UNL     1      10.650  -4.459  30.512  1.00  0.00    -0.273 OA
BRANCH  24  28
HETATM   28  C3  UNL     1      11.599  -4.210  27.777  1.00  0.00     0.077 C 
BRANCH  28  29
HETATM   29  C2  UNL     1      12.557  -3.973  26.591  1.00  0.00     0.009 C 
HETATM   30  C1  UNL     1      12.683  -2.501  26.299  1.00  0.00     0.006 C 
ENDBRANCH  28  29
BRANCH  28  31
HETATM   31  C4  UNL     1      10.303  -3.567  27.325  1.00  0.00     0.009 C 
HETATM   32  C5  UNL     1      10.008  -2.422  28.284  1.00  0.00     0.006 C 
ENDBRANCH  28  31
ENDBRANCH  24  28
ENDBRANCH   1  22
BRANCH   3  33
HETATM   33  O3  UNL     1      10.655  -9.873  32.666  1.00  0.00    -0.396 OA
ATOM     34  H3  UNL     1      10.947 -10.170  33.520  1.00  0.00     0.210 HD
ENDBRANCH   3  33
TORSDOF 12
ENDMDL
MODEL 3
REMARK VINA RESULT: -7.568678686      2.356      3.729
REMARK  12 active torsions:
REMARK  status: ('A' for Active; 'I' for Inactive)
REMARK    1  A    between atoms: C2_2  and  C3_3 
REMARK    2  A    between atoms: C3_3  and  C4_4 
REMARK    3  A    between atoms: C3_3  and  C6_6 
REMARK       I    between atoms: C6_6  and  N1_8 
REMARK       I    between atoms: N1_8  and  C7_10 
REMARK    4  A    between atoms: C7_10  and  C8_12 
REMARK    5  A    between atoms: C10_14  and  O3_15 
REMARK    6  A    between atoms: C12_18  and  S1_19 
REMARK    7  A    between atoms: S1_19  and  C13_20 
REMARK    8  A    between atoms: C15_22  and  O4_23 
REMARK    9  A    between atoms: O4_23  and  C16_24 
REMARK   10  A    between atoms: C19_27  and  O5_28 
REMARK   11  A    between atoms: C20_30  and  C21_31 
REMARK   12  A    between atoms: C21_31  and  O6_32 
ROOT
HETATM    1  C8  UNL     1       9.878  -5.761  31.824  1.00  0.00     0.094 C 
HETATM    2  C9  UNL     1      10.370  -7.157  31.908  1.00  0.00     0.047 C 
HETATM    3  C10 UNL     1      10.935  -7.348  33.274  1.00  0.00     0.120 C 
HETATM    4  C11 UNL     1      10.514  -6.122  34.065  1.00  0.00     0.048 C 
HETATM    5  C12 UNL     1      10.355  -5.038  33.053  1.00  0.00     0.065 C 
ENDROOT
BRANCH   5   6
HETATM    6  S1  UNL     1       9.044  -3.846  33.463  1.00  0.00    -0.132 SA
BRANCH   6   7
HETATM    7  C13 UNL     1       9.481  -2.709  34.795  1.00  0.00     0.186 C 
HETATM    8  C14 UNL     1       8.940  -1.331  34.615  1.00  0.00     0.077 C 
HETATM    9  C15 UNL     1       9.660  -0.556  33.541  1.00  0.00     0.156 C 
HETATM   10  C19 UNL     1      11.090  -1.018  33.395  1.00  0.00     0.178 C 
HETATM   11  C20 UNL     1      11.582  -1.705  34.644  1.00  0.00     0.177 C 
HETATM   12  O7  UNL     1      10.835  -2.783  34.954  1.00  0.00    -0.365 OA
BRANCH   9  13
HETATM   13  O4  UNL     1       9.662   0.784  33.902  1.00  0.00    -0.379 OA
BRANCH  13  14
HETATM   14  C16 UNL     1      10.340   1.578  32.986  1.00  0.00     0.114 C 
HETATM   15  C17 UNL     1       9.363   1.970  31.903  1.00  0.00     0.039 C 
HETATM   16  C18 UNL     1      10.820   2.875  33.634  1.00  0.00     0.039 C 
ENDBRANCH  13  14
ENDBRANCH   9  13
BRANCH  10  17
HETATM   17  O5  UNL     1      11.240  -1.905  32.334  1.00  0.00    -0.390 OA
ATOM     18  H5  UNL     1      11.376  -2.796  32.635  1.00  0.00     0.210 HD
ENDBRANCH  10  17
BRANCH  11  19
HETATM   19  C21 UNL     1      13.002  -2.196  34.324  1.00  0.00     0.198 C 
BRANCH  19  20
HETATM   20  O6  UNL     1      13.764  -1.184  33.783  1.00  0.00    -0.398 OA
ATOM     21  H6  UNL     1      13.500  -0.338  34.125  1.00  0.00     0.209 HD
ENDBRANCH  19  20
ENDBRANCH  11  19
ENDBRANCH   6   7
ENDBRANCH   5   6
BRANCH   1  22
HETATM   22  C7  UNL     1      10.396  -5.083  30.582  1.00  0.00     0.229 C 
HETATM   23  N1  UNL     1      10.855  -5.947  29.549  1.00  0.00    -0.297 N 
HETATM   24  C6  UNL     1      11.380  -5.550  28.307  1.00  0.00     0.228 C 
ATOM     25  H1  UNL     1      10.797  -6.949  29.726  1.00  0.00     0.171 HD
HETATM   26  O1  UNL     1      11.784  -6.492  27.527  1.00  0.00    -0.273 OA
HETATM   27  O2  UNL     1      10.417  -3.850  30.471  1.00  0.00    -0.273 OA
BRANCH  24  28
HETATM   28  C3  UNL     1      11.514  -4.174  27.800  1.00  0.00     0.077 C 
BRANCH  28  29
HETATM   29  C2  UNL     1      12.437  -4.196  26.564  1.00  0.00     0.009 C 
HETATM   30  C1  UNL     1      12.842  -2.797  26.182  1.00  0.00     0.006 C 
ENDBRANCH  28  29
BRANCH  28  31
HETATM   31  C4  UNL     1      10.207  -3.626  27.261  1.00  0.00     0.009 C 
HETATM   32  C5  UNL     1       9.966  -2.284  27.936  1.00  0.00     0.006 C 
ENDBRANCH  28  31
ENDBRANCH  24  28
ENDBRANCH   1  22
BRANCH   3  33
HETATM   33  O3  UNL     1      10.533  -8.532  33.890  1.00  0.00    -0.396 OA
ATOM     34  H3  UNL     1      11.111  -8.818  34.588  1.00  0.00     0.210 HD
ENDBRANCH   3  33
TORSDOF 12
ENDMDL
MODEL 4
REMARK VINA RESULT: -7.464419438      3.357      5.098
REMARK  12 active torsions:
REMARK  status: ('A' for Active; 'I' for Inactive)
REMARK    1  A    between atoms: C2_2  and  C3_3 
REMARK    2  A    between atoms: C3_3  and  C4_4 
REMARK    3  A    between atoms: C3_3  and  C6_6 
REMARK       I    between atoms: C6_6  and  N1_8 
REMARK       I    between atoms: N1_8  and  C7_10 
REMARK    4  A    between atoms: C7_10  and  C8_12 
REMARK    5  A    between atoms: C10_14  and  O3_15 
REMARK    6  A    between atoms: C12_18  and  S1_19 
REMARK    7  A    between atoms: S1_19  and  C13_20 
REMARK    8  A    between atoms: C15_22  and  O4_23 
REMARK    9  A    between atoms: O4_23  and  C16_24 
REMARK   10  A    between atoms: C19_27  and  O5_28 
REMARK   11  A    between atoms: C20_30  and  C21_31 
REMARK   12  A    between atoms: C21_31  and  O6_32 
ROOT
HETATM    1  C8  UNL     1      10.108  -6.271  31.766  1.00  0.00     0.094 C 
HETATM    2  C9  UNL     1       9.973  -7.703  31.408  1.00  0.00     0.047 C 
HETATM    3  C10 UNL     1      10.726  -8.488  32.428  1.00  0.00     0.120 C 
HETATM    4  C11 UNL     1      11.068  -7.503  33.530  1.00  0.00     0.048 C 
HETATM    5  C12 UNL     1      11.133  -6.172  32.861  1.00  0.00     0.065 C 
ENDROOT
BRANCH   5   6
HETATM    6  S1  UNL     1      10.590  -4.797  33.921  1.00  0.00    -0.132 SA
BRANCH   6   7
HETATM    7  C13 UNL     1      11.896  -3.613  34.308  1.00  0.00     0.186 C 
HETATM    8  C14 UNL     1      11.619  -2.779  35.512  1.00  0.00     0.077 C 
HETATM    9  C15 UNL     1      10.561  -1.732  35.269  1.00  0.00     0.156 C 
HETATM   10  C19 UNL     1      10.532  -1.308  33.820  1.00  0.00     0.178 C 
HETATM   11  C20 UNL     1      11.841  -1.599  33.129  1.00  0.00     0.177 C 
HETATM   12  O7  UNL     1      12.148  -2.911  33.163  1.00  0.00    -0.365 OA
BRANCH   9  13
HETATM   13  O4  UNL     1      10.861  -0.625  36.048  1.00  0.00    -0.379 OA
BRANCH  13  14
HETATM   14  C16 UNL     1      12.043  -0.783  36.760  1.00  0.00     0.114 C 
HETATM   15  C17 UNL     1      13.001   0.294  36.307  1.00  0.00     0.039 C 
HETATM   16  C18 UNL     1      11.817  -0.569  38.256  1.00  0.00     0.039 C 
ENDBRANCH  13  14
ENDBRANCH   9  13
BRANCH  10  17
HETATM   17  O5  UNL     1       9.524  -1.956  33.112  1.00  0.00    -0.390 OA
ATOM     18  H5  UNL     1       9.331  -1.518  32.292  1.00  0.00     0.210 HD
ENDBRANCH  10  17
BRANCH  11  19
HETATM   19  C21 UNL     1      11.638  -1.205  31.658  1.00  0.00     0.198 C 
BRANCH  19  20
HETATM   20  O6  UNL     1      10.888  -0.054  31.554  1.00  0.00    -0.398 OA
ATOM     21  H6  UNL     1      10.202  -0.152  30.904  1.00  0.00     0.209 HD
ENDBRANCH  19  20
ENDBRANCH  11  19
ENDBRANCH   6   7
ENDBRANCH   5   6
BRANCH   1  22
HETATM   22  C7  UNL     1      10.536  -5.457  30.571  1.00  0.00     0.229 C 
HETATM   23  N1  UNL     1      10.981  -6.200  29.442  1.00  0.00    -0.297 N 
HETATM   24  C6  UNL     1      11.428  -5.666  28.222  1.00  0.00     0.228 C 
ATOM     25  H1  UNL     1      10.976  -7.216  29.527  1.00  0.00     0.171 HD
HETATM   26  O1  UNL     1      11.835  -6.512  27.339  1.00  0.00    -0.273 OA
HETATM   27  O2  UNL     1      10.498  -4.220  30.576  1.00  0.00    -0.273 OA
BRANCH  24  28
HETATM   28  C3  UNL     1      11.478  -4.243  27.841  1.00  0.00     0.077 C 
BRANCH  28  29
HETATM   29  C2  UNL     1      12.410  -4.097  26.620  1.00  0.00     0.009 C 
HETATM   30  C1  UNL     1      12.685  -2.643  26.336  1.00  0.00     0.006 C 
ENDBRANCH  28  29
BRANCH  28  31
HETATM   31  C4  UNL     1      10.143  -3.732  27.337  1.00  0.00     0.009 C 
HETATM   32  C5  UNL     1       9.887  -2.392  28.012  1.00  0.00     0.006 C 
ENDBRANCH  28  31
ENDBRANCH  24  28
ENDBRANCH   1  22
BRANCH   3  33
HETATM   33  O3  UNL     1      10.031  -9.596  32.912  1.00  0.00    -0.396 OA
ATOM     34  H3  UNL     1       9.177  -9.716  32.516  1.00  0.00     0.210 HD
ENDBRANCH   3  33
TORSDOF 12
ENDMDL
MODEL 5
REMARK VINA RESULT: -7.460193049      0.914      1.153
REMARK  12 active torsions:
REMARK  status: ('A' for Active; 'I' for Inactive)
REMARK    1  A    between atoms: C2_2  and  C3_3 
REMARK    2  A    between atoms: C3_3  and  C4_4 
REMARK    3  A    between atoms: C3_3  and  C6_6 
REMARK       I    between atoms: C6_6  and  N1_8 
REMARK       I    between atoms: N1_8  and  C7_10 
REMARK    4  A    between atoms: C7_10  and  C8_12 
REMARK    5  A    between atoms: C10_14  and  O3_15 
REMARK    6  A    between atoms: C12_18  and  S1_19 
REMARK    7  A    between atoms: S1_19  and  C13_20 
REMARK    8  A    between atoms: C15_22  and  O4_23 
REMARK    9  A    between atoms: O4_23  and  C16_24 
REMARK   10  A    between atoms: C19_27  and  O5_28 
REMARK   11  A    between atoms: C20_30  and  C21_31 
REMARK   12  A    between atoms: C21_31  and  O6_32 
ROOT
HETATM    1  C8  UNL     1      10.204  -1.971  32.800  1.00  0.00     0.094 C 
HETATM    2  C9  UNL     1       9.386  -3.015  33.461  1.00  0.00     0.047 C 
HETATM    3  C10 UNL     1      10.044  -3.341  34.759  1.00  0.00     0.120 C 
HETATM    4  C11 UNL     1      11.103  -2.273  34.958  1.00  0.00     0.048 C 
HETATM    5  C12 UNL     1      11.479  -1.831  33.583  1.00  0.00     0.065 C 
ENDROOT
BRANCH   5   6
HETATM    6  S1  UNL     1      11.931  -0.073  33.481  1.00  0.00    -0.132 SA
BRANCH   6   7
HETATM    7  C13 UNL     1      10.643   1.048  34.066  1.00  0.00     0.186 C 
HETATM    8  C14 UNL     1      10.363   2.183  33.140  1.00  0.00     0.077 C 
HETATM    9  C15 UNL     1      11.454   3.224  33.143  1.00  0.00     0.156 C 
HETATM   10  C19 UNL     1      12.169   3.266  34.473  1.00  0.00     0.178 C 
HETATM   11  C20 UNL     1      11.319   2.691  35.579  1.00  0.00     0.177 C 
HETATM   12  O7  UNL     1      10.979   1.409  35.339  1.00  0.00    -0.365 OA
BRANCH   9  13
HETATM   13  O4  UNL     1      10.871   4.461  32.915  1.00  0.00    -0.379 OA
BRANCH  13  14
HETATM   14  C16 UNL     1      10.735   4.741  31.561  1.00  0.00     0.114 C 
HETATM   15  C17 UNL     1       9.754   5.881  31.421  1.00  0.00     0.039 C 
HETATM   16  C18 UNL     1      12.056   5.222  30.963  1.00  0.00     0.039 C 
ENDBRANCH  13  14
ENDBRANCH   9  13
BRANCH  10  17
HETATM   17  O5  UNL     1      13.363   2.552  34.440  1.00  0.00    -0.390 OA
ATOM     18  H5  UNL     1      14.099   3.108  34.214  1.00  0.00     0.210 HD
ENDBRANCH  10  17
BRANCH  11  19
HETATM   19  C21 UNL     1      12.196   2.715  36.839  1.00  0.00     0.198 C 
BRANCH  19  20
HETATM   20  O6  UNL     1      12.910   1.543  36.967  1.00  0.00    -0.398 OA
ATOM     21  H6  UNL     1      13.828   1.720  37.136  1.00  0.00     0.209 HD
ENDBRANCH  19  20
ENDBRANCH  11  19
ENDBRANCH   6   7
ENDBRANCH   5   6
BRANCH   1  22
HETATM   22  C7  UNL     1      10.503  -2.347  31.371  1.00  0.00     0.229 C 
HETATM   23  N1  UNL     1      10.389  -3.730  31.057  1.00  0.00    -0.297 N 
HETATM   24  C6  UNL     1      10.618  -4.317  29.801  1.00  0.00     0.228 C 
ATOM     25  H1  UNL     1      10.115  -4.354  31.815  1.00  0.00     0.171 HD
HETATM   26  O1  UNL     1      10.506  -5.599  29.738  1.00  0.00    -0.273 OA
HETATM   27  O2  UNL     1      10.826  -1.501  30.527  1.00  0.00    -0.273 OA
BRANCH  24  28
HETATM   28  C3  UNL     1      10.969  -3.624  28.549  1.00  0.00     0.077 C 
BRANCH  28  29
HETATM   29  C2  UNL     1      11.471  -4.673  27.535  1.00  0.00     0.009 C 
HETATM   30  C1  UNL     1      12.485  -4.064  26.603  1.00  0.00     0.006 C 
ENDBRANCH  28  29
BRANCH  28  31
HETATM   31  C4  UNL     1       9.760  -3.016  27.867  1.00  0.00     0.009 C 
HETATM   32  C5  UNL     1      10.127  -1.590  27.482  1.00  0.00     0.006 C 
ENDBRANCH  28  31
ENDBRANCH  24  28
ENDBRANCH   1  22
BRANCH   3  33
HETATM   33  O3  UNL     1       9.162  -3.412  35.836  1.00  0.00    -0.396 OA
ATOM     34  H3  UNL     1       9.578  -3.294  36.681  1.00  0.00     0.210 HD
ENDBRANCH   3  33
TORSDOF 12
ENDMDL
