MODEL 1
REMARK VINA RESULT: -8.285464557      0.000      0.000
REMARK  13 active torsions:
REMARK  status: ('A' for Active; 'I' for Inactive)
REMARK    1  A    between atoms: C3_3  and  C4_4 
REMARK    2  A    between atoms: C4_4  and  C5_5 
REMARK    3  A    between atoms: C6_6  and  C7_7 
REMARK    4  A    between atoms: C13_15  and  O3_16 
REMARK    5  A    between atoms: C14_18  and  O4_19 
REMARK    6  A    between atoms: C17_23  and  O5_24 
REMARK    7  A    between atoms: C17_23  and  C18_26 
REMARK    8  A    between atoms: C18_26  and  S1_27 
REMARK    9  A    between atoms: S1_27  and  C19_28 
REMARK   10  A    between atoms: C19_28  and  C20_29 
REMARK   11  A    between atoms: C20_29  and  C21_30 
REMARK   12  A    between atoms: C21_30  and  N1_31 
REMARK   13  A    between atoms: C21_30  and  C22_35 
ROOT
HETATM    1  C7  UNL     1      10.558  -2.515  30.147  1.00  0.00    -0.057 A 
HETATM    2  C8  UNL     1      10.899  -3.108  31.303  1.00  0.00     0.014 A 
HETATM    3  C9  UNL     1      11.586  -2.165  32.205  1.00  0.00     0.178 A 
HETATM    4  O1  UNL     1      10.777  -2.013  33.331  1.00  0.00    -0.338 OA
HETATM    5  C10 UNL     1      10.621  -0.646  33.534  1.00  0.00     0.227 C 
HETATM    6  O2  UNL     1      10.842  -0.011  32.321  1.00  0.00    -0.342 OA
HETATM    7  C11 UNL     1      11.590  -0.864  31.515  1.00  0.00     0.162 A 
HETATM    8  C12 UNL     1      10.982  -1.079  30.170  1.00  0.00     0.073 A 
HETATM    9  C13 UNL     1       9.247  -0.427  34.078  1.00  0.00     0.213 C 
HETATM   10  C14 UNL     1       9.414  -0.962  35.495  1.00  0.00     0.159 C 
HETATM   11  C15 UNL     1      10.802  -0.464  35.888  1.00  0.00     0.054 C 
HETATM   12  C16 UNL     1      11.451  -1.666  36.610  1.00  0.00     0.016 C 
HETATM   13  C17 UNL     1      11.533  -0.197  34.620  1.00  0.00     0.131 C 
ENDROOT
BRANCH  13  14
HETATM   14  O5  UNL     1      12.672  -1.077  34.526  1.00  0.00    -0.383 OA
ATOM     15  H5  UNL     1      13.007  -1.131  35.413  1.00  0.00     0.210 HD
ENDBRANCH  13  14
BRANCH  13  16
HETATM   16  C18 UNL     1      12.088   1.170  34.436  1.00  0.00     0.118 C 
BRANCH  16  17
HETATM   17  S1  UNL     1      11.129   2.539  35.025  1.00  0.00    -0.166 SA
BRANCH  17  18
HETATM   18  C19 UNL     1      11.082   3.995  34.011  1.00  0.00     0.076 C 
BRANCH  18  19
HETATM   19  C20 UNL     1      11.166   3.711  32.529  1.00  0.00     0.051 C 
BRANCH  19  20
HETATM   20  C21 UNL     1       9.772   3.596  31.955  1.00  0.00     0.252 C 
BRANCH  20  21
HETATM   21  N1  UNL     1       9.581   2.376  31.227  1.00  0.00    -0.068 N 
ATOM     22  H13 UNL     1      10.326   1.708  31.426  1.00  0.00     0.275 HD
ATOM     23  H12 UNL     1       8.789   1.848  31.595  1.00  0.00     0.275 HD
ATOM     24  H11 UNL     1       9.486   2.533  30.224  1.00  0.00     0.275 HD
ENDBRANCH  20  21
BRANCH  20  25
HETATM   25  C22 UNL     1       9.480   4.795  31.111  1.00  0.00     0.153 C 
HETATM   26  C23 UNL     1      10.580   5.406  30.318  1.00  0.00     0.093 C 
HETATM   27  O6  UNL     1       8.363   5.268  31.070  1.00  0.00    -0.296 OA
ENDBRANCH  20  25
ENDBRANCH  19  20
ENDBRANCH  18  19
ENDBRANCH  17  18
ENDBRANCH  16  17
ENDBRANCH  13  16
BRANCH   9  28
HETATM   28  O3  UNL     1       8.400  -1.311  33.367  1.00  0.00    -0.387 OA
ATOM     29  H3  UNL     1       7.512  -1.031  33.555  1.00  0.00     0.210 HD
ENDBRANCH   9  28
BRANCH  10  30
HETATM   30  O4  UNL     1       8.424  -0.589  36.358  1.00  0.00    -0.392 OA
ATOM     31  H4  UNL     1       8.605  -0.783  37.270  1.00  0.00     0.210 HD
ENDBRANCH  10  30
BRANCH   1  32
HETATM   32  C6  UNL     1       9.873  -3.230  29.091  1.00  0.00     0.003 C 
HETATM   33  C5  UNL     1      10.261  -3.654  27.946  1.00  0.00    -0.022 C 
BRANCH  33  34
HETATM   34  C4  UNL     1      11.585  -3.536  27.332  1.00  0.00     0.054 C 
BRANCH  34  35
HETATM   35  C3  UNL     1      12.130  -4.924  27.060  1.00  0.00    -0.027 C 
HETATM   36  C2  UNL     1      12.073  -5.886  27.967  1.00  0.00    -0.035 C 
HETATM   37  C1  UNL     1      12.596  -7.253  27.734  1.00  0.00     0.036 C 
ENDBRANCH  34  35
ENDBRANCH  33  34
ENDBRANCH   1  32
TORSDOF 13
ENDMDL
MODEL 2
REMARK VINA RESULT: -8.203885281      1.623      1.816
REMARK  13 active torsions:
REMARK  status: ('A' for Active; 'I' for Inactive)
REMARK    1  A    between atoms: C3_3  and  C4_4 
REMARK    2  A    between atoms: C4_4  and  C5_5 
REMARK    3  A    between atoms: C6_6  and  C7_7 
REMARK    4  A    between atoms: C13_15  and  O3_16 
REMARK    5  A    between atoms: C14_18  and  O4_19 
REMARK    6  A    between atoms: C17_23  and  O5_24 
REMARK    7  A    between atoms: C17_23  and  C18_26 
REMARK    8  A    between atoms: C18_26  and  S1_27 
REMARK    9  A    between atoms: S1_27  and  C19_28 
REMARK   10  A    between atoms: C19_28  and  C20_29 
REMARK   11  A    between atoms: C20_29  and  C21_30 
REMARK   12  A    between atoms: C21_30  and  N1_31 
REMARK   13  A    between atoms: C21_30  and  C22_35 
ROOT
HETATM    1  C7  UNL     1      10.605  -2.205  30.289  1.00  0.00    -0.057 A 
HETATM    2  C8  UNL     1      10.432  -3.079  31.295  1.00  0.00     0.014 A 
HETATM    3  C9  UNL     1      11.270  -2.728  32.457  1.00  0.00     0.178 A 
HETATM    4  O1  UNL     1      10.406  -2.420  33.507  1.00  0.00    -0.338 OA
HETATM    5  C10 UNL     1      10.814  -1.192  34.017  1.00  0.00     0.227 C 
HETATM    6  O2  UNL     1      11.512  -0.530  33.018  1.00  0.00    -0.342 OA
HETATM    7  C11 UNL     1      11.961  -1.477  32.103  1.00  0.00     0.162 A 
HETATM    8  C12 UNL     1      11.589  -1.152  30.696  1.00  0.00     0.073 A 
HETATM    9  C13 UNL     1       9.590  -0.464  34.469  1.00  0.00     0.213 C 
HETATM   10  C14 UNL     1       9.239  -1.253  35.725  1.00  0.00     0.159 C 
HETATM   11  C15 UNL     1      10.604  -1.524  36.353  1.00  0.00     0.054 C 
HETATM   12  C16 UNL     1      10.525  -2.994  36.821  1.00  0.00     0.016 C 
HETATM   13  C17 UNL     1      11.605  -1.408  35.259  1.00  0.00     0.131 C 
ENDROOT
BRANCH  13  14
HETATM   14  O5  UNL     1      12.253  -2.681  35.061  1.00  0.00    -0.383 OA
ATOM     15  H5  UNL     1      12.649  -2.881  35.901  1.00  0.00     0.210 HD
ENDBRANCH  13  14
BRANCH  13  16
HETATM   16  C18 UNL     1      12.715  -0.439  35.460  1.00  0.00     0.118 C 
BRANCH  16  17
HETATM   17  S1  UNL     1      12.428   0.936  36.541  1.00  0.00    -0.166 SA
BRANCH  17  18
HETATM   18  C19 UNL     1      11.658   2.373  35.839  1.00  0.00     0.076 C 
BRANCH  18  19
HETATM   19  C20 UNL     1      12.555   3.153  34.904  1.00  0.00     0.051 C 
BRANCH  19  20
HETATM   20  C21 UNL     1      12.260   2.761  33.474  1.00  0.00     0.252 C 
BRANCH  20  21
HETATM   21  N1  UNL     1      13.340   2.034  32.874  1.00  0.00    -0.068 N 
ATOM     22  H13 UNL     1      13.324   2.122  31.858  1.00  0.00     0.275 HD
ATOM     23  H12 UNL     1      14.236   2.484  33.062  1.00  0.00     0.275 HD
ATOM     24  H11 UNL     1      13.353   1.054  33.158  1.00  0.00     0.275 HD
ENDBRANCH  20  21
BRANCH  20  25
HETATM   25  C22 UNL     1      11.909   3.982  32.686  1.00  0.00     0.153 C 
HETATM   26  C23 UNL     1      12.987   4.718  31.973  1.00  0.00     0.093 C 
HETATM   27  O6  UNL     1      10.761   4.372  32.625  1.00  0.00    -0.296 OA
ENDBRANCH  20  25
ENDBRANCH  19  20
ENDBRANCH  18  19
ENDBRANCH  17  18
ENDBRANCH  16  17
ENDBRANCH  13  16
BRANCH   9  28
HETATM   28  O3  UNL     1       8.599  -0.723  33.492  1.00  0.00    -0.387 OA
ATOM     29  H3  UNL     1       7.777  -0.428  33.867  1.00  0.00     0.210 HD
ENDBRANCH   9  28
BRANCH  10  30
HETATM   30  O4  UNL     1       8.359  -0.623  36.559  1.00  0.00    -0.392 OA
ATOM     31  H4  UNL     1       7.876  -1.206  37.132  1.00  0.00     0.210 HD
ENDBRANCH  10  30
BRANCH   1  32
HETATM   32  C6  UNL     1       9.894  -2.331  29.034  1.00  0.00     0.003 C 
HETATM   33  C5  UNL     1      10.295  -2.367  27.818  1.00  0.00    -0.022 C 
BRANCH  33  34
HETATM   34  C4  UNL     1      11.666  -2.288  27.309  1.00  0.00     0.054 C 
BRANCH  34  35
HETATM   35  C3  UNL     1      12.115  -3.671  26.880  1.00  0.00    -0.027 C 
HETATM   36  C2  UNL     1      11.515  -4.766  27.320  1.00  0.00    -0.035 C 
HETATM   37  C1  UNL     1      11.928  -6.133  26.922  1.00  0.00     0.036 C 
ENDBRANCH  34  35
ENDBRANCH  33  34
ENDBRANCH   1  32
TORSDOF 13
ENDMDL
MODEL 3
REMARK VINA RESULT: -8.126853128      1.487      1.613
REMARK  13 active torsions:
REMARK  status: ('A' for Active; 'I' for Inactive)
REMARK    1  A    between atoms: C3_3  and  C4_4 
REMARK    2  A    between atoms: C4_4  and  C5_5 
REMARK    3  A    between atoms: C6_6  and  C7_7 
REMARK    4  A    between atoms: C13_15  and  O3_16 
REMARK    5  A    between atoms: C14_18  and  O4_19 
REMARK    6  A    between atoms: C17_23  and  O5_24 
REMARK    7  A    between atoms: C17_23  and  C18_26 
REMARK    8  A    between atoms: C18_26  and  S1_27 
REMARK    9  A    between atoms: S1_27  and  C19_28 
REMARK   10  A    between atoms: C19_28  and  C20_29 
REMARK   11  A    between atoms: C20_29  and  C21_30 
REMARK   12  A    between atoms: C21_30  and  N1_31 
REMARK   13  A    between atoms: C21_30  and  C22_35 
ROOT
HETATM    1  C7  UNL     1      10.580  -2.419  30.169  1.00  0.00    -0.057 A 
HETATM    2  C8  UNL     1      10.642  -3.194  31.265  1.00  0.00     0.014 A 
HETATM    3  C9  UNL     1      11.450  -2.560  32.323  1.00  0.00     0.178 A 
HETATM    4  O1  UNL     1      10.597  -2.314  33.398  1.00  0.00    -0.338 OA
HETATM    5  C10 UNL     1      10.773  -0.982  33.756  1.00  0.00     0.227 C 
HETATM    6  O2  UNL     1      11.268  -0.309  32.649  1.00  0.00    -0.342 OA
HETATM    7  C11 UNL     1      11.853  -1.243  31.800  1.00  0.00     0.162 A 
HETATM    8  C12 UNL     1      11.349  -1.154  30.399  1.00  0.00     0.073 A 
HETATM    9  C13 UNL     1       9.451  -0.465  34.224  1.00  0.00     0.213 C 
HETATM   10  C14 UNL     1       9.334  -1.165  35.572  1.00  0.00     0.159 C 
HETATM   11  C15 UNL     1      10.756  -1.091  36.122  1.00  0.00     0.054 C 
HETATM   12  C16 UNL     1      11.003  -2.487  36.734  1.00  0.00     0.016 C 
HETATM   13  C17 UNL     1      11.654  -0.900  34.952  1.00  0.00     0.131 C 
ENDROOT
BRANCH  13  14
HETATM   14  O5  UNL     1      12.537  -2.034  34.832  1.00  0.00    -0.383 OA
ATOM     15  H5  UNL     1      12.691  -2.314  35.726  1.00  0.00     0.210 HD
ENDBRANCH  13  14
BRANCH  13  16
HETATM   16  C18 UNL     1      12.553   0.284  34.977  1.00  0.00     0.118 C 
BRANCH  16  17
HETATM   17  S1  UNL     1      12.044   1.689  35.931  1.00  0.00    -0.166 SA
BRANCH  17  18
HETATM   18  C19 UNL     1      10.757   2.707  35.255  1.00  0.00     0.076 C 
BRANCH  18  19
HETATM   19  C20 UNL     1      11.255   3.997  34.643  1.00  0.00     0.051 C 
BRANCH  19  20
HETATM   20  C21 UNL     1      11.275   3.869  33.137  1.00  0.00     0.252 C 
BRANCH  20  21
HETATM   21  N1  UNL     1      10.651   2.660  32.684  1.00  0.00    -0.068 N 
ATOM     22  H13 UNL     1       9.743   2.526  33.129  1.00  0.00     0.275 HD
ATOM     23  H12 UNL     1      10.345   2.745  31.715  1.00  0.00     0.275 HD
ATOM     24  H11 UNL     1      11.248   1.843  32.813  1.00  0.00     0.275 HD
ENDBRANCH  20  21
BRANCH  20  25
HETATM   25  C22 UNL     1      12.683   3.982  32.647  1.00  0.00     0.153 C 
HETATM   26  C23 UNL     1      13.087   5.188  31.876  1.00  0.00     0.093 C 
HETATM   27  O6  UNL     1      13.490   3.105  32.873  1.00  0.00    -0.296 OA
ENDBRANCH  20  25
ENDBRANCH  19  20
ENDBRANCH  18  19
ENDBRANCH  17  18
ENDBRANCH  16  17
ENDBRANCH  13  16
BRANCH   9  28
HETATM   28  O3  UNL     1       8.484  -1.019  33.351  1.00  0.00    -0.387 OA
ATOM     29  H3  UNL     1       8.771  -0.805  32.471  1.00  0.00     0.210 HD
ENDBRANCH   9  28
BRANCH  10  30
HETATM   30  O4  UNL     1       8.388  -0.633  36.403  1.00  0.00    -0.392 OA
ATOM     31  H4  UNL     1       7.946  -1.269  36.951  1.00  0.00     0.210 HD
ENDBRANCH  10  30
BRANCH   1  32
HETATM   32  C6  UNL     1       9.846  -2.819  28.987  1.00  0.00     0.003 C 
HETATM   33  C5  UNL     1      10.224  -3.136  27.805  1.00  0.00    -0.022 C 
BRANCH  33  34
HETATM   34  C4  UNL     1      11.586  -3.191  27.269  1.00  0.00     0.054 C 
BRANCH  34  35
HETATM   35  C3  UNL     1      11.924  -4.629  26.926  1.00  0.00    -0.027 C 
HETATM   36  C2  UNL     1      11.913  -5.586  27.840  1.00  0.00    -0.035 C 
HETATM   37  C1  UNL     1      12.238  -7.000  27.538  1.00  0.00     0.036 C 
ENDBRANCH  34  35
ENDBRANCH  33  34
ENDBRANCH   1  32
TORSDOF 13
ENDMDL
MODEL 4
REMARK VINA RESULT: -8.024228035      1.012      1.022
REMARK  13 active torsions:
REMARK  status: ('A' for Active; 'I' for Inactive)
REMARK    1  A    between atoms: C3_3  and  C4_4 
REMARK    2  A    between atoms: C4_4  and  C5_5 
REMARK    3  A    between atoms: C6_6  and  C7_7 
REMARK    4  A    between atoms: C13_15  and  O3_16 
REMARK    5  A    between atoms: C14_18  and  O4_19 
REMARK    6  A    between atoms: C17_23  and  O5_24 
REMARK    7  A    between atoms: C17_23  and  C18_26 
REMARK    8  A    between atoms: C18_26  and  S1_27 
REMARK    9  A    between atoms: S1_27  and  C19_28 
REMARK   10  A    between atoms: C19_28  and  C20_29 
REMARK   11  A    between atoms: C20_29  and  C21_30 
REMARK   12  A    between atoms: C21_30  and  N1_31 
REMARK   13  A    between atoms: C21_30  and  C22_35 
ROOT
HETATM    1  C7  UNL     1      10.338  -2.178  29.514  1.00  0.00    -0.057 A 
HETATM    2  C8  UNL     1      11.174  -2.725  30.412  1.00  0.00     0.014 A 
HETATM    3  C9  UNL     1      11.513  -1.764  31.479  1.00  0.00     0.178 A 
HETATM    4  O1  UNL     1      11.010  -2.284  32.672  1.00  0.00    -0.338 OA
HETATM    5  C10 UNL     1      10.272  -1.270  33.274  1.00  0.00     0.227 C 
HETATM    6  O2  UNL     1       9.880  -0.386  32.280  1.00  0.00    -0.342 OA
HETATM    7  C11 UNL     1      10.738  -0.544  31.196  1.00  0.00     0.162 A 
HETATM    8  C12 UNL     1      10.018  -0.770  29.910  1.00  0.00     0.073 A 
HETATM    9  C13 UNL     1       9.125  -1.912  33.985  1.00  0.00     0.213 C 
HETATM   10  C14 UNL     1       9.846  -2.552  35.165  1.00  0.00     0.159 C 
HETATM   11  C15 UNL     1      10.876  -1.496  35.553  1.00  0.00     0.054 C 
HETATM   12  C16 UNL     1      12.164  -2.301  35.833  1.00  0.00     0.016 C 
HETATM   13  C17 UNL     1      11.080  -0.641  34.353  1.00  0.00     0.131 C 
ENDROOT
BRANCH  13  14
HETATM   14  O5  UNL     1      12.445  -0.760  33.903  1.00  0.00    -0.383 OA
ATOM     15  H5  UNL     1      12.769   0.132  33.881  1.00  0.00     0.210 HD
ENDBRANCH  13  14
BRANCH  13  16
HETATM   16  C18 UNL     1      10.857   0.820  34.519  1.00  0.00     0.118 C 
BRANCH  16  17
HETATM   17  S1  UNL     1      12.062   1.924  33.833  1.00  0.00    -0.166 SA
BRANCH  17  18
HETATM   18  C19 UNL     1      11.600   3.629  33.665  1.00  0.00     0.076 C 
BRANCH  18  19
HETATM   19  C20 UNL     1      11.379   4.066  32.235  1.00  0.00     0.051 C 
BRANCH  19  20
HETATM   20  C21 UNL     1       9.918   3.911  31.877  1.00  0.00     0.252 C 
BRANCH  20  21
HETATM   21  N1  UNL     1       9.684   2.787  31.018  1.00  0.00    -0.068 N 
ATOM     22  H13 UNL     1       8.838   2.286  31.289  1.00  0.00     0.275 HD
ATOM     23  H12 UNL     1       9.401   3.088  30.086  1.00  0.00     0.275 HD
ATOM     24  H11 UNL     1      10.486   2.158  30.975  1.00  0.00     0.275 HD
ENDBRANCH  20  21
BRANCH  20  25
HETATM   25  C22 UNL     1       9.416   5.182  31.273  1.00  0.00     0.153 C 
HETATM   26  C23 UNL     1      10.376   6.288  31.011  1.00  0.00     0.093 C 
HETATM   27  O6  UNL     1       8.242   5.317  30.998  1.00  0.00    -0.296 OA
ENDBRANCH  20  25
ENDBRANCH  19  20
ENDBRANCH  18  19
ENDBRANCH  17  18
ENDBRANCH  16  17
ENDBRANCH  13  16
BRANCH   9  28
HETATM   28  O3  UNL     1       8.666  -2.944  33.132  1.00  0.00    -0.387 OA
ATOM     29  H3  UNL     1       8.956  -3.759  33.526  1.00  0.00     0.210 HD
ENDBRANCH   9  28
BRANCH  10  30
HETATM   30  O4  UNL     1       9.024  -2.930  36.189  1.00  0.00    -0.392 OA
ATOM     31  H4  UNL     1       8.303  -3.490  35.926  1.00  0.00     0.210 HD
ENDBRANCH  10  30
BRANCH   1  32
HETATM   32  C6  UNL     1       9.856  -2.917  28.366  1.00  0.00     0.003 C 
HETATM   33  C5  UNL     1      10.457  -3.424  27.354  1.00  0.00    -0.022 C 
BRANCH  33  34
HETATM   34  C4  UNL     1      11.888  -3.403  27.041  1.00  0.00     0.054 C 
BRANCH  34  35
HETATM   35  C3  UNL     1      12.391  -4.829  26.934  1.00  0.00    -0.027 C 
HETATM   36  C2  UNL     1      11.939  -5.789  27.725  1.00  0.00    -0.035 C 
HETATM   37  C1  UNL     1      12.409  -7.193  27.648  1.00  0.00     0.036 C 
ENDBRANCH  34  35
ENDBRANCH  33  34
ENDBRANCH   1  32
TORSDOF 13
ENDMDL
MODEL 5
REMARK VINA RESULT: -7.978010411      1.498      1.881
REMARK  13 active torsions:
REMARK  status: ('A' for Active; 'I' for Inactive)
REMARK    1  A    between atoms: C3_3  and  C4_4 
REMARK    2  A    between atoms: C4_4  and  C5_5 
REMARK    3  A    between atoms: C6_6  and  C7_7 
REMARK    4  A    between atoms: C13_15  and  O3_16 
REMARK    5  A    between atoms: C14_18  and  O4_19 
REMARK    6  A    between atoms: C17_23  and  O5_24 
REMARK    7  A    between atoms: C17_23  and  C18_26 
REMARK    8  A    between atoms: C18_26  and  S1_27 
REMARK    9  A    between atoms: S1_27  and  C19_28 
REMARK   10  A    between atoms: C19_28  and  C20_29 
REMARK   11  A    between atoms: C20_29  and  C21_30 
REMARK   12  A    between atoms: C21_30  and  N1_31 
REMARK   13  A    between atoms: C21_30  and  C22_35 
ROOT
HETATM    1  C7  UNL     1      10.486  -3.965  31.773  1.00  0.00    -0.057 A 
HETATM    2  C8  UNL     1      11.319  -3.841  32.820  1.00  0.00     0.014 A 
HETATM    3  C9  UNL     1      11.877  -2.479  32.900  1.00  0.00     0.178 A 
HETATM    4  O1  UNL     1      11.419  -1.918  34.093  1.00  0.00    -0.338 OA
HETATM    5  C10 UNL     1      10.880  -0.677  33.773  1.00  0.00     0.227 C 
HETATM    6  O2  UNL     1      10.522  -0.703  32.434  1.00  0.00    -0.342 OA
HETATM    7  C11 UNL     1      11.250  -1.713  31.810  1.00  0.00     0.162 A 
HETATM    8  C12 UNL     1      10.394  -2.662  31.042  1.00  0.00     0.073 A 
HETATM    9  C13 UNL     1       9.726  -0.439  34.692  1.00  0.00     0.213 C 
HETATM   10  C14 UNL     1      10.457  -0.164  36.000  1.00  0.00     0.159 C 
HETATM   11  C15 UNL     1      11.650   0.679  35.556  1.00  0.00     0.054 C 
HETATM   12  C16 UNL     1      12.839   0.116  36.366  1.00  0.00     0.016 C 
HETATM   13  C17 UNL     1      11.858   0.392  34.111  1.00  0.00     0.131 C 
ENDROOT
BRANCH  13  14
HETATM   14  O5  UNL     1      13.149  -0.223  33.923  1.00  0.00    -0.383 OA
ATOM     15  H5  UNL     1      13.465  -0.390  34.803  1.00  0.00     0.210 HD
ENDBRANCH  13  14
BRANCH  13  16
HETATM   16  C18 UNL     1      11.848   1.555  33.184  1.00  0.00     0.118 C 
BRANCH  16  17
HETATM   17  S1  UNL     1      10.776   2.912  33.572  1.00  0.00    -0.166 SA
BRANCH  17  18
HETATM   18  C19 UNL     1      11.462   4.545  33.463  1.00  0.00     0.076 C 
BRANCH  18  19
HETATM   19  C20 UNL     1      10.746   5.446  32.482  1.00  0.00     0.051 C 
BRANCH  19  20
HETATM   20  C21 UNL     1      10.570   4.724  31.166  1.00  0.00     0.252 C 
BRANCH  20  21
HETATM   21  N1  UNL     1      11.722   4.845  30.320  1.00  0.00    -0.068 N 
ATOM     22  H13 UNL     1      12.420   5.462  30.735  1.00  0.00     0.275 HD
ATOM     23  H12 UNL     1      12.261   3.978  30.307  1.00  0.00     0.275 HD
ATOM     24  H11 UNL     1      11.480   5.144  29.376  1.00  0.00     0.275 HD
ENDBRANCH  20  21
BRANCH  20  25
HETATM   25  C22 UNL     1       9.333   5.217  30.489  1.00  0.00     0.153 C 
HETATM   26  C23 UNL     1       9.400   5.614  29.057  1.00  0.00     0.093 C 
HETATM   27  O6  UNL     1       8.284   5.295  31.094  1.00  0.00    -0.296 OA
ENDBRANCH  20  25
ENDBRANCH  19  20
ENDBRANCH  18  19
ENDBRANCH  17  18
ENDBRANCH  16  17
ENDBRANCH  13  16
BRANCH   9  28
HETATM   28  O3  UNL     1       9.058  -1.682  34.810  1.00  0.00    -0.387 OA
ATOM     29  H3  UNL     1       8.757  -1.733  35.710  1.00  0.00     0.210 HD
ENDBRANCH   9  28
BRANCH  10  30
HETATM   30  O4  UNL     1       9.687   0.426  36.963  1.00  0.00    -0.392 OA
ATOM     31  H4  UNL     1       9.676   1.375  36.928  1.00  0.00     0.210 HD
ENDBRANCH  10  30
BRANCH   1  32
HETATM   32  C6  UNL     1       9.810  -5.210  31.475  1.00  0.00     0.003 C 
HETATM   33  C5  UNL     1      10.131  -6.210  30.741  1.00  0.00    -0.022 C 
BRANCH  33  34
HETATM   34  C4  UNL     1      11.345  -6.402  29.945  1.00  0.00     0.054 C 
BRANCH  34  35
HETATM   35  C3  UNL     1      11.348  -5.408  28.801  1.00  0.00    -0.027 C 
HETATM   36  C2  UNL     1      12.181  -5.521  27.779  1.00  0.00    -0.035 C 
HETATM   37  C1  UNL     1      12.211  -4.568  26.645  1.00  0.00     0.036 C 
ENDBRANCH  34  35
ENDBRANCH  33  34
ENDBRANCH   1  32
TORSDOF 13
ENDMDL
