MODEL 1
REMARK VINA RESULT: -6.920771020      0.000      0.000
REMARK  15 active torsions:
REMARK  status: ('A' for Active; 'I' for Inactive)
REMARK    1  A    between atoms: C2_2  and  O2_4 
REMARK    2  A    between atoms: O2_4  and  C3_5 
REMARK    3  A    between atoms: C4_6  and  O3_7 
REMARK    4  A    between atoms: O3_7  and  C5_8 
REMARK    5  A    between atoms: C5_8  and  C6_10 
REMARK    6  A    between atoms: C7_11  and  O5_12 
REMARK    7  A    between atoms: C7_11  and  C8_14 
REMARK    8  A    between atoms: C9_17  and  N1_18 
REMARK       I    between atoms: N1_18  and  C10_20 
REMARK    9  A    between atoms: C10_20  and  O8_22 
REMARK   10  A    between atoms: O8_22  and  C11_23 
REMARK   11  A    between atoms: C15_27  and  N2_28 
REMARK   12  A    between atoms: N2_28  and  C16_30 
REMARK   13  A    between atoms: C21_43  and  N6_44 
REMARK   14  A    between atoms: C22_49  and  O10_50 
REMARK   15  A    between atoms: O10_50  and  C23_51 
ROOT
HETATM    1  C3  UNL     1     -16.911   9.043  -2.175  1.00  0.00     0.219 C 
HETATM    2  C4  UNL     1     -18.294   9.463  -1.712  1.00  0.00     0.304 C 
HETATM    3  O6  UNL     1     -18.371   9.121  -0.375  1.00  0.00    -0.331 OA
HETATM    4  C9  UNL     1     -17.454   9.773   0.443  1.00  0.00     0.254 C 
HETATM    5  C15 UNL     1     -16.021   9.600   0.028  1.00  0.00     0.180 C 
HETATM    6  C22 UNL     1     -15.913   9.885  -1.451  1.00  0.00     0.193 C 
ENDROOT
BRANCH   5   7
HETATM    7  N2  UNL     1     -15.441   8.335   0.357  1.00  0.00    -0.214 N 
ATOM      8  H2  UNL     1     -16.049   7.661   0.823  1.00  0.00     0.178 HD
BRANCH   7   9
HETATM    9  C16 UNL     1     -14.112   7.919   0.104  1.00  0.00     0.681 A 
HETATM   10  N3  UNL     1     -13.857   6.930  -0.781  1.00  0.00    -0.184 N 
HETATM   11  C17 UNL     1     -12.636   6.507  -1.079  1.00  0.00     0.147 A 
ATOM     12  H3  UNL     1     -14.648   6.485  -1.246  1.00  0.00     0.184 HD
HETATM   13  C18 UNL     1     -12.377   5.500  -1.981  1.00  0.00     0.277 A 
HETATM   14  C20 UNL     1     -11.584   7.124  -0.436  1.00  0.00     0.112 A 
HETATM   15  O9  UNL     1     -13.350   4.925  -2.579  1.00  0.00    -0.266 OA
HETATM   16  N4  UNL     1     -11.102   5.130  -2.226  1.00  0.00    -0.298 N 
HETATM   17  C19 UNL     1     -10.071   5.739  -1.592  1.00  0.00     0.182 A 
ATOM     18  H4  UNL     1     -10.913   4.383  -2.895  1.00  0.00     0.171 HD
HETATM   19 CL1  UNL     1      -8.424   5.232  -1.934  1.00  0.00    -0.045 Cl
HETATM   20  N5  UNL     1     -10.327   6.722  -0.711  1.00  0.00    -0.327 N 
ATOM     21  H5  UNL     1      -9.547   7.177  -0.237  1.00  0.00     0.168 HD
HETATM   22  C21 UNL     1     -11.836   8.132   0.467  1.00  0.00     0.144 A 
HETATM   23  N7  UNL     1     -13.101   8.526   0.734  1.00  0.00    -0.175 N 
ATOM     24  H7  UNL     1     -13.281   9.272   1.405  1.00  0.00     0.186 HD
BRANCH  22  25
HETATM   25  N6  UNL     1     -10.854   8.714   1.072  1.00  0.00    -0.383 N 
ATOM     26  H62 UNL     1     -10.486   8.304   1.931  1.00  0.00     0.157 HD
ATOM     27  H61 UNL     1     -10.457   9.572   0.688  1.00  0.00     0.157 HD
ENDBRANCH  22  25
ENDBRANCH   7   9
ENDBRANCH   5   7
BRANCH   4  28
HETATM   28  N1  UNL     1     -17.753  11.158   0.625  1.00  0.00    -0.308 N 
HETATM   29  C10 UNL     1     -17.697  11.791   1.896  1.00  0.00     0.363 C 
HETATM   30  O7  UNL     1     -17.373  11.130   2.916  1.00  0.00    -0.238 OA
ATOM     31  H1  UNL     1     -18.018  11.714  -0.189  1.00  0.00     0.167 HD
BRANCH  29  32
HETATM   32  O8  UNL     1     -17.990  13.135   2.061  1.00  0.00    -0.294 OA
BRANCH  32  33
HETATM   33  C11 UNL     1     -19.339  13.539   2.274  1.00  0.00     0.061 C 
HETATM   34  C12 UNL     1     -19.515  14.995   1.915  1.00  0.00     0.046 C 
HETATM   35  C13 UNL     1     -19.653  13.392   3.762  1.00  0.00     0.046 C 
HETATM   36  C14 UNL     1     -20.312  12.743   1.452  1.00  0.00     0.046 C 
ENDBRANCH  32  33
ENDBRANCH  29  32
ENDBRANCH   4  28
BRANCH   6  37
HETATM   37  O10 UNL     1     -14.601   9.733  -1.931  1.00  0.00    -0.311 OA
BRANCH  37  38
HETATM   38  C23 UNL     1     -13.980  10.757  -2.629  1.00  0.00     0.255 C 
HETATM   39  C24 UNL     1     -12.961  10.398  -3.644  1.00  0.00     0.126 C 
HETATM   40  O11 UNL     1     -14.289  11.965  -2.393  1.00  0.00    -0.266 OA
ENDBRANCH  37  38
ENDBRANCH   6  37
BRANCH   1  41
HETATM   41  O2  UNL     1     -16.743   9.287  -3.568  1.00  0.00    -0.308 OA
BRANCH  41  42
HETATM   42  C2  UNL     1     -16.471   8.271  -4.466  1.00  0.00     0.255 C 
HETATM   43  C1  UNL     1     -15.312   7.346  -4.325  1.00  0.00     0.126 C 
HETATM   44  O1  UNL     1     -17.224   8.101  -5.458  1.00  0.00    -0.266 OA
ENDBRANCH  41  42
ENDBRANCH   1  41
BRANCH   2  45
HETATM   45  O3  UNL     1     -19.215   8.624  -2.398  1.00  0.00    -0.283 OA
BRANCH  45  46
HETATM   46  C5  UNL     1     -20.552   8.610  -2.232  1.00  0.00     0.288 C 
HETATM   47  O4  UNL     1     -21.134   9.752  -2.424  1.00  0.00    -0.260 OA
BRANCH  46  48
HETATM   48  C6  UNL     1     -21.306   7.449  -1.871  1.00  0.00     0.120 C 
HETATM   49  C7  UNL     1     -21.067   6.448  -1.097  1.00  0.00     0.098 C 
BRANCH  49  50
HETATM   50  O5  UNL     1     -22.151   5.487  -1.039  1.00  0.00    -0.358 OA
ATOM     51  H5  UNL     1     -22.314   5.149  -0.166  1.00  0.00     0.217 HD
ENDBRANCH  49  50
BRANCH  49  52
HETATM   52  C8  UNL     1     -19.956   6.046  -0.258  1.00  0.00     0.224 C 
HETATM   53  F1  UNL     1     -18.704   6.048  -0.720  1.00  0.00    -0.216 F 
ENDBRANCH  49  52
ENDBRANCH  46  48
ENDBRANCH  45  46
ENDBRANCH   2  45
TORSDOF 15
ENDMDL
MODEL 2
REMARK VINA RESULT: -6.829681566      3.561      5.854
REMARK  15 active torsions:
REMARK  status: ('A' for Active; 'I' for Inactive)
REMARK    1  A    between atoms: C2_2  and  O2_4 
REMARK    2  A    between atoms: O2_4  and  C3_5 
REMARK    3  A    between atoms: C4_6  and  O3_7 
REMARK    4  A    between atoms: O3_7  and  C5_8 
REMARK    5  A    between atoms: C5_8  and  C6_10 
REMARK    6  A    between atoms: C7_11  and  O5_12 
REMARK    7  A    between atoms: C7_11  and  C8_14 
REMARK    8  A    between atoms: C9_17  and  N1_18 
REMARK       I    between atoms: N1_18  and  C10_20 
REMARK    9  A    between atoms: C10_20  and  O8_22 
REMARK   10  A    between atoms: O8_22  and  C11_23 
REMARK   11  A    between atoms: C15_27  and  N2_28 
REMARK   12  A    between atoms: N2_28  and  C16_30 
REMARK   13  A    between atoms: C21_43  and  N6_44 
REMARK   14  A    between atoms: C22_49  and  O10_50 
REMARK   15  A    between atoms: O10_50  and  C23_51 
ROOT
HETATM    1  C3  UNL     1     -16.004   7.922  -3.341  1.00  0.00     0.219 C 
HETATM    2  C4  UNL     1     -16.205   7.734  -1.848  1.00  0.00     0.304 C 
HETATM    3  O6  UNL     1     -15.620   6.523  -1.531  1.00  0.00    -0.331 OA
HETATM    4  C9  UNL     1     -14.251   6.462  -1.767  1.00  0.00     0.254 C 
HETATM    5  C15 UNL     1     -13.850   6.785  -3.177  1.00  0.00     0.180 C 
HETATM    6  C22 UNL     1     -14.538   8.065  -3.589  1.00  0.00     0.193 C 
ENDROOT
BRANCH   5   7
HETATM    7  N2  UNL     1     -14.078   5.744  -4.129  1.00  0.00    -0.214 N 
ATOM      8  H2  UNL     1     -14.985   5.742  -4.597  1.00  0.00     0.178 HD
BRANCH   7   9
HETATM    9  C16 UNL     1     -13.178   4.713  -4.491  1.00  0.00     0.681 A 
HETATM   10  N3  UNL     1     -13.317   4.060  -5.666  1.00  0.00    -0.184 N 
HETATM   11  C17 UNL     1     -12.498   3.099  -6.076  1.00  0.00     0.147 A 
ATOM     12  H3  UNL     1     -14.095   4.320  -6.273  1.00  0.00     0.184 HD
HETATM   13  C18 UNL     1     -12.640   2.436  -7.273  1.00  0.00     0.277 A 
HETATM   14  C20 UNL     1     -11.456   2.766  -5.238  1.00  0.00     0.112 A 
HETATM   15  O9  UNL     1     -13.606   2.742  -8.052  1.00  0.00    -0.266 OA
HETATM   16  N4  UNL     1     -11.761   1.469  -7.613  1.00  0.00    -0.298 N 
HETATM   17  C19 UNL     1     -10.738   1.144  -6.787  1.00  0.00     0.182 A 
ATOM     18  H4  UNL     1     -11.868   0.978  -8.501  1.00  0.00     0.171 HD
HETATM   19 CL1  UNL     1      -9.612  -0.119  -7.260  1.00  0.00    -0.045 Cl
HETATM   20  N5  UNL     1     -10.602   1.794  -5.617  1.00  0.00    -0.327 N 
ATOM     21  H5  UNL     1      -9.830   1.545  -5.000  1.00  0.00     0.168 HD
HETATM   22  C21 UNL     1     -11.308   3.427  -4.039  1.00  0.00     0.144 A 
HETATM   23  N7  UNL     1     -12.171   4.398  -3.670  1.00  0.00    -0.175 N 
ATOM     24  H7  UNL     1     -12.057   4.883  -2.781  1.00  0.00     0.186 HD
BRANCH  22  25
HETATM   25  N6  UNL     1     -10.332   3.118  -3.251  1.00  0.00    -0.383 N 
ATOM     26  H62 UNL     1      -9.387   3.054  -3.629  1.00  0.00     0.157 HD
ATOM     27  H61 UNL     1     -10.514   2.942  -2.262  1.00  0.00     0.157 HD
ENDBRANCH  22  25
ENDBRANCH   7   9
ENDBRANCH   5   7
BRANCH   4  28
HETATM   28  N1  UNL     1     -13.489   7.242  -0.843  1.00  0.00    -0.308 N 
HETATM   29  C10 UNL     1     -12.117   6.985  -0.576  1.00  0.00     0.363 C 
HETATM   30  O7  UNL     1     -11.527   6.042  -1.162  1.00  0.00    -0.238 OA
ATOM     31  H1  UNL     1     -13.949   8.012  -0.357  1.00  0.00     0.167 HD
BRANCH  29  32
HETATM   32  O8  UNL     1     -11.389   7.747   0.322  1.00  0.00    -0.294 OA
BRANCH  32  33
HETATM   33  C11 UNL     1     -10.694   8.902  -0.138  1.00  0.00     0.061 C 
HETATM   34  C12 UNL     1      -9.345   8.516  -0.697  1.00  0.00     0.046 C 
HETATM   35  C13 UNL     1     -10.448   9.821   1.058  1.00  0.00     0.046 C 
HETATM   36  C14 UNL     1     -11.445   9.632  -1.215  1.00  0.00     0.046 C 
ENDBRANCH  32  33
ENDBRANCH  29  32
ENDBRANCH   4  28
BRANCH   6  37
HETATM   37  O10 UNL     1     -14.230   8.439  -4.908  1.00  0.00    -0.311 OA
BRANCH  37  38
HETATM   38  C23 UNL     1     -12.918   8.684  -5.284  1.00  0.00     0.255 C 
HETATM   39  C24 UNL     1     -12.289   9.954  -4.853  1.00  0.00     0.126 C 
HETATM   40  O11 UNL     1     -12.287   7.830  -5.980  1.00  0.00    -0.266 OA
ENDBRANCH  37  38
ENDBRANCH   6  37
BRANCH   1  41
HETATM   41  O2  UNL     1     -16.632   9.116  -3.796  1.00  0.00    -0.308 OA
BRANCH  41  42
HETATM   42  C2  UNL     1     -17.661   9.102  -4.719  1.00  0.00     0.255 C 
HETATM   43  C1  UNL     1     -18.806  10.055  -4.679  1.00  0.00     0.126 C 
HETATM   44  O1  UNL     1     -17.651   8.253  -5.646  1.00  0.00    -0.266 OA
ENDBRANCH  41  42
ENDBRANCH   1  41
BRANCH   2  45
HETATM   45  O3  UNL     1     -17.605   7.573  -1.653  1.00  0.00    -0.283 OA
BRANCH  45  46
HETATM   46  C5  UNL     1     -18.207   7.199  -0.508  1.00  0.00     0.288 C 
HETATM   47  O4  UNL     1     -17.671   7.679   0.569  1.00  0.00    -0.260 OA
BRANCH  46  48
HETATM   48  C6  UNL     1     -19.350   6.340  -0.443  1.00  0.00     0.120 C 
HETATM   49  C7  UNL     1     -20.548   6.431  -0.908  1.00  0.00     0.098 C 
BRANCH  49  50
HETATM   50  O5  UNL     1     -21.385   5.292  -0.585  1.00  0.00    -0.358 OA
ATOM     51  H5  UNL     1     -21.474   4.671  -1.299  1.00  0.00     0.217 HD
ENDBRANCH  49  50
BRANCH  49  52
HETATM   52  C8  UNL     1     -21.271   7.415  -1.689  1.00  0.00     0.224 C 
HETATM   53  F1  UNL     1     -20.667   8.106  -2.658  1.00  0.00    -0.216 F 
ENDBRANCH  49  52
ENDBRANCH  46  48
ENDBRANCH  45  46
ENDBRANCH   2  45
TORSDOF 15
ENDMDL
MODEL 3
REMARK VINA RESULT: -6.821901124      3.434      6.161
REMARK  15 active torsions:
REMARK  status: ('A' for Active; 'I' for Inactive)
REMARK    1  A    between atoms: C2_2  and  O2_4 
REMARK    2  A    between atoms: O2_4  and  C3_5 
REMARK    3  A    between atoms: C4_6  and  O3_7 
REMARK    4  A    between atoms: O3_7  and  C5_8 
REMARK    5  A    between atoms: C5_8  and  C6_10 
REMARK    6  A    between atoms: C7_11  and  O5_12 
REMARK    7  A    between atoms: C7_11  and  C8_14 
REMARK    8  A    between atoms: C9_17  and  N1_18 
REMARK       I    between atoms: N1_18  and  C10_20 
REMARK    9  A    between atoms: C10_20  and  O8_22 
REMARK   10  A    between atoms: O8_22  and  C11_23 
REMARK   11  A    between atoms: C15_27  and  N2_28 
REMARK   12  A    between atoms: N2_28  and  C16_30 
REMARK   13  A    between atoms: C21_43  and  N6_44 
REMARK   14  A    between atoms: C22_49  and  O10_50 
REMARK   15  A    between atoms: O10_50  and  C23_51 
ROOT
HETATM    1  C3  UNL     1     -13.365   7.493  -1.856  1.00  0.00     0.219 C 
HETATM    2  C4  UNL     1     -13.762   8.257  -0.606  1.00  0.00     0.304 C 
HETATM    3  O6  UNL     1     -12.995   7.740   0.421  1.00  0.00    -0.331 OA
HETATM    4  C9  UNL     1     -11.624   7.910   0.260  1.00  0.00     0.254 C 
HETATM    5  C15 UNL     1     -11.076   7.350  -1.021  1.00  0.00     0.180 C 
HETATM    6  C22 UNL     1     -11.942   7.828  -2.162  1.00  0.00     0.193 C 
ENDROOT
BRANCH   5   7
HETATM    7  N2  UNL     1     -10.921   5.929  -1.046  1.00  0.00    -0.214 N 
ATOM      8  H2  UNL     1     -11.573   5.388  -0.478  1.00  0.00     0.178 HD
BRANCH   7   9
HETATM    9  C16 UNL     1      -9.958   5.193  -1.778  1.00  0.00     0.681 A 
HETATM   10  N3  UNL     1      -8.809   4.790  -1.191  1.00  0.00    -0.184 N 
HETATM   11  C17 UNL     1      -7.875   4.081  -1.813  1.00  0.00     0.147 A 
ATOM     12  H3  UNL     1      -8.651   5.044  -0.216  1.00  0.00     0.184 HD
HETATM   13  C18 UNL     1      -6.706   3.671  -1.214  1.00  0.00     0.277 A 
HETATM   14  C20 UNL     1      -8.112   3.751  -3.130  1.00  0.00     0.112 A 
HETATM   15  O9  UNL     1      -6.483   3.976   0.008  1.00  0.00    -0.266 OA
HETATM   16  N4  UNL     1      -5.807   2.952  -1.920  1.00  0.00    -0.298 N 
HETATM   17  C19 UNL     1      -6.044   2.629  -3.214  1.00  0.00     0.182 A 
ATOM     18  H4  UNL     1      -4.941   2.648  -1.474  1.00  0.00     0.171 HD
HETATM   19 CL1  UNL     1      -4.852   1.692  -4.104  1.00  0.00    -0.045 Cl
HETATM   20  N5  UNL     1      -7.187   3.032  -3.796  1.00  0.00    -0.327 N 
ATOM     21  H5  UNL     1      -7.359   2.786  -4.771  1.00  0.00     0.168 HD
HETATM   22  C21 UNL     1      -9.280   4.158  -3.734  1.00  0.00     0.144 A 
HETATM   23  N7  UNL     1     -10.199   4.879  -3.055  1.00  0.00    -0.175 N 
ATOM     24  H7  UNL     1     -11.062   5.179  -3.508  1.00  0.00     0.186 HD
BRANCH  22  25
HETATM   25  N6  UNL     1      -9.507   3.851  -4.968  1.00  0.00    -0.383 N 
ATOM     26  H62 UNL     1      -8.762   3.423  -5.519  1.00  0.00     0.157 HD
ATOM     27  H61 UNL     1     -10.422   4.037  -5.378  1.00  0.00     0.157 HD
ENDBRANCH  22  25
ENDBRANCH   7   9
ENDBRANCH   5   7
BRANCH   4  28
HETATM   28  N1  UNL     1     -11.205   9.266   0.428  1.00  0.00    -0.308 N 
HETATM   29  C10 UNL     1     -10.482   9.706   1.570  1.00  0.00     0.363 C 
HETATM   30  O7  UNL     1     -10.187   8.891   2.482  1.00  0.00    -0.238 OA
ATOM     31  H1  UNL     1     -11.434   9.943  -0.299  1.00  0.00     0.167 HD
BRANCH  29  32
HETATM   32  O8  UNL     1     -10.081  11.023   1.723  1.00  0.00    -0.294 OA
BRANCH  32  33
HETATM   33  C11 UNL     1      -8.780  11.415   1.296  1.00  0.00     0.061 C 
HETATM   34  C12 UNL     1      -8.081  12.191   2.387  1.00  0.00     0.046 C 
HETATM   35  C13 UNL     1      -8.931  12.347   0.095  1.00  0.00     0.046 C 
HETATM   36  C14 UNL     1      -7.914  10.240   0.942  1.00  0.00     0.046 C 
ENDBRANCH  32  33
ENDBRANCH  29  32
ENDBRANCH   4  28
BRANCH   6  37
HETATM   37  O10 UNL     1     -11.508   7.338  -3.405  1.00  0.00    -0.311 OA
BRANCH  37  38
HETATM   38  C23 UNL     1     -10.652   8.084  -4.199  1.00  0.00     0.255 C 
HETATM   39  C24 UNL     1     -11.147   9.366  -4.756  1.00  0.00     0.126 C 
HETATM   40  O11 UNL     1      -9.476   7.667  -4.433  1.00  0.00    -0.266 OA
ENDBRANCH  37  38
ENDBRANCH   6  37
BRANCH   1  41
HETATM   41  O2  UNL     1     -14.148   7.898  -2.974  1.00  0.00    -0.308 OA
BRANCH  41  42
HETATM   42  C2  UNL     1     -14.826   6.990  -3.766  1.00  0.00     0.255 C 
HETATM   43  C1  UNL     1     -14.260   5.670  -4.162  1.00  0.00     0.126 C 
HETATM   44  O1  UNL     1     -15.977   7.271  -4.185  1.00  0.00    -0.266 OA
ENDBRANCH  41  42
ENDBRANCH   1  41
BRANCH   2  45
HETATM   45  O3  UNL     1     -15.109   7.894  -0.329  1.00  0.00    -0.283 OA
BRANCH  45  46
HETATM   46  C5  UNL     1     -16.172   8.721  -0.340  1.00  0.00     0.288 C 
HETATM   47  O4  UNL     1     -16.163   9.626   0.587  1.00  0.00    -0.260 OA
BRANCH  46  48
HETATM   48  C6  UNL     1     -17.246   8.640  -1.282  1.00  0.00     0.120 C 
HETATM   49  C7  UNL     1     -18.263   7.859  -1.393  1.00  0.00     0.098 C 
BRANCH  49  50
HETATM   50  O5  UNL     1     -19.105   8.159  -2.535  1.00  0.00    -0.358 OA
ATOM     51  H5  UNL     1     -19.931   8.566  -2.302  1.00  0.00     0.217 HD
ENDBRANCH  49  50
BRANCH  49  52
HETATM   52  C8  UNL     1     -18.777   6.733  -0.638  1.00  0.00     0.224 C 
HETATM   53  F1  UNL     1     -19.911   6.124  -0.992  1.00  0.00    -0.216 F 
ENDBRANCH  49  52
ENDBRANCH  46  48
ENDBRANCH  45  46
ENDBRANCH   2  45
TORSDOF 15
ENDMDL
MODEL 4
REMARK VINA RESULT: -6.771982327      4.474      8.363
REMARK  15 active torsions:
REMARK  status: ('A' for Active; 'I' for Inactive)
REMARK    1  A    between atoms: C2_2  and  O2_4 
REMARK    2  A    between atoms: O2_4  and  C3_5 
REMARK    3  A    between atoms: C4_6  and  O3_7 
REMARK    4  A    between atoms: O3_7  and  C5_8 
REMARK    5  A    between atoms: C5_8  and  C6_10 
REMARK    6  A    between atoms: C7_11  and  O5_12 
REMARK    7  A    between atoms: C7_11  and  C8_14 
REMARK    8  A    between atoms: C9_17  and  N1_18 
REMARK       I    between atoms: N1_18  and  C10_20 
REMARK    9  A    between atoms: C10_20  and  O8_22 
REMARK   10  A    between atoms: O8_22  and  C11_23 
REMARK   11  A    between atoms: C15_27  and  N2_28 
REMARK   12  A    between atoms: N2_28  and  C16_30 
REMARK   13  A    between atoms: C21_43  and  N6_44 
REMARK   14  A    between atoms: C22_49  and  O10_50 
REMARK   15  A    between atoms: O10_50  and  C23_51 
ROOT
HETATM    1  C3  UNL     1     -14.052   6.911  -3.331  1.00  0.00     0.219 C 
HETATM    2  C4  UNL     1     -13.674   7.098  -1.873  1.00  0.00     0.304 C 
HETATM    3  O6  UNL     1     -13.079   5.915  -1.476  1.00  0.00    -0.331 OA
HETATM    4  C9  UNL     1     -11.911   5.596  -2.161  1.00  0.00     0.254 C 
HETATM    5  C15 UNL     1     -12.066   5.528  -3.653  1.00  0.00     0.180 C 
HETATM    6  C22 UNL     1     -12.789   6.771  -4.116  1.00  0.00     0.193 C 
ENDROOT
BRANCH   5   7
HETATM    7  N2  UNL     1     -12.700   4.345  -4.146  1.00  0.00    -0.214 N 
ATOM      8  H2  UNL     1     -13.564   4.063  -3.683  1.00  0.00     0.178 HD
BRANCH   7   9
HETATM    9  C16 UNL     1     -12.253   3.523  -5.208  1.00  0.00     0.681 A 
HETATM   10  N3  UNL     1     -10.997   3.026  -5.212  1.00  0.00    -0.184 N 
HETATM   11  C17 UNL     1     -10.521   2.234  -6.165  1.00  0.00     0.147 A 
ATOM     12  H3  UNL     1     -10.379   3.273  -4.439  1.00  0.00     0.184 HD
HETATM   13  C18 UNL     1      -9.242   1.728  -6.167  1.00  0.00     0.277 A 
HETATM   14  C20 UNL     1     -11.376   1.916  -7.198  1.00  0.00     0.112 A 
HETATM   15  O9  UNL     1      -8.446   2.021  -5.209  1.00  0.00    -0.266 OA
HETATM   16  N4  UNL     1      -8.838   0.929  -7.177  1.00  0.00    -0.298 N 
HETATM   17  C19 UNL     1      -9.681   0.619  -8.192  1.00  0.00     0.182 A 
ATOM     18  H4  UNL     1      -7.889   0.554  -7.177  1.00  0.00     0.171 HD
HETATM   19 CL1  UNL     1      -9.123  -0.425  -9.491  1.00  0.00    -0.045 Cl
HETATM   20  N5  UNL     1     -10.930   1.115  -8.187  1.00  0.00    -0.327 N 
ATOM     21  H5  UNL     1     -11.560   0.878  -8.953  1.00  0.00     0.168 HD
HETATM   22  C21 UNL     1     -12.657   2.419  -7.201  1.00  0.00     0.144 A 
HETATM   23  N7  UNL     1     -13.091   3.222  -6.205  1.00  0.00    -0.175 N 
ATOM     24  H7  UNL     1     -14.041   3.593  -6.214  1.00  0.00     0.186 HD
BRANCH  22  25
HETATM   25  N6  UNL     1     -13.461   2.124  -8.169  1.00  0.00    -0.383 N 
ATOM     26  H62 UNL     1     -13.590   1.146  -8.428  1.00  0.00     0.157 HD
ATOM     27  H61 UNL     1     -13.958   2.867  -8.661  1.00  0.00     0.157 HD
ENDBRANCH  22  25
ENDBRANCH   7   9
ENDBRANCH   5   7
BRANCH   4  28
HETATM   28  N1  UNL     1     -10.812   6.440  -1.814  1.00  0.00    -0.308 N 
HETATM   29  C10 UNL     1      -9.490   5.943  -1.648  1.00  0.00     0.363 C 
HETATM   30  O7  UNL     1      -9.253   4.719  -1.806  1.00  0.00    -0.238 OA
ATOM     31  H1  UNL     1     -10.982   7.437  -1.681  1.00  0.00     0.167 HD
BRANCH  29  32
HETATM   32  O8  UNL     1      -8.431   6.771  -1.311  1.00  0.00    -0.294 OA
BRANCH  32  33
HETATM   33  C11 UNL     1      -7.560   7.248  -2.332  1.00  0.00     0.061 C 
HETATM   34  C12 UNL     1      -6.536   6.196  -2.682  1.00  0.00     0.046 C 
HETATM   35  C13 UNL     1      -6.806   8.461  -1.788  1.00  0.00     0.046 C 
HETATM   36  C14 UNL     1      -8.296   7.609  -3.591  1.00  0.00     0.046 C 
ENDBRANCH  32  33
ENDBRANCH  29  32
ENDBRANCH   4  28
BRANCH   6  37
HETATM   37  O10 UNL     1     -12.992   6.786  -5.506  1.00  0.00    -0.311 OA
BRANCH  37  38
HETATM   38  C23 UNL     1     -11.924   6.954  -6.374  1.00  0.00     0.255 C 
HETATM   39  C24 UNL     1     -11.083   8.166  -6.227  1.00  0.00     0.126 C 
HETATM   40  O11 UNL     1     -11.686   6.083  -7.265  1.00  0.00    -0.266 OA
ENDBRANCH  37  38
ENDBRANCH   6  37
BRANCH   1  41
HETATM   41  O2  UNL     1     -14.740   8.052  -3.831  1.00  0.00    -0.308 OA
BRANCH  41  42
HETATM   42  C2  UNL     1     -16.009   7.968  -4.376  1.00  0.00     0.255 C 
HETATM   43  C1  UNL     1     -17.105   8.919  -4.040  1.00  0.00     0.126 C 
HETATM   44  O1  UNL     1     -16.272   7.054  -5.196  1.00  0.00    -0.266 OA
ENDBRANCH  41  42
ENDBRANCH   1  41
BRANCH   2  45
HETATM   45  O3  UNL     1     -14.897   7.199  -1.154  1.00  0.00    -0.283 OA
BRANCH  45  46
HETATM   46  C5  UNL     1     -15.244   8.194  -0.316  1.00  0.00     0.288 C 
HETATM   47  O4  UNL     1     -16.109   9.031  -0.797  1.00  0.00    -0.260 OA
BRANCH  46  48
HETATM   48  C6  UNL     1     -14.724   8.350   1.008  1.00  0.00     0.120 C 
HETATM   49  C7  UNL     1     -13.556   8.640   1.466  1.00  0.00     0.098 C 
BRANCH  49  50
HETATM   50  O5  UNL     1     -13.496   8.689   2.915  1.00  0.00    -0.358 OA
ATOM     51  H5  UNL     1     -12.611   8.699   3.259  1.00  0.00     0.217 HD
ENDBRANCH  49  50
BRANCH  49  52
HETATM   52  C8  UNL     1     -12.266   8.932   0.873  1.00  0.00     0.224 C 
HETATM   53  F1  UNL     1     -11.272   8.042   0.908  1.00  0.00    -0.216 F 
ENDBRANCH  49  52
ENDBRANCH  46  48
ENDBRANCH  45  46
ENDBRANCH   2  45
TORSDOF 15
ENDMDL
MODEL 5
REMARK VINA RESULT: -6.748492164      3.476      6.185
REMARK  15 active torsions:
REMARK  status: ('A' for Active; 'I' for Inactive)
REMARK    1  A    between atoms: C2_2  and  O2_4 
REMARK    2  A    between atoms: O2_4  and  C3_5 
REMARK    3  A    between atoms: C4_6  and  O3_7 
REMARK    4  A    between atoms: O3_7  and  C5_8 
REMARK    5  A    between atoms: C5_8  and  C6_10 
REMARK    6  A    between atoms: C7_11  and  O5_12 
REMARK    7  A    between atoms: C7_11  and  C8_14 
REMARK    8  A    between atoms: C9_17  and  N1_18 
REMARK       I    between atoms: N1_18  and  C10_20 
REMARK    9  A    between atoms: C10_20  and  O8_22 
REMARK   10  A    between atoms: O8_22  and  C11_23 
REMARK   11  A    between atoms: C15_27  and  N2_28 
REMARK   12  A    between atoms: N2_28  and  C16_30 
REMARK   13  A    between atoms: C21_43  and  N6_44 
REMARK   14  A    between atoms: C22_49  and  O10_50 
REMARK   15  A    between atoms: O10_50  and  C23_51 
ROOT
HETATM    1  C3  UNL     1     -13.069   7.128  -2.188  1.00  0.00     0.219 C 
HETATM    2  C4  UNL     1     -13.587   7.947  -1.020  1.00  0.00     0.304 C 
HETATM    3  O6  UNL     1     -12.902   7.502   0.095  1.00  0.00    -0.331 OA
HETATM    4  C9  UNL     1     -11.525   7.696   0.043  1.00  0.00     0.254 C 
HETATM    5  C15 UNL     1     -10.858   7.083  -1.154  1.00  0.00     0.180 C 
HETATM    6  C22 UNL     1     -11.631   7.480  -2.389  1.00  0.00     0.193 C 
ENDROOT
BRANCH   5   7
HETATM    7  N2  UNL     1     -10.674   5.666  -1.090  1.00  0.00    -0.214 N 
ATOM      8  H2  UNL     1     -11.431   5.126  -0.671  1.00  0.00     0.178 HD
BRANCH   7   9
HETATM    9  C16 UNL     1      -9.552   4.934  -1.547  1.00  0.00     0.681 A 
HETATM   10  N3  UNL     1      -9.504   4.470  -2.815  1.00  0.00    -0.184 N 
HETATM   11  C17 UNL     1      -8.475   3.795  -3.313  1.00  0.00     0.147 A 
ATOM     12  H3  UNL     1     -10.302   4.648  -3.424  1.00  0.00     0.184 HD
HETATM   13  C18 UNL     1      -8.427   3.323  -4.604  1.00  0.00     0.277 A 
HETATM   14  C20 UNL     1      -7.409   3.567  -2.469  1.00  0.00     0.112 A 
HETATM   15  O9  UNL     1      -9.415   3.533  -5.389  1.00  0.00    -0.266 OA
HETATM   16  N4  UNL     1      -7.340   2.644  -5.030  1.00  0.00    -0.298 N 
HETATM   17  C19 UNL     1      -6.294   2.422  -4.199  1.00  0.00     0.182 A 
ATOM     18  H4  UNL     1      -7.306   2.295  -5.989  1.00  0.00     0.171 HD
HETATM   19 CL1  UNL     1      -4.895   1.535  -4.786  1.00  0.00    -0.045 Cl
HETATM   20  N5  UNL     1      -6.344   2.884  -2.937  1.00  0.00    -0.327 N 
ATOM     21  H5  UNL     1      -5.554   2.714  -2.316  1.00  0.00     0.168 HD
HETATM   22  C21 UNL     1      -7.451   4.037  -1.176  1.00  0.00     0.144 A 
HETATM   23  N7  UNL     1      -8.524   4.719  -0.720  1.00  0.00    -0.175 N 
ATOM     24  H7  UNL     1      -8.550   5.064   0.240  1.00  0.00     0.186 HD
BRANCH  22  25
HETATM   25  N6  UNL     1      -6.454   3.826  -0.382  1.00  0.00    -0.383 N 
ATOM     26  H62 UNL     1      -5.537   3.619  -0.779  1.00  0.00     0.157 HD
ATOM     27  H61 UNL     1      -6.591   3.868   0.628  1.00  0.00     0.157 HD
ENDBRANCH  22  25
ENDBRANCH   7   9
ENDBRANCH   5   7
BRANCH   4  28
HETATM   28  N1  UNL     1     -11.148   9.068   0.172  1.00  0.00    -0.308 N 
HETATM   29  C10 UNL     1     -10.478   9.570   1.320  1.00  0.00     0.363 C 
HETATM   30  O7  UNL     1     -10.193   8.799   2.272  1.00  0.00    -0.238 OA
ATOM     31  H1  UNL     1     -11.369   9.711  -0.588  1.00  0.00     0.167 HD
BRANCH  29  32
HETATM   32  O8  UNL     1     -10.117  10.903   1.436  1.00  0.00    -0.294 OA
BRANCH  32  33
HETATM   33  C11 UNL     1      -8.862  11.338   0.922  1.00  0.00     0.061 C 
HETATM   34  C12 UNL     1      -7.909  10.173   0.807  1.00  0.00     0.046 C 
HETATM   35  C13 UNL     1      -8.257  12.330   1.915  1.00  0.00     0.046 C 
HETATM   36  C14 UNL     1      -8.985  11.966  -0.437  1.00  0.00     0.046 C 
ENDBRANCH  32  33
ENDBRANCH  29  32
ENDBRANCH   4  28
BRANCH   6  37
HETATM   37  O10 UNL     1     -11.083   6.936  -3.563  1.00  0.00    -0.311 OA
BRANCH  37  38
HETATM   38  C23 UNL     1     -10.105   7.620  -4.269  1.00  0.00     0.255 C 
HETATM   39  C24 UNL     1     -10.470   8.907  -4.906  1.00  0.00     0.126 C 
HETATM   40  O11 UNL     1      -8.933   7.142  -4.356  1.00  0.00    -0.266 OA
ENDBRANCH  37  38
ENDBRANCH   6  37
BRANCH   1  41
HETATM   41  O2  UNL     1     -13.760   7.455  -3.389  1.00  0.00    -0.308 OA
BRANCH  41  42
HETATM   42  C2  UNL     1     -14.421   6.503  -4.142  1.00  0.00     0.255 C 
HETATM   43  C1  UNL     1     -13.860   5.151  -4.423  1.00  0.00     0.126 C 
HETATM   44  O1  UNL     1     -15.551   6.768  -4.623  1.00  0.00    -0.266 OA
ENDBRANCH  41  42
ENDBRANCH   1  41
BRANCH   2  45
HETATM   45  O3  UNL     1     -14.946   7.566  -0.839  1.00  0.00    -0.283 OA
BRANCH  45  46
HETATM   46  C5  UNL     1     -15.993   8.403  -0.711  1.00  0.00     0.288 C 
HETATM   47  O4  UNL     1     -15.842   9.328   0.183  1.00  0.00    -0.260 OA
BRANCH  46  48
HETATM   48  C6  UNL     1     -17.195   8.312  -1.482  1.00  0.00     0.120 C 
HETATM   49  C7  UNL     1     -18.295   7.661  -1.325  1.00  0.00     0.098 C 
BRANCH  49  50
HETATM   50  O5  UNL     1     -19.257   7.882  -2.387  1.00  0.00    -0.358 OA
ATOM     51  H5  UNL     1     -19.889   8.564  -2.192  1.00  0.00     0.217 HD
ENDBRANCH  49  50
BRANCH  49  52
HETATM   52  C8  UNL     1     -18.810   6.746  -0.325  1.00  0.00     0.224 C 
HETATM   53  F1  UNL     1     -19.454   5.632  -0.676  1.00  0.00    -0.216 F 
ENDBRANCH  49  52
ENDBRANCH  46  48
ENDBRANCH  45  46
ENDBRANCH   2  45
TORSDOF 15
ENDMDL
