MODEL 1
REMARK VINA RESULT: -7.872303629      0.000      0.000
REMARK  10 active torsions:
REMARK  status: ('A' for Active; 'I' for Inactive)
REMARK    1  A    between atoms: C4_5  and  S1_6 
REMARK    2  A    between atoms: C6_12  and  O4_13 
REMARK    3  A    between atoms: O4_13  and  C7_14 
REMARK    4  A    between atoms: C8_17  and  N3_18 
REMARK    5  A    between atoms: N3_18  and  N4_20 
REMARK    6  A    between atoms: N4_20  and  C9_22 
REMARK    7  A    between atoms: C12_25  and  S2_26 
REMARK    8  A    between atoms: S2_26  and  N5_29 
REMARK    9  A    between atoms: C17_41  and  S4_42 
REMARK   10  A    between atoms: S4_42  and  N8_43 
ROOT
HETATM    1  C9  UNL     1     -12.315   5.813  -2.034  1.00  0.00     0.071 A 
HETATM    2  C10 UNL     1     -13.163   4.879  -2.589  1.00  0.00     0.034 A 
HETATM    3  C11 UNL     1     -12.751   3.920  -3.496  1.00  0.00     0.028 A 
HETATM    4  C12 UNL     1     -11.421   3.911  -3.853  1.00  0.00     0.083 A 
HETATM    5  C16 UNL     1     -10.566   4.853  -3.293  1.00  0.00     0.053 A 
HETATM    6  C17 UNL     1     -10.983   5.807  -2.390  1.00  0.00     0.108 A 
ENDROOT
BRANCH   1   7
HETATM    7  N4  UNL     1     -12.807   6.754  -1.121  1.00  0.00    -0.299 N 
ATOM      8  H4  UNL     1     -12.790   6.516  -0.129  1.00  0.00     0.187 HD
BRANCH   7   9
HETATM    9  N3  UNL     1     -13.280   7.902  -1.461  1.00  0.00    -0.297 N 
ATOM     10  H3  UNL     1     -12.680   8.703  -1.660  1.00  0.00     0.187 HD
BRANCH   9  11
HETATM   11  C8  UNL     1     -14.700   7.975  -1.540  1.00  0.00     0.091 A 
HETATM   12  C2  UNL     1     -15.314   8.108  -2.779  1.00  0.00    -0.005 A 
HETATM   13  C1  UNL     1     -14.482   8.174  -4.017  1.00  0.00     0.052 C 
HETATM   14  C3  UNL     1     -16.690   8.179  -2.863  1.00  0.00     0.081 A 
HETATM   15  N1  UNL     1     -17.297   8.318  -4.161  1.00  0.00    -0.100 NA
HETATM   16  C4  UNL     1     -17.469   8.119  -1.726  1.00  0.00     0.132 A 
HETATM   17  C5  UNL     1     -16.873   7.986  -0.484  1.00  0.00     0.108 A 
HETATM   18  N2  UNL     1     -17.624   7.920   0.710  1.00  0.00    -0.098 NA
HETATM   19  C6  UNL     1     -15.478   7.915  -0.403  1.00  0.00     0.129 A 
BRANCH  16  20
HETATM   20  S1  UNL     1     -19.198   8.209  -1.840  1.00  0.00     0.141 S 
HETATM   21  O1  UNL     1     -19.864   6.910  -1.521  1.00  0.00    -0.591 OA
HETATM   22  O2  UNL     1     -19.592   8.658  -3.229  1.00  0.00    -0.591 OA
HETATM   23  O3  UNL     1     -19.724   9.416  -0.783  1.00  0.00    -0.591 OA
ENDBRANCH  16  20
BRANCH  19  24
HETATM   24  O4  UNL     1     -14.835   7.782   0.816  1.00  0.00    -0.286 OA
BRANCH  24  25
HETATM   25  C7  UNL     1     -14.287   8.903   1.508  1.00  0.00     0.505 C 
HETATM   26  F1  UNL     1     -13.329   8.526   2.417  1.00  0.00    -0.184 F 
HETATM   27  F2  UNL     1     -15.297   9.533   2.244  1.00  0.00    -0.184 F 
ENDBRANCH  24  25
ENDBRANCH  19  24
ENDBRANCH   9  11
ENDBRANCH   7   9
ENDBRANCH   1   7
BRANCH   6  28
HETATM   28  S4  UNL     1      -9.843   6.968  -1.722  1.00  0.00     0.259 S 
HETATM   29  O9  UNL     1      -9.694   8.164  -2.608  1.00  0.00    -0.201 OA
HETATM   30  O10 UNL     1     -10.291   7.448  -0.364  1.00  0.00    -0.201 OA
BRANCH  28  31
HETATM   31  N8  UNL     1      -8.302   6.208  -1.560  1.00  0.00    -0.324 N 
ATOM     32  H82 UNL     1      -7.528   6.318  -2.215  1.00  0.00     0.169 HD
ATOM     33  H81 UNL     1      -8.302   5.641  -0.712  1.00  0.00     0.169 HD
ENDBRANCH  28  31
ENDBRANCH   6  28
BRANCH   4  34
HETATM   34  S2  UNL     1     -10.773   2.761  -4.971  1.00  0.00     0.285 S 
HETATM   35  O5  UNL     1     -11.329   1.392  -4.642  1.00  0.00    -0.198 OA
HETATM   36  O6  UNL     1      -9.266   2.639  -4.810  1.00  0.00    -0.198 OA
BRANCH  34  37
HETATM   37  N5  UNL     1     -11.148   3.164  -6.601  1.00  0.00    -0.131 N 
HETATM   38  N6  UNL     1     -10.170   3.576  -7.402  1.00  0.00    -0.256 N 
HETATM   39  C13 UNL     1     -10.409   3.900  -8.680  1.00  0.00     0.194 A 
ATOM     40  H6  UNL     1      -9.220   3.647  -7.037  1.00  0.00     0.191 HD
HETATM   41  S3  UNL     1      -9.161   4.407  -9.634  1.00  0.00    -0.039 SA
HETATM   42  N7  UNL     1     -11.640   3.818  -9.191  1.00  0.00    -0.294 N 
HETATM   43  C14 UNL     1     -12.664   3.410  -8.434  1.00  0.00     0.318 A 
ATOM     44  H7  UNL     1     -11.801   4.068 -10.167  1.00  0.00     0.171 HD
HETATM   45  O7  UNL     1     -13.852   3.314  -8.866  1.00  0.00    -0.262 OA
HETATM   46  C15 UNL     1     -12.384   3.078  -7.103  1.00  0.00     0.344 A 
HETATM   47  O8  UNL     1     -13.331   2.690  -6.368  1.00  0.00    -0.259 OA
ENDBRANCH  34  37
ENDBRANCH   4  34
TORSDOF 10
ENDMDL
MODEL 2
REMARK VINA RESULT: -7.753070239      2.949      9.230
REMARK  10 active torsions:
REMARK  status: ('A' for Active; 'I' for Inactive)
REMARK    1  A    between atoms: C4_5  and  S1_6 
REMARK    2  A    between atoms: C6_12  and  O4_13 
REMARK    3  A    between atoms: O4_13  and  C7_14 
REMARK    4  A    between atoms: C8_17  and  N3_18 
REMARK    5  A    between atoms: N3_18  and  N4_20 
REMARK    6  A    between atoms: N4_20  and  C9_22 
REMARK    7  A    between atoms: C12_25  and  S2_26 
REMARK    8  A    between atoms: S2_26  and  N5_29 
REMARK    9  A    between atoms: C17_41  and  S4_42 
REMARK   10  A    between atoms: S4_42  and  N8_43 
ROOT
HETATM    1  C9  UNL     1     -14.391   7.295  -2.021  1.00  0.00     0.071 A 
HETATM    2  C10 UNL     1     -14.691   7.641  -0.722  1.00  0.00     0.034 A 
HETATM    3  C11 UNL     1     -15.878   8.244  -0.348  1.00  0.00     0.028 A 
HETATM    4  C12 UNL     1     -16.797   8.507  -1.339  1.00  0.00     0.083 A 
HETATM    5  C16 UNL     1     -16.495   8.157  -2.650  1.00  0.00     0.053 A 
HETATM    6  C17 UNL     1     -15.310   7.557  -3.016  1.00  0.00     0.108 A 
ENDROOT
BRANCH   1   7
HETATM    7  N4  UNL     1     -13.166   6.686  -2.322  1.00  0.00    -0.299 N 
ATOM      8  H4  UNL     1     -12.532   7.169  -2.958  1.00  0.00     0.187 HD
BRANCH   7   9
HETATM    9  N3  UNL     1     -12.795   5.551  -1.841  1.00  0.00    -0.297 N 
ATOM     10  H3  UNL     1     -13.396   4.989  -1.238  1.00  0.00     0.187 HD
BRANCH   9  11
HETATM   11  C8  UNL     1     -11.484   5.135  -2.212  1.00  0.00     0.091 A 
HETATM   12  C2  UNL     1     -11.323   4.113  -3.140  1.00  0.00    -0.005 A 
HETATM   13  C1  UNL     1     -12.525   3.460  -3.741  1.00  0.00     0.052 C 
HETATM   14  C3  UNL     1     -10.057   3.704  -3.503  1.00  0.00     0.081 A 
HETATM   15  N1  UNL     1      -9.923   2.643  -4.467  1.00  0.00    -0.100 NA
HETATM   16  C4  UNL     1      -8.940   4.299  -2.955  1.00  0.00     0.132 A 
HETATM   17  C5  UNL     1      -9.082   5.318  -2.029  1.00  0.00     0.108 A 
HETATM   18  N2  UNL     1      -7.972   5.961  -1.438  1.00  0.00    -0.098 NA
HETATM   19  C6  UNL     1     -10.368   5.730  -1.663  1.00  0.00     0.129 A 
BRANCH  16  20
HETATM   20  S1  UNL     1      -7.350   3.780  -3.417  1.00  0.00     0.141 S 
HETATM   21  O1  UNL     1      -6.631   4.796  -4.244  1.00  0.00    -0.591 OA
HETATM   22  O2  UNL     1      -7.444   2.476  -4.176  1.00  0.00    -0.591 OA
HETATM   23  O3  UNL     1      -6.484   3.448  -2.007  1.00  0.00    -0.591 OA
ENDBRANCH  16  20
BRANCH  19  24
HETATM   24  O4  UNL     1     -10.563   6.745  -0.741  1.00  0.00    -0.286 OA
BRANCH  24  25
HETATM   25  C7  UNL     1     -10.340   8.115  -1.067  1.00  0.00     0.505 C 
HETATM   26  F1  UNL     1      -9.310   8.656  -0.333  1.00  0.00    -0.184 F 
HETATM   27  F2  UNL     1     -11.480   8.860  -0.746  1.00  0.00    -0.184 F 
ENDBRANCH  24  25
ENDBRANCH  19  24
ENDBRANCH   9  11
ENDBRANCH   7   9
ENDBRANCH   1   7
BRANCH   6  28
HETATM   28  S4  UNL     1     -14.995   7.144  -4.696  1.00  0.00     0.259 S 
HETATM   29  O9  UNL     1     -14.356   5.798  -4.821  1.00  0.00    -0.201 OA
HETATM   30  O10 UNL     1     -16.273   7.129  -5.499  1.00  0.00    -0.201 OA
BRANCH  28  31
HETATM   31  N8  UNL     1     -13.932   8.323  -5.371  1.00  0.00    -0.324 N 
ATOM     32  H82 UNL     1     -13.949   9.318  -5.145  1.00  0.00     0.169 HD
ATOM     33  H81 UNL     1     -13.298   7.862  -6.023  1.00  0.00     0.169 HD
ENDBRANCH  28  31
ENDBRANCH   6  28
BRANCH   4  34
HETATM   34  S2  UNL     1     -18.324   9.250  -1.008  1.00  0.00     0.285 S 
HETATM   35  O5  UNL     1     -18.511  10.421  -1.948  1.00  0.00    -0.198 OA
HETATM   36  O6  UNL     1     -18.347   9.842   0.392  1.00  0.00    -0.198 OA
BRANCH  34  37
HETATM   37  N5  UNL     1     -19.631   8.146  -1.189  1.00  0.00    -0.131 N 
HETATM   38  N6  UNL     1     -20.629   8.461  -2.011  1.00  0.00    -0.256 N 
HETATM   39  C13 UNL     1     -21.669   7.635  -2.188  1.00  0.00     0.194 A 
ATOM     40  H6  UNL     1     -20.602   9.347  -2.515  1.00  0.00     0.191 HD
HETATM   41  S3  UNL     1     -22.882   8.070  -3.218  1.00  0.00    -0.039 SA
HETATM   42  N7  UNL     1     -21.735   6.466  -1.545  1.00  0.00    -0.294 N 
HETATM   43  C14 UNL     1     -20.763   6.095  -0.706  1.00  0.00     0.318 A 
ATOM     44  H7  UNL     1     -22.536   5.851  -1.696  1.00  0.00     0.171 HD
HETATM   45  O7  UNL     1     -20.775   4.999  -0.070  1.00  0.00    -0.262 OA
HETATM   46  C15 UNL     1     -19.689   6.978  -0.541  1.00  0.00     0.344 A 
HETATM   47  O8  UNL     1     -18.758   6.653   0.244  1.00  0.00    -0.259 OA
ENDBRANCH  34  37
ENDBRANCH   4  34
TORSDOF 10
ENDMDL
MODEL 3
REMARK VINA RESULT: -7.660784669      2.981      9.099
REMARK  10 active torsions:
REMARK  status: ('A' for Active; 'I' for Inactive)
REMARK    1  A    between atoms: C4_5  and  S1_6 
REMARK    2  A    between atoms: C6_12  and  O4_13 
REMARK    3  A    between atoms: O4_13  and  C7_14 
REMARK    4  A    between atoms: C8_17  and  N3_18 
REMARK    5  A    between atoms: N3_18  and  N4_20 
REMARK    6  A    between atoms: N4_20  and  C9_22 
REMARK    7  A    between atoms: C12_25  and  S2_26 
REMARK    8  A    between atoms: S2_26  and  N5_29 
REMARK    9  A    between atoms: C17_41  and  S4_42 
REMARK   10  A    between atoms: S4_42  and  N8_43 
ROOT
HETATM    1  C9  UNL     1     -14.259   7.432  -1.883  1.00  0.00     0.071 A 
HETATM    2  C10 UNL     1     -15.280   7.249  -2.791  1.00  0.00     0.034 A 
HETATM    3  C11 UNL     1     -16.546   7.781  -2.631  1.00  0.00     0.028 A 
HETATM    4  C12 UNL     1     -16.783   8.530  -1.501  1.00  0.00     0.083 A 
HETATM    5  C16 UNL     1     -15.753   8.716  -0.586  1.00  0.00     0.053 A 
HETATM    6  C17 UNL     1     -14.493   8.183  -0.750  1.00  0.00     0.108 A 
ENDROOT
BRANCH   1   7
HETATM    7  N4  UNL     1     -13.001   6.861  -2.115  1.00  0.00    -0.299 N 
ATOM      8  H4  UNL     1     -12.315   7.407  -2.637  1.00  0.00     0.187 HD
BRANCH   7   9
HETATM    9  N3  UNL     1     -12.662   5.688  -1.708  1.00  0.00    -0.297 N 
ATOM     10  H3  UNL     1     -13.102   5.240  -0.904  1.00  0.00     0.187 HD
BRANCH   9  11
HETATM   11  C8  UNL     1     -11.628   5.060  -2.460  1.00  0.00     0.091 A 
HETATM   12  C2  UNL     1     -11.959   4.163  -3.468  1.00  0.00    -0.005 A 
HETATM   13  C1  UNL     1     -13.394   3.864  -3.755  1.00  0.00     0.052 C 
HETATM   14  C3  UNL     1     -10.962   3.550  -4.200  1.00  0.00     0.081 A 
HETATM   15  N1  UNL     1     -11.337   2.625  -5.238  1.00  0.00    -0.100 NA
HETATM   16  C4  UNL     1      -9.634   3.818  -3.945  1.00  0.00     0.132 A 
HETATM   17  C5  UNL     1      -9.287   4.710  -2.944  1.00  0.00     0.108 A 
HETATM   18  N2  UNL     1      -7.942   5.020  -2.642  1.00  0.00    -0.098 NA
HETATM   19  C6  UNL     1     -10.300   5.329  -2.203  1.00  0.00     0.129 A 
BRANCH  16  20
HETATM   20  S1  UNL     1      -8.386   3.045  -4.870  1.00  0.00     0.141 S 
HETATM   21  O1  UNL     1      -7.735   3.970  -5.846  1.00  0.00    -0.591 OA
HETATM   22  O2  UNL     1      -8.963   1.854  -5.602  1.00  0.00    -0.591 OA
HETATM   23  O3  UNL     1      -7.246   2.430  -3.789  1.00  0.00    -0.591 OA
ENDBRANCH  16  20
BRANCH  19  24
HETATM   24  O4  UNL     1     -10.004   6.227  -1.192  1.00  0.00    -0.286 OA
BRANCH  24  25
HETATM   25  C7  UNL     1      -9.695   7.593  -1.462  1.00  0.00     0.505 C 
HETATM   26  F1  UNL     1      -9.842   7.899  -2.794  1.00  0.00    -0.184 F 
HETATM   27  F2  UNL     1      -8.351   7.835  -1.152  1.00  0.00    -0.184 F 
ENDBRANCH  24  25
ENDBRANCH  19  24
ENDBRANCH   9  11
ENDBRANCH   7   9
ENDBRANCH   1   7
BRANCH   6  28
HETATM   28  S4  UNL     1     -13.239   8.459   0.451  1.00  0.00     0.259 S 
HETATM   29  O9  UNL     1     -12.474   7.208   0.746  1.00  0.00    -0.201 OA
HETATM   30  O10 UNL     1     -12.257   9.504  -0.021  1.00  0.00    -0.201 OA
BRANCH  28  31
HETATM   31  N8  UNL     1     -13.975   9.011   1.910  1.00  0.00    -0.324 N 
ATOM     32  H82 UNL     1     -13.948   8.512   2.800  1.00  0.00     0.169 HD
ATOM     33  H81 UNL     1     -14.433   9.905   1.731  1.00  0.00     0.169 HD
ENDBRANCH  28  31
ENDBRANCH   6  28
BRANCH   4  34
HETATM   34  S2  UNL     1     -18.320   9.259  -1.181  1.00  0.00     0.285 S 
HETATM   35  O5  UNL     1     -18.554  10.365  -2.187  1.00  0.00    -0.198 OA
HETATM   36  O6  UNL     1     -18.326   9.936   0.180  1.00  0.00    -0.198 OA
BRANCH  34  37
HETATM   37  N5  UNL     1     -19.604   8.118  -1.264  1.00  0.00    -0.131 N 
HETATM   38  N6  UNL     1     -20.649   8.382  -2.042  1.00  0.00    -0.256 N 
HETATM   39  C13 UNL     1     -21.675   7.525  -2.144  1.00  0.00     0.194 A 
ATOM     40  H6  UNL     1     -20.671   9.253  -2.572  1.00  0.00     0.191 HD
HETATM   41  S3  UNL     1     -22.949   7.899  -3.123  1.00  0.00    -0.039 SA
HETATM   42  N7  UNL     1     -21.678   6.375  -1.464  1.00  0.00    -0.294 N 
HETATM   43  C14 UNL     1     -20.655   6.054  -0.665  1.00  0.00     0.318 A 
ATOM     44  H7  UNL     1     -22.468   5.736  -1.556  1.00  0.00     0.171 HD
HETATM   45  O7  UNL     1     -20.607   4.978   0.002  1.00  0.00    -0.262 OA
HETATM   46  C15 UNL     1     -19.598   6.969  -0.580  1.00  0.00     0.344 A 
HETATM   47  O8  UNL     1     -18.621   6.691   0.166  1.00  0.00    -0.259 OA
ENDBRANCH  34  37
ENDBRANCH   4  34
TORSDOF 10
ENDMDL
MODEL 4
REMARK VINA RESULT: -7.629514553      3.456      9.363
REMARK  10 active torsions:
REMARK  status: ('A' for Active; 'I' for Inactive)
REMARK    1  A    between atoms: C4_5  and  S1_6 
REMARK    2  A    between atoms: C6_12  and  O4_13 
REMARK    3  A    between atoms: O4_13  and  C7_14 
REMARK    4  A    between atoms: C8_17  and  N3_18 
REMARK    5  A    between atoms: N3_18  and  N4_20 
REMARK    6  A    between atoms: N4_20  and  C9_22 
REMARK    7  A    between atoms: C12_25  and  S2_26 
REMARK    8  A    between atoms: S2_26  and  N5_29 
REMARK    9  A    between atoms: C17_41  and  S4_42 
REMARK   10  A    between atoms: S4_42  and  N8_43 
ROOT
HETATM    1  C9  UNL     1     -14.881   7.728  -1.305  1.00  0.00     0.071 A 
HETATM    2  C10 UNL     1     -15.661   7.555  -2.428  1.00  0.00     0.034 A 
HETATM    3  C11 UNL     1     -16.955   8.029  -2.537  1.00  0.00     0.028 A 
HETATM    4  C12 UNL     1     -17.478   8.706  -1.459  1.00  0.00     0.083 A 
HETATM    5  C16 UNL     1     -16.691   8.881  -0.326  1.00  0.00     0.053 A 
HETATM    6  C17 UNL     1     -15.402   8.407  -0.223  1.00  0.00     0.108 A 
ENDROOT
BRANCH   1   7
HETATM    7  N4  UNL     1     -13.577   7.220  -1.270  1.00  0.00    -0.299 N 
ATOM      8  H4  UNL     1     -13.343   6.546  -0.540  1.00  0.00     0.187 HD
BRANCH   7   9
HETATM    9  N3  UNL     1     -12.655   7.555  -2.105  1.00  0.00    -0.297 N 
ATOM     10  H3  UNL     1     -12.701   8.412  -2.655  1.00  0.00     0.187 HD
BRANCH   9  11
HETATM   11  C8  UNL     1     -11.566   6.641  -2.205  1.00  0.00     0.091 A 
HETATM   12  C2  UNL     1     -10.294   7.045  -1.822  1.00  0.00    -0.005 A 
HETATM   13  C1  UNL     1     -10.076   8.431  -1.310  1.00  0.00     0.052 C 
HETATM   14  C3  UNL     1      -9.234   6.166  -1.917  1.00  0.00     0.081 A 
HETATM   15  N1  UNL     1      -7.926   6.614  -1.513  1.00  0.00    -0.100 NA
HETATM   16  C4  UNL     1      -9.422   4.884  -2.389  1.00  0.00     0.132 A 
HETATM   17  C5  UNL     1     -10.684   4.466  -2.774  1.00  0.00     0.108 A 
HETATM   18  N2  UNL     1     -10.931   3.164  -3.264  1.00  0.00    -0.098 NA
HETATM   19  C6  UNL     1     -11.756   5.359  -2.677  1.00  0.00     0.129 A 
BRANCH  16  20
HETATM   20  S1  UNL     1      -8.085   3.784  -2.505  1.00  0.00     0.141 S 
HETATM   21  O1  UNL     1      -6.763   4.474  -2.415  1.00  0.00    -0.591 OA
HETATM   22  O2  UNL     1      -8.173   3.015  -3.804  1.00  0.00    -0.591 OA
HETATM   23  O3  UNL     1      -8.241   2.647  -1.268  1.00  0.00    -0.591 OA
ENDBRANCH  16  20
BRANCH  19  24
HETATM   24  O4  UNL     1     -13.037   4.990  -3.050  1.00  0.00    -0.286 OA
BRANCH  24  25
HETATM   25  C7  UNL     1     -13.437   4.926  -4.418  1.00  0.00     0.505 C 
HETATM   26  F1  UNL     1     -14.302   5.942  -4.746  1.00  0.00    -0.184 F 
HETATM   27  F2  UNL     1     -14.134   3.733  -4.642  1.00  0.00    -0.184 F 
ENDBRANCH  24  25
ENDBRANCH  19  24
ENDBRANCH   9  11
ENDBRANCH   7   9
ENDBRANCH   1   7
BRANCH   6  28
HETATM   28  S4  UNL     1     -14.466   8.665   1.243  1.00  0.00     0.259 S 
HETATM   29  O9  UNL     1     -14.148   7.374   1.928  1.00  0.00    -0.201 OA
HETATM   30  O10 UNL     1     -13.163   9.364   0.938  1.00  0.00    -0.201 OA
BRANCH  28  31
HETATM   31  N8  UNL     1     -15.382   9.651   2.323  1.00  0.00    -0.324 N 
ATOM     32  H82 UNL     1     -15.049   9.987   3.227  1.00  0.00     0.169 HD
ATOM     33  H81 UNL     1     -16.295   9.835   1.908  1.00  0.00     0.169 HD
ENDBRANCH  28  31
ENDBRANCH   6  28
BRANCH   4  34
HETATM   34  S2  UNL     1     -19.082   9.356  -1.465  1.00  0.00     0.285 S 
HETATM   35  O5  UNL     1     -19.244  10.243  -2.680  1.00  0.00    -0.198 OA
HETATM   36  O6  UNL     1     -19.304  10.263  -0.265  1.00  0.00    -0.198 OA
BRANCH  34  37
HETATM   37  N5  UNL     1     -20.278   8.120  -1.484  1.00  0.00    -0.131 N 
HETATM   38  N6  UNL     1     -21.354   8.279  -2.250  1.00  0.00    -0.256 N 
HETATM   39  C13 UNL     1     -22.314   7.346  -2.301  1.00  0.00     0.194 A 
ATOM     40  H6  UNL     1     -21.450   9.127  -2.807  1.00  0.00     0.191 HD
HETATM   41  S3  UNL     1     -23.630   7.590  -3.266  1.00  0.00    -0.039 SA
HETATM   42  N7  UNL     1     -22.219   6.222  -1.585  1.00  0.00    -0.294 N 
HETATM   43  C14 UNL     1     -21.161   6.006  -0.797  1.00  0.00     0.318 A 
ATOM     44  H7  UNL     1     -22.961   5.524  -1.639  1.00  0.00     0.171 HD
HETATM   45  O7  UNL     1     -21.020   4.960  -0.095  1.00  0.00    -0.262 OA
HETATM   46  C15 UNL     1     -20.175   6.999  -0.763  1.00  0.00     0.344 A 
HETATM   47  O8  UNL     1     -19.166   6.820  -0.029  1.00  0.00    -0.259 OA
ENDBRANCH  34  37
ENDBRANCH   4  34
TORSDOF 10
ENDMDL
MODEL 5
REMARK VINA RESULT: -7.566919228      3.868      8.997
REMARK  10 active torsions:
REMARK  status: ('A' for Active; 'I' for Inactive)
REMARK    1  A    between atoms: C4_5  and  S1_6 
REMARK    2  A    between atoms: C6_12  and  O4_13 
REMARK    3  A    between atoms: O4_13  and  C7_14 
REMARK    4  A    between atoms: C8_17  and  N3_18 
REMARK    5  A    between atoms: N3_18  and  N4_20 
REMARK    6  A    between atoms: N4_20  and  C9_22 
REMARK    7  A    between atoms: C12_25  and  S2_26 
REMARK    8  A    between atoms: S2_26  and  N5_29 
REMARK    9  A    between atoms: C17_41  and  S4_42 
REMARK   10  A    between atoms: S4_42  and  N8_43 
ROOT
HETATM    1  C9  UNL     1     -14.752   7.736  -1.580  1.00  0.00     0.071 A 
HETATM    2  C10 UNL     1     -15.246   8.183  -0.374  1.00  0.00     0.034 A 
HETATM    3  C11 UNL     1     -16.524   8.687  -0.214  1.00  0.00     0.028 A 
HETATM    4  C12 UNL     1     -17.332   8.738  -1.327  1.00  0.00     0.083 A 
HETATM    5  C16 UNL     1     -16.834   8.285  -2.544  1.00  0.00     0.053 A 
HETATM    6  C17 UNL     1     -15.559   7.785  -2.697  1.00  0.00     0.108 A 
ENDROOT
BRANCH   1   7
HETATM    7  N4  UNL     1     -13.446   7.238  -1.663  1.00  0.00    -0.299 N 
ATOM      8  H4  UNL     1     -13.047   7.087  -2.590  1.00  0.00     0.187 HD
BRANCH   7   9
HETATM    9  N3  UNL     1     -12.719   6.959  -0.637  1.00  0.00    -0.297 N 
ATOM     10  H3  UNL     1     -13.002   6.272   0.062  1.00  0.00     0.187 HD
BRANCH   9  11
HETATM   11  C8  UNL     1     -11.492   7.678  -0.549  1.00  0.00     0.091 A 
HETATM   12  C2  UNL     1     -10.371   7.208  -1.221  1.00  0.00    -0.005 A 
HETATM   13  C1  UNL     1     -10.459   5.955  -2.030  1.00  0.00     0.052 C 
HETATM   14  C3  UNL     1      -9.179   7.899  -1.139  1.00  0.00     0.081 A 
HETATM   15  N1  UNL     1      -8.034   7.387  -1.847  1.00  0.00    -0.100 NA
HETATM   16  C4  UNL     1      -9.085   9.056  -0.396  1.00  0.00     0.132 A 
HETATM   17  C5  UNL     1     -10.193   9.538   0.280  1.00  0.00     0.108 A 
HETATM   18  N2  UNL     1     -10.150  10.718   1.055  1.00  0.00    -0.098 NA
HETATM   19  C6  UNL     1     -11.399   8.835   0.195  1.00  0.00     0.129 A 
BRANCH  16  20
HETATM   20  S1  UNL     1      -7.582   9.920  -0.298  1.00  0.00     0.141 S 
HETATM   21  O1  UNL     1      -7.629  11.236  -1.003  1.00  0.00    -0.591 OA
HETATM   22  O2  UNL     1      -6.472   9.070  -0.873  1.00  0.00    -0.591 OA
HETATM   23  O3  UNL     1      -7.216  10.139   1.335  1.00  0.00    -0.591 OA
ENDBRANCH  16  20
BRANCH  19  24
HETATM   24  O4  UNL     1     -12.536   9.275   0.853  1.00  0.00    -0.286 OA
BRANCH  24  25
HETATM   25  C7  UNL     1     -12.939   8.734   2.109  1.00  0.00     0.505 C 
HETATM   26  F1  UNL     1     -14.156   9.229   2.513  1.00  0.00    -0.184 F 
HETATM   27  F2  UNL     1     -12.019   9.110   3.094  1.00  0.00    -0.184 F 
ENDBRANCH  24  25
ENDBRANCH  19  24
ENDBRANCH   9  11
ENDBRANCH   7   9
ENDBRANCH   1   7
BRANCH   6  28
HETATM   28  S4  UNL     1     -14.996   7.231  -4.269  1.00  0.00     0.259 S 
HETATM   29  O9  UNL     1     -14.200   5.970  -4.155  1.00  0.00    -0.201 OA
HETATM   30  O10 UNL     1     -16.156   6.967  -5.198  1.00  0.00    -0.201 OA
BRANCH  28  31
HETATM   31  N8  UNL     1     -13.997   8.453  -4.965  1.00  0.00    -0.324 N 
ATOM     32  H82 UNL     1     -14.343   9.291  -5.431  1.00  0.00     0.169 HD
ATOM     33  H81 UNL     1     -13.019   8.195  -4.832  1.00  0.00     0.169 HD
ENDBRANCH  28  31
ENDBRANCH   6  28
BRANCH   4  34
HETATM   34  S2  UNL     1     -18.954   9.337  -1.265  1.00  0.00     0.285 S 
HETATM   35  O5  UNL     1     -19.176  10.269  -2.436  1.00  0.00    -0.198 OA
HETATM   36  O6  UNL     1     -19.170  10.186  -0.022  1.00  0.00    -0.198 OA
BRANCH  34  37
HETATM   37  N5  UNL     1     -20.113   8.067  -1.305  1.00  0.00    -0.131 N 
HETATM   38  N6  UNL     1     -21.203   8.215  -2.053  1.00  0.00    -0.256 N 
HETATM   39  C13 UNL     1     -22.135   7.254  -2.121  1.00  0.00     0.194 A 
ATOM     40  H6  UNL     1     -21.331   9.075  -2.585  1.00  0.00     0.191 HD
HETATM   41  S3  UNL     1     -23.469   7.486  -3.062  1.00  0.00    -0.039 SA
HETATM   42  N7  UNL     1     -21.997   6.114  -1.438  1.00  0.00    -0.294 N 
HETATM   43  C14 UNL     1     -20.923   5.908  -0.669  1.00  0.00     0.318 A 
ATOM     44  H7  UNL     1     -22.718   5.395  -1.504  1.00  0.00     0.171 HD
HETATM   45  O7  UNL     1     -20.742   4.847   0.000  1.00  0.00    -0.262 OA
HETATM   46  C15 UNL     1     -19.966   6.929  -0.618  1.00  0.00     0.344 A 
HETATM   47  O8  UNL     1     -18.944   6.760   0.099  1.00  0.00    -0.259 OA
ENDBRANCH  34  37
ENDBRANCH   4  34
TORSDOF 10
ENDMDL
