MODEL 1
REMARK VINA RESULT: -6.307459233      0.000      0.000
REMARK  11 active torsions:
REMARK  status: ('A' for Active; 'I' for Inactive)
REMARK    1  A    between atoms: N1_1  and  C1_4 
REMARK    2  A    between atoms: C2_7  and  N3_8 
REMARK    3  A    between atoms: C3_11  and  C4_12 
REMARK    4  A    between atoms: C4_12  and  C5_14 
REMARK       I    between atoms: C5_14  and  N4_16 
REMARK    5  A    between atoms: N4_16  and  C6_18 
REMARK    6  A    between atoms: C8_22  and  C9_23 
REMARK    7  A    between atoms: C10_26  and  C11_27 
REMARK    8  A    between atoms: C11_27  and  S1_28 
REMARK    9  A    between atoms: S1_28  and  C12_29 
REMARK   10  A    between atoms: N6_34  and  N7_35 
REMARK   11  A    between atoms: C16_38  and  O9_39 
ROOT
HETATM    1  C6  UNL     1     -16.872   9.581  -5.493  1.00  0.00     0.211 C 
HETATM    2  C7  UNL     1     -16.375   8.245  -5.925  1.00  0.00     0.251 C 
HETATM    3  O5  UNL     1     -16.986   7.201  -6.313  1.00  0.00    -0.271 OA
HETATM    4  N5  UNL     1     -15.063   8.713  -5.696  1.00  0.00    -0.293 N 
HETATM    5  C8  UNL     1     -13.686   8.328  -5.479  1.00  0.00     0.119 C 
HETATM    6  C10 UNL     1     -13.036   8.822  -4.440  1.00  0.00    -0.027 C 
HETATM    7  C19 UNL     1     -13.759   9.736  -3.462  1.00  0.00     0.113 C 
HETATM    8  S2  UNL     1     -14.664  10.973  -4.413  1.00  0.00    -0.136 SA
HETATM    9  C20 UNL     1     -15.478  10.093  -5.731  1.00  0.00     0.187 C 
ENDROOT
BRANCH   6  10
HETATM   10  C11 UNL     1     -11.655   8.505  -4.136  1.00  0.00     0.117 C 
BRANCH  10  11
HETATM   11  S1  UNL     1     -11.518   7.101  -2.967  1.00  0.00    -0.120 SA
BRANCH  11  12
HETATM   12  C12 UNL     1     -11.641   7.789  -1.326  1.00  0.00     0.069 A 
HETATM   13  C13 UNL     1     -10.583   8.496  -0.795  1.00  0.00     0.078 A 
HETATM   14  C14 UNL     1     -10.691   9.030   0.492  1.00  0.00     0.052 A 
HETATM   15  C18 UNL     1      -9.231   8.879  -1.270  1.00  0.00     0.387 C 
HETATM   16  C15 UNL     1     -11.815   8.874   1.244  1.00  0.00     0.277 A 
HETATM   17  C17 UNL     1      -9.384   9.709   0.724  1.00  0.00     0.220 C 
HETATM   18  O8  UNL     1     -11.911   9.358   2.411  1.00  0.00    -0.265 OA
HETATM   19  N6  UNL     1     -12.850   8.170   0.698  1.00  0.00    -0.202 N 
HETATM   20  C16 UNL     1     -12.764   7.647  -0.543  1.00  0.00     0.182 A 
HETATM   21  O10 UNL     1      -8.509   8.960  -0.086  1.00  0.00    -0.317 OA
HETATM   22  F1  UNL     1      -8.704   7.929  -2.126  1.00  0.00    -0.170 F 
HETATM   23  F2  UNL     1      -9.229  10.132  -1.856  1.00  0.00    -0.170 F 
BRANCH  19  24
HETATM   24  N7  UNL     1     -13.984   8.030   1.494  1.00  0.00    -0.334 N 
ATOM     25  H72 UNL     1     -14.067   8.464   2.413  1.00  0.00     0.177 HD
ATOM     26  H71 UNL     1     -14.738   7.462   1.107  1.00  0.00     0.177 HD
ENDBRANCH  19  24
BRANCH  20  27
HETATM   27  O9  UNL     1     -13.865   6.948  -1.014  1.00  0.00    -0.344 OA
ATOM     28  H9  UNL     1     -14.573   6.714  -0.426  1.00  0.00     0.219 HD
ENDBRANCH  20  27
ENDBRANCH  11  12
ENDBRANCH  10  11
ENDBRANCH   6  10
BRANCH   5  29
HETATM   29  C9  UNL     1     -13.130   7.389  -6.439  1.00  0.00     0.227 C 
HETATM   30  O6  UNL     1     -12.535   7.732  -7.464  1.00  0.00    -0.643 OA
HETATM   31  O7  UNL     1     -13.265   6.011  -6.207  1.00  0.00    -0.643 OA
ENDBRANCH   5  29
BRANCH   1  32
HETATM   32  N4  UNL     1     -17.413   9.676  -4.183  1.00  0.00    -0.338 N 
HETATM   33  C5  UNL     1     -18.753   9.386  -3.861  1.00  0.00     0.294 C 
HETATM   34  O4  UNL     1     -19.555   9.026  -4.720  1.00  0.00    -0.264 OA
ATOM     35  H4  UNL     1     -16.793   9.973  -3.429  1.00  0.00     0.163 HD
BRANCH  33  36
HETATM   36  C4  UNL     1     -19.218   9.518  -2.457  1.00  0.00     0.260 C 
HETATM   37  O3  UNL     1     -19.451  10.626  -1.996  1.00  0.00    -0.281 OA
BRANCH  36  38
HETATM   38  C3  UNL     1     -19.373   8.286  -1.693  1.00  0.00     0.114 A 
HETATM   39  C2  UNL     1     -18.527   7.406  -1.090  1.00  0.00     0.197 A 
HETATM   40  N2  UNL     1     -19.067   6.368  -0.471  1.00  0.00    -0.317 N 
HETATM   41  C1  UNL     1     -20.382   6.223  -0.460  1.00  0.00     0.144 A 
ATOM     42  H2  UNL     1     -18.472   5.683  -0.006  1.00  0.00     0.169 HD
HETATM   43  S3  UNL     1     -20.921   7.559  -1.331  1.00  0.00    -0.046 SA
BRANCH  39  44
HETATM   44  N3  UNL     1     -17.087   7.582  -1.113  1.00  0.00    -0.096 N 
HETATM   45  O1  UNL     1     -16.494   7.767  -0.010  1.00  0.00    -0.530 OA
HETATM   46  O2  UNL     1     -16.309   7.566  -2.199  1.00  0.00    -0.530 OA
ENDBRANCH  39  44
BRANCH  41  47
HETATM   47  N1  UNL     1     -21.069   5.245   0.112  1.00  0.00    -0.380 N 
ATOM     48  H12 UNL     1     -21.613   4.493  -0.310  1.00  0.00     0.158 HD
ATOM     49  H11 UNL     1     -21.174   5.074   1.112  1.00  0.00     0.158 HD
ENDBRANCH  41  47
ENDBRANCH  36  38
ENDBRANCH  33  36
ENDBRANCH   1  32
TORSDOF 11
ENDMDL
MODEL 2
REMARK VINA RESULT: -6.216230044      4.192      5.992
REMARK  11 active torsions:
REMARK  status: ('A' for Active; 'I' for Inactive)
REMARK    1  A    between atoms: N1_1  and  C1_4 
REMARK    2  A    between atoms: C2_7  and  N3_8 
REMARK    3  A    between atoms: C3_11  and  C4_12 
REMARK    4  A    between atoms: C4_12  and  C5_14 
REMARK       I    between atoms: C5_14  and  N4_16 
REMARK    5  A    between atoms: N4_16  and  C6_18 
REMARK    6  A    between atoms: C8_22  and  C9_23 
REMARK    7  A    between atoms: C10_26  and  C11_27 
REMARK    8  A    between atoms: C11_27  and  S1_28 
REMARK    9  A    between atoms: S1_28  and  C12_29 
REMARK   10  A    between atoms: N6_34  and  N7_35 
REMARK   11  A    between atoms: C16_38  and  O9_39 
ROOT
HETATM    1  C6  UNL     1     -15.702   8.683   0.654  1.00  0.00     0.211 C 
HETATM    2  C7  UNL     1     -14.393   8.684   1.365  1.00  0.00     0.251 C 
HETATM    3  O5  UNL     1     -14.099   8.827   2.592  1.00  0.00    -0.271 OA
HETATM    4  N5  UNL     1     -13.770   8.474   0.116  1.00  0.00    -0.293 N 
HETATM    5  C8  UNL     1     -12.526   8.553  -0.619  1.00  0.00     0.119 C 
HETATM    6  C10 UNL     1     -12.501   9.198  -1.772  1.00  0.00    -0.027 C 
HETATM    7  C19 UNL     1     -13.756   9.891  -2.278  1.00  0.00     0.113 C 
HETATM    8  S2  UNL     1     -15.138   8.743  -2.113  1.00  0.00    -0.136 SA
HETATM    9  C20 UNL     1     -14.993   8.017  -0.493  1.00  0.00     0.187 C 
ENDROOT
BRANCH   6  10
HETATM   10  C11 UNL     1     -11.310   9.331  -2.587  1.00  0.00     0.117 C 
BRANCH  10  11
HETATM   11  S1  UNL     1     -11.361   8.237  -4.055  1.00  0.00    -0.120 SA
BRANCH  11  12
HETATM   12  C12 UNL     1     -10.718   6.656  -3.536  1.00  0.00     0.069 A 
HETATM   13  C13 UNL     1     -11.501   5.526  -3.640  1.00  0.00     0.078 A 
HETATM   14  C14 UNL     1     -10.986   4.293  -3.230  1.00  0.00     0.052 A 
HETATM   15  C18 UNL     1     -12.877   5.241  -4.117  1.00  0.00     0.387 C 
HETATM   16  C15 UNL     1      -9.727   4.170  -2.728  1.00  0.00     0.277 A 
HETATM   17  C17 UNL     1     -12.092   3.325  -3.483  1.00  0.00     0.220 C 
HETATM   18  O8  UNL     1      -9.262   3.051  -2.356  1.00  0.00    -0.265 OA
HETATM   19  N6  UNL     1      -8.969   5.302  -2.634  1.00  0.00    -0.202 N 
HETATM   20  C16 UNL     1      -9.449   6.501  -3.025  1.00  0.00     0.182 A 
HETATM   21  O10 UNL     1     -13.236   4.137  -3.354  1.00  0.00    -0.317 OA
HETATM   22  F1  UNL     1     -13.724   6.312  -3.896  1.00  0.00    -0.170 F 
HETATM   23  F2  UNL     1     -12.890   4.862  -5.447  1.00  0.00    -0.170 F 
BRANCH  19  24
HETATM   24  N7  UNL     1      -7.686   5.140  -2.116  1.00  0.00    -0.334 N 
ATOM     25  H72 UNL     1      -7.513   4.934  -1.133  1.00  0.00     0.177 HD
ATOM     26  H71 UNL     1      -6.918   5.240  -2.780  1.00  0.00     0.177 HD
ENDBRANCH  19  24
BRANCH  20  27
HETATM   27  O9  UNL     1      -8.607   7.595  -2.892  1.00  0.00    -0.344 OA
ATOM     28  H9  UNL     1      -8.085   7.891  -3.628  1.00  0.00     0.219 HD
ENDBRANCH  20  27
ENDBRANCH  11  12
ENDBRANCH  10  11
ENDBRANCH   6  10
BRANCH   5  29
HETATM   29  C9  UNL     1     -11.379   7.916   0.006  1.00  0.00     0.227 C 
HETATM   30  O6  UNL     1     -11.132   6.711  -0.087  1.00  0.00    -0.643 OA
HETATM   31  O7  UNL     1     -10.487   8.697   0.758  1.00  0.00    -0.643 OA
ENDBRANCH   5  29
BRANCH   1  32
HETATM   32  N4  UNL     1     -16.315   9.944   0.428  1.00  0.00    -0.338 N 
HETATM   33  C5  UNL     1     -17.673  10.111   0.092  1.00  0.00     0.294 C 
HETATM   34  O4  UNL     1     -18.426   9.148  -0.031  1.00  0.00    -0.264 OA
ATOM     35  H4  UNL     1     -15.737  10.780   0.515  1.00  0.00     0.163 HD
BRANCH  33  36
HETATM   36  C4  UNL     1     -18.216  11.476  -0.123  1.00  0.00     0.260 C 
HETATM   37  O3  UNL     1     -18.021  12.047  -1.186  1.00  0.00    -0.281 OA
BRANCH  36  38
HETATM   38  C3  UNL     1     -18.968  12.070   0.976  1.00  0.00     0.114 A 
HETATM   39  C2  UNL     1     -18.684  12.447   2.252  1.00  0.00     0.197 A 
HETATM   40  N2  UNL     1     -19.670  12.967   2.967  1.00  0.00    -0.317 N 
HETATM   41  C1  UNL     1     -20.872  13.099   2.430  1.00  0.00     0.144 A 
ATOM     42  H2  UNL     1     -19.504  13.264   3.929  1.00  0.00     0.169 HD
HETATM   43  S3  UNL     1     -20.663  12.489   0.874  1.00  0.00    -0.046 SA
BRANCH  39  44
HETATM   44  N3  UNL     1     -17.361  12.295   2.826  1.00  0.00    -0.096 N 
HETATM   45  O1  UNL     1     -16.621  13.320   2.891  1.00  0.00    -0.530 OA
HETATM   46  O2  UNL     1     -16.833  11.163   3.300  1.00  0.00    -0.530 OA
ENDBRANCH  39  44
BRANCH  41  47
HETATM   47  N1  UNL     1     -21.953  13.596   3.011  1.00  0.00    -0.380 N 
ATOM     48  H12 UNL     1     -22.097  13.905   3.972  1.00  0.00     0.158 HD
ATOM     49  H11 UNL     1     -22.861  13.761   2.576  1.00  0.00     0.158 HD
ENDBRANCH  41  47
ENDBRANCH  36  38
ENDBRANCH  33  36
ENDBRANCH   1  32
TORSDOF 11
ENDMDL
MODEL 3
REMARK VINA RESULT: -6.212496358      3.894      5.481
REMARK  11 active torsions:
REMARK  status: ('A' for Active; 'I' for Inactive)
REMARK    1  A    between atoms: N1_1  and  C1_4 
REMARK    2  A    between atoms: C2_7  and  N3_8 
REMARK    3  A    between atoms: C3_11  and  C4_12 
REMARK    4  A    between atoms: C4_12  and  C5_14 
REMARK       I    between atoms: C5_14  and  N4_16 
REMARK    5  A    between atoms: N4_16  and  C6_18 
REMARK    6  A    between atoms: C8_22  and  C9_23 
REMARK    7  A    between atoms: C10_26  and  C11_27 
REMARK    8  A    between atoms: C11_27  and  S1_28 
REMARK    9  A    between atoms: S1_28  and  C12_29 
REMARK   10  A    between atoms: N6_34  and  N7_35 
REMARK   11  A    between atoms: C16_38  and  O9_39 
ROOT
HETATM    1  C6  UNL     1     -15.632   8.677   0.632  1.00  0.00     0.211 C 
HETATM    2  C7  UNL     1     -14.348   8.722   1.384  1.00  0.00     0.251 C 
HETATM    3  O5  UNL     1     -14.097   8.879   2.619  1.00  0.00    -0.271 OA
HETATM    4  N5  UNL     1     -13.679   8.523   0.157  1.00  0.00    -0.293 N 
HETATM    5  C8  UNL     1     -12.415   8.636  -0.538  1.00  0.00     0.119 C 
HETATM    6  C10 UNL     1     -12.372   9.275  -1.694  1.00  0.00    -0.027 C 
HETATM    7  C19 UNL     1     -13.630   9.927  -2.244  1.00  0.00     0.113 C 
HETATM    8  S2  UNL     1     -14.982   8.739  -2.116  1.00  0.00    -0.136 SA
HETATM    9  C20 UNL     1     -14.868   8.026  -0.488  1.00  0.00     0.187 C 
ENDROOT
BRANCH   6  10
HETATM   10  C11 UNL     1     -11.160   9.439  -2.471  1.00  0.00     0.117 C 
BRANCH  10  11
HETATM   11  S1  UNL     1     -11.140   8.350  -3.944  1.00  0.00    -0.120 SA
BRANCH  11  12
HETATM   12  C12 UNL     1     -10.545   6.760  -3.394  1.00  0.00     0.069 A 
HETATM   13  C13 UNL     1      -9.262   6.636  -2.905  1.00  0.00     0.078 A 
HETATM   14  C14 UNL     1      -8.808   5.385  -2.477  1.00  0.00     0.052 A 
HETATM   15  C18 UNL     1      -8.125   7.565  -2.688  1.00  0.00     0.387 C 
HETATM   16  C15 UNL     1      -9.596   4.277  -2.529  1.00  0.00     0.277 A 
HETATM   17  C17 UNL     1      -7.408   5.633  -2.026  1.00  0.00     0.220 C 
HETATM   18  O8  UNL     1      -9.183   3.144  -2.141  1.00  0.00    -0.265 OA
HETATM   19  N6  UNL     1     -10.863   4.423  -3.017  1.00  0.00    -0.202 N 
HETATM   20  C16 UNL     1     -11.319   5.622  -3.434  1.00  0.00     0.182 A 
HETATM   21  O10 UNL     1      -7.025   6.728  -2.823  1.00  0.00    -0.317 OA
HETATM   22  F1  UNL     1      -8.113   8.581  -3.627  1.00  0.00    -0.170 F 
HETATM   23  F2  UNL     1      -8.117   8.075  -1.403  1.00  0.00    -0.170 F 
BRANCH  19  24
HETATM   24  N7  UNL     1     -11.643   3.269  -3.056  1.00  0.00    -0.334 N 
ATOM     25  H72 UNL     1     -11.308   2.369  -2.713  1.00  0.00     0.177 HD
ATOM     26  H71 UNL     1     -12.578   3.372  -3.451  1.00  0.00     0.177 HD
ENDBRANCH  19  24
BRANCH  20  27
HETATM   27  O9  UNL     1     -12.619   5.674  -3.915  1.00  0.00    -0.344 OA
ATOM     28  H9  UNL     1     -13.111   4.874  -4.057  1.00  0.00     0.219 HD
ENDBRANCH  20  27
ENDBRANCH  11  12
ENDBRANCH  10  11
ENDBRANCH   6  10
BRANCH   5  29
HETATM   29  C9  UNL     1     -11.270   8.037   0.127  1.00  0.00     0.227 C 
HETATM   30  O6  UNL     1     -10.969   6.845   0.028  1.00  0.00    -0.643 OA
HETATM   31  O7  UNL     1     -10.444   8.842   0.927  1.00  0.00    -0.643 OA
ENDBRANCH   5  29
BRANCH   1  32
HETATM   32  N4  UNL     1     -16.275   9.919   0.379  1.00  0.00    -0.338 N 
HETATM   33  C5  UNL     1     -17.645  10.049   0.077  1.00  0.00     0.294 C 
HETATM   34  O4  UNL     1     -18.384   9.068   0.011  1.00  0.00    -0.264 OA
ATOM     35  H4  UNL     1     -15.711  10.767   0.418  1.00  0.00     0.163 HD
BRANCH  33  36
HETATM   36  C4  UNL     1     -18.219  11.395  -0.171  1.00  0.00     0.260 C 
HETATM   37  O3  UNL     1     -18.040  11.943  -1.250  1.00  0.00    -0.281 OA
BRANCH  36  38
HETATM   38  C3  UNL     1     -18.982  12.000   0.915  1.00  0.00     0.114 A 
HETATM   39  C2  UNL     1     -18.710  12.391   2.189  1.00  0.00     0.197 A 
HETATM   40  N2  UNL     1     -19.703  12.917   2.890  1.00  0.00    -0.317 N 
HETATM   41  C1  UNL     1     -20.900  13.042   2.340  1.00  0.00     0.144 A 
ATOM     42  H2  UNL     1     -19.546  13.225   3.849  1.00  0.00     0.169 HD
HETATM   43  S3  UNL     1     -20.676  12.416   0.793  1.00  0.00    -0.046 SA
BRANCH  39  44
HETATM   44  N3  UNL     1     -17.391  12.247   2.776  1.00  0.00    -0.096 N 
HETATM   45  O1  UNL     1     -16.653  13.273   2.836  1.00  0.00    -0.530 OA
HETATM   46  O2  UNL     1     -16.867  11.121   3.269  1.00  0.00    -0.530 OA
ENDBRANCH  39  44
BRANCH  41  47
HETATM   47  N1  UNL     1     -21.987  13.544   2.906  1.00  0.00    -0.380 N 
ATOM     48  H12 UNL     1     -22.653  13.110   3.545  1.00  0.00     0.158 HD
ATOM     49  H11 UNL     1     -22.356  14.488   2.793  1.00  0.00     0.158 HD
ENDBRANCH  41  47
ENDBRANCH  36  38
ENDBRANCH  33  36
ENDBRANCH   1  32
TORSDOF 11
ENDMDL
MODEL 4
REMARK VINA RESULT: -6.186896530      3.904      5.957
REMARK  11 active torsions:
REMARK  status: ('A' for Active; 'I' for Inactive)
REMARK    1  A    between atoms: N1_1  and  C1_4 
REMARK    2  A    between atoms: C2_7  and  N3_8 
REMARK    3  A    between atoms: C3_11  and  C4_12 
REMARK    4  A    between atoms: C4_12  and  C5_14 
REMARK       I    between atoms: C5_14  and  N4_16 
REMARK    5  A    between atoms: N4_16  and  C6_18 
REMARK    6  A    between atoms: C8_22  and  C9_23 
REMARK    7  A    between atoms: C10_26  and  C11_27 
REMARK    8  A    between atoms: C11_27  and  S1_28 
REMARK    9  A    between atoms: S1_28  and  C12_29 
REMARK   10  A    between atoms: N6_34  and  N7_35 
REMARK   11  A    between atoms: C16_38  and  O9_39 
ROOT
HETATM    1  C6  UNL     1     -15.597   8.332   0.209  1.00  0.00     0.211 C 
HETATM    2  C7  UNL     1     -14.373   8.435   1.051  1.00  0.00     0.251 C 
HETATM    3  O5  UNL     1     -14.216   8.659   2.291  1.00  0.00    -0.271 OA
HETATM    4  N5  UNL     1     -13.612   8.185  -0.112  1.00  0.00    -0.293 N 
HETATM    5  C8  UNL     1     -12.302   8.282  -0.717  1.00  0.00     0.119 C 
HETATM    6  C10 UNL     1     -12.181   8.862  -1.898  1.00  0.00    -0.027 C 
HETATM    7  C19 UNL     1     -13.402   9.465  -2.572  1.00  0.00     0.113 C 
HETATM    8  S2  UNL     1     -14.746   8.264  -2.483  1.00  0.00    -0.136 SA
HETATM    9  C20 UNL     1     -14.744   7.637  -0.815  1.00  0.00     0.187 C 
ENDROOT
BRANCH   6  10
HETATM   10  C11 UNL     1     -10.916   9.005  -2.592  1.00  0.00     0.117 C 
BRANCH  10  11
HETATM   11  S1  UNL     1     -10.943   8.195  -4.234  1.00  0.00    -0.120 SA
BRANCH  11  12
HETATM   12  C12 UNL     1     -10.975   6.436  -3.935  1.00  0.00     0.069 A 
HETATM   13  C13 UNL     1     -11.926   5.651  -4.552  1.00  0.00     0.078 A 
HETATM   14  C14 UNL     1     -11.942   4.274  -4.309  1.00  0.00     0.052 A 
HETATM   15  C18 UNL     1     -13.045   5.899  -5.495  1.00  0.00     0.387 C 
HETATM   16  C15 UNL     1     -11.042   3.679  -3.479  1.00  0.00     0.277 A 
HETATM   17  C17 UNL     1     -13.082   3.766  -5.126  1.00  0.00     0.220 C 
HETATM   18  O8  UNL     1     -11.058   2.431  -3.260  1.00  0.00    -0.265 OA
HETATM   19  N6  UNL     1     -10.109   4.476  -2.880  1.00  0.00    -0.202 N 
HETATM   20  C16 UNL     1     -10.079   5.807  -3.102  1.00  0.00     0.182 A 
HETATM   21  O10 UNL     1     -13.937   4.884  -5.175  1.00  0.00    -0.317 OA
HETATM   22  F1  UNL     1     -13.604   7.150  -5.303  1.00  0.00    -0.170 F 
HETATM   23  F2  UNL     1     -12.655   5.725  -6.810  1.00  0.00    -0.170 F 
BRANCH  19  24
HETATM   24  N7  UNL     1      -9.205   3.836  -2.037  1.00  0.00    -0.334 N 
ATOM     25  H72 UNL     1      -9.501   3.265  -1.246  1.00  0.00     0.177 HD
ATOM     26  H71 UNL     1      -8.217   3.968  -2.254  1.00  0.00     0.177 HD
ENDBRANCH  19  24
BRANCH  20  27
HETATM   27  O9  UNL     1      -9.096   6.536  -2.449  1.00  0.00    -0.344 OA
ATOM     28  H9  UNL     1      -8.197   6.510  -2.754  1.00  0.00     0.219 HD
ENDBRANCH  20  27
ENDBRANCH  11  12
ENDBRANCH  10  11
ENDBRANCH   6  10
BRANCH   5  29
HETATM   29  C9  UNL     1     -11.202   7.735   0.060  1.00  0.00     0.227 C 
HETATM   30  O6  UNL     1     -10.844   6.557   0.002  1.00  0.00    -0.643 OA
HETATM   31  O7  UNL     1     -10.492   8.579   0.929  1.00  0.00    -0.643 OA
ENDBRANCH   5  29
BRANCH   1  32
HETATM   32  N4  UNL     1     -16.234   9.548  -0.154  1.00  0.00    -0.338 N 
HETATM   33  C5  UNL     1     -17.629   9.701  -0.274  1.00  0.00     0.294 C 
HETATM   34  O4  UNL     1     -18.398   8.764  -0.067  1.00  0.00    -0.264 OA
ATOM     35  H4  UNL     1     -15.646  10.360  -0.340  1.00  0.00     0.163 HD
BRANCH  33  36
HETATM   36  C4  UNL     1     -18.195  11.019  -0.660  1.00  0.00     0.260 C 
HETATM   37  O3  UNL     1     -17.973  11.472  -1.774  1.00  0.00    -0.281 OA
BRANCH  36  38
HETATM   38  C3  UNL     1     -19.002  11.711   0.337  1.00  0.00     0.114 A 
HETATM   39  C2  UNL     1     -18.790  12.190   1.593  1.00  0.00     0.197 A 
HETATM   40  N2  UNL     1     -19.808  12.779   2.200  1.00  0.00    -0.317 N 
HETATM   41  C1  UNL     1     -20.973  12.879   1.581  1.00  0.00     0.144 A 
ATOM     42  H2  UNL     1     -19.696  13.153   3.143  1.00  0.00     0.169 HD
HETATM   43  S3  UNL     1     -20.681  12.140   0.097  1.00  0.00    -0.046 SA
BRANCH  39  44
HETATM   44  N3  UNL     1     -17.506  12.071   2.257  1.00  0.00    -0.096 N 
HETATM   45  O1  UNL     1     -16.854  13.132   2.483  1.00  0.00    -0.530 OA
HETATM   46  O2  UNL     1     -16.931  10.935   2.663  1.00  0.00    -0.530 OA
ENDBRANCH  39  44
BRANCH  41  47
HETATM   47  N1  UNL     1     -22.079  13.436   2.051  1.00  0.00    -0.380 N 
ATOM     48  H12 UNL     1     -22.808  13.043   2.646  1.00  0.00     0.158 HD
ATOM     49  H11 UNL     1     -22.400  14.391   1.891  1.00  0.00     0.158 HD
ENDBRANCH  41  47
ENDBRANCH  36  38
ENDBRANCH  33  36
ENDBRANCH   1  32
TORSDOF 11
ENDMDL
MODEL 5
REMARK VINA RESULT: -6.144393722      3.502      8.582
REMARK  11 active torsions:
REMARK  status: ('A' for Active; 'I' for Inactive)
REMARK    1  A    between atoms: N1_1  and  C1_4 
REMARK    2  A    between atoms: C2_7  and  N3_8 
REMARK    3  A    between atoms: C3_11  and  C4_12 
REMARK    4  A    between atoms: C4_12  and  C5_14 
REMARK       I    between atoms: C5_14  and  N4_16 
REMARK    5  A    between atoms: N4_16  and  C6_18 
REMARK    6  A    between atoms: C8_22  and  C9_23 
REMARK    7  A    between atoms: C10_26  and  C11_27 
REMARK    8  A    between atoms: C11_27  and  S1_28 
REMARK    9  A    between atoms: S1_28  and  C12_29 
REMARK   10  A    between atoms: N6_34  and  N7_35 
REMARK   11  A    between atoms: C16_38  and  O9_39 
ROOT
HETATM    1  C6  UNL     1     -10.168   8.945  -0.284  1.00  0.00     0.211 C 
HETATM    2  C7  UNL     1     -11.024   8.736   0.917  1.00  0.00     0.251 C 
HETATM    3  O5  UNL     1     -10.739   8.642   2.152  1.00  0.00    -0.271 OA
HETATM    4  N5  UNL     1     -12.141   8.705   0.055  1.00  0.00    -0.293 N 
HETATM    5  C8  UNL     1     -13.526   8.308  -0.081  1.00  0.00     0.119 C 
HETATM    6  C10 UNL     1     -13.886   7.575  -1.119  1.00  0.00    -0.027 C 
HETATM    7  C19 UNL     1     -12.837   7.114  -2.118  1.00  0.00     0.113 C 
HETATM    8  S2  UNL     1     -11.806   8.531  -2.547  1.00  0.00    -0.136 SA
HETATM    9  C20 UNL     1     -11.419   9.349  -1.013  1.00  0.00     0.187 C 
ENDROOT
BRANCH   6  10
HETATM   10  C11 UNL     1     -15.246   7.130  -1.350  1.00  0.00     0.117 C 
BRANCH  10  11
HETATM   11  S1  UNL     1     -15.969   7.894  -2.849  1.00  0.00    -0.120 SA
BRANCH  11  12
HETATM   12  C12 UNL     1     -17.162   9.095  -2.285  1.00  0.00     0.069 A 
HETATM   13  C13 UNL     1     -16.840  10.436  -2.281  1.00  0.00     0.078 A 
HETATM   14  C14 UNL     1     -17.783  11.367  -1.837  1.00  0.00     0.052 A 
HETATM   15  C18 UNL     1     -15.646  11.232  -2.660  1.00  0.00     0.387 C 
HETATM   16  C15 UNL     1     -19.018  10.991  -1.404  1.00  0.00     0.277 A 
HETATM   17  C17 UNL     1     -17.096  12.684  -1.971  1.00  0.00     0.220 C 
HETATM   18  O8  UNL     1     -19.871  11.837  -1.001  1.00  0.00    -0.265 OA
HETATM   19  N6  UNL     1     -19.315   9.658  -1.417  1.00  0.00    -0.202 N 
HETATM   20  C16 UNL     1     -18.417   8.745  -1.842  1.00  0.00     0.182 A 
HETATM   21  O10 UNL     1     -15.741  12.333  -1.819  1.00  0.00    -0.317 OA
HETATM   22  F1  UNL     1     -14.476  10.526  -2.448  1.00  0.00    -0.170 F 
HETATM   23  F2  UNL     1     -15.724  11.684  -3.965  1.00  0.00    -0.170 F 
BRANCH  19  24
HETATM   24  N7  UNL     1     -20.586   9.308  -0.968  1.00  0.00    -0.334 N 
ATOM     25  H72 UNL     1     -21.152   8.594  -1.425  1.00  0.00     0.177 HD
ATOM     26  H71 UNL     1     -20.927   9.811  -0.148  1.00  0.00     0.177 HD
ENDBRANCH  19  24
BRANCH  20  27
HETATM   27  O9  UNL     1     -18.807   7.414  -1.819  1.00  0.00    -0.344 OA
ATOM     28  H9  UNL     1     -18.837   6.936  -0.999  1.00  0.00     0.219 HD
ENDBRANCH  20  27
ENDBRANCH  11  12
ENDBRANCH  10  11
ENDBRANCH   6  10
BRANCH   5  29
HETATM   29  C9  UNL     1     -14.418   8.747   0.980  1.00  0.00     0.227 C 
HETATM   30  O6  UNL     1     -15.419   9.441   0.786  1.00  0.00    -0.643 OA
HETATM   31  O7  UNL     1     -14.146   8.369   2.304  1.00  0.00    -0.643 OA
ENDBRANCH   5  29
BRANCH   1  32
HETATM   32  N4  UNL     1      -9.441   7.822  -0.761  1.00  0.00    -0.338 N 
HETATM   33  C5  UNL     1      -8.238   7.913  -1.488  1.00  0.00     0.294 C 
HETATM   34  O4  UNL     1      -7.734   9.001  -1.761  1.00  0.00    -0.264 OA
ATOM     35  H4  UNL     1      -9.812   6.892  -0.566  1.00  0.00     0.163 HD
BRANCH  33  36
HETATM   36  C4  UNL     1      -7.555   6.675  -1.942  1.00  0.00     0.260 C 
HETATM   37  O3  UNL     1      -6.352   6.690  -2.160  1.00  0.00    -0.281 OA
BRANCH  36  38
HETATM   38  C3  UNL     1      -8.382   5.485  -2.103  1.00  0.00     0.114 A 
HETATM   39  C2  UNL     1      -8.490   4.287  -1.467  1.00  0.00     0.197 A 
HETATM   40  N2  UNL     1      -9.393   3.434  -1.926  1.00  0.00    -0.317 N 
HETATM   41  C1  UNL     1     -10.142   3.766  -2.964  1.00  0.00     0.144 A 
ATOM     42  H2  UNL     1      -9.509   2.523  -1.481  1.00  0.00     0.169 HD
HETATM   43  S3  UNL     1      -9.602   5.315  -3.345  1.00  0.00    -0.046 SA
BRANCH  39  44
HETATM   44  N3  UNL     1      -7.660   3.939  -0.330  1.00  0.00    -0.096 N 
HETATM   45  O1  UNL     1      -8.227   3.767   0.788  1.00  0.00    -0.530 OA
HETATM   46  O2  UNL     1      -6.333   3.778  -0.343  1.00  0.00    -0.530 OA
ENDBRANCH  39  44
BRANCH  41  47
HETATM   47  N1  UNL     1     -11.081   3.027  -3.536  1.00  0.00    -0.380 N 
ATOM     48  H12 UNL     1     -12.090   3.019  -3.386  1.00  0.00     0.158 HD
ATOM     49  H11 UNL     1     -10.948   2.314  -4.253  1.00  0.00     0.158 HD
ENDBRANCH  41  47
ENDBRANCH  36  38
ENDBRANCH  33  36
ENDBRANCH   1  32
TORSDOF 11
ENDMDL
