MODEL 1
REMARK VINA RESULT: -6.921526671      0.000      0.000
REMARK  16 active torsions:
REMARK  status: ('A' for Active; 'I' for Inactive)
REMARK    1  A    between atoms: C1_2  and  O2_3 
REMARK    2  A    between atoms: C1_2  and  O14_35 
REMARK    3  A    between atoms: O2_3  and  C2_4 
REMARK    4  A    between atoms: C2_4  and  C3_6 
REMARK    5  A    between atoms: C3_6  and  O3_7 
REMARK    6  A    between atoms: C3_6  and  C4_9 
REMARK    7  A    between atoms: C3_6  and  C12_26 
REMARK    8  A    between atoms: C5_10  and  C6_11 
REMARK    9  A    between atoms: C8_13  and  N1_14 
REMARK   10  A    between atoms: C9_17  and  N2_18 
REMARK   11  A    between atoms: C10_21  and  O8_22 
REMARK   12  A    between atoms: C12_26  and  O9_27 
REMARK   13  A    between atoms: C12_26  and  C13_29 
REMARK   14  A    between atoms: C13_29  and  O10_30 
REMARK   15  A    between atoms: O10_30  and  S1_31 
REMARK   16  A    between atoms: O14_35  and  C14_36 
ROOT
HETATM    1  C3  UNL     1      21.785 -21.888  34.990  1.00  0.00     0.189 C 
ENDROOT
BRANCH   1   2
HETATM    2  C2  UNL     1      21.760 -23.207  35.670  1.00  0.00     0.279 C 
HETATM    3 CL1  UNL     1      20.272 -24.133  35.321  1.00  0.00    -0.090 Cl
BRANCH   2   4
HETATM    4  O2  UNL     1      22.878 -23.995  35.197  1.00  0.00    -0.273 OA
BRANCH   4   5
HETATM    5  C1  UNL     1      23.793 -24.515  36.105  1.00  0.00     0.408 C 
HETATM    6  O1  UNL     1      24.992 -24.214  35.955  1.00  0.00    -0.229 OA
BRANCH   5   7
HETATM    7  O14 UNL     1      23.453 -25.343  37.163  1.00  0.00    -0.287 OA
BRANCH   7   8
HETATM    8  C14 UNL     1      22.709 -26.544  36.967  1.00  0.00     0.203 C 
HETATM    9  C15 UNL     1      21.533 -26.524  37.887  1.00  0.00     0.219 C 
HETATM   10  C16 UNL     1      20.609 -27.662  37.513  1.00  0.00     0.038 C 
HETATM   11  N3  UNL     1      22.114 -27.063  39.129  1.00  0.00    -0.061 N 
HETATM   12  C17 UNL     1      21.414 -28.899  37.941  1.00  0.00     0.038 C 
HETATM   13  C18 UNL     1      22.650 -28.309  38.550  1.00  0.00     0.225 C 
HETATM   14  C19 UNL     1      23.510 -27.750  37.457  1.00  0.00     0.139 A 
HETATM   15  C20 UNL     1      24.401 -28.476  36.642  1.00  0.00     0.212 A 
HETATM   16  O15 UNL     1      24.873 -27.583  37.664  1.00  0.00    -0.370 OA
ATOM     17  H32 UNL     1      22.771 -26.466  39.632  1.00  0.00     0.278 HD
ATOM     18  H31 UNL     1      21.492 -27.154  39.932  1.00  0.00     0.278 HD
ENDBRANCH   7   8
ENDBRANCH   5   7
ENDBRANCH   4   5
ENDBRANCH   2   4
ENDBRANCH   1   2
BRANCH   1  19
HETATM   19  O3  UNL     1      21.116 -22.163  33.718  1.00  0.00    -0.371 OA
ATOM     20  H3  UNL     1      20.987 -21.295  33.354  1.00  0.00     0.212 HD
ENDBRANCH   1  19
BRANCH   1  21
HETATM   21  C4  UNL     1      21.047 -20.889  35.737  1.00  0.00    -0.056 C 
HETATM   22  C5  UNL     1      20.437 -20.068  36.378  1.00  0.00    -0.062 C 
BRANCH  22  23
HETATM   23  C6  UNL     1      19.713 -19.099  37.167  1.00  0.00     0.044 A 
HETATM   24  C7  UNL     1      18.665 -18.446  36.603  1.00  0.00     0.061 A 
HETATM   25  C8  UNL     1      17.928 -17.493  37.328  1.00  0.00     0.140 A 
HETATM   26  C9  UNL     1      18.283 -17.224  38.625  1.00  0.00     0.170 A 
HETATM   27  C10 UNL     1      19.363 -17.887  39.227  1.00  0.00     0.124 A 
HETATM   28  C11 UNL     1      20.039 -18.802  38.472  1.00  0.00     0.088 A 
HETATM   29 CL2  UNL     1      21.387 -19.646  39.190  1.00  0.00    -0.080 Cl
BRANCH  25  30
HETATM   30  N1  UNL     1      16.834 -16.887  36.652  1.00  0.00    -0.113 N 
HETATM   31  O4  UNL     1      17.028 -16.088  35.738  1.00  0.00    -0.532 OA
HETATM   32  O5  UNL     1      15.560 -17.244  37.065  1.00  0.00    -0.532 OA
ENDBRANCH  25  30
BRANCH  26  33
HETATM   33  N2  UNL     1      17.545 -16.281  39.380  1.00  0.00    -0.110 N 
HETATM   34  O6  UNL     1      16.735 -16.654  40.224  1.00  0.00    -0.532 OA
HETATM   35  O7  UNL     1      17.670 -14.921  39.188  1.00  0.00    -0.532 OA
ENDBRANCH  26  33
BRANCH  27  36
HETATM   36  O8  UNL     1      19.655 -17.561  40.534  1.00  0.00    -0.357 OA
ATOM     37  H8  UNL     1      19.538 -18.240  41.188  1.00  0.00     0.218 HD
ENDBRANCH  27  36
ENDBRANCH  22  23
ENDBRANCH   1  21
BRANCH   1  38
HETATM   38  C12 UNL     1      23.105 -21.365  34.508  1.00  0.00     0.194 C 
BRANCH  38  39
HETATM   39  O9  UNL     1      23.376 -22.118  33.287  1.00  0.00    -0.389 OA
ATOM     40  H9  UNL     1      24.301 -21.979  33.119  1.00  0.00     0.210 HD
ENDBRANCH  38  39
BRANCH  38  41
HETATM   41  C13 UNL     1      23.204 -19.961  34.070  1.00  0.00     0.228 C 
BRANCH  41  42
HETATM   42  O10 UNL     1      23.007 -19.742  32.723  1.00  0.00    -0.254 OA
BRANCH  42  43
HETATM   43  S1  UNL     1      21.694 -18.725  32.469  1.00  0.00     0.251 S 
HETATM   44  O11 UNL     1      21.678 -17.591  33.477  1.00  0.00    -0.572 OA
HETATM   45  O12 UNL     1      20.408 -19.502  32.605  1.00  0.00    -0.572 OA
HETATM   46  O13 UNL     1      21.817 -18.039  30.934  1.00  0.00    -0.572 OA
ENDBRANCH  42  43
ENDBRANCH  41  42
ENDBRANCH  38  41
ENDBRANCH   1  38
TORSDOF 16
ENDMDL
MODEL 2
REMARK VINA RESULT: -6.791618757      0.900      1.545
REMARK  16 active torsions:
REMARK  status: ('A' for Active; 'I' for Inactive)
REMARK    1  A    between atoms: C1_2  and  O2_3 
REMARK    2  A    between atoms: C1_2  and  O14_35 
REMARK    3  A    between atoms: O2_3  and  C2_4 
REMARK    4  A    between atoms: C2_4  and  C3_6 
REMARK    5  A    between atoms: C3_6  and  O3_7 
REMARK    6  A    between atoms: C3_6  and  C4_9 
REMARK    7  A    between atoms: C3_6  and  C12_26 
REMARK    8  A    between atoms: C5_10  and  C6_11 
REMARK    9  A    between atoms: C8_13  and  N1_14 
REMARK   10  A    between atoms: C9_17  and  N2_18 
REMARK   11  A    between atoms: C10_21  and  O8_22 
REMARK   12  A    between atoms: C12_26  and  O9_27 
REMARK   13  A    between atoms: C12_26  and  C13_29 
REMARK   14  A    between atoms: C13_29  and  O10_30 
REMARK   15  A    between atoms: O10_30  and  S1_31 
REMARK   16  A    between atoms: O14_35  and  C14_36 
ROOT
HETATM    1  C3  UNL     1      21.808 -21.902  34.985  1.00  0.00     0.189 C 
ENDROOT
BRANCH   1   2
HETATM    2  C2  UNL     1      21.773 -23.220  35.666  1.00  0.00     0.279 C 
HETATM    3 CL1  UNL     1      20.289 -24.145  35.301  1.00  0.00    -0.090 Cl
BRANCH   2   4
HETATM    4  O2  UNL     1      22.896 -24.010  35.208  1.00  0.00    -0.273 OA
BRANCH   4   5
HETATM    5  C1  UNL     1      23.576 -24.831  36.099  1.00  0.00     0.408 C 
HETATM    6  O1  UNL     1      24.359 -24.290  36.902  1.00  0.00    -0.229 OA
BRANCH   5   7
HETATM    7  O14 UNL     1      23.435 -26.209  36.150  1.00  0.00    -0.287 OA
BRANCH   7   8
HETATM    8  C14 UNL     1      23.681 -26.944  37.347  1.00  0.00     0.203 C 
HETATM    9  C15 UNL     1      24.489 -28.151  37.000  1.00  0.00     0.219 C 
HETATM   10  C16 UNL     1      24.964 -28.798  38.282  1.00  0.00     0.038 C 
HETATM   11  N3  UNL     1      23.441 -29.109  36.603  1.00  0.00    -0.061 N 
HETATM   12  C17 UNL     1      23.663 -29.360  38.874  1.00  0.00     0.038 C 
HETATM   13  C18 UNL     1      22.638 -29.017  37.837  1.00  0.00     0.225 C 
HETATM   14  C19 UNL     1      22.379 -27.541  37.880  1.00  0.00     0.139 A 
HETATM   15  C20 UNL     1      21.524 -26.869  38.776  1.00  0.00     0.212 A 
HETATM   16  O15 UNL     1      21.184 -27.032  37.389  1.00  0.00    -0.370 OA
ATOM     17  H32 UNL     1      22.959 -28.930  35.722  1.00  0.00     0.278 HD
ATOM     18  H31 UNL     1      23.746 -30.039  36.316  1.00  0.00     0.278 HD
ENDBRANCH   7   8
ENDBRANCH   5   7
ENDBRANCH   4   5
ENDBRANCH   2   4
ENDBRANCH   1   2
BRANCH   1  19
HETATM   19  O3  UNL     1      21.104 -22.164  33.729  1.00  0.00    -0.371 OA
ATOM     20  H3  UNL     1      21.484 -21.527  33.136  1.00  0.00     0.212 HD
ENDBRANCH   1  19
BRANCH   1  21
HETATM   21  C4  UNL     1      21.106 -20.889  35.748  1.00  0.00    -0.056 C 
HETATM   22  C5  UNL     1      20.510 -20.062  36.394  1.00  0.00    -0.062 C 
BRANCH  22  23
HETATM   23  C6  UNL     1      19.783 -19.090  37.177  1.00  0.00     0.044 A 
HETATM   24  C7  UNL     1      18.705 -18.477  36.627  1.00  0.00     0.061 A 
HETATM   25  C8  UNL     1      17.963 -17.524  37.347  1.00  0.00     0.140 A 
HETATM   26  C9  UNL     1      18.346 -17.214  38.627  1.00  0.00     0.170 A 
HETATM   27  C10 UNL     1      19.458 -17.835  39.216  1.00  0.00     0.124 A 
HETATM   28  C11 UNL     1      20.136 -18.753  38.465  1.00  0.00     0.088 A 
HETATM   29 CL2  UNL     1      21.524 -19.545  39.168  1.00  0.00    -0.080 Cl
BRANCH  25  30
HETATM   30  N1  UNL     1      16.838 -16.962  36.686  1.00  0.00    -0.113 N 
HETATM   31  O4  UNL     1      16.986 -16.117  35.807  1.00  0.00    -0.532 OA
HETATM   32  O5  UNL     1      15.587 -17.415  37.074  1.00  0.00    -0.532 OA
ENDBRANCH  25  30
BRANCH  26  33
HETATM   33  N2  UNL     1      17.606 -16.270  39.379  1.00  0.00    -0.110 N 
HETATM   34  O6  UNL     1      17.864 -15.072  39.303  1.00  0.00    -0.532 OA
HETATM   35  O7  UNL     1      16.599 -16.643  40.244  1.00  0.00    -0.532 OA
ENDBRANCH  26  33
BRANCH  27  36
HETATM   36  O8  UNL     1      19.777 -17.470  40.506  1.00  0.00    -0.357 OA
ATOM     37  H8  UNL     1      20.647 -17.687  40.817  1.00  0.00     0.218 HD
ENDBRANCH  27  36
ENDBRANCH  22  23
ENDBRANCH   1  21
BRANCH   1  38
HETATM   38  C12 UNL     1      23.126 -21.404  34.472  1.00  0.00     0.194 C 
BRANCH  38  39
HETATM   39  O9  UNL     1      23.339 -22.141  33.230  1.00  0.00    -0.389 OA
ATOM     40  H9  UNL     1      23.374 -23.053  33.495  1.00  0.00     0.210 HD
ENDBRANCH  38  39
BRANCH  38  41
HETATM   41  C13 UNL     1      23.248 -19.996  34.056  1.00  0.00     0.228 C 
BRANCH  41  42
HETATM   42  O10 UNL     1      23.053 -19.752  32.712  1.00  0.00    -0.254 OA
BRANCH  42  43
HETATM   43  S1  UNL     1      21.737 -18.734  32.476  1.00  0.00     0.251 S 
HETATM   44  O11 UNL     1      21.722 -17.613  33.499  1.00  0.00    -0.572 OA
HETATM   45  O12 UNL     1      20.453 -19.516  32.605  1.00  0.00    -0.572 OA
HETATM   46  O13 UNL     1      21.854 -18.029  30.949  1.00  0.00    -0.572 OA
ENDBRANCH  42  43
ENDBRANCH  41  42
ENDBRANCH  38  41
ENDBRANCH   1  38
TORSDOF 16
ENDMDL
MODEL 3
REMARK VINA RESULT: -6.787989321      3.677      9.461
REMARK  16 active torsions:
REMARK  status: ('A' for Active; 'I' for Inactive)
REMARK    1  A    between atoms: C1_2  and  O2_3 
REMARK    2  A    between atoms: C1_2  and  O14_35 
REMARK    3  A    between atoms: O2_3  and  C2_4 
REMARK    4  A    between atoms: C2_4  and  C3_6 
REMARK    5  A    between atoms: C3_6  and  O3_7 
REMARK    6  A    between atoms: C3_6  and  C4_9 
REMARK    7  A    between atoms: C3_6  and  C12_26 
REMARK    8  A    between atoms: C5_10  and  C6_11 
REMARK    9  A    between atoms: C8_13  and  N1_14 
REMARK   10  A    between atoms: C9_17  and  N2_18 
REMARK   11  A    between atoms: C10_21  and  O8_22 
REMARK   12  A    between atoms: C12_26  and  O9_27 
REMARK   13  A    between atoms: C12_26  and  C13_29 
REMARK   14  A    between atoms: C13_29  and  O10_30 
REMARK   15  A    between atoms: O10_30  and  S1_31 
REMARK   16  A    between atoms: O14_35  and  C14_36 
ROOT
HETATM    1  C3  UNL     1      21.398 -20.200  34.603  1.00  0.00     0.189 C 
ENDROOT
BRANCH   1   2
HETATM    2  C2  UNL     1      22.776 -19.781  34.246  1.00  0.00     0.279 C 
HETATM    3 CL1  UNL     1      23.472 -20.757  32.921  1.00  0.00    -0.090 Cl
BRANCH   2   4
HETATM    4  O2  UNL     1      22.742 -18.405  33.795  1.00  0.00    -0.273 OA
BRANCH   4   5
HETATM    5  C1  UNL     1      22.942 -18.112  32.451  1.00  0.00     0.408 C 
HETATM    6  O1  UNL     1      21.975 -18.249  31.679  1.00  0.00    -0.229 OA
BRANCH   5   7
HETATM    7  O14 UNL     1      24.146 -17.676  31.921  1.00  0.00    -0.287 OA
BRANCH   7   8
HETATM    8  C14 UNL     1      24.755 -16.457  32.345  1.00  0.00     0.203 C 
HETATM    9  C15 UNL     1      24.377 -15.382  31.381  1.00  0.00     0.219 C 
HETATM   10  C16 UNL     1      24.805 -14.049  31.952  1.00  0.00     0.038 C 
HETATM   11  N3  UNL     1      25.396 -15.550  30.329  1.00  0.00    -0.061 N 
HETATM   12  C17 UNL     1      26.337 -14.126  31.864  1.00  0.00     0.038 C 
HETATM   13  C18 UNL     1      26.576 -15.451  31.207  1.00  0.00     0.225 C 
HETATM   14  C19 UNL     1      26.273 -16.542  32.190  1.00  0.00     0.139 A 
HETATM   15  C20 UNL     1      27.133 -17.020  33.198  1.00  0.00     0.212 A 
HETATM   16  O15 UNL     1      26.839 -17.800  32.027  1.00  0.00    -0.370 OA
ATOM     17  H32 UNL     1      25.323 -16.380  29.741  1.00  0.00     0.278 HD
ATOM     18  H31 UNL     1      25.353 -14.912  29.534  1.00  0.00     0.278 HD
ENDBRANCH   7   8
ENDBRANCH   5   7
ENDBRANCH   4   5
ENDBRANCH   2   4
ENDBRANCH   1   2
BRANCH   1  19
HETATM   19  O3  UNL     1      20.760 -20.371  33.297  1.00  0.00    -0.371 OA
ATOM     20  H3  UNL     1      20.386 -21.242  33.356  1.00  0.00     0.212 HD
ENDBRANCH   1  19
BRANCH   1  21
HETATM   21  C4  UNL     1      21.393 -21.453  35.329  1.00  0.00    -0.056 C 
HETATM   22  C5  UNL     1      21.407 -22.505  35.922  1.00  0.00    -0.062 C 
BRANCH  22  23
HETATM   23  C6  UNL     1      21.445 -23.770  36.618  1.00  0.00     0.044 A 
HETATM   24  C7  UNL     1      22.285 -23.914  37.673  1.00  0.00     0.061 A 
HETATM   25  C8  UNL     1      22.359 -25.125  38.384  1.00  0.00     0.140 A 
HETATM   26  C9  UNL     1      21.566 -26.174  37.994  1.00  0.00     0.170 A 
HETATM   27  C10 UNL     1      20.690 -26.047  36.906  1.00  0.00     0.124 A 
HETATM   28  C11 UNL     1      20.664 -24.846  36.257  1.00  0.00     0.088 A 
HETATM   29 CL2  UNL     1      19.584 -24.654  34.898  1.00  0.00    -0.080 Cl
BRANCH  25  30
HETATM   30  N1  UNL     1      23.253 -25.160  39.489  1.00  0.00    -0.113 N 
HETATM   31  O4  UNL     1      22.889 -24.785  40.600  1.00  0.00    -0.532 OA
HETATM   32  O5  UNL     1      24.531 -25.640  39.251  1.00  0.00    -0.532 OA
ENDBRANCH  25  30
BRANCH  26  33
HETATM   33  N2  UNL     1      21.611 -27.397  38.704  1.00  0.00    -0.110 N 
HETATM   34  O6  UNL     1      22.198 -28.369  38.237  1.00  0.00    -0.532 OA
HETATM   35  O7  UNL     1      20.980 -27.569  39.919  1.00  0.00    -0.532 OA
ENDBRANCH  26  33
BRANCH  27  36
HETATM   36  O8  UNL     1      19.926 -27.146  36.578  1.00  0.00    -0.357 OA
ATOM     37  H8  UNL     1      18.983 -27.049  36.621  1.00  0.00     0.218 HD
ENDBRANCH  27  36
ENDBRANCH  22  23
ENDBRANCH   1  21
BRANCH   1  38
HETATM   38  C12 UNL     1      20.490 -19.185  35.230  1.00  0.00     0.194 C 
BRANCH  38  39
HETATM   39  O9  UNL     1      19.951 -18.427  34.105  1.00  0.00    -0.389 OA
ATOM     40  H9  UNL     1      19.195 -17.974  34.461  1.00  0.00     0.210 HD
ENDBRANCH  38  39
BRANCH  38  41
HETATM   41  C13 UNL     1      19.281 -19.645  35.939  1.00  0.00     0.228 C 
BRANCH  41  42
HETATM   42  O10 UNL     1      18.840 -18.827  36.958  1.00  0.00    -0.254 OA
BRANCH  42  43
HETATM   43  S1  UNL     1      17.407 -18.061  36.530  1.00  0.00     0.251 S 
HETATM   44  O11 UNL     1      16.442 -19.033  35.876  1.00  0.00    -0.572 OA
HETATM   45  O12 UNL     1      17.693 -16.944  35.557  1.00  0.00    -0.572 OA
HETATM   46  O13 UNL     1      16.665 -17.465  37.921  1.00  0.00    -0.572 OA
ENDBRANCH  42  43
ENDBRANCH  41  42
ENDBRANCH  38  41
ENDBRANCH   1  38
TORSDOF 16
ENDMDL
MODEL 4
REMARK VINA RESULT: -6.782468221      1.534      2.181
REMARK  16 active torsions:
REMARK  status: ('A' for Active; 'I' for Inactive)
REMARK    1  A    between atoms: C1_2  and  O2_3 
REMARK    2  A    between atoms: C1_2  and  O14_35 
REMARK    3  A    between atoms: O2_3  and  C2_4 
REMARK    4  A    between atoms: C2_4  and  C3_6 
REMARK    5  A    between atoms: C3_6  and  O3_7 
REMARK    6  A    between atoms: C3_6  and  C4_9 
REMARK    7  A    between atoms: C3_6  and  C12_26 
REMARK    8  A    between atoms: C5_10  and  C6_11 
REMARK    9  A    between atoms: C8_13  and  N1_14 
REMARK   10  A    between atoms: C9_17  and  N2_18 
REMARK   11  A    between atoms: C10_21  and  O8_22 
REMARK   12  A    between atoms: C12_26  and  O9_27 
REMARK   13  A    between atoms: C12_26  and  C13_29 
REMARK   14  A    between atoms: C13_29  and  O10_30 
REMARK   15  A    between atoms: O10_30  and  S1_31 
REMARK   16  A    between atoms: O14_35  and  C14_36 
ROOT
HETATM    1  C3  UNL     1      22.292 -21.834  34.909  1.00  0.00     0.189 C 
ENDROOT
BRANCH   1   2
HETATM    2  C2  UNL     1      22.521 -23.051  35.727  1.00  0.00     0.279 C 
HETATM    3 CL1  UNL     1      23.529 -22.732  37.168  1.00  0.00    -0.090 Cl
BRANCH   2   4
HETATM    4  O2  UNL     1      21.243 -23.543  36.197  1.00  0.00    -0.273 OA
BRANCH   4   5
HETATM    5  C1  UNL     1      20.872 -24.858  35.945  1.00  0.00     0.408 C 
HETATM    6  O1  UNL     1      20.445 -25.132  34.808  1.00  0.00    -0.229 OA
BRANCH   5   7
HETATM    7  O14 UNL     1      20.950 -25.880  36.879  1.00  0.00    -0.287 OA
BRANCH   7   8
HETATM    8  C14 UNL     1      22.094 -26.047  37.715  1.00  0.00     0.203 C 
HETATM    9  C15 UNL     1      23.275 -26.328  36.846  1.00  0.00     0.219 C 
HETATM   10  C16 UNL     1      24.525 -26.258  37.694  1.00  0.00     0.038 C 
HETATM   11  N3  UNL     1      23.171 -27.787  36.661  1.00  0.00    -0.061 N 
HETATM   12  C17 UNL     1      24.394 -27.504  38.583  1.00  0.00     0.038 C 
HETATM   13  C18 UNL     1      23.133 -28.145  38.091  1.00  0.00     0.225 C 
HETATM   14  C19 UNL     1      21.962 -27.324  38.543  1.00  0.00     0.139 A 
HETATM   15  C20 UNL     1      21.351 -27.371  39.812  1.00  0.00     0.212 A 
HETATM   16  O15 UNL     1      20.706 -27.906  38.644  1.00  0.00    -0.370 OA
ATOM     17  H32 UNL     1      22.408 -28.127  36.077  1.00  0.00     0.278 HD
ATOM     18  H31 UNL     1      23.887 -28.235  36.089  1.00  0.00     0.278 HD
ENDBRANCH   7   8
ENDBRANCH   5   7
ENDBRANCH   4   5
ENDBRANCH   2   4
ENDBRANCH   1   2
BRANCH   1  19
HETATM   19  O3  UNL     1      21.535 -22.347  33.766  1.00  0.00    -0.371 OA
ATOM     20  H3  UNL     1      22.160 -22.919  33.337  1.00  0.00     0.212 HD
ENDBRANCH   1  19
BRANCH   1  21
HETATM   21  C4  UNL     1      21.508 -20.849  35.626  1.00  0.00    -0.056 C 
HETATM   22  C5  UNL     1      20.847 -20.045  36.236  1.00  0.00    -0.062 C 
BRANCH  22  23
HETATM   23  C6  UNL     1      20.047 -19.101  36.982  1.00  0.00     0.044 A 
HETATM   24  C7  UNL     1      19.382 -18.128  36.309  1.00  0.00     0.061 A 
HETATM   25  C8  UNL     1      18.590 -17.186  36.988  1.00  0.00     0.140 A 
HETATM   26  C9  UNL     1      18.497 -17.257  38.355  1.00  0.00     0.170 A 
HETATM   27  C10 UNL     1      19.176 -18.254  39.070  1.00  0.00     0.124 A 
HETATM   28  C11 UNL     1      19.929 -19.141  38.354  1.00  0.00     0.088 A 
HETATM   29 CL2  UNL     1      20.786 -20.394  39.214  1.00  0.00    -0.080 Cl
BRANCH  25  30
HETATM   30  N1  UNL     1      17.916 -16.226  36.186  1.00  0.00    -0.113 N 
HETATM   31  O4  UNL     1      16.801 -16.464  35.729  1.00  0.00    -0.532 OA
HETATM   32  O5  UNL     1      18.568 -15.024  35.957  1.00  0.00    -0.532 OA
ENDBRANCH  25  30
BRANCH  26  33
HETATM   33  N2  UNL     1      17.693 -16.329  39.059  1.00  0.00    -0.110 N 
HETATM   34  O6  UNL     1      18.156 -15.251  39.421  1.00  0.00    -0.532 OA
HETATM   35  O7  UNL     1      16.383 -16.596  39.398  1.00  0.00    -0.532 OA
ENDBRANCH  26  33
BRANCH  27  36
HETATM   36  O8  UNL     1      19.031 -18.259  40.441  1.00  0.00    -0.357 OA
ATOM     37  H8  UNL     1      19.824 -18.247  40.963  1.00  0.00     0.218 HD
ENDBRANCH  27  36
ENDBRANCH  22  23
ENDBRANCH   1  21
BRANCH   1  38
HETATM   38  C12 UNL     1      23.469 -21.217  34.215  1.00  0.00     0.194 C 
BRANCH  38  39
HETATM   39  O9  UNL     1      23.523 -21.884  32.917  1.00  0.00    -0.389 OA
ATOM     40  H9  UNL     1      24.041 -21.304  32.371  1.00  0.00     0.210 HD
ENDBRANCH  38  39
BRANCH  38  41
HETATM   41  C13 UNL     1      23.422 -19.787  33.859  1.00  0.00     0.228 C 
BRANCH  41  42
HETATM   42  O10 UNL     1      23.174 -19.511  32.530  1.00  0.00    -0.254 OA
BRANCH  42  43
HETATM   43  S1  UNL     1      21.744 -18.646  32.358  1.00  0.00     0.251 S 
HETATM   44  O11 UNL     1      20.535 -19.547  32.528  1.00  0.00    -0.572 OA
HETATM   45  O12 UNL     1      21.684 -18.020  30.987  1.00  0.00    -0.572 OA
HETATM   46  O13 UNL     1      21.669 -17.463  33.557  1.00  0.00    -0.572 OA
ENDBRANCH  42  43
ENDBRANCH  41  42
ENDBRANCH  38  41
ENDBRANCH   1  38
TORSDOF 16
ENDMDL
MODEL 5
REMARK VINA RESULT: -6.719448361      2.172      3.078
REMARK  16 active torsions:
REMARK  status: ('A' for Active; 'I' for Inactive)
REMARK    1  A    between atoms: C1_2  and  O2_3 
REMARK    2  A    between atoms: C1_2  and  O14_35 
REMARK    3  A    between atoms: O2_3  and  C2_4 
REMARK    4  A    between atoms: C2_4  and  C3_6 
REMARK    5  A    between atoms: C3_6  and  O3_7 
REMARK    6  A    between atoms: C3_6  and  C4_9 
REMARK    7  A    between atoms: C3_6  and  C12_26 
REMARK    8  A    between atoms: C5_10  and  C6_11 
REMARK    9  A    between atoms: C8_13  and  N1_14 
REMARK   10  A    between atoms: C9_17  and  N2_18 
REMARK   11  A    between atoms: C10_21  and  O8_22 
REMARK   12  A    between atoms: C12_26  and  O9_27 
REMARK   13  A    between atoms: C12_26  and  C13_29 
REMARK   14  A    between atoms: C13_29  and  O10_30 
REMARK   15  A    between atoms: O10_30  and  S1_31 
REMARK   16  A    between atoms: O14_35  and  C14_36 
ROOT
HETATM    1  C3  UNL     1      22.111 -21.817  35.054  1.00  0.00     0.189 C 
ENDROOT
BRANCH   1   2
HETATM    2  C2  UNL     1      22.235 -23.056  35.862  1.00  0.00     0.279 C 
HETATM    3 CL1  UNL     1      20.650 -23.767  36.279  1.00  0.00    -0.090 Cl
BRANCH   2   4
HETATM    4  O2  UNL     1      22.960 -24.043  35.090  1.00  0.00    -0.273 OA
BRANCH   4   5
HETATM    5  C1  UNL     1      24.163 -24.548  35.567  1.00  0.00     0.408 C 
HETATM    6  O1  UNL     1      24.336 -24.566  36.800  1.00  0.00    -0.229 OA
BRANCH   5   7
HETATM    7  O14 UNL     1      25.179 -25.033  34.758  1.00  0.00    -0.287 OA
BRANCH   7   8
HETATM    8  C14 UNL     1      26.208 -25.878  35.269  1.00  0.00     0.203 C 
HETATM    9  C15 UNL     1      27.521 -25.379  34.764  1.00  0.00     0.219 C 
HETATM   10  C16 UNL     1      28.627 -26.107  35.494  1.00  0.00     0.038 C 
HETATM   11  N3  UNL     1      27.605 -26.038  33.448  1.00  0.00    -0.061 N 
HETATM   12  C17 UNL     1      28.514 -27.533  34.935  1.00  0.00     0.038 C 
HETATM   13  C18 UNL     1      27.411 -27.419  33.928  1.00  0.00     0.225 C 
HETATM   14  C19 UNL     1      26.105 -27.271  34.651  1.00  0.00     0.139 A 
HETATM   15  C20 UNL     1      25.334 -28.313  35.202  1.00  0.00     0.212 A 
HETATM   16  O15 UNL     1      24.919 -27.614  34.017  1.00  0.00    -0.370 OA
ATOM     17  H32 UNL     1      26.972 -25.706  32.721  1.00  0.00     0.278 HD
ATOM     18  H31 UNL     1      28.439 -25.854  32.889  1.00  0.00     0.278 HD
ENDBRANCH   7   8
ENDBRANCH   5   7
ENDBRANCH   4   5
ENDBRANCH   2   4
ENDBRANCH   1   2
BRANCH   1  19
HETATM   19  O3  UNL     1      21.396 -22.274  33.862  1.00  0.00    -0.371 OA
ATOM     20  H3  UNL     1      21.635 -21.626  33.209  1.00  0.00     0.212 HD
ENDBRANCH   1  19
BRANCH   1  21
HETATM   21  C4  UNL     1      21.336 -20.806  35.744  1.00  0.00    -0.056 C 
HETATM   22  C5  UNL     1      20.683 -19.979  36.334  1.00  0.00    -0.062 C 
BRANCH  22  23
HETATM   23  C6  UNL     1      19.893 -19.009  37.056  1.00  0.00     0.044 A 
HETATM   24  C7  UNL     1      19.262 -18.029  36.361  1.00  0.00     0.061 A 
HETATM   25  C8  UNL     1      18.482 -17.060  37.016  1.00  0.00     0.140 A 
HETATM   26  C9  UNL     1      18.366 -17.113  38.382  1.00  0.00     0.170 A 
HETATM   27  C10 UNL     1      19.010 -18.116  39.119  1.00  0.00     0.124 A 
HETATM   28  C11 UNL     1      19.753 -19.029  38.426  1.00  0.00     0.088 A 
HETATM   29 CL2  UNL     1      20.568 -20.291  39.314  1.00  0.00    -0.080 Cl
BRANCH  25  30
HETATM   30  N1  UNL     1      17.843 -16.095  36.192  1.00  0.00    -0.113 N 
HETATM   31  O4  UNL     1      16.736 -16.319  35.708  1.00  0.00    -0.532 OA
HETATM   32  O5  UNL     1      18.518 -14.904  35.973  1.00  0.00    -0.532 OA
ENDBRANCH  25  30
BRANCH  26  33
HETATM   33  N2  UNL     1      17.572 -16.158  39.062  1.00  0.00    -0.110 N 
HETATM   34  O6  UNL     1      16.447 -16.451  39.458  1.00  0.00    -0.532 OA
HETATM   35  O7  UNL     1      17.999 -14.865  39.282  1.00  0.00    -0.532 OA
ENDBRANCH  26  33
BRANCH  27  36
HETATM   36  O8  UNL     1      18.843 -18.101  40.488  1.00  0.00    -0.357 OA
ATOM     37  H8  UNL     1      18.544 -18.903  40.899  1.00  0.00     0.218 HD
ENDBRANCH  27  36
ENDBRANCH  22  23
ENDBRANCH   1  21
BRANCH   1  38
HETATM   38  C12 UNL     1      23.353 -21.247  34.437  1.00  0.00     0.194 C 
BRANCH  38  39
HETATM   39  O9  UNL     1      23.516 -21.984  33.188  1.00  0.00    -0.389 OA
ATOM     40  H9  UNL     1      24.198 -22.619  33.371  1.00  0.00     0.210 HD
ENDBRANCH  38  39
BRANCH  38  41
HETATM   41  C13 UNL     1      23.356 -19.838  34.002  1.00  0.00     0.228 C 
BRANCH  41  42
HETATM   42  O10 UNL     1      23.125 -19.629  32.659  1.00  0.00    -0.254 OA
BRANCH  42  43
HETATM   43  S1  UNL     1      21.739 -18.705  32.429  1.00  0.00     0.251 S 
HETATM   44  O11 UNL     1      20.488 -19.549  32.586  1.00  0.00    -0.572 OA
HETATM   45  O12 UNL     1      21.744 -18.109  31.044  1.00  0.00    -0.572 OA
HETATM   46  O13 UNL     1      21.685 -17.493  33.600  1.00  0.00    -0.572 OA
ENDBRANCH  42  43
ENDBRANCH  41  42
ENDBRANCH  38  41
ENDBRANCH   1  38
TORSDOF 16
ENDMDL
