MODEL 1
REMARK VINA RESULT: -4.964257277      0.000      0.000
REMARK  7 active torsions:
REMARK  status: ('A' for Active; 'I' for Inactive)
REMARK    1  A    between atoms: C1_4  and  C2_6 
REMARK    2  A    between atoms: C2_6  and  C3_7 
REMARK    3  A    between atoms: C3_7  and  N3_8 
REMARK       I    between atoms: N3_8  and  C4_10 
REMARK       I    between atoms: C4_10  and  N8_22 
REMARK    4  A    between atoms: N4_11  and  C5_13 
REMARK    5  A    between atoms: N8_22  and  C8_24 
REMARK    6  A    between atoms: C8_24  and  C9_25 
REMARK    7  A    between atoms: C9_25  and  N9_26 
ROOT
HETATM    1  N3  UNL     1      25.908  28.740  10.085  1.00  0.00    -0.226 N 
ATOM      2  H3  UNL     1      26.558  29.520   9.996  1.00  0.00     0.177 HD
HETATM    3  C4  UNL     1      26.278  27.561  10.815  1.00  0.00     0.672 C 
HETATM    4  N4  UNL     1      27.162  26.750  10.352  1.00  0.00    -0.187 N 
ATOM      5  H4  UNL     1      27.421  25.914  10.877  1.00  0.00     0.181 HD
HETATM    6  N8  UNL     1      25.633  27.331  12.040  1.00  0.00    -0.225 N 
ATOM      7  H8  UNL     1      25.255  28.133  12.544  1.00  0.00     0.177 HD
ENDROOT
BRANCH   1   8
HETATM    8  C3  UNL     1      24.611  28.801   9.485  1.00  0.00     0.145 C 
BRANCH   8   9
HETATM    9  C2  UNL     1      24.189  27.495   8.850  1.00  0.00     0.092 C 
BRANCH   9  10
HETATM   10  C1  UNL     1      22.724  27.518   8.612  1.00  0.00     0.088 C 
HETATM   11  N1  UNL     1      22.271  27.874   7.473  1.00  0.00    -0.391 N 
ATOM     12  H12 UNL     1      21.264  27.890   7.310  1.00  0.00     0.157 HD
ATOM     13  H11 UNL     1      22.929  28.139   6.740  1.00  0.00     0.157 HD
HETATM   14  N2  UNL     1      21.799  27.146   9.643  1.00  0.00    -0.088 NA
ENDBRANCH   9  10
ENDBRANCH   8   9
ENDBRANCH   1   8
BRANCH   4  15
HETATM   15  C5  UNL     1      27.790  27.038   9.069  1.00  0.00     0.319 A 
HETATM   16  N5  UNL     1      29.111  27.554   9.219  1.00  0.00    -0.295 N 
HETATM   17  N6  UNL     1      30.185  26.983   8.569  1.00  0.00    -0.312 N 
ATOM     18  H5  UNL     1      29.264  28.363   9.821  1.00  0.00     0.184 HD
HETATM   19  C6  UNL     1      30.111  25.963   7.788  1.00  0.00     0.123 A 
ATOM     20  H6  UNL     1      31.104  27.400   8.718  1.00  0.00     0.185 HD
HETATM   21  C7  UNL     1      28.769  25.416   7.618  1.00  0.00     0.105 A 
HETATM   22  N7  UNL     1      27.744  25.909   8.196  1.00  0.00    -0.359 N 
ATOM     23  H7  UNL     1      26.839  25.471   8.026  1.00  0.00     0.162 HD
ENDBRANCH   4  15
BRANCH   6  24
HETATM   24  C8  UNL     1      25.479  26.042  12.614  1.00  0.00     0.165 C 
BRANCH  24  25
HETATM   25  C9  UNL     1      24.108  25.823  13.176  1.00  0.00     0.249 C 
BRANCH  25  26
HETATM   26  N9  UNL     1      23.187  26.692  12.463  1.00  0.00    -0.078 N 
ATOM     27  H93 UNL     1      22.444  27.054  13.060  1.00  0.00     0.274 HD
ATOM     28  H92 UNL     1      23.605  27.587  12.209  1.00  0.00     0.274 HD
ATOM     29  H91 UNL     1      22.832  26.178  11.656  1.00  0.00     0.274 HD
ENDBRANCH  25  26
ENDBRANCH  24  25
ENDBRANCH   6  24
TORSDOF 7
ENDMDL
MODEL 2
REMARK VINA RESULT: -4.915681773      2.419      5.545
REMARK  7 active torsions:
REMARK  status: ('A' for Active; 'I' for Inactive)
REMARK    1  A    between atoms: C1_4  and  C2_6 
REMARK    2  A    between atoms: C2_6  and  C3_7 
REMARK    3  A    between atoms: C3_7  and  N3_8 
REMARK       I    between atoms: N3_8  and  C4_10 
REMARK       I    between atoms: C4_10  and  N8_22 
REMARK    4  A    between atoms: N4_11  and  C5_13 
REMARK    5  A    between atoms: N8_22  and  C8_24 
REMARK    6  A    between atoms: C8_24  and  C9_25 
REMARK    7  A    between atoms: C9_25  and  N9_26 
ROOT
HETATM    1  N3  UNL     1      27.470  27.451   8.155  1.00  0.00    -0.226 N 
ATOM      2  H3  UNL     1      27.979  27.933   7.415  1.00  0.00     0.177 HD
HETATM    3  C4  UNL     1      26.247  27.992   8.672  1.00  0.00     0.672 C 
HETATM    4  N4  UNL     1      26.249  29.058   9.392  1.00  0.00    -0.187 N 
ATOM      5  H4  UNL     1      25.375  29.438   9.755  1.00  0.00     0.181 HD
HETATM    6  N8  UNL     1      25.059  27.309   8.368  1.00  0.00    -0.225 N 
ATOM      7  H8  UNL     1      25.035  26.735   7.525  1.00  0.00     0.177 HD
ENDROOT
BRANCH   1   8
HETATM    8  C3  UNL     1      27.964  26.222   8.697  1.00  0.00     0.145 C 
BRANCH   8   9
HETATM    9  C2  UNL     1      28.782  25.424   7.707  1.00  0.00     0.092 C 
BRANCH   9  10
HETATM   10  C1  UNL     1      30.125  25.160   8.283  1.00  0.00     0.088 C 
HETATM   11  N1  UNL     1      31.087  25.963   8.041  1.00  0.00    -0.391 N 
ATOM     12  H12 UNL     1      32.010  25.782   8.437  1.00  0.00     0.157 HD
ATOM     13  H11 UNL     1      30.916  26.778   7.453  1.00  0.00     0.157 HD
HETATM   14  N2  UNL     1      30.366  24.014   9.111  1.00  0.00    -0.088 NA
ENDBRANCH   9  10
ENDBRANCH   8   9
ENDBRANCH   1   8
BRANCH   4  15
HETATM   15  C5  UNL     1      27.516  29.717   9.682  1.00  0.00     0.319 A 
HETATM   16  N5  UNL     1      27.679  30.923   8.939  1.00  0.00    -0.295 N 
HETATM   17  N6  UNL     1      27.976  32.118   9.561  1.00  0.00    -0.312 N 
ATOM     18  H5  UNL     1      27.574  30.901   7.924  1.00  0.00     0.184 HD
HETATM   19  C6  UNL     1      28.131  32.265  10.830  1.00  0.00     0.123 A 
ATOM     20  H6  UNL     1      28.081  32.944   8.972  1.00  0.00     0.185 HD
HETATM   21  C7  UNL     1      27.969  31.044  11.613  1.00  0.00     0.105 A 
HETATM   22  N7  UNL     1      27.695  29.915  11.085  1.00  0.00    -0.359 N 
ATOM     23  H7  UNL     1      27.599  29.107  11.700  1.00  0.00     0.162 HD
ENDBRANCH   4  15
BRANCH   6  24
HETATM   24  C8  UNL     1      23.890  27.375   9.170  1.00  0.00     0.165 C 
BRANCH  24  25
HETATM   25  C9  UNL     1      22.656  26.972   8.422  1.00  0.00     0.249 C 
BRANCH  25  26
HETATM   26  N9  UNL     1      22.422  27.956   7.380  1.00  0.00    -0.078 N 
ATOM     27  H93 UNL     1      21.593  28.524   7.552  1.00  0.00     0.274 HD
ATOM     28  H92 UNL     1      23.108  28.711   7.388  1.00  0.00     0.274 HD
ATOM     29  H91 UNL     1      22.386  27.465   6.486  1.00  0.00     0.274 HD
ENDBRANCH  25  26
ENDBRANCH  24  25
ENDBRANCH   6  24
TORSDOF 7
ENDMDL
MODEL 3
REMARK VINA RESULT: -4.668858010      1.448      3.515
REMARK  7 active torsions:
REMARK  status: ('A' for Active; 'I' for Inactive)
REMARK    1  A    between atoms: C1_4  and  C2_6 
REMARK    2  A    between atoms: C2_6  and  C3_7 
REMARK    3  A    between atoms: C3_7  and  N3_8 
REMARK       I    between atoms: N3_8  and  C4_10 
REMARK       I    between atoms: C4_10  and  N8_22 
REMARK    4  A    between atoms: N4_11  and  C5_13 
REMARK    5  A    between atoms: N8_22  and  C8_24 
REMARK    6  A    between atoms: C8_24  and  C9_25 
REMARK    7  A    between atoms: C9_25  and  N9_26 
ROOT
HETATM    1  N3  UNL     1      25.648  26.255  10.879  1.00  0.00    -0.226 N 
ATOM      2  H3  UNL     1      25.802  25.258  11.024  1.00  0.00     0.177 HD
HETATM    3  C4  UNL     1      25.239  26.752   9.597  1.00  0.00     0.672 C 
HETATM    4  N4  UNL     1      26.051  26.750   8.600  1.00  0.00    -0.187 N 
ATOM      5  H4  UNL     1      25.753  27.104   7.690  1.00  0.00     0.181 HD
HETATM    6  N8  UNL     1      23.929  27.243   9.483  1.00  0.00    -0.225 N 
ATOM      7  H8  UNL     1      23.224  26.893  10.131  1.00  0.00     0.177 HD
ENDROOT
BRANCH   1   8
HETATM    8  C3  UNL     1      25.835  27.185  11.951  1.00  0.00     0.145 C 
BRANCH   8   9
HETATM    9  C2  UNL     1      24.943  26.906  13.140  1.00  0.00     0.092 C 
BRANCH   9  10
HETATM   10  C1  UNL     1      23.682  27.677  12.996  1.00  0.00     0.088 C 
HETATM   11  N1  UNL     1      23.501  28.732  13.691  1.00  0.00    -0.391 N 
ATOM     12  H12 UNL     1      22.634  29.261  13.593  1.00  0.00     0.157 HD
ATOM     13  H11 UNL     1      24.231  29.030  14.338  1.00  0.00     0.157 HD
HETATM   14  N2  UNL     1      22.656  27.258  12.087  1.00  0.00    -0.088 NA
ENDBRANCH   9  10
ENDBRANCH   8   9
ENDBRANCH   1   8
BRANCH   4  15
HETATM   15  C5  UNL     1      27.402  26.236   8.783  1.00  0.00     0.319 A 
HETATM   16  N5  UNL     1      27.786  25.344   7.740  1.00  0.00    -0.295 N 
HETATM   17  N6  UNL     1      28.949  25.531   7.023  1.00  0.00    -0.312 N 
ATOM     18  H5  UNL     1      27.186  24.549   7.518  1.00  0.00     0.184 HD
HETATM   19  C6  UNL     1      29.780  26.496   7.214  1.00  0.00     0.123 A 
ATOM     20  H6  UNL     1      29.167  24.857   6.289  1.00  0.00     0.185 HD
HETATM   21  C7  UNL     1      29.409  27.423   8.278  1.00  0.00     0.105 A 
HETATM   22  N7  UNL     1      28.345  27.292   8.970  1.00  0.00    -0.359 N 
ATOM     23  H7  UNL     1      28.156  27.981   9.697  1.00  0.00     0.162 HD
ENDBRANCH   4  15
BRANCH   6  24
HETATM   24  C8  UNL     1      23.534  28.201   8.513  1.00  0.00     0.165 C 
BRANCH  24  25
HETATM   25  C9  UNL     1      22.154  27.952   7.987  1.00  0.00     0.249 C 
BRANCH  25  26
HETATM   26  N9  UNL     1      21.585  26.841   8.730  1.00  0.00    -0.078 N 
ATOM     27  H93 UNL     1      22.296  26.244   9.154  1.00  0.00     0.274 HD
ATOM     28  H92 UNL     1      21.125  27.136   9.591  1.00  0.00     0.274 HD
ATOM     29  H91 UNL     1      20.962  26.330   8.104  1.00  0.00     0.274 HD
ENDBRANCH  25  26
ENDBRANCH  24  25
ENDBRANCH   6  24
TORSDOF 7
ENDMDL
MODEL 4
REMARK VINA RESULT: -4.639293622      1.466      3.787
REMARK  7 active torsions:
REMARK  status: ('A' for Active; 'I' for Inactive)
REMARK    1  A    between atoms: C1_4  and  C2_6 
REMARK    2  A    between atoms: C2_6  and  C3_7 
REMARK    3  A    between atoms: C3_7  and  N3_8 
REMARK       I    between atoms: N3_8  and  C4_10 
REMARK       I    between atoms: C4_10  and  N8_22 
REMARK    4  A    between atoms: N4_11  and  C5_13 
REMARK    5  A    between atoms: N8_22  and  C8_24 
REMARK    6  A    between atoms: C8_24  and  C9_25 
REMARK    7  A    between atoms: C9_25  and  N9_26 
ROOT
HETATM    1  N3  UNL     1      25.818  26.201  11.021  1.00  0.00    -0.226 N 
ATOM      2  H3  UNL     1      25.932  25.191  11.099  1.00  0.00     0.177 HD
HETATM    3  C4  UNL     1      25.340  26.790   9.804  1.00  0.00     0.672 C 
HETATM    4  N4  UNL     1      26.073  26.809   8.748  1.00  0.00    -0.187 N 
ATOM      5  H4  UNL     1      25.726  27.229   7.885  1.00  0.00     0.181 HD
HETATM    6  N8  UNL     1      24.052  27.347   9.819  1.00  0.00    -0.225 N 
ATOM      7  H8  UNL     1      23.381  26.992  10.500  1.00  0.00     0.177 HD
ENDROOT
BRANCH   1   8
HETATM    8  C3  UNL     1      26.132  27.057  12.125  1.00  0.00     0.145 C 
BRANCH   8   9
HETATM    9  C2  UNL     1      25.873  26.412  13.467  1.00  0.00     0.092 C 
BRANCH   9  10
HETATM   10  C1  UNL     1      24.693  25.516  13.359  1.00  0.00     0.088 C 
HETATM   11  N1  UNL     1      24.818  24.271  13.607  1.00  0.00    -0.391 N 
ATOM     12  H12 UNL     1      24.007  23.655  13.533  1.00  0.00     0.157 HD
ATOM     13  H11 UNL     1      25.732  23.908  13.877  1.00  0.00     0.157 HD
HETATM   14  N2  UNL     1      23.408  26.025  12.980  1.00  0.00    -0.088 NA
ENDBRANCH   9  10
ENDBRANCH   8   9
ENDBRANCH   1   8
BRANCH   4  15
HETATM   15  C5  UNL     1      27.407  26.224   8.797  1.00  0.00     0.319 A 
HETATM   16  N5  UNL     1      27.672  25.392   7.670  1.00  0.00    -0.295 N 
HETATM   17  N6  UNL     1      28.791  25.578   6.885  1.00  0.00    -0.312 N 
ATOM     18  H5  UNL     1      27.020  24.642   7.440  1.00  0.00     0.184 HD
HETATM   19  C6  UNL     1      29.680  26.489   7.080  1.00  0.00     0.123 A 
ATOM     20  H6  UNL     1      28.924  24.948   6.093  1.00  0.00     0.185 HD
HETATM   21  C7  UNL     1      29.430  27.353   8.229  1.00  0.00     0.105 A 
HETATM   22  N7  UNL     1      28.411  27.221   8.985  1.00  0.00    -0.359 N 
ATOM     23  H7  UNL     1      28.308  27.865   9.769  1.00  0.00     0.162 HD
ENDBRANCH   4  15
BRANCH   6  24
HETATM   24  C8  UNL     1      23.633  28.377   8.937  1.00  0.00     0.165 C 
BRANCH  24  25
HETATM   25  C9  UNL     1      22.503  27.953   8.051  1.00  0.00     0.249 C 
BRANCH  25  26
HETATM   26  N9  UNL     1      21.807  26.859   8.706  1.00  0.00    -0.078 N 
ATOM     27  H93 UNL     1      22.115  25.943   8.379  1.00  0.00     0.274 HD
ATOM     28  H92 UNL     1      22.074  26.750   9.684  1.00  0.00     0.274 HD
ATOM     29  H91 UNL     1      20.804  27.006   8.584  1.00  0.00     0.274 HD
ENDBRANCH  25  26
ENDBRANCH  24  25
ENDBRANCH   6  24
TORSDOF 7
ENDMDL
MODEL 5
REMARK VINA RESULT: -4.551922656      2.412      6.630
REMARK  7 active torsions:
REMARK  status: ('A' for Active; 'I' for Inactive)
REMARK    1  A    between atoms: C1_4  and  C2_6 
REMARK    2  A    between atoms: C2_6  and  C3_7 
REMARK    3  A    between atoms: C3_7  and  N3_8 
REMARK       I    between atoms: N3_8  and  C4_10 
REMARK       I    between atoms: C4_10  and  N8_22 
REMARK    4  A    between atoms: N4_11  and  C5_13 
REMARK    5  A    between atoms: N8_22  and  C8_24 
REMARK    6  A    between atoms: C8_24  and  C9_25 
REMARK    7  A    between atoms: C9_25  and  N9_26 
ROOT
HETATM    1  N3  UNL     1      28.786  28.766   8.388  1.00  0.00    -0.226 N 
ATOM      2  H3  UNL     1      28.407  29.396   7.683  1.00  0.00     0.177 HD
HETATM    3  C4  UNL     1      28.564  27.352   8.299  1.00  0.00     0.672 C 
HETATM    4  N4  UNL     1      27.397  26.853   8.505  1.00  0.00    -0.187 N 
ATOM      5  H4  UNL     1      27.246  25.846   8.438  1.00  0.00     0.181 HD
HETATM    6  N8  UNL     1      29.668  26.543   7.986  1.00  0.00    -0.225 N 
ATOM      7  H8  UNL     1      30.442  26.961   7.470  1.00  0.00     0.177 HD
ENDROOT
BRANCH   1   8
HETATM    8  C3  UNL     1      29.550  29.276   9.486  1.00  0.00     0.145 C 
BRANCH   8   9
HETATM    9  C2  UNL     1      30.471  30.408   9.092  1.00  0.00     0.092 C 
BRANCH   9  10
HETATM   10  C1  UNL     1      31.761  29.845   8.616  1.00  0.00     0.088 C 
HETATM   11  N1  UNL     1      32.622  30.609   8.067  1.00  0.00    -0.391 N 
ATOM     12  H12 UNL     1      33.508  30.223   7.740  1.00  0.00     0.157 HD
ATOM     13  H11 UNL     1      32.409  31.601   7.962  1.00  0.00     0.157 HD
HETATM   14  N2  UNL     1      32.061  28.451   8.762  1.00  0.00    -0.088 NA
ENDBRANCH   9  10
ENDBRANCH   8   9
ENDBRANCH   1   8
BRANCH   4  15
HETATM   15  C5  UNL     1      26.291  27.743   8.836  1.00  0.00     0.319 A 
HETATM   16  N5  UNL     1      25.160  27.533   7.994  1.00  0.00    -0.295 N 
HETATM   17  N6  UNL     1      23.907  27.292   8.519  1.00  0.00    -0.312 N 
ATOM     18  H5  UNL     1      25.280  27.561   6.982  1.00  0.00     0.184 HD
HETATM   19  C6  UNL     1      23.638  27.235   9.776  1.00  0.00     0.123 A 
ATOM     20  H6  UNL     1      23.138  27.150   7.863  1.00  0.00     0.185 HD
HETATM   21  C7  UNL     1      24.780  27.447  10.659  1.00  0.00     0.105 A 
HETATM   22  N7  UNL     1      25.958  27.674  10.222  1.00  0.00    -0.359 N 
ATOM     23  H7  UNL     1      26.704  27.813  10.903  1.00  0.00     0.162 HD
ENDBRANCH   4  15
BRANCH   6  24
HETATM   24  C8  UNL     1      29.765  25.175   8.351  1.00  0.00     0.165 C 
BRANCH  24  25
HETATM   25  C9  UNL     1      31.058  24.853   9.036  1.00  0.00     0.249 C 
BRANCH  25  26
HETATM   26  N9  UNL     1      32.133  25.467   8.276  1.00  0.00    -0.078 N 
ATOM     27  H93 UNL     1      32.590  24.813   7.640  1.00  0.00     0.274 HD
ATOM     28  H92 UNL     1      31.794  26.125   7.574  1.00  0.00     0.274 HD
ATOM     29  H91 UNL     1      32.781  25.894   8.938  1.00  0.00     0.274 HD
ENDBRANCH  25  26
ENDBRANCH  24  25
ENDBRANCH   6  24
TORSDOF 7
ENDMDL
