MODEL 1
REMARK VINA RESULT: -9.442779430      0.000      0.000
REMARK  5 active torsions:
REMARK  status: ('A' for Active; 'I' for Inactive)
REMARK    1  A    between atoms: C2_4  and  C3_5 
REMARK    2  A    between atoms: C3_5  and  C4_6 
REMARK    3  A    between atoms: C4_6  and  C5_7 
REMARK    4  A    between atoms: C5_7  and  C6_8 
REMARK    5  A    between atoms: C13_15  and  C14_16 
ROOT
HETATM    1  N1  UNL     1      20.042   3.217  -8.913  1.00  0.00    -0.093 NA
HETATM    2  C1  UNL     1      18.905   2.400  -9.274  1.00  0.00     0.098 A 
HETATM    3  S1  UNL     1      17.705   2.712 -10.442  1.00  0.00    -0.079 SA
HETATM    4  C2  UNL     1      16.762   1.303 -10.254  1.00  0.00    -0.015 A 
HETATM    5  C12 UNL     1      17.422   0.624  -9.271  1.00  0.00     0.029 A 
HETATM    6  C13 UNL     1      18.527   1.187  -8.765  1.00  0.00     0.006 A 
ENDROOT
BRANCH   4   7
HETATM    7  C3  UNL     1      15.511   0.858 -10.957  1.00  0.00     0.046 C 
BRANCH   7   8
HETATM    8  C4  UNL     1      15.311  -0.599 -10.742  1.00  0.00     0.010 C 
BRANCH   8   9
HETATM    9  C5  UNL     1      16.045  -1.454 -11.735  1.00  0.00     0.039 C 
BRANCH   9  10
HETATM   10  C6  UNL     1      15.117  -2.105 -12.686  1.00  0.00    -0.058 A 
HETATM   11  C7  UNL     1      14.975  -3.480 -12.672  1.00  0.00     0.007 A 
HETATM   12  C8  UNL     1      14.137  -4.112 -13.539  1.00  0.00     0.001 A 
HETATM   13  C9  UNL     1      13.408  -3.402 -14.451  1.00  0.00     0.000 A 
HETATM   14  C10 UNL     1      13.524  -2.017 -14.495  1.00  0.00     0.001 A 
HETATM   15  C11 UNL     1      14.373  -1.414 -13.615  1.00  0.00     0.007 A 
ENDBRANCH   9  10
ENDBRANCH   8   9
ENDBRANCH   7   8
ENDBRANCH   4   7
BRANCH   6  16
HETATM   16  C14 UNL     1      19.353   0.563  -7.686  1.00  0.00    -0.024 A 
HETATM   17  C15 UNL     1      19.055   0.854  -6.372  1.00  0.00     0.012 A 
HETATM   18  C16 UNL     1      19.756   0.330  -5.311  1.00  0.00     0.001 A 
HETATM   19  C17 UNL     1      20.795  -0.519  -5.577  1.00  0.00     0.000 A 
HETATM   20  C18 UNL     1      21.112  -0.825  -6.890  1.00  0.00     0.001 A 
HETATM   21  C19 UNL     1      20.385  -0.280  -7.955  1.00  0.00     0.012 A 
ENDBRANCH   6  16
TORSDOF 5
ENDMDL
MODEL 2
REMARK VINA RESULT: -9.432954581      0.028      1.033
REMARK  5 active torsions:
REMARK  status: ('A' for Active; 'I' for Inactive)
REMARK    1  A    between atoms: C2_4  and  C3_5 
REMARK    2  A    between atoms: C3_5  and  C4_6 
REMARK    3  A    between atoms: C4_6  and  C5_7 
REMARK    4  A    between atoms: C5_7  and  C6_8 
REMARK    5  A    between atoms: C13_15  and  C14_16 
ROOT
HETATM    1  N1  UNL     1      20.043   3.207  -8.913  1.00  0.00    -0.093 NA
HETATM    2  C1  UNL     1      18.905   2.391  -9.272  1.00  0.00     0.098 A 
HETATM    3  S1  UNL     1      17.704   2.702 -10.439  1.00  0.00    -0.079 SA
HETATM    4  C2  UNL     1      16.759   1.294 -10.247  1.00  0.00    -0.015 A 
HETATM    5  C12 UNL     1      17.420   0.616  -9.265  1.00  0.00     0.029 A 
HETATM    6  C13 UNL     1      18.526   1.180  -8.760  1.00  0.00     0.006 A 
ENDROOT
BRANCH   4   7
HETATM    7  C3  UNL     1      15.507   0.849 -10.949  1.00  0.00     0.046 C 
BRANCH   7   8
HETATM    8  C4  UNL     1      15.327  -0.614 -10.763  1.00  0.00     0.010 C 
BRANCH   8   9
HETATM    9  C5  UNL     1      16.073  -1.439 -11.772  1.00  0.00     0.039 C 
BRANCH   9  10
HETATM   10  C6  UNL     1      15.152  -2.133 -12.699  1.00  0.00    -0.058 A 
HETATM   11  C7  UNL     1      14.425  -1.401 -13.618  1.00  0.00     0.007 A 
HETATM   12  C8  UNL     1      13.562  -2.008 -14.480  1.00  0.00     0.001 A 
HETATM   13  C9  UNL     1      13.391  -3.363 -14.460  1.00  0.00     0.000 A 
HETATM   14  C10 UNL     1      14.106  -4.133 -13.549  1.00  0.00     0.001 A 
HETATM   15  C11 UNL     1      14.961  -3.496 -12.700  1.00  0.00     0.007 A 
ENDBRANCH   9  10
ENDBRANCH   8   9
ENDBRANCH   7   8
ENDBRANCH   4   7
BRANCH   6  16
HETATM   16  C14 UNL     1      19.353   0.556  -7.681  1.00  0.00    -0.024 A 
HETATM   17  C15 UNL     1      19.062   0.857  -6.367  1.00  0.00     0.012 A 
HETATM   18  C16 UNL     1      19.765   0.334  -5.306  1.00  0.00     0.001 A 
HETATM   19  C17 UNL     1      20.797  -0.522  -5.572  1.00  0.00     0.000 A 
HETATM   20  C18 UNL     1      21.106  -0.838  -6.884  1.00  0.00     0.001 A 
HETATM   21  C19 UNL     1      20.379  -0.295  -7.950  1.00  0.00     0.012 A 
ENDBRANCH   6  16
TORSDOF 5
ENDMDL
MODEL 3
REMARK VINA RESULT: -9.394507216      0.062      1.036
REMARK  5 active torsions:
REMARK  status: ('A' for Active; 'I' for Inactive)
REMARK    1  A    between atoms: C2_4  and  C3_5 
REMARK    2  A    between atoms: C3_5  and  C4_6 
REMARK    3  A    between atoms: C4_6  and  C5_7 
REMARK    4  A    between atoms: C5_7  and  C6_8 
REMARK    5  A    between atoms: C13_15  and  C14_16 
ROOT
HETATM    1  N1  UNL     1      20.047   3.226  -8.892  1.00  0.00    -0.093 NA
HETATM    2  C1  UNL     1      18.904   2.418  -9.255  1.00  0.00     0.098 A 
HETATM    3  S1  UNL     1      17.740   2.713 -10.462  1.00  0.00    -0.079 SA
HETATM    4  C2  UNL     1      16.766   1.328 -10.252  1.00  0.00    -0.015 A 
HETATM    5  C12 UNL     1      17.389   0.670  -9.232  1.00  0.00     0.029 A 
HETATM    6  C13 UNL     1      18.492   1.230  -8.717  1.00  0.00     0.006 A 
ENDROOT
BRANCH   4   7
HETATM    7  C3  UNL     1      15.525   0.882 -10.972  1.00  0.00     0.046 C 
BRANCH   7   8
HETATM    8  C4  UNL     1      15.315  -0.572 -10.748  1.00  0.00     0.010 C 
BRANCH   8   9
HETATM    9  C5  UNL     1      16.054  -1.438 -11.728  1.00  0.00     0.039 C 
BRANCH   9  10
HETATM   10  C6  UNL     1      15.129  -2.111 -12.668  1.00  0.00    -0.058 A 
HETATM   11  C7  UNL     1      14.991  -3.485 -12.626  1.00  0.00     0.007 A 
HETATM   12  C8  UNL     1      14.156  -4.136 -13.483  1.00  0.00     0.001 A 
HETATM   13  C9  UNL     1      13.428  -3.446 -14.410  1.00  0.00     0.000 A 
HETATM   14  C10 UNL     1      13.540  -2.062 -14.481  1.00  0.00     0.001 A 
HETATM   15  C11 UNL     1      14.385  -1.440 -13.611  1.00  0.00     0.007 A 
ENDBRANCH   9  10
ENDBRANCH   8   9
ENDBRANCH   7   8
ENDBRANCH   4   7
BRANCH   6  16
HETATM   16  C14 UNL     1      19.279   0.627  -7.597  1.00  0.00    -0.024 A 
HETATM   17  C15 UNL     1      20.314  -0.231  -7.903  1.00  0.00     0.012 A 
HETATM   18  C16 UNL     1      21.095  -0.834  -6.944  1.00  0.00     0.001 A 
HETATM   19  C17 UNL     1      20.828  -0.567  -5.630  1.00  0.00     0.000 A 
HETATM   20  C18 UNL     1      19.793   0.291  -5.300  1.00  0.00     0.001 A 
HETATM   21  C19 UNL     1      19.011   0.895  -6.291  1.00  0.00     0.012 A 
ENDBRANCH   6  16
TORSDOF 5
ENDMDL
MODEL 4
REMARK VINA RESULT: -9.360154894      0.061      1.462
REMARK  5 active torsions:
REMARK  status: ('A' for Active; 'I' for Inactive)
REMARK    1  A    between atoms: C2_4  and  C3_5 
REMARK    2  A    between atoms: C3_5  and  C4_6 
REMARK    3  A    between atoms: C4_6  and  C5_7 
REMARK    4  A    between atoms: C5_7  and  C6_8 
REMARK    5  A    between atoms: C13_15  and  C14_16 
ROOT
HETATM    1  N1  UNL     1      20.048   3.204  -8.915  1.00  0.00    -0.093 NA
HETATM    2  C1  UNL     1      18.900   2.398  -9.266  1.00  0.00     0.098 A 
HETATM    3  S1  UNL     1      17.732   2.686 -10.471  1.00  0.00    -0.079 SA
HETATM    4  C2  UNL     1      16.752   1.308 -10.243  1.00  0.00    -0.015 A 
HETATM    5  C12 UNL     1      17.376   0.657  -9.219  1.00  0.00     0.029 A 
HETATM    6  C13 UNL     1      18.484   1.217  -8.714  1.00  0.00     0.006 A 
ENDROOT
BRANCH   4   7
HETATM    7  C3  UNL     1      15.506   0.861 -10.954  1.00  0.00     0.046 C 
BRANCH   7   8
HETATM    8  C4  UNL     1      15.325  -0.602 -10.767  1.00  0.00     0.010 C 
BRANCH   8   9
HETATM    9  C5  UNL     1      16.072  -1.428 -11.774  1.00  0.00     0.039 C 
BRANCH   9  10
HETATM   10  C6  UNL     1      15.152  -2.134 -12.694  1.00  0.00    -0.058 A 
HETATM   11  C7  UNL     1      14.421  -1.412 -13.617  1.00  0.00     0.007 A 
HETATM   12  C8  UNL     1      13.559  -2.029 -14.473  1.00  0.00     0.001 A 
HETATM   13  C9  UNL     1      13.393  -3.384 -14.441  1.00  0.00     0.000 A 
HETATM   14  C10 UNL     1      14.112  -4.144 -13.526  1.00  0.00     0.001 A 
HETATM   15  C11 UNL     1      14.966  -3.497 -12.683  1.00  0.00     0.007 A 
ENDBRANCH   9  10
ENDBRANCH   8   9
ENDBRANCH   7   8
ENDBRANCH   4   7
BRANCH   6  16
HETATM   16  C14 UNL     1      19.273   0.621  -7.591  1.00  0.00    -0.024 A 
HETATM   17  C15 UNL     1      20.309  -0.236  -7.893  1.00  0.00     0.012 A 
HETATM   18  C16 UNL     1      21.091  -0.833  -6.931  1.00  0.00     0.001 A 
HETATM   19  C17 UNL     1      20.824  -0.560  -5.618  1.00  0.00     0.000 A 
HETATM   20  C18 UNL     1      19.788   0.299  -5.292  1.00  0.00     0.001 A 
HETATM   21  C19 UNL     1      19.004   0.896  -6.287  1.00  0.00     0.012 A 
ENDBRANCH   6  16
TORSDOF 5
ENDMDL
MODEL 5
REMARK VINA RESULT: -9.257078242      1.114      1.519
REMARK  5 active torsions:
REMARK  status: ('A' for Active; 'I' for Inactive)
REMARK    1  A    between atoms: C2_4  and  C3_5 
REMARK    2  A    between atoms: C3_5  and  C4_6 
REMARK    3  A    between atoms: C4_6  and  C5_7 
REMARK    4  A    between atoms: C5_7  and  C6_8 
REMARK    5  A    between atoms: C13_15  and  C14_16 
ROOT
HETATM    1  N1  UNL     1      20.027   3.194  -8.919  1.00  0.00    -0.093 NA
HETATM    2  C1  UNL     1      18.891   2.376  -9.279  1.00  0.00     0.098 A 
HETATM    3  S1  UNL     1      17.685   2.688 -10.440  1.00  0.00    -0.079 SA
HETATM    4  C2  UNL     1      16.746   1.276 -10.253  1.00  0.00    -0.015 A 
HETATM    5  C12 UNL     1      17.413   0.595  -9.277  1.00  0.00     0.029 A 
HETATM    6  C13 UNL     1      18.519   1.160  -8.773  1.00  0.00     0.006 A 
ENDROOT
BRANCH   4   7
HETATM    7  C3  UNL     1      15.494   0.830 -10.953  1.00  0.00     0.046 C 
BRANCH   7   8
HETATM    8  C4  UNL     1      15.473  -0.653 -11.037  1.00  0.00     0.010 C 
BRANCH   8   9
HETATM    9  C5  UNL     1      15.136  -1.168 -12.407  1.00  0.00     0.039 C 
BRANCH   9  10
HETATM   10  C6  UNL     1      15.675  -2.529 -12.628  1.00  0.00    -0.058 A 
HETATM   11  C7  UNL     1      15.222  -3.578 -11.851  1.00  0.00     0.007 A 
HETATM   12  C8  UNL     1      15.703  -4.841 -12.022  1.00  0.00     0.001 A 
HETATM   13  C9  UNL     1      16.649  -5.107 -12.971  1.00  0.00     0.000 A 
HETATM   14  C10 UNL     1      17.128  -4.076 -13.773  1.00  0.00     0.001 A 
HETATM   15  C11 UNL     1      16.627  -2.823 -13.576  1.00  0.00     0.007 A 
ENDBRANCH   9  10
ENDBRANCH   8   9
ENDBRANCH   7   8
ENDBRANCH   4   7
BRANCH   6  16
HETATM   16  C14 UNL     1      19.351   0.534  -7.700  1.00  0.00    -0.024 A 
HETATM   17  C15 UNL     1      19.070   0.834  -6.384  1.00  0.00     0.012 A 
HETATM   18  C16 UNL     1      19.778   0.309  -5.328  1.00  0.00     0.001 A 
HETATM   19  C17 UNL     1      20.807  -0.550  -5.602  1.00  0.00     0.000 A 
HETATM   20  C18 UNL     1      21.107  -0.865  -6.916  1.00  0.00     0.001 A 
HETATM   21  C19 UNL     1      20.373  -0.319  -7.976  1.00  0.00     0.012 A 
ENDBRANCH   6  16
TORSDOF 5
ENDMDL
