MODEL 1
REMARK VINA RESULT: -8.529226108      0.000      0.000
REMARK  5 active torsions:
REMARK  status: ('A' for Active; 'I' for Inactive)
REMARK    1  A    between atoms: C5_5  and  O1_6 
REMARK    2  A    between atoms: C17_19  and  N1_20 
REMARK    3  A    between atoms: N1_20  and  N2_22 
REMARK    4  A    between atoms: N2_22  and  N3_23 
REMARK    5  A    between atoms: C18_26  and  O2_27 
ROOT
HETATM    1  C1  UNL     1      -4.956 -28.533 -11.656  1.00  0.00     0.010 C 
HETATM    2  C2  UNL     1      -5.195 -27.068 -11.942  1.00  0.00    -0.018 C 
HETATM    3  C3  UNL     1      -6.099 -26.429 -10.919  1.00  0.00     0.007 C 
HETATM    4  C4  UNL     1      -5.716 -24.983 -10.640  1.00  0.00     0.039 C 
HETATM    5  C5  UNL     1      -4.403 -24.986  -9.840  1.00  0.00     0.065 C 
HETATM    6  C6  UNL     1      -3.624 -26.168 -10.318  1.00  0.00     0.021 C 
HETATM    7  C7  UNL     1      -2.174 -26.035 -10.002  1.00  0.00     0.008 C 
HETATM    8  C8  UNL     1      -1.936 -24.889  -9.069  1.00  0.00     0.006 C 
HETATM    9  C9  UNL     1      -2.335 -23.555  -9.728  1.00  0.00    -0.001 C 
HETATM   10  C10 UNL     1      -1.928 -22.444  -8.847  1.00  0.00     0.024 C 
HETATM   11  C11 UNL     1      -2.923 -21.869  -7.933  1.00  0.00     0.019 C 
HETATM   12  C12 UNL     1      -3.519 -20.732  -8.731  1.00  0.00    -0.018 C 
HETATM   13  C13 UNL     1      -4.364 -19.811  -7.911  1.00  0.00     0.017 C 
HETATM   14  C14 UNL     1      -4.181 -21.191 -10.002  1.00  0.00     0.012 C 
HETATM   15  C15 UNL     1      -4.673 -22.583  -9.812  1.00  0.00     0.009 C 
HETATM   16  C16 UNL     1      -3.708 -23.659 -10.195  1.00  0.00     0.025 C 
HETATM   17  C17 UNL     1      -2.216 -20.048  -9.178  1.00  0.00     0.153 C 
HETATM   18  C18 UNL     1      -1.372 -21.247  -9.607  1.00  0.00     0.175 C 
HETATM   19  C19 UNL     1      -3.830 -26.380 -11.803  1.00  0.00     0.012 C 
ENDROOT
BRANCH  17  20
HETATM   20  N1  UNL     1      -1.613 -19.379  -8.050  1.00  0.00    -0.244 N 
ATOM     21  H1  UNL     1      -1.137 -19.906  -7.318  1.00  0.00     0.197 HD
BRANCH  20  22
HETATM   22  N2  UNL     1      -1.694 -18.153  -8.000  1.00  0.00    -0.248 NA
BRANCH  22  23
HETATM   23  N3  UNL     1      -1.623 -16.956  -8.302  1.00  0.00    -0.261 N 
ATOM     24  H32 UNL     1      -1.792 -17.099  -9.298  1.00  0.00     0.193 HD
ATOM     25  H31 UNL     1      -1.513 -15.944  -8.238  1.00  0.00     0.193 HD
ENDBRANCH  22  23
ENDBRANCH  20  22
ENDBRANCH  17  20
BRANCH  18  26
HETATM   26  O2  UNL     1      -0.072 -20.947  -9.281  1.00  0.00    -0.276 OA
HETATM   27 CL1  UNL     1       0.633 -21.984  -8.171  1.00  0.00     0.062 Cl
ENDBRANCH  18  26
BRANCH   5  28
HETATM   28  O1  UNL     1      -4.768 -25.036  -8.514  1.00  0.00    -0.389 OA
ATOM     29  H1  UNL     1      -4.115 -25.576  -8.084  1.00  0.00     0.210 HD
ENDBRANCH   5  28
TORSDOF 5
ENDMDL
MODEL 2
REMARK VINA RESULT: -7.213511080      0.989      1.041
REMARK  5 active torsions:
REMARK  status: ('A' for Active; 'I' for Inactive)
REMARK    1  A    between atoms: C5_5  and  O1_6 
REMARK    2  A    between atoms: C17_19  and  N1_20 
REMARK    3  A    between atoms: N1_20  and  N2_22 
REMARK    4  A    between atoms: N2_22  and  N3_23 
REMARK    5  A    between atoms: C18_26  and  O2_27 
ROOT
HETATM    1  C1  UNL     1      -4.242 -28.185 -11.498  1.00  0.00     0.010 C 
HETATM    2  C2  UNL     1      -4.004 -26.797 -12.047  1.00  0.00    -0.018 C 
HETATM    3  C3  UNL     1      -5.161 -25.871 -11.777  1.00  0.00     0.007 C 
HETATM    4  C4  UNL     1      -4.704 -24.443 -11.515  1.00  0.00     0.039 C 
HETATM    5  C5  UNL     1      -4.031 -24.406 -10.133  1.00  0.00     0.065 C 
HETATM    6  C6  UNL     1      -3.367 -25.733  -9.955  1.00  0.00     0.021 C 
HETATM    7  C7  UNL     1      -2.302 -25.680  -8.915  1.00  0.00     0.008 C 
HETATM    8  C8  UNL     1      -2.364 -24.391  -8.155  1.00  0.00     0.006 C 
HETATM    9  C9  UNL     1      -2.090 -23.194  -9.085  1.00  0.00    -0.001 C 
HETATM   10  C10 UNL     1      -1.992 -21.968  -8.271  1.00  0.00     0.024 C 
HETATM   11  C11 UNL     1      -3.181 -21.118  -8.132  1.00  0.00     0.019 C 
HETATM   12  C12 UNL     1      -3.036 -20.122  -9.260  1.00  0.00    -0.018 C 
HETATM   13  C13 UNL     1      -3.984 -18.970  -9.160  1.00  0.00     0.017 C 
HETATM   14  C14 UNL     1      -3.014 -20.771 -10.617  1.00  0.00     0.012 C 
HETATM   15  C15 UNL     1      -3.796 -22.037 -10.557  1.00  0.00     0.009 C 
HETATM   16  C16 UNL     1      -3.008 -23.259 -10.211  1.00  0.00     0.025 C 
HETATM   17  C17 UNL     1      -1.587 -19.679  -9.000  1.00  0.00     0.153 C 
HETATM   18  C18 UNL     1      -0.898 -21.019  -8.744  1.00  0.00     0.175 C 
HETATM   19  C19 UNL     1      -2.807 -26.232 -11.270  1.00  0.00     0.012 C 
ENDROOT
BRANCH  17  20
HETATM   20  N1  UNL     1      -1.542 -18.850  -7.820  1.00  0.00    -0.244 N 
ATOM     21  H1  UNL     1      -1.404 -19.257  -6.895  1.00  0.00     0.197 HD
BRANCH  20  22
HETATM   22  N2  UNL     1      -1.677 -17.635  -7.967  1.00  0.00    -0.248 NA
BRANCH  22  23
HETATM   23  N3  UNL     1      -1.662 -16.502  -8.458  1.00  0.00    -0.261 N 
ATOM     24  H32 UNL     1      -0.721 -16.271  -8.139  1.00  0.00     0.193 HD
ATOM     25  H31 UNL     1      -1.941 -15.656  -8.955  1.00  0.00     0.193 HD
ENDBRANCH  22  23
ENDBRANCH  20  22
ENDBRANCH  17  20
BRANCH  18  26
HETATM   26  O2  UNL     1       0.071 -20.786  -7.799  1.00  0.00    -0.276 OA
HETATM   27 CL1  UNL     1       1.134 -22.057  -7.551  1.00  0.00     0.062 Cl
ENDBRANCH  18  26
BRANCH   5  28
HETATM   28  O1  UNL     1      -5.034 -24.139  -9.231  1.00  0.00    -0.389 OA
ATOM     29  H1  UNL     1      -5.321 -24.983  -8.901  1.00  0.00     0.210 HD
ENDBRANCH   5  28
TORSDOF 5
ENDMDL
MODEL 3
REMARK VINA RESULT: -6.749664290      1.956      2.937
REMARK  5 active torsions:
REMARK  status: ('A' for Active; 'I' for Inactive)
REMARK    1  A    between atoms: C5_5  and  O1_6 
REMARK    2  A    between atoms: C17_19  and  N1_20 
REMARK    3  A    between atoms: N1_20  and  N2_22 
REMARK    4  A    between atoms: N2_22  and  N3_23 
REMARK    5  A    between atoms: C18_26  and  O2_27 
ROOT
HETATM    1  C1  UNL     1      -6.738 -27.951 -12.786  1.00  0.00     0.010 C 
HETATM    2  C2  UNL     1      -6.313 -27.599 -11.379  1.00  0.00    -0.018 C 
HETATM    3  C3  UNL     1      -4.882 -27.984 -11.103  1.00  0.00     0.007 C 
HETATM    4  C4  UNL     1      -4.192 -26.995 -10.175  1.00  0.00     0.039 C 
HETATM    5  C5  UNL     1      -3.951 -25.695 -10.961  1.00  0.00     0.065 C 
HETATM    6  C6  UNL     1      -5.094 -25.565 -11.914  1.00  0.00     0.021 C 
HETATM    7  C7  UNL     1      -5.256 -24.161 -12.388  1.00  0.00     0.008 C 
HETATM    8  C8  UNL     1      -4.081 -23.325 -11.989  1.00  0.00     0.006 C 
HETATM    9  C9  UNL     1      -3.974 -23.230 -10.455  1.00  0.00    -0.001 C 
HETATM   10  C10 UNL     1      -2.913 -22.265 -10.107  1.00  0.00     0.024 C 
HETATM   11  C11 UNL     1      -1.570 -22.774  -9.803  1.00  0.00     0.019 C 
HETATM   12  C12 UNL     1      -1.595 -22.959  -8.303  1.00  0.00    -0.018 C 
HETATM   13  C13 UNL     1      -0.243 -23.204  -7.713  1.00  0.00     0.017 C 
HETATM   14  C14 UNL     1      -2.641 -23.940  -7.849  1.00  0.00     0.012 C 
HETATM   15  C15 UNL     1      -2.873 -24.931  -8.935  1.00  0.00     0.009 C 
HETATM   16  C16 UNL     1      -3.954 -24.576  -9.905  1.00  0.00     0.025 C 
HETATM   17  C17 UNL     1      -2.138 -21.576  -7.904  1.00  0.00     0.153 C 
HETATM   18  C18 UNL     1      -3.267 -21.387  -8.914  1.00  0.00     0.175 C 
HETATM   19  C19 UNL     1      -6.376 -26.069 -11.286  1.00  0.00     0.012 C 
ENDROOT
BRANCH  17  20
HETATM   20  N1  UNL     1      -1.109 -20.582  -8.097  1.00  0.00    -0.244 N 
ATOM     21  H1  UNL     1      -0.329 -20.748  -8.733  1.00  0.00     0.197 HD
BRANCH  20  22
HETATM   22  N2  UNL     1      -1.204 -19.528  -7.470  1.00  0.00    -0.248 NA
BRANCH  22  23
HETATM   23  N3  UNL     1      -1.448 -18.353  -7.175  1.00  0.00    -0.261 N 
ATOM     24  H32 UNL     1      -1.708 -18.548  -6.208  1.00  0.00     0.193 HD
ATOM     25  H31 UNL     1      -1.565 -17.342  -7.236  1.00  0.00     0.193 HD
ENDBRANCH  22  23
ENDBRANCH  20  22
ENDBRANCH  17  20
BRANCH  18  26
HETATM   26  O2  UNL     1      -3.304 -20.047  -9.213  1.00  0.00    -0.276 OA
HETATM   27 CL1  UNL     1      -4.579 -19.206  -8.524  1.00  0.00     0.062 Cl
ENDBRANCH  18  26
BRANCH   5  28
HETATM   28  O1  UNL     1      -2.719 -25.837 -11.556  1.00  0.00    -0.389 OA
ATOM     29  H1  UNL     1      -2.768 -26.634 -12.072  1.00  0.00     0.210 HD
ENDBRANCH   5  28
TORSDOF 5
ENDMDL
MODEL 4
REMARK VINA RESULT: -6.703424155      3.536      6.721
REMARK  5 active torsions:
REMARK  status: ('A' for Active; 'I' for Inactive)
REMARK    1  A    between atoms: C5_5  and  O1_6 
REMARK    2  A    between atoms: C17_19  and  N1_20 
REMARK    3  A    between atoms: N1_20  and  N2_22 
REMARK    4  A    between atoms: N2_22  and  N3_23 
REMARK    5  A    between atoms: C18_26  and  O2_27 
ROOT
HETATM    1  C1  UNL     1      -1.971 -16.433  -7.564  1.00  0.00     0.010 C 
HETATM    2  C2  UNL     1      -3.118 -17.416  -7.635  1.00  0.00    -0.018 C 
HETATM    3  C3  UNL     1      -3.609 -17.616  -9.047  1.00  0.00     0.007 C 
HETATM    4  C4  UNL     1      -4.066 -19.046  -9.297  1.00  0.00     0.039 C 
HETATM    5  C5  UNL     1      -2.817 -19.942  -9.341  1.00  0.00     0.065 C 
HETATM    6  C6  UNL     1      -1.838 -19.343  -8.385  1.00  0.00     0.021 C 
HETATM    7  C7  UNL     1      -0.805 -20.331  -7.964  1.00  0.00     0.008 C 
HETATM    8  C8  UNL     1      -0.876 -21.567  -8.807  1.00  0.00     0.006 C 
HETATM    9  C9  UNL     1      -2.228 -22.281  -8.618  1.00  0.00    -0.001 C 
HETATM   10  C10 UNL     1      -2.192 -23.572  -9.328  1.00  0.00     0.024 C 
HETATM   11  C11 UNL     1      -2.756 -23.649 -10.682  1.00  0.00     0.019 C 
HETATM   12  C12 UNL     1      -4.188 -24.066 -10.443  1.00  0.00    -0.018 C 
HETATM   13  C13 UNL     1      -4.900 -24.487 -11.689  1.00  0.00     0.017 C 
HETATM   14  C14 UNL     1      -4.958 -23.076  -9.611  1.00  0.00     0.012 C 
HETATM   15  C15 UNL     1      -4.384 -21.720  -9.825  1.00  0.00     0.009 C 
HETATM   16  C16 UNL     1      -3.297 -21.329  -8.876  1.00  0.00     0.025 C 
HETATM   17  C17 UNL     1      -3.934 -25.264  -9.512  1.00  0.00     0.153 C 
HETATM   18  C18 UNL     1      -2.878 -24.698  -8.565  1.00  0.00     0.175 C 
HETATM   19  C19 UNL     1      -2.549 -18.767  -7.180  1.00  0.00     0.012 C 
ENDROOT
BRANCH  17  20
HETATM   20  N1  UNL     1      -3.394 -26.361 -10.279  1.00  0.00    -0.244 N 
ATOM     21  H1  UNL     1      -2.388 -26.466 -10.412  1.00  0.00     0.197 HD
BRANCH  20  22
HETATM   22  N2  UNL     1      -4.187 -27.166 -10.767  1.00  0.00    -0.248 NA
BRANCH  22  23
HETATM   23  N3  UNL     1      -4.685 -28.031 -11.495  1.00  0.00    -0.261 N 
ATOM     24  H32 UNL     1      -4.189 -28.813 -11.066  1.00  0.00     0.193 HD
ATOM     25  H31 UNL     1      -5.242 -28.490 -12.215  1.00  0.00     0.193 HD
ENDBRANCH  22  23
ENDBRANCH  20  22
ENDBRANCH  17  20
BRANCH  18  26
HETATM   26  O2  UNL     1      -2.038 -25.737  -8.249  1.00  0.00    -0.276 OA
HETATM   27 CL1  UNL     1      -1.257 -25.589  -6.774  1.00  0.00     0.062 Cl
ENDBRANCH  18  26
BRANCH   5  28
HETATM   28  O1  UNL     1      -2.407 -19.954 -10.654  1.00  0.00    -0.389 OA
ATOM     29  H1  UNL     1      -1.475 -19.768 -10.638  1.00  0.00     0.210 HD
ENDBRANCH   5  28
TORSDOF 5
ENDMDL
MODEL 5
REMARK VINA RESULT: -5.882385601      4.408      6.899
REMARK  5 active torsions:
REMARK  status: ('A' for Active; 'I' for Inactive)
REMARK    1  A    between atoms: C5_5  and  O1_6 
REMARK    2  A    between atoms: C17_19  and  N1_20 
REMARK    3  A    between atoms: N1_20  and  N2_22 
REMARK    4  A    between atoms: N2_22  and  N3_23 
REMARK    5  A    between atoms: C18_26  and  O2_27 
ROOT
HETATM    1  C1  UNL     1       0.754 -21.189  -7.222  1.00  0.00     0.010 C 
HETATM    2  C2  UNL     1       0.648 -22.483  -7.997  1.00  0.00    -0.018 C 
HETATM    3  C3  UNL     1      -0.046 -23.564  -7.208  1.00  0.00     0.007 C 
HETATM    4  C4  UNL     1      -0.889 -24.469  -8.094  1.00  0.00     0.039 C 
HETATM    5  C5  UNL     1      -2.120 -23.670  -8.554  1.00  0.00     0.065 C 
HETATM    6  C6  UNL     1      -1.673 -22.251  -8.686  1.00  0.00     0.021 C 
HETATM    7  C7  UNL     1      -2.589 -21.465  -9.560  1.00  0.00     0.008 C 
HETATM    8  C8  UNL     1      -3.839 -22.237  -9.850  1.00  0.00     0.006 C 
HETATM    9  C9  UNL     1      -3.518 -23.519 -10.641  1.00  0.00    -0.001 C 
HETATM   10  C10 UNL     1      -4.782 -24.158 -11.053  1.00  0.00     0.024 C 
HETATM   11  C11 UNL     1      -5.326 -25.242 -10.225  1.00  0.00     0.019 C 
HETATM   12  C12 UNL     1      -4.744 -26.488 -10.851  1.00  0.00    -0.018 C 
HETATM   13  C13 UNL     1      -5.376 -27.751 -10.358  1.00  0.00     0.017 C 
HETATM   14  C14 UNL     1      -3.240 -26.513 -10.822  1.00  0.00     0.012 C 
HETATM   15  C15 UNL     1      -2.769 -25.726  -9.649  1.00  0.00     0.009 C 
HETATM   16  C16 UNL     1      -2.514 -24.277  -9.912  1.00  0.00     0.025 C 
HETATM   17  C17 UNL     1      -5.115 -26.212 -12.318  1.00  0.00     0.153 C 
HETATM   18  C18 UNL     1      -4.732 -24.740 -12.459  1.00  0.00     0.175 C 
HETATM   19  C19 UNL     1      -0.252 -22.183  -9.204  1.00  0.00     0.012 C 
ENDROOT
BRANCH  17  20
HETATM   20  N1  UNL     1      -6.537 -26.387 -12.494  1.00  0.00    -0.244 N 
ATOM     21  H1  UNL     1      -7.140 -25.598 -12.729  1.00  0.00     0.197 HD
BRANCH  20  22
HETATM   22  N2  UNL     1      -6.998 -27.519 -12.352  1.00  0.00    -0.248 NA
BRANCH  22  23
HETATM   23  N3  UNL     1      -7.753 -28.453 -12.063  1.00  0.00    -0.261 N 
ATOM     24  H32 UNL     1      -7.069 -29.189 -12.244  1.00  0.00     0.193 HD
ATOM     25  H31 UNL     1      -8.575 -28.982 -11.772  1.00  0.00     0.193 HD
ENDBRANCH  22  23
ENDBRANCH  20  22
ENDBRANCH  17  20
BRANCH  18  26
HETATM   26  O2  UNL     1      -5.645 -24.179 -13.318  1.00  0.00    -0.276 OA
HETATM   27 CL1  UNL     1      -5.727 -22.506 -13.264  1.00  0.00     0.062 Cl
ENDBRANCH  18  26
BRANCH   5  28
HETATM   28  O1  UNL     1      -3.086 -23.882  -7.597  1.00  0.00    -0.389 OA
ATOM     29  H1  UNL     1      -3.113 -24.821  -7.457  1.00  0.00     0.210 HD
ENDBRANCH   5  28
TORSDOF 5
ENDMDL
