MODEL 1
REMARK VINA RESULT: -8.085433092      0.000      0.000
REMARK  10 active torsions:
REMARK  status: ('A' for Active; 'I' for Inactive)
REMARK    1  A    between atoms: O1_2  and  C2_3 
REMARK    2  A    between atoms: C2_3  and  C3_4 
REMARK    3  A    between atoms: C3_4  and  N1_5 
REMARK    4  A    between atoms: C7_10  and  O3_11 
REMARK    5  A    between atoms: C12_16  and  O4_17 
REMARK    6  A    between atoms: C13_19  and  O5_20 
REMARK    7  A    between atoms: C20_29  and  O7_30 
REMARK    8  A    between atoms: C22_32  and  O8_33 
REMARK    9  A    between atoms: C24_35  and  O9_36 
REMARK   10  A    between atoms: C27_39  and  O10_40 
ROOT
HETATM    1  N1  UNL     1     -52.411  -0.114 -22.345  1.00  0.00    -0.278 N 
HETATM    2  C4  UNL     1     -52.219  -0.890 -23.504  1.00  0.00     0.261 A 
HETATM    3  O2  UNL     1     -52.552  -0.615 -24.707  1.00  0.00    -0.267 OA
HETATM    4  C5  UNL     1     -51.546  -2.138 -23.123  1.00  0.00     0.051 A 
HETATM    5  C6  UNL     1     -51.132  -3.226 -23.862  1.00  0.00     0.055 A 
HETATM    6  C7  UNL     1     -50.510  -4.301 -23.291  1.00  0.00     0.083 A 
HETATM    7  C9  UNL     1     -50.312  -4.252 -21.933  1.00  0.00     0.046 A 
HETATM    8  C10 UNL     1     -49.697  -5.297 -21.345  1.00  0.00     0.100 A 
HETATM    9  C11 UNL     1     -49.488  -5.247 -19.963  1.00  0.00     0.048 A 
HETATM   10  C12 UNL     1     -49.873  -4.230 -19.152  1.00  0.00     0.113 A 
HETATM   11  C13 UNL     1     -50.499  -3.164 -19.779  1.00  0.00     0.112 A 
HETATM   12  C14 UNL     1     -50.720  -3.162 -21.151  1.00  0.00     0.032 A 
HETATM   13  C15 UNL     1     -51.349  -2.082 -21.756  1.00  0.00     0.062 A 
HETATM   14  C16 UNL     1     -51.874  -0.836 -21.230  1.00  0.00     0.262 A 
HETATM   15  O6  UNL     1     -51.923  -0.356 -20.093  1.00  0.00    -0.267 OA
HETATM   16  C17 UNL     1     -48.736  -6.269 -19.221  1.00  0.00     0.023 A 
HETATM   17  C18 UNL     1     -49.006  -7.649 -19.352  1.00  0.00    -0.037 A 
HETATM   18  C19 UNL     1     -48.383  -8.497 -18.539  1.00  0.00     0.048 A 
HETATM   19  C20 UNL     1     -47.481  -8.005 -17.587  1.00  0.00     0.104 A 
HETATM   20  C22 UNL     1     -47.239  -6.635 -17.502  1.00  0.00     0.136 A 
HETATM   21  C24 UNL     1     -47.874  -5.720 -18.343  1.00  0.00     0.116 A 
HETATM   22  C26 UNL     1     -49.851  -8.185 -20.479  1.00  0.00     0.100 C 
HETATM   23  C27 UNL     1     -49.242  -7.760 -21.817  1.00  0.00     0.270 C 
HETATM   24  O11 UNL     1     -49.317  -6.380 -22.142  1.00  0.00    -0.318 OA
ENDROOT
BRANCH   1  25
HETATM   25  C3  UNL     1     -53.036   1.185 -22.267  1.00  0.00     0.162 C 
BRANCH  25  26
HETATM   26  C2  UNL     1     -54.541   1.112 -22.294  1.00  0.00     0.187 C 
BRANCH  26  27
HETATM   27  O1  UNL     1     -55.075   1.977 -21.346  1.00  0.00    -0.394 OA
HETATM   28  C1  UNL     1     -54.053   2.350 -20.453  1.00  0.00     0.201 C 
ENDBRANCH  26  27
ENDBRANCH  25  26
ENDBRANCH   1  25
BRANCH   6  29
HETATM   29  O3  UNL     1     -50.080  -5.409 -23.990  1.00  0.00    -0.355 OA
HETATM   30  C8  UNL     1     -50.442  -5.660 -25.331  1.00  0.00     0.210 C 
ENDBRANCH   6  29
BRANCH  11  31
HETATM   31  O5  UNL     1     -50.864  -2.154 -18.944  1.00  0.00    -0.357 OA
ATOM     32  H5  UNL     1     -50.148  -1.591 -18.672  1.00  0.00     0.217 HD
ENDBRANCH  11  31
BRANCH  10  33
HETATM   33  O4  UNL     1     -49.684  -4.263 -17.824  1.00  0.00    -0.357 OA
ATOM     34  H4  UNL     1     -50.320  -4.644 -17.231  1.00  0.00     0.217 HD
ENDBRANCH  10  33
BRANCH  23  35
HETATM   35  O10 UNL     1     -47.928  -8.211 -21.901  1.00  0.00    -0.365 OA
HETATM   36  C28 UNL     1     -47.754  -8.895 -23.098  1.00  0.00     0.204 C 
ENDBRANCH  23  35
BRANCH  21  37
HETATM   37  O9  UNL     1     -47.618  -4.380 -18.304  1.00  0.00    -0.352 OA
HETATM   38  C25 UNL     1     -46.378  -3.831 -18.797  1.00  0.00     0.210 C 
ENDBRANCH  21  37
BRANCH  20  39
HETATM   39  O8  UNL     1     -46.352  -6.084 -16.580  1.00  0.00    -0.351 OA
HETATM   40  C23 UNL     1     -46.910  -5.783 -15.294  1.00  0.00     0.210 C 
ENDBRANCH  20  39
BRANCH  19  41
HETATM   41  O7  UNL     1     -46.833  -8.862 -16.737  1.00  0.00    -0.353 OA
HETATM   42  C21 UNL     1     -47.000 -10.245 -16.700  1.00  0.00     0.210 C 
ENDBRANCH  19  41
TORSDOF 10
ENDMDL
MODEL 2
REMARK VINA RESULT: -7.891697732      2.029      2.368
REMARK  10 active torsions:
REMARK  status: ('A' for Active; 'I' for Inactive)
REMARK    1  A    between atoms: O1_2  and  C2_3 
REMARK    2  A    between atoms: C2_3  and  C3_4 
REMARK    3  A    between atoms: C3_4  and  N1_5 
REMARK    4  A    between atoms: C7_10  and  O3_11 
REMARK    5  A    between atoms: C12_16  and  O4_17 
REMARK    6  A    between atoms: C13_19  and  O5_20 
REMARK    7  A    between atoms: C20_29  and  O7_30 
REMARK    8  A    between atoms: C22_32  and  O8_33 
REMARK    9  A    between atoms: C24_35  and  O9_36 
REMARK   10  A    between atoms: C27_39  and  O10_40 
ROOT
HETATM    1  N1  UNL     1     -51.822  -2.128 -25.036  1.00  0.00    -0.278 N 
HETATM    2  C4  UNL     1     -51.534  -3.269 -25.808  1.00  0.00     0.261 A 
HETATM    3  O2  UNL     1     -51.745  -3.458 -27.055  1.00  0.00    -0.267 OA
HETATM    4  C5  UNL     1     -50.922  -4.279 -24.936  1.00  0.00     0.051 A 
HETATM    5  C6  UNL     1     -50.459  -5.554 -25.184  1.00  0.00     0.055 A 
HETATM    6  C7  UNL     1     -49.914  -6.336 -24.203  1.00  0.00     0.083 A 
HETATM    7  C9  UNL     1     -49.846  -5.790 -22.945  1.00  0.00     0.046 A 
HETATM    8  C10 UNL     1     -49.309  -6.537 -21.959  1.00  0.00     0.100 A 
HETATM    9  C11 UNL     1     -49.233  -5.983 -20.677  1.00  0.00     0.048 A 
HETATM   10  C12 UNL     1     -49.675  -4.747 -20.335  1.00  0.00     0.113 A 
HETATM   11  C13 UNL     1     -50.219  -3.996 -21.365  1.00  0.00     0.112 A 
HETATM   12  C14 UNL     1     -50.307  -4.498 -22.657  1.00  0.00     0.032 A 
HETATM   13  C15 UNL     1     -50.856  -3.725 -23.671  1.00  0.00     0.062 A 
HETATM   14  C16 UNL     1     -51.408  -2.383 -23.690  1.00  0.00     0.262 A 
HETATM   15  O6  UNL     1     -51.557  -1.523 -22.816  1.00  0.00    -0.267 OA
HETATM   16  C17 UNL     1     -48.573  -6.650 -19.546  1.00  0.00     0.023 A 
HETATM   17  C18 UNL     1     -48.854  -7.987 -19.190  1.00  0.00    -0.037 A 
HETATM   18  C19 UNL     1     -48.327  -8.468 -18.067  1.00  0.00     0.048 A 
HETATM   19  C20 UNL     1     -47.511  -7.646 -17.279  1.00  0.00     0.104 A 
HETATM   20  C22 UNL     1     -47.254  -6.335 -17.678  1.00  0.00     0.136 A 
HETATM   21  C24 UNL     1     -47.789  -5.802 -18.851  1.00  0.00     0.116 A 
HETATM   22  C26 UNL     1     -49.596  -8.913 -20.118  1.00  0.00     0.100 C 
HETATM   23  C27 UNL     1     -48.855  -8.994 -21.454  1.00  0.00     0.270 C 
HETATM   24  O11 UNL     1     -48.873  -7.829 -22.267  1.00  0.00    -0.318 OA
ENDROOT
BRANCH   1  25
HETATM   25  C3  UNL     1     -52.429  -0.902 -25.498  1.00  0.00     0.162 C 
BRANCH  25  26
HETATM   26  C2  UNL     1     -53.896  -1.055 -25.807  1.00  0.00     0.187 C 
BRANCH  26  27
HETATM   27  O1  UNL     1     -54.603   0.029 -25.302  1.00  0.00    -0.394 OA
HETATM   28  C1  UNL     1     -55.860   0.078 -25.934  1.00  0.00     0.201 C 
ENDBRANCH  26  27
ENDBRANCH  25  26
ENDBRANCH   1  25
BRANCH   6  29
HETATM   29  O3  UNL     1     -49.439  -7.614 -24.406  1.00  0.00    -0.355 OA
HETATM   30  C8  UNL     1     -49.439  -8.244 -25.668  1.00  0.00     0.210 C 
ENDBRANCH   6  29
BRANCH  11  31
HETATM   31  O5  UNL     1     -50.644  -2.757 -20.994  1.00  0.00    -0.357 OA
ATOM     32  H5  UNL     1     -51.477  -2.499 -21.371  1.00  0.00     0.217 HD
ENDBRANCH  11  31
BRANCH  10  33
HETATM   33  O4  UNL     1     -49.614  -4.290 -19.075  1.00  0.00    -0.357 OA
ATOM     34  H4  UNL     1     -48.812  -4.310 -18.567  1.00  0.00     0.217 HD
ENDBRANCH  10  33
BRANCH  23  35
HETATM   35  O10 UNL     1     -47.547  -9.420 -21.243  1.00  0.00    -0.365 OA
HETATM   36  C28 UNL     1     -46.794  -9.174 -22.385  1.00  0.00     0.204 C 
ENDBRANCH  23  35
BRANCH  21  37
HETATM   37  O9  UNL     1     -47.515  -4.536 -19.279  1.00  0.00    -0.352 OA
HETATM   38  C25 UNL     1     -46.160  -4.053 -19.398  1.00  0.00     0.210 C 
ENDBRANCH  21  37
BRANCH  20  39
HETATM   39  O8  UNL     1     -46.450  -5.470 -16.940  1.00  0.00    -0.351 OA
HETATM   40  C23 UNL     1     -47.112  -4.772 -15.876  1.00  0.00     0.210 C 
ENDBRANCH  20  39
BRANCH  19  41
HETATM   41  O7  UNL     1     -46.963  -8.122 -16.117  1.00  0.00    -0.353 OA
HETATM   42  C21 UNL     1     -46.781  -9.466 -15.799  1.00  0.00     0.210 C 
ENDBRANCH  19  41
TORSDOF 10
ENDMDL
MODEL 3
REMARK VINA RESULT: -7.673947497      2.294      8.251
REMARK  10 active torsions:
REMARK  status: ('A' for Active; 'I' for Inactive)
REMARK    1  A    between atoms: O1_2  and  C2_3 
REMARK    2  A    between atoms: C2_3  and  C3_4 
REMARK    3  A    between atoms: C3_4  and  N1_5 
REMARK    4  A    between atoms: C7_10  and  O3_11 
REMARK    5  A    between atoms: C12_16  and  O4_17 
REMARK    6  A    between atoms: C13_19  and  O5_20 
REMARK    7  A    between atoms: C20_29  and  O7_30 
REMARK    8  A    between atoms: C22_32  and  O8_33 
REMARK    9  A    between atoms: C24_35  and  O9_36 
REMARK   10  A    between atoms: C27_39  and  O10_40 
ROOT
HETATM    1  N1  UNL     1     -47.024  -4.817 -17.849  1.00  0.00    -0.278 N 
HETATM    2  C4  UNL     1     -47.335  -5.906 -18.685  1.00  0.00     0.261 A 
HETATM    3  O2  UNL     1     -46.914  -7.111 -18.607  1.00  0.00    -0.267 OA
HETATM    4  C5  UNL     1     -48.264  -5.446 -19.724  1.00  0.00     0.051 A 
HETATM    5  C6  UNL     1     -48.870  -6.101 -20.776  1.00  0.00     0.055 A 
HETATM    6  C7  UNL     1     -49.719  -5.465 -21.639  1.00  0.00     0.083 A 
HETATM    7  C9  UNL     1     -49.946  -4.130 -21.411  1.00  0.00     0.046 A 
HETATM    8  C10 UNL     1     -50.782  -3.479 -22.244  1.00  0.00     0.100 A 
HETATM    9  C11 UNL     1     -51.020  -2.120 -22.012  1.00  0.00     0.048 A 
HETATM   10  C12 UNL     1     -50.460  -1.389 -21.016  1.00  0.00     0.113 A 
HETATM   11  C13 UNL     1     -49.607  -2.081 -20.169  1.00  0.00     0.112 A 
HETATM   12  C14 UNL     1     -49.346  -3.433 -20.352  1.00  0.00     0.032 A 
HETATM   13  C15 UNL     1     -48.489  -4.102 -19.490  1.00  0.00     0.062 A 
HETATM   14  C16 UNL     1     -47.734  -3.669 -18.329  1.00  0.00     0.262 A 
HETATM   15  O6  UNL     1     -47.623  -2.581 -17.755  1.00  0.00    -0.267 OA
HETATM   16  C17 UNL     1     -51.991  -1.327 -22.779  1.00  0.00     0.023 A 
HETATM   17  C18 UNL     1     -52.008  -1.313 -24.190  1.00  0.00    -0.037 A 
HETATM   18  C19 UNL     1     -52.819  -0.458 -24.807  1.00  0.00     0.048 A 
HETATM   19  C20 UNL     1     -53.629   0.395 -24.047  1.00  0.00     0.104 A 
HETATM   20  C22 UNL     1     -53.585   0.338 -22.655  1.00  0.00     0.136 A 
HETATM   21  C24 UNL     1     -52.748  -0.551 -21.979  1.00  0.00     0.116 A 
HETATM   22  C26 UNL     1     -51.257  -2.339 -24.999  1.00  0.00     0.100 C 
HETATM   23  C27 UNL     1     -51.721  -3.741 -24.599  1.00  0.00     0.270 C 
HETATM   24  O11 UNL     1     -51.352  -4.190 -23.303  1.00  0.00    -0.318 OA
ENDROOT
BRANCH   1  25
HETATM   25  C3  UNL     1     -46.147  -4.829 -16.703  1.00  0.00     0.162 C 
BRANCH  25  26
HETATM   26  C2  UNL     1     -44.689  -4.783 -17.082  1.00  0.00     0.187 C 
BRANCH  26  27
HETATM   27  O1  UNL     1     -44.493  -3.864 -18.105  1.00  0.00    -0.394 OA
HETATM   28  C1  UNL     1     -43.612  -2.866 -17.648  1.00  0.00     0.201 C 
ENDBRANCH  26  27
ENDBRANCH  25  26
ENDBRANCH   1  25
BRANCH   6  29
HETATM   29  O3  UNL     1     -50.346  -6.079 -22.702  1.00  0.00    -0.355 OA
HETATM   30  C8  UNL     1     -50.063  -7.402 -23.101  1.00  0.00     0.210 C 
ENDBRANCH   6  29
BRANCH  11  31
HETATM   31  O5  UNL     1     -49.068  -1.325 -19.174  1.00  0.00    -0.357 OA
ATOM     32  H5  UNL     1     -48.452  -0.665 -19.471  1.00  0.00     0.217 HD
ENDBRANCH  11  31
BRANCH  10  33
HETATM   33  O4  UNL     1     -50.694  -0.077 -20.874  1.00  0.00    -0.357 OA
ATOM     34  H4  UNL     1     -50.152   0.478 -20.326  1.00  0.00     0.217 HD
ENDBRANCH  10  33
BRANCH  23  35
HETATM   35  O10 UNL     1     -53.097  -3.852 -24.780  1.00  0.00    -0.365 OA
HETATM   36  C28 UNL     1     -53.492  -5.155 -24.502  1.00  0.00     0.204 C 
ENDBRANCH  23  35
BRANCH  21  37
HETATM   37  O9  UNL     1     -52.723  -0.651 -20.618  1.00  0.00    -0.352 OA
HETATM   38  C25 UNL     1     -53.877  -1.083 -19.868  1.00  0.00     0.210 C 
ENDBRANCH  21  37
BRANCH  20  39
HETATM   39  O8  UNL     1     -54.368   1.156 -21.845  1.00  0.00    -0.351 OA
HETATM   40  C23 UNL     1     -53.692   2.284 -21.273  1.00  0.00     0.210 C 
ENDBRANCH  20  39
BRANCH  19  41
HETATM   41  O7  UNL     1     -54.467   1.287 -24.664  1.00  0.00    -0.353 OA
HETATM   42  C21 UNL     1     -55.750   1.003 -25.130  1.00  0.00     0.210 C 
ENDBRANCH  19  41
TORSDOF 10
ENDMDL
MODEL 4
REMARK VINA RESULT: -7.664255317      2.273      8.154
REMARK  10 active torsions:
REMARK  status: ('A' for Active; 'I' for Inactive)
REMARK    1  A    between atoms: O1_2  and  C2_3 
REMARK    2  A    between atoms: C2_3  and  C3_4 
REMARK    3  A    between atoms: C3_4  and  N1_5 
REMARK    4  A    between atoms: C7_10  and  O3_11 
REMARK    5  A    between atoms: C12_16  and  O4_17 
REMARK    6  A    between atoms: C13_19  and  O5_20 
REMARK    7  A    between atoms: C20_29  and  O7_30 
REMARK    8  A    between atoms: C22_32  and  O8_33 
REMARK    9  A    between atoms: C24_35  and  O9_36 
REMARK   10  A    between atoms: C27_39  and  O10_40 
ROOT
HETATM    1  N1  UNL     1     -47.032  -4.824 -17.826  1.00  0.00    -0.278 N 
HETATM    2  C4  UNL     1     -47.340  -5.913 -18.664  1.00  0.00     0.261 A 
HETATM    3  O2  UNL     1     -46.921  -7.118 -18.586  1.00  0.00    -0.267 OA
HETATM    4  C5  UNL     1     -48.266  -5.451 -19.706  1.00  0.00     0.051 A 
HETATM    5  C6  UNL     1     -48.869  -6.105 -20.759  1.00  0.00     0.055 A 
HETATM    6  C7  UNL     1     -49.716  -5.467 -21.625  1.00  0.00     0.083 A 
HETATM    7  C9  UNL     1     -49.942  -4.132 -21.397  1.00  0.00     0.046 A 
HETATM    8  C10 UNL     1     -50.775  -3.480 -22.232  1.00  0.00     0.100 A 
HETATM    9  C11 UNL     1     -51.013  -2.122 -22.000  1.00  0.00     0.048 A 
HETATM   10  C12 UNL     1     -50.455  -1.392 -21.001  1.00  0.00     0.113 A 
HETATM   11  C13 UNL     1     -49.605  -2.084 -20.152  1.00  0.00     0.112 A 
HETATM   12  C14 UNL     1     -49.345  -3.437 -20.335  1.00  0.00     0.032 A 
HETATM   13  C15 UNL     1     -48.491  -4.107 -19.471  1.00  0.00     0.062 A 
HETATM   14  C16 UNL     1     -47.739  -3.676 -18.307  1.00  0.00     0.262 A 
HETATM   15  O6  UNL     1     -47.629  -2.588 -17.733  1.00  0.00    -0.267 OA
HETATM   16  C17 UNL     1     -51.980  -1.327 -22.769  1.00  0.00     0.023 A 
HETATM   17  C18 UNL     1     -51.993  -1.312 -24.180  1.00  0.00    -0.037 A 
HETATM   18  C19 UNL     1     -52.801  -0.456 -24.799  1.00  0.00     0.048 A 
HETATM   19  C20 UNL     1     -53.614   0.397 -24.041  1.00  0.00     0.104 A 
HETATM   20  C22 UNL     1     -53.574   0.339 -22.648  1.00  0.00     0.136 A 
HETATM   21  C24 UNL     1     -52.740  -0.551 -21.971  1.00  0.00     0.116 A 
HETATM   22  C26 UNL     1     -51.240  -2.338 -24.988  1.00  0.00     0.100 C 
HETATM   23  C27 UNL     1     -51.707  -3.740 -24.590  1.00  0.00     0.270 C 
HETATM   24  O11 UNL     1     -51.343  -4.190 -23.293  1.00  0.00    -0.318 OA
ENDROOT
BRANCH   1  25
HETATM   25  C3  UNL     1     -46.158  -4.837 -16.677  1.00  0.00     0.162 C 
BRANCH  25  26
HETATM   26  C2  UNL     1     -46.874  -5.200 -15.402  1.00  0.00     0.187 C 
BRANCH  26  27
HETATM   27  O1  UNL     1     -47.069  -4.063 -14.627  1.00  0.00    -0.394 OA
HETATM   28  C1  UNL     1     -48.452  -3.846 -14.490  1.00  0.00     0.201 C 
ENDBRANCH  26  27
ENDBRANCH  25  26
ENDBRANCH   1  25
BRANCH   6  29
HETATM   29  O3  UNL     1     -50.339  -6.080 -22.690  1.00  0.00    -0.355 OA
HETATM   30  C8  UNL     1     -49.993  -7.370 -23.147  1.00  0.00     0.210 C 
ENDBRANCH   6  29
BRANCH  11  31
HETATM   31  O5  UNL     1     -49.069  -1.330 -19.155  1.00  0.00    -0.357 OA
ATOM     32  H5  UNL     1     -48.720  -0.493 -19.439  1.00  0.00     0.217 HD
ENDBRANCH  11  31
BRANCH  10  33
HETATM   33  O4  UNL     1     -50.688  -0.079 -20.859  1.00  0.00    -0.357 OA
ATOM     34  H4  UNL     1     -51.173   0.273 -20.121  1.00  0.00     0.217 HD
ENDBRANCH  10  33
BRANCH  23  35
HETATM   35  O10 UNL     1     -53.082  -3.849 -24.775  1.00  0.00    -0.365 OA
HETATM   36  C28 UNL     1     -53.476  -5.158 -24.521  1.00  0.00     0.204 C 
ENDBRANCH  23  35
BRANCH  21  37
HETATM   37  O9  UNL     1     -52.719  -0.652 -20.610  1.00  0.00    -0.352 OA
HETATM   38  C25 UNL     1     -53.880  -1.071 -19.863  1.00  0.00     0.210 C 
ENDBRANCH  21  37
BRANCH  20  39
HETATM   39  O8  UNL     1     -54.359   1.158 -21.840  1.00  0.00    -0.351 OA
HETATM   40  C23 UNL     1     -53.686   2.291 -21.275  1.00  0.00     0.210 C 
ENDBRANCH  20  39
BRANCH  19  41
HETATM   41  O7  UNL     1     -54.450   1.290 -24.659  1.00  0.00    -0.353 OA
HETATM   42  C21 UNL     1     -55.743   1.016 -25.101  1.00  0.00     0.210 C 
ENDBRANCH  19  41
TORSDOF 10
ENDMDL
MODEL 5
REMARK VINA RESULT: -7.626821854      2.256      2.916
REMARK  10 active torsions:
REMARK  status: ('A' for Active; 'I' for Inactive)
REMARK    1  A    between atoms: O1_2  and  C2_3 
REMARK    2  A    between atoms: C2_3  and  C3_4 
REMARK    3  A    between atoms: C3_4  and  N1_5 
REMARK    4  A    between atoms: C7_10  and  O3_11 
REMARK    5  A    between atoms: C12_16  and  O4_17 
REMARK    6  A    between atoms: C13_19  and  O5_20 
REMARK    7  A    between atoms: C20_29  and  O7_30 
REMARK    8  A    between atoms: C22_32  and  O8_33 
REMARK    9  A    between atoms: C24_35  and  O9_36 
REMARK   10  A    between atoms: C27_39  and  O10_40 
ROOT
HETATM    1  N1  UNL     1     -52.247  -3.183 -24.422  1.00  0.00    -0.278 N 
HETATM    2  C4  UNL     1     -51.800  -4.268 -25.200  1.00  0.00     0.261 A 
HETATM    3  O2  UNL     1     -51.996  -4.485 -26.444  1.00  0.00    -0.267 OA
HETATM    4  C5  UNL     1     -51.031  -5.174 -24.339  1.00  0.00     0.051 A 
HETATM    5  C6  UNL     1     -50.384  -6.364 -24.595  1.00  0.00     0.055 A 
HETATM    6  C7  UNL     1     -49.714  -7.055 -23.623  1.00  0.00     0.083 A 
HETATM    7  C9  UNL     1     -49.713  -6.506 -22.365  1.00  0.00     0.046 A 
HETATM    8  C10 UNL     1     -49.057  -7.164 -21.388  1.00  0.00     0.100 A 
HETATM    9  C11 UNL     1     -49.049  -6.605 -20.106  1.00  0.00     0.048 A 
HETATM   10  C12 UNL     1     -49.667  -5.450 -19.754  1.00  0.00     0.113 A 
HETATM   11  C13 UNL     1     -50.332  -4.789 -20.776  1.00  0.00     0.112 A 
HETATM   12  C14 UNL     1     -50.361  -5.298 -22.068  1.00  0.00     0.032 A 
HETATM   13  C15 UNL     1     -51.033  -4.616 -23.073  1.00  0.00     0.062 A 
HETATM   14  C16 UNL     1     -51.781  -3.373 -23.082  1.00  0.00     0.262 A 
HETATM   15  O6  UNL     1     -52.046  -2.545 -22.204  1.00  0.00    -0.267 OA
HETATM   16  C17 UNL     1     -48.281  -7.165 -18.985  1.00  0.00     0.023 A 
HETATM   17  C18 UNL     1     -48.353  -8.529 -18.628  1.00  0.00    -0.037 A 
HETATM   18  C19 UNL     1     -47.744  -8.926 -17.513  1.00  0.00     0.048 A 
HETATM   19  C20 UNL     1     -47.052  -7.990 -16.734  1.00  0.00     0.104 A 
HETATM   20  C22 UNL     1     -47.001  -6.655 -17.133  1.00  0.00     0.136 A 
HETATM   21  C24 UNL     1     -47.625  -6.209 -18.298  1.00  0.00     0.116 A 
HETATM   22  C26 UNL     1     -48.959  -9.556 -19.549  1.00  0.00     0.100 C 
HETATM   23  C27 UNL     1     -48.231  -9.524 -20.894  1.00  0.00     0.270 C 
HETATM   24  O11 UNL     1     -48.435  -8.375 -21.704  1.00  0.00    -0.318 OA
ENDROOT
BRANCH   1  25
HETATM   25  C3  UNL     1     -53.037  -2.062 -24.873  1.00  0.00     0.162 C 
BRANCH  25  26
HETATM   26  C2  UNL     1     -52.220  -1.024 -25.599  1.00  0.00     0.187 C 
BRANCH  26  27
HETATM   27  O1  UNL     1     -52.298  -1.232 -26.971  1.00  0.00    -0.394 OA
HETATM   28  C1  UNL     1     -53.623  -1.573 -27.297  1.00  0.00     0.201 C 
ENDBRANCH  26  27
ENDBRANCH  25  26
ENDBRANCH   1  25
BRANCH   6  29
HETATM   29  O3  UNL     1     -49.055  -8.247 -23.835  1.00  0.00    -0.355 OA
HETATM   30  C8  UNL     1     -48.624  -8.672 -25.109  1.00  0.00     0.210 C 
ENDBRANCH   6  29
BRANCH  11  31
HETATM   31  O5  UNL     1     -50.935  -3.629 -20.397  1.00  0.00    -0.357 OA
ATOM     32  H5  UNL     1     -50.846  -3.424 -19.474  1.00  0.00     0.217 HD
ENDBRANCH  11  31
BRANCH  10  33
HETATM   33  O4  UNL     1     -49.660  -4.990 -18.495  1.00  0.00    -0.357 OA
ATOM     34  H4  UNL     1     -49.214  -4.187 -18.251  1.00  0.00     0.217 HD
ENDBRANCH  10  33
BRANCH  23  35
HETATM   35  O10 UNL     1     -46.871  -9.748 -20.700  1.00  0.00    -0.365 OA
HETATM   36  C28 UNL     1     -46.183  -9.422 -21.863  1.00  0.00     0.204 C 
ENDBRANCH  23  35
BRANCH  21  37
HETATM   37  O9  UNL     1     -47.550  -4.915 -18.726  1.00  0.00    -0.352 OA
HETATM   38  C25 UNL     1     -46.313  -4.344 -19.199  1.00  0.00     0.210 C 
ENDBRANCH  21  37
BRANCH  20  39
HETATM   39  O8  UNL     1     -46.327  -5.679 -16.403  1.00  0.00    -0.351 OA
HETATM   40  C23 UNL     1     -47.095  -5.040 -15.374  1.00  0.00     0.210 C 
ENDBRANCH  20  39
BRANCH  19  41
HETATM   41  O7  UNL     1     -46.423  -8.378 -15.580  1.00  0.00    -0.353 OA
HETATM   42  C21 UNL     1     -46.762  -9.487 -14.807  1.00  0.00     0.210 C 
ENDBRANCH  19  41
TORSDOF 10
ENDMDL
