MODEL 1
REMARK VINA RESULT: -8.040352038      0.000      0.000
REMARK  16 active torsions:
REMARK  status: ('A' for Active; 'I' for Inactive)
REMARK    1  A    between atoms: C2_2  and  O2_4 
REMARK    2  A    between atoms: O2_4  and  C3_5 
REMARK    3  A    between atoms: C4_6  and  C5_7 
REMARK    4  A    between atoms: C5_7  and  O3_8 
REMARK    5  A    between atoms: O3_8  and  C6_9 
REMARK    6  A    between atoms: C6_9  and  C7_11 
REMARK    7  A    between atoms: C12_16  and  O5_17 
REMARK    8  A    between atoms: O5_17  and  C13_18 
REMARK    9  A    between atoms: C13_18  and  C14_20 
REMARK   10  A    between atoms: C15_21  and  C16_22 
REMARK   11  A    between atoms: C20_26  and  O7_27 
REMARK   12  A    between atoms: C22_30  and  O8_31 
REMARK   13  A    between atoms: C23_33  and  O9_34 
REMARK   14  A    between atoms: O9_34  and  C24_35 
REMARK   15  A    between atoms: C26_38  and  O11_39 
REMARK   16  A    between atoms: O11_39  and  C27_40 
ROOT
HETATM    1  C3  UNL     1     -49.744  -2.925 -19.291  1.00  0.00     0.170 C 
HETATM    2  C4  UNL     1     -50.166  -2.931 -20.735  1.00  0.00     0.045 C 
HETATM    3  C11 UNL     1     -51.555  -2.419 -20.821  1.00  0.00     0.044 C 
HETATM    4  C12 UNL     1     -51.468  -0.947 -20.410  1.00  0.00     0.165 C 
HETATM    5  C23 UNL     1     -51.052  -0.786 -18.992  1.00  0.00     0.193 C 
HETATM    6  C26 UNL     1     -50.516  -2.049 -18.372  1.00  0.00     0.194 C 
ENDROOT
BRANCH   4   7
HETATM    7  O5  UNL     1     -52.639  -0.242 -20.648  1.00  0.00    -0.310 OA
BRANCH   7   8
HETATM    8  C13 UNL     1     -52.844   0.733 -21.572  1.00  0.00     0.283 C 
HETATM    9  O6  UNL     1     -53.145   1.866 -21.221  1.00  0.00    -0.260 OA
BRANCH   8  10
HETATM   10  C14 UNL     1     -52.699   0.403 -23.012  1.00  0.00     0.083 C 
HETATM   11  C15 UNL     1     -53.073  -0.746 -23.475  1.00  0.00     0.020 C 
BRANCH  11  12
HETATM   12  C16 UNL     1     -53.037  -1.293 -24.803  1.00  0.00    -0.002 A 
HETATM   13  C17 UNL     1     -52.045  -2.212 -25.178  1.00  0.00     0.023 A 
HETATM   14  C18 UNL     1     -51.927  -2.781 -26.401  1.00  0.00    -0.028 A 
HETATM   15  C19 UNL     1     -50.844  -3.757 -26.741  1.00  0.00     0.051 C 
HETATM   16  C20 UNL     1     -52.850  -2.438 -27.364  1.00  0.00     0.074 A 
HETATM   17  C21 UNL     1     -53.850  -1.545 -27.071  1.00  0.00     0.074 A 
HETATM   18  C22 UNL     1     -53.933  -0.977 -25.782  1.00  0.00     0.078 A 
BRANCH  16  19
HETATM   19  O7  UNL     1     -52.778  -2.991 -28.643  1.00  0.00    -0.360 OA
ATOM     20  H7  UNL     1     -53.295  -2.632 -29.354  1.00  0.00     0.217 HD
ENDBRANCH  16  19
BRANCH  18  21
HETATM   21  O8  UNL     1     -54.962  -0.080 -25.537  1.00  0.00    -0.360 OA
ATOM     22  H8  UNL     1     -55.102   0.666 -26.109  1.00  0.00     0.217 HD
ENDBRANCH  18  21
ENDBRANCH  11  12
ENDBRANCH   8  10
ENDBRANCH   7   8
ENDBRANCH   4   7
BRANCH   5  23
HETATM   23  O9  UNL     1     -52.145  -0.260 -18.257  1.00  0.00    -0.311 OA
BRANCH  23  24
HETATM   24  C24 UNL     1     -52.053   0.822 -17.395  1.00  0.00     0.255 C 
HETATM   25  C25 UNL     1     -53.082   1.898 -17.338  1.00  0.00     0.126 C 
HETATM   26  O10 UNL     1     -51.052   0.880 -16.635  1.00  0.00    -0.266 OA
ENDBRANCH  23  24
ENDBRANCH   5  23
BRANCH   2  27
HETATM   27  C5  UNL     1     -49.849  -4.277 -21.277  1.00  0.00     0.186 C 
BRANCH  27  28
HETATM   28  O3  UNL     1     -49.764  -4.529 -22.598  1.00  0.00    -0.318 OA
BRANCH  28  29
HETATM   29  C6  UNL     1     -50.616  -5.272 -23.361  1.00  0.00     0.283 C 
HETATM   30  O4  UNL     1     -51.885  -5.172 -23.220  1.00  0.00    -0.260 OA
BRANCH  29  31
HETATM   31  C7  UNL     1     -50.186  -6.216 -24.373  1.00  0.00     0.084 C 
HETATM   32  C8  UNL     1     -49.717  -7.400 -24.063  1.00  0.00    -0.082 C 
HETATM   33  C9  UNL     1     -49.594  -7.853 -22.656  1.00  0.00     0.043 C 
HETATM   34  C10 UNL     1     -49.274  -8.365 -25.135  1.00  0.00     0.043 C 
ENDBRANCH  29  31
ENDBRANCH  28  29
ENDBRANCH  27  28
ENDBRANCH   2  27
BRANCH   6  35
HETATM   35  O11 UNL     1     -51.494  -2.768 -17.669  1.00  0.00    -0.311 OA
BRANCH  35  36
HETATM   36  C27 UNL     1     -51.378  -3.047 -16.336  1.00  0.00     0.255 C 
HETATM   37  C28 UNL     1     -50.313  -2.507 -15.467  1.00  0.00     0.126 C 
HETATM   38  O12 UNL     1     -52.237  -3.805 -15.841  1.00  0.00    -0.266 OA
ENDBRANCH  35  36
ENDBRANCH   6  35
BRANCH   1  39
HETATM   39  O2  UNL     1     -48.340  -2.660 -19.160  1.00  0.00    -0.313 OA
BRANCH  39  40
HETATM   40  C2  UNL     1     -47.451  -3.425 -18.473  1.00  0.00     0.255 C 
HETATM   41  C1  UNL     1     -46.497  -4.355 -19.117  1.00  0.00     0.126 C 
HETATM   42  O1  UNL     1     -47.431  -3.343 -17.222  1.00  0.00    -0.266 OA
ENDBRANCH  39  40
ENDBRANCH   1  39
TORSDOF 16
ENDMDL
MODEL 2
REMARK VINA RESULT: -7.958795147      1.632      6.285
REMARK  16 active torsions:
REMARK  status: ('A' for Active; 'I' for Inactive)
REMARK    1  A    between atoms: C2_2  and  O2_4 
REMARK    2  A    between atoms: O2_4  and  C3_5 
REMARK    3  A    between atoms: C4_6  and  C5_7 
REMARK    4  A    between atoms: C5_7  and  O3_8 
REMARK    5  A    between atoms: O3_8  and  C6_9 
REMARK    6  A    between atoms: C6_9  and  C7_11 
REMARK    7  A    between atoms: C12_16  and  O5_17 
REMARK    8  A    between atoms: O5_17  and  C13_18 
REMARK    9  A    between atoms: C13_18  and  C14_20 
REMARK   10  A    between atoms: C15_21  and  C16_22 
REMARK   11  A    between atoms: C20_26  and  O7_27 
REMARK   12  A    between atoms: C22_30  and  O8_31 
REMARK   13  A    between atoms: C23_33  and  O9_34 
REMARK   14  A    between atoms: O9_34  and  C24_35 
REMARK   15  A    between atoms: C26_38  and  O11_39 
REMARK   16  A    between atoms: O11_39  and  C27_40 
ROOT
HETATM    1  C3  UNL     1     -50.134  -2.820 -19.735  1.00  0.00     0.170 C 
HETATM    2  C4  UNL     1     -50.565  -1.932 -20.870  1.00  0.00     0.045 C 
HETATM    3  C11 UNL     1     -49.904  -2.402 -22.111  1.00  0.00     0.044 C 
HETATM    4  C12 UNL     1     -50.511  -3.777 -22.396  1.00  0.00     0.165 C 
HETATM    5  C23 UNL     1     -50.168  -4.768 -21.342  1.00  0.00     0.193 C 
HETATM    6  C26 UNL     1     -49.583  -4.152 -20.099  1.00  0.00     0.194 C 
ENDROOT
BRANCH   4   7
HETATM    7  O5  UNL     1     -50.178  -4.276 -23.647  1.00  0.00    -0.310 OA
BRANCH   7   8
HETATM    8  C13 UNL     1     -50.827  -4.063 -24.821  1.00  0.00     0.283 C 
HETATM    9  O6  UNL     1     -50.356  -4.475 -25.873  1.00  0.00    -0.260 OA
BRANCH   8  10
HETATM   10  C14 UNL     1     -52.114  -3.322 -24.810  1.00  0.00     0.083 C 
HETATM   11  C15 UNL     1     -52.152  -2.046 -25.018  1.00  0.00     0.020 C 
BRANCH  11  12
HETATM   12  C16 UNL     1     -53.251  -1.122 -25.057  1.00  0.00    -0.002 A 
HETATM   13  C17 UNL     1     -53.476  -0.225 -24.002  1.00  0.00     0.023 A 
HETATM   14  C18 UNL     1     -54.481   0.681 -23.946  1.00  0.00    -0.028 A 
HETATM   15  C19 UNL     1     -54.669   1.614 -22.789  1.00  0.00     0.051 C 
HETATM   16  C20 UNL     1     -55.361   0.736 -25.003  1.00  0.00     0.074 A 
HETATM   17  C21 UNL     1     -55.205  -0.112 -26.072  1.00  0.00     0.074 A 
HETATM   18  C22 UNL     1     -54.142  -1.040 -26.087  1.00  0.00     0.078 A 
BRANCH  16  19
HETATM   19  O7  UNL     1     -56.417   1.648 -25.001  1.00  0.00    -0.360 OA
ATOM     20  H7  UNL     1     -57.135   1.554 -24.386  1.00  0.00     0.217 HD
ENDBRANCH  16  19
BRANCH  18  21
HETATM   21  O8  UNL     1     -54.028  -1.873 -27.190  1.00  0.00    -0.360 OA
ATOM     22  H8  UNL     1     -54.682  -1.857 -27.879  1.00  0.00     0.217 HD
ENDBRANCH  18  21
ENDBRANCH  11  12
ENDBRANCH   8  10
ENDBRANCH   7   8
ENDBRANCH   4   7
BRANCH   5  23
HETATM   23  O9  UNL     1     -49.308  -5.746 -21.903  1.00  0.00    -0.311 OA
BRANCH  23  24
HETATM   24  C24 UNL     1     -49.532  -7.112 -21.830  1.00  0.00     0.255 C 
HETATM   25  C25 UNL     1     -49.042  -8.066 -22.865  1.00  0.00     0.126 C 
HETATM   26  O10 UNL     1     -50.177  -7.546 -20.841  1.00  0.00    -0.266 OA
ENDBRANCH  23  24
ENDBRANCH   5  23
BRANCH   2  27
HETATM   27  C5  UNL     1     -50.369  -0.529 -20.424  1.00  0.00     0.186 C 
BRANCH  27  28
HETATM   28  O3  UNL     1     -51.340   0.402 -20.502  1.00  0.00    -0.318 OA
BRANCH  28  29
HETATM   29  C6  UNL     1     -52.573   0.371 -19.920  1.00  0.00     0.283 C 
HETATM   30  O4  UNL     1     -53.389  -0.588 -20.154  1.00  0.00    -0.260 OA
BRANCH  29  31
HETATM   31  C7  UNL     1     -53.067   1.385 -19.009  1.00  0.00     0.084 C 
HETATM   32  C8  UNL     1     -52.685   1.436 -17.756  1.00  0.00    -0.082 C 
HETATM   33  C9  UNL     1     -51.723   0.462 -17.187  1.00  0.00     0.043 C 
HETATM   34  C10 UNL     1     -53.215   2.500 -16.826  1.00  0.00     0.043 C 
ENDBRANCH  29  31
ENDBRANCH  28  29
ENDBRANCH  27  28
ENDBRANCH   2  27
BRANCH   6  35
HETATM   35  O11 UNL     1     -48.180  -4.148 -20.103  1.00  0.00    -0.311 OA
BRANCH  35  36
HETATM   36  C27 UNL     1     -47.446  -4.729 -19.106  1.00  0.00     0.255 C 
HETATM   37  C28 UNL     1     -46.062  -4.343 -18.764  1.00  0.00     0.126 C 
HETATM   38  O12 UNL     1     -48.000  -5.638 -18.454  1.00  0.00    -0.266 OA
ENDBRANCH  35  36
ENDBRANCH   6  35
BRANCH   1  39
HETATM   39  O2  UNL     1     -51.180  -2.970 -18.765  1.00  0.00    -0.313 OA
BRANCH  39  40
HETATM   40  C2  UNL     1     -51.001  -3.174 -17.433  1.00  0.00     0.255 C 
HETATM   41  C1  UNL     1     -49.785  -2.767 -16.695  1.00  0.00     0.126 C 
HETATM   42  O1  UNL     1     -51.914  -3.739 -16.785  1.00  0.00    -0.266 OA
ENDBRANCH  39  40
ENDBRANCH   1  39
TORSDOF 16
ENDMDL
MODEL 3
REMARK VINA RESULT: -7.914952348      1.844      6.028
REMARK  16 active torsions:
REMARK  status: ('A' for Active; 'I' for Inactive)
REMARK    1  A    between atoms: C2_2  and  O2_4 
REMARK    2  A    between atoms: O2_4  and  C3_5 
REMARK    3  A    between atoms: C4_6  and  C5_7 
REMARK    4  A    between atoms: C5_7  and  O3_8 
REMARK    5  A    between atoms: O3_8  and  C6_9 
REMARK    6  A    between atoms: C6_9  and  C7_11 
REMARK    7  A    between atoms: C12_16  and  O5_17 
REMARK    8  A    between atoms: O5_17  and  C13_18 
REMARK    9  A    between atoms: C13_18  and  C14_20 
REMARK   10  A    between atoms: C15_21  and  C16_22 
REMARK   11  A    between atoms: C20_26  and  O7_27 
REMARK   12  A    between atoms: C22_30  and  O8_31 
REMARK   13  A    between atoms: C23_33  and  O9_34 
REMARK   14  A    between atoms: O9_34  and  C24_35 
REMARK   15  A    between atoms: C26_38  and  O11_39 
REMARK   16  A    between atoms: O11_39  and  C27_40 
ROOT
HETATM    1  C3  UNL     1     -51.404  -1.590 -20.234  1.00  0.00     0.170 C 
HETATM    2  C4  UNL     1     -50.545  -2.510 -21.059  1.00  0.00     0.045 C 
HETATM    3  C11 UNL     1     -49.492  -3.079 -20.184  1.00  0.00     0.044 C 
HETATM    4  C12 UNL     1     -50.234  -3.971 -19.187  1.00  0.00     0.165 C 
HETATM    5  C23 UNL     1     -51.134  -3.189 -18.299  1.00  0.00     0.193 C 
HETATM    6  C26 UNL     1     -51.358  -1.774 -18.760  1.00  0.00     0.194 C 
ENDROOT
BRANCH   4   7
HETATM    7  O5  UNL     1     -49.388  -4.768 -18.428  1.00  0.00    -0.310 OA
BRANCH   7   8
HETATM    8  C13 UNL     1     -48.592  -5.778 -18.864  1.00  0.00     0.283 C 
HETATM    9  O6  UNL     1     -47.951  -6.451 -18.068  1.00  0.00    -0.260 OA
BRANCH   8  10
HETATM   10  C14 UNL     1     -48.510  -6.054 -20.321  1.00  0.00     0.083 C 
HETATM   11  C15 UNL     1     -49.341  -6.862 -20.896  1.00  0.00     0.020 C 
BRANCH  11  12
HETATM   12  C16 UNL     1     -49.464  -7.283 -22.263  1.00  0.00    -0.002 A 
HETATM   13  C17 UNL     1     -48.558  -8.198 -22.821  1.00  0.00     0.023 A 
HETATM   14  C18 UNL     1     -48.591  -8.654 -24.095  1.00  0.00    -0.028 A 
HETATM   15  C19 UNL     1     -47.593  -9.633 -24.632  1.00  0.00     0.051 C 
HETATM   16  C20 UNL     1     -49.589  -8.190 -24.922  1.00  0.00     0.074 A 
HETATM   17  C21 UNL     1     -50.513  -7.292 -24.447  1.00  0.00     0.074 A 
HETATM   18  C22 UNL     1     -50.440  -6.844 -23.111  1.00  0.00     0.078 A 
BRANCH  16  19
HETATM   19  O7  UNL     1     -49.672  -8.624 -26.245  1.00  0.00    -0.360 OA
ATOM     20  H7  UNL     1     -49.444  -9.516 -26.477  1.00  0.00     0.217 HD
ENDBRANCH  16  19
BRANCH  18  21
HETATM   21  O8  UNL     1     -51.397  -5.938 -22.681  1.00  0.00    -0.360 OA
ATOM     22  H8  UNL     1     -52.224  -6.239 -22.324  1.00  0.00     0.217 HD
ENDBRANCH  18  21
ENDBRANCH  11  12
ENDBRANCH   8  10
ENDBRANCH   7   8
ENDBRANCH   4   7
BRANCH   5  23
HETATM   23  O9  UNL     1     -50.621  -3.239 -16.977  1.00  0.00    -0.311 OA
BRANCH  23  24
HETATM   24  C24 UNL     1     -51.410  -3.258 -15.837  1.00  0.00     0.255 C 
HETATM   25  C25 UNL     1     -51.108  -2.433 -14.634  1.00  0.00     0.126 C 
HETATM   26  O10 UNL     1     -52.420  -4.009 -15.839  1.00  0.00    -0.266 OA
ENDBRANCH  23  24
ENDBRANCH   5  23
BRANCH   2  27
HETATM   27  C5  UNL     1     -50.155  -1.763 -22.282  1.00  0.00     0.186 C 
BRANCH  27  28
HETATM   28  O3  UNL     1     -50.282  -2.278 -23.521  1.00  0.00    -0.318 OA
BRANCH  28  29
HETATM   29  C6  UNL     1     -51.421  -2.716 -24.128  1.00  0.00     0.283 C 
HETATM   30  O4  UNL     1     -51.476  -3.875 -24.672  1.00  0.00    -0.260 OA
BRANCH  29  31
HETATM   31  C7  UNL     1     -52.643  -1.942 -24.218  1.00  0.00     0.084 C 
HETATM   32  C8  UNL     1     -52.911  -1.186 -25.256  1.00  0.00    -0.082 C 
HETATM   33  C9  UNL     1     -51.982  -1.073 -26.406  1.00  0.00     0.043 C 
HETATM   34  C10 UNL     1     -54.189  -0.388 -25.325  1.00  0.00     0.043 C 
ENDBRANCH  29  31
ENDBRANCH  28  29
ENDBRANCH  27  28
ENDBRANCH   2  27
BRANCH   6  35
HETATM   35  O11 UNL     1     -50.487  -0.858 -18.150  1.00  0.00    -0.311 OA
BRANCH  35  36
HETATM   36  C27 UNL     1     -50.940   0.194 -17.404  1.00  0.00     0.255 C 
HETATM   37  C28 UNL     1     -52.153   0.974 -17.723  1.00  0.00     0.126 C 
HETATM   38  O12 UNL     1     -50.274   0.497 -16.392  1.00  0.00    -0.266 OA
ENDBRANCH  35  36
ENDBRANCH   6  35
BRANCH   1  39
HETATM   39  O2  UNL     1     -52.765  -1.600 -20.689  1.00  0.00    -0.313 OA
BRANCH  39  40
HETATM   40  C2  UNL     1     -53.547  -0.504 -20.869  1.00  0.00     0.255 C 
HETATM   41  C1  UNL     1     -53.133   0.682 -21.650  1.00  0.00     0.126 C 
HETATM   42  O1  UNL     1     -54.687  -0.488 -20.346  1.00  0.00    -0.266 OA
ENDBRANCH  39  40
ENDBRANCH   1  39
TORSDOF 16
ENDMDL
MODEL 4
REMARK VINA RESULT: -7.794058808      1.273      1.651
REMARK  16 active torsions:
REMARK  status: ('A' for Active; 'I' for Inactive)
REMARK    1  A    between atoms: C2_2  and  O2_4 
REMARK    2  A    between atoms: O2_4  and  C3_5 
REMARK    3  A    between atoms: C4_6  and  C5_7 
REMARK    4  A    between atoms: C5_7  and  O3_8 
REMARK    5  A    between atoms: O3_8  and  C6_9 
REMARK    6  A    between atoms: C6_9  and  C7_11 
REMARK    7  A    between atoms: C12_16  and  O5_17 
REMARK    8  A    between atoms: O5_17  and  C13_18 
REMARK    9  A    between atoms: C13_18  and  C14_20 
REMARK   10  A    between atoms: C15_21  and  C16_22 
REMARK   11  A    between atoms: C20_26  and  O7_27 
REMARK   12  A    between atoms: C22_30  and  O8_31 
REMARK   13  A    between atoms: C23_33  and  O9_34 
REMARK   14  A    between atoms: O9_34  and  C24_35 
REMARK   15  A    between atoms: C26_38  and  O11_39 
REMARK   16  A    between atoms: O11_39  and  C27_40 
ROOT
HETATM    1  C3  UNL     1     -50.028  -2.673 -17.892  1.00  0.00     0.170 C 
HETATM    2  C4  UNL     1     -50.458  -2.912 -19.314  1.00  0.00     0.045 C 
HETATM    3  C11 UNL     1     -51.777  -2.268 -19.521  1.00  0.00     0.044 C 
HETATM    4  C12 UNL     1     -51.515  -0.765 -19.404  1.00  0.00     0.165 C 
HETATM    5  C23 UNL     1     -51.073  -0.379 -18.038  1.00  0.00     0.193 C 
HETATM    6  C26 UNL     1     -50.684  -1.549 -17.175  1.00  0.00     0.194 C 
ENDROOT
BRANCH   4   7
HETATM    7  O5  UNL     1     -52.596   0.012 -19.795  1.00  0.00    -0.310 OA
BRANCH   7   8
HETATM    8  C13 UNL     1     -52.896   0.441 -21.048  1.00  0.00     0.283 C 
HETATM    9  O6  UNL     1     -53.258   1.595 -21.238  1.00  0.00    -0.260 OA
BRANCH   8  10
HETATM   10  C14 UNL     1     -52.780  -0.510 -22.183  1.00  0.00     0.083 C 
HETATM   11  C15 UNL     1     -52.952  -0.117 -23.404  1.00  0.00     0.020 C 
BRANCH  11  12
HETATM   12  C16 UNL     1     -52.894  -0.831 -24.648  1.00  0.00    -0.002 A 
HETATM   13  C17 UNL     1     -51.808  -1.668 -24.950  1.00  0.00     0.023 A 
HETATM   14  C18 UNL     1     -51.663  -2.380 -26.092  1.00  0.00    -0.028 A 
HETATM   15  C19 UNL     1     -50.478  -3.257 -26.356  1.00  0.00     0.051 C 
HETATM   16  C20 UNL     1     -52.654  -2.284 -27.043  1.00  0.00     0.074 A 
HETATM   17  C21 UNL     1     -53.747  -1.485 -26.819  1.00  0.00     0.074 A 
HETATM   18  C22 UNL     1     -53.856  -0.760 -25.613  1.00  0.00     0.078 A 
BRANCH  16  19
HETATM   19  O7  UNL     1     -52.558  -2.994 -28.240  1.00  0.00    -0.360 OA
ATOM     20  H7  UNL     1     -52.891  -2.624 -29.050  1.00  0.00     0.217 HD
ENDBRANCH  16  19
BRANCH  18  21
HETATM   21  O8  UNL     1     -54.980   0.032 -25.435  1.00  0.00    -0.360 OA
ATOM     22  H8  UNL     1     -55.742  -0.303 -24.977  1.00  0.00     0.217 HD
ENDBRANCH  18  21
ENDBRANCH  11  12
ENDBRANCH   8  10
ENDBRANCH   7   8
ENDBRANCH   4   7
BRANCH   5  23
HETATM   23  O9  UNL     1     -52.091   0.406 -17.438  1.00  0.00    -0.311 OA
BRANCH  23  24
HETATM   24  C24 UNL     1     -51.852   1.434 -16.540  1.00  0.00     0.255 C 
HETATM   25  C25 UNL     1     -52.836   2.522 -16.279  1.00  0.00     0.126 C 
HETATM   26  O10 UNL     1     -50.753   1.431 -15.928  1.00  0.00    -0.266 OA
ENDBRANCH  23  24
ENDBRANCH   5  23
BRANCH   2  27
HETATM   27  C5  UNL     1     -50.305  -4.366 -19.577  1.00  0.00     0.186 C 
BRANCH  27  28
HETATM   28  O3  UNL     1     -50.470  -4.906 -20.801  1.00  0.00    -0.318 OA
BRANCH  28  29
HETATM   29  C6  UNL     1     -50.690  -4.252 -21.977  1.00  0.00     0.283 C 
HETATM   30  O4  UNL     1     -49.785  -3.509 -22.498  1.00  0.00    -0.260 OA
BRANCH  29  31
HETATM   31  C7  UNL     1     -51.926  -4.329 -22.731  1.00  0.00     0.084 C 
HETATM   32  C8  UNL     1     -52.088  -5.183 -23.711  1.00  0.00    -0.082 C 
HETATM   33  C9  UNL     1     -51.019  -6.128 -24.116  1.00  0.00     0.043 C 
HETATM   34  C10 UNL     1     -53.384  -5.243 -24.482  1.00  0.00     0.043 C 
ENDBRANCH  29  31
ENDBRANCH  28  29
ENDBRANCH  27  28
ENDBRANCH   2  27
BRANCH   6  35
HETATM   35  O11 UNL     1     -51.736  -1.998 -16.361  1.00  0.00    -0.311 OA
BRANCH  35  36
HETATM   36  C27 UNL     1     -51.636  -3.127 -15.597  1.00  0.00     0.255 C 
HETATM   37  C28 UNL     1     -50.687  -3.289 -14.478  1.00  0.00     0.126 C 
HETATM   38  O12 UNL     1     -52.407  -4.069 -15.878  1.00  0.00    -0.266 OA
ENDBRANCH  35  36
ENDBRANCH   6  35
BRANCH   1  39
HETATM   39  O2  UNL     1     -48.601  -2.553 -17.793  1.00  0.00    -0.313 OA
BRANCH  39  40
HETATM   40  C2  UNL     1     -47.816  -3.185 -16.881  1.00  0.00     0.255 C 
HETATM   41  C1  UNL     1     -47.458  -4.619 -16.958  1.00  0.00     0.126 C 
HETATM   42  O1  UNL     1     -47.365  -2.523 -15.916  1.00  0.00    -0.266 OA
ENDBRANCH  39  40
ENDBRANCH   1  39
TORSDOF 16
ENDMDL
MODEL 5
REMARK VINA RESULT: -7.784438999      1.530      2.127
REMARK  16 active torsions:
REMARK  status: ('A' for Active; 'I' for Inactive)
REMARK    1  A    between atoms: C2_2  and  O2_4 
REMARK    2  A    between atoms: O2_4  and  C3_5 
REMARK    3  A    between atoms: C4_6  and  C5_7 
REMARK    4  A    between atoms: C5_7  and  O3_8 
REMARK    5  A    between atoms: O3_8  and  C6_9 
REMARK    6  A    between atoms: C6_9  and  C7_11 
REMARK    7  A    between atoms: C12_16  and  O5_17 
REMARK    8  A    between atoms: O5_17  and  C13_18 
REMARK    9  A    between atoms: C13_18  and  C14_20 
REMARK   10  A    between atoms: C15_21  and  C16_22 
REMARK   11  A    between atoms: C20_26  and  O7_27 
REMARK   12  A    between atoms: C22_30  and  O8_31 
REMARK   13  A    between atoms: C23_33  and  O9_34 
REMARK   14  A    between atoms: O9_34  and  C24_35 
REMARK   15  A    between atoms: C26_38  and  O11_39 
REMARK   16  A    between atoms: O11_39  and  C27_40 
ROOT
HETATM    1  C3  UNL     1     -49.589  -3.260 -17.987  1.00  0.00     0.170 C 
HETATM    2  C4  UNL     1     -50.044  -3.578 -19.385  1.00  0.00     0.045 C 
HETATM    3  C11 UNL     1     -51.430  -3.077 -19.553  1.00  0.00     0.044 C 
HETATM    4  C12 UNL     1     -51.319  -1.552 -19.479  1.00  0.00     0.165 C 
HETATM    5  C23 UNL     1     -50.869  -1.089 -18.140  1.00  0.00     0.193 C 
HETATM    6  C26 UNL     1     -50.330  -2.191 -17.268  1.00  0.00     0.194 C 
ENDROOT
BRANCH   4   7
HETATM    7  O5  UNL     1     -52.489  -0.899 -19.843  1.00  0.00    -0.310 OA
BRANCH   7   8
HETATM    8  C13 UNL     1     -52.729  -0.210 -20.988  1.00  0.00     0.283 C 
HETATM    9  O6  UNL     1     -53.441   0.785 -20.975  1.00  0.00    -0.260 OA
BRANCH   8  10
HETATM   10  C14 UNL     1     -52.115  -0.682 -22.255  1.00  0.00     0.083 C 
HETATM   11  C15 UNL     1     -52.433  -1.828 -22.765  1.00  0.00     0.020 C 
BRANCH  11  12
HETATM   12  C16 UNL     1     -51.988  -2.493 -23.957  1.00  0.00    -0.002 A 
HETATM   13  C17 UNL     1     -52.700  -2.373 -25.160  1.00  0.00     0.023 A 
HETATM   14  C18 UNL     1     -52.362  -2.960 -26.332  1.00  0.00    -0.028 A 
HETATM   15  C19 UNL     1     -53.166  -2.792 -27.585  1.00  0.00     0.051 C 
HETATM   16  C20 UNL     1     -51.229  -3.741 -26.360  1.00  0.00     0.074 A 
HETATM   17  C21 UNL     1     -50.480  -3.907 -25.221  1.00  0.00     0.074 A 
HETATM   18  C22 UNL     1     -50.871  -3.275 -24.021  1.00  0.00     0.078 A 
BRANCH  16  19
HETATM   19  O7  UNL     1     -50.832  -4.373 -27.539  1.00  0.00    -0.360 OA
ATOM     20  H7  UNL     1     -50.155  -5.039 -27.526  1.00  0.00     0.217 HD
ENDBRANCH  16  19
BRANCH  18  21
HETATM   21  O8  UNL     1     -50.080  -3.474 -22.900  1.00  0.00    -0.360 OA
ATOM     22  H8  UNL     1     -49.136  -3.375 -22.949  1.00  0.00     0.217 HD
ENDBRANCH  18  21
ENDBRANCH  11  12
ENDBRANCH   8  10
ENDBRANCH   7   8
ENDBRANCH   4   7
BRANCH   5  23
HETATM   23  O9  UNL     1     -51.939  -0.397 -17.517  1.00  0.00    -0.311 OA
BRANCH  23  24
HETATM   24  C24 UNL     1     -51.820   0.853 -16.930  1.00  0.00     0.255 C 
HETATM   25  C25 UNL     1     -52.882   1.893 -17.024  1.00  0.00     0.126 C 
HETATM   26  O10 UNL     1     -50.762   1.101 -16.294  1.00  0.00    -0.266 OA
ENDBRANCH  23  24
ENDBRANCH   5  23
BRANCH   2  27
HETATM   27  C5  UNL     1     -49.753  -5.014 -19.623  1.00  0.00     0.186 C 
BRANCH  27  28
HETATM   28  O3  UNL     1     -49.582  -5.528 -20.857  1.00  0.00    -0.318 OA
BRANCH  28  29
HETATM   29  C6  UNL     1     -50.118  -6.676 -21.363  1.00  0.00     0.283 C 
HETATM   30  O4  UNL     1     -50.485  -7.630 -20.590  1.00  0.00    -0.260 OA
BRANCH  29  31
HETATM   31  C7  UNL     1     -50.320  -6.923 -22.777  1.00  0.00     0.084 C 
HETATM   32  C8  UNL     1     -49.515  -7.693 -23.468  1.00  0.00    -0.082 C 
HETATM   33  C9  UNL     1     -48.345  -8.362 -22.851  1.00  0.00     0.043 C 
HETATM   34  C10 UNL     1     -49.746  -7.934 -24.940  1.00  0.00     0.043 C 
ENDBRANCH  29  31
ENDBRANCH  28  29
ENDBRANCH  27  28
ENDBRANCH   2  27
BRANCH   6  35
HETATM   35  O11 UNL     1     -51.299  -2.724 -16.404  1.00  0.00    -0.311 OA
BRANCH  35  36
HETATM   36  C27 UNL     1     -51.189  -2.639 -15.044  1.00  0.00     0.255 C 
HETATM   37  C28 UNL     1     -50.138  -3.311 -14.254  1.00  0.00     0.126 C 
HETATM   38  O12 UNL     1     -52.039  -1.942 -14.451  1.00  0.00    -0.266 OA
ENDBRANCH  35  36
ENDBRANCH   6  35
BRANCH   1  39
HETATM   39  O2  UNL     1     -48.179  -2.993 -17.947  1.00  0.00    -0.313 OA
BRANCH  39  40
HETATM   40  C2  UNL     1     -47.329  -3.377 -16.959  1.00  0.00     0.255 C 
HETATM   41  C1  UNL     1     -47.140  -4.782 -16.536  1.00  0.00     0.126 C 
HETATM   42  O1  UNL     1     -46.663  -2.496 -16.365  1.00  0.00    -0.266 OA
ENDBRANCH  39  40
ENDBRANCH   1  39
TORSDOF 16
ENDMDL
