MODEL 1
REMARK VINA RESULT: -7.785566803      0.000      0.000
REMARK  13 active torsions:
REMARK  status: ('A' for Active; 'I' for Inactive)
REMARK    1  A    between atoms: O1_2  and  C2_3 
REMARK       I    between atoms: C2_3  and  N1_5 
REMARK    2  A    between atoms: N1_5  and  C3_7 
REMARK    3  A    between atoms: C3_7  and  C4_8 
REMARK    4  A    between atoms: C3_7  and  C5_11 
REMARK    5  A    between atoms: C5_11  and  C6_12 
REMARK    6  A    between atoms: C5_11  and  C7_15 
REMARK    7  A    between atoms: C7_15  and  O5_16 
REMARK    8  A    between atoms: C7_15  and  C8_18 
REMARK       I    between atoms: C8_18  and  N4_20 
REMARK    9  A    between atoms: C12_24  and  C13_25 
REMARK       I    between atoms: C13_25  and  N5_27 
REMARK   10  A    between atoms: N5_27  and  C14_29 
REMARK   11  A    between atoms: C14_29  and  C15_30 
REMARK   12  A    between atoms: C14_29  and  C17_34 
REMARK   13  A    between atoms: C15_30  and  C16_31 
ROOT
HETATM    1  C8  UNL     1      14.395 -14.331 -25.243  1.00  0.00     0.250 C 
HETATM    2  O6  UNL     1      13.792 -13.751 -26.186  1.00  0.00    -0.270 OA
HETATM    3  N4  UNL     1      15.110 -15.513 -25.570  1.00  0.00    -0.337 N 
HETATM    4  C9  UNL     1      15.875 -16.423 -24.742  1.00  0.00     0.127 C 
HETATM    5  C10 UNL     1      15.404 -17.782 -25.286  1.00  0.00     0.022 C 
HETATM    6  C11 UNL     1      15.479 -17.541 -26.776  1.00  0.00     0.037 C 
HETATM    7  C12 UNL     1      15.220 -16.081 -26.923  1.00  0.00     0.179 C 
ENDROOT
BRANCH   1   8
HETATM    8  C7  UNL     1      14.308 -13.743 -23.898  1.00  0.00     0.225 C 
BRANCH   8   9
HETATM    9  C5  UNL     1      14.151 -14.796 -22.841  1.00  0.00     0.144 C 
BRANCH   9  10
HETATM   10  C3  UNL     1      12.737 -14.930 -22.330  1.00  0.00     0.191 C 
BRANCH  10  11
HETATM   11  N1  UNL     1      12.715 -14.438 -20.966  1.00  0.00    -0.323 N 
HETATM   12  C2  UNL     1      12.180 -13.205 -20.578  1.00  0.00     0.360 C 
HETATM   13  O2  UNL     1      11.672 -12.426 -21.418  1.00  0.00    -0.239 OA
ATOM     14  H1  UNL     1      13.116 -15.032 -20.239  1.00  0.00     0.165 HD
BRANCH  12  15
HETATM   15  O1  UNL     1      12.200 -12.810 -19.252  1.00  0.00    -0.309 OA
HETATM   16  C1  UNL     1      13.105 -11.828 -18.765  1.00  0.00     0.215 C 
ENDBRANCH  12  15
ENDBRANCH  10  11
BRANCH  10  17
HETATM   17  C4  UNL     1      12.136 -16.248 -22.475  1.00  0.00     0.255 C 
HETATM   18  N2  UNL     1      10.828 -16.560 -22.024  1.00  0.00    -0.060 NA
HETATM   19  O3  UNL     1      12.760 -17.219 -23.025  1.00  0.00    -0.275 OA
ENDBRANCH  10  17
ENDBRANCH   9  10
BRANCH   9  20
HETATM   20  C6  UNL     1      15.115 -14.598 -21.709  1.00  0.00     0.240 C 
HETATM   21  N3  UNL     1      15.434 -13.303 -21.225  1.00  0.00    -0.062 NA
HETATM   22  O4  UNL     1      15.695 -15.551 -21.128  1.00  0.00    -0.276 OA
ENDBRANCH   9  20
ENDBRANCH   8   9
BRANCH   8  23
HETATM   23  O5  UNL     1      15.425 -12.935 -23.647  1.00  0.00    -0.385 OA
ATOM     24  H5  UNL     1      15.164 -12.050 -23.424  1.00  0.00     0.210 HD
ENDBRANCH   8  23
ENDBRANCH   1   8
BRANCH   7  25
HETATM   25  C13 UNL     1      16.267 -15.368 -27.669  1.00  0.00     0.241 C 
HETATM   26  O7  UNL     1      17.439 -15.798 -27.797  1.00  0.00    -0.271 OA
HETATM   27  N5  UNL     1      15.922 -14.112 -28.280  1.00  0.00    -0.346 N 
ATOM     28  H5  UNL     1      14.973 -13.753 -28.182  1.00  0.00     0.163 HD
BRANCH  27  29
HETATM   29  C14 UNL     1      16.887 -13.352 -29.024  1.00  0.00     0.182 C 
BRANCH  29  30
HETATM   30  C15 UNL     1      17.076 -13.806 -30.435  1.00  0.00     0.134 C 
BRANCH  30  31
HETATM   31  C16 UNL     1      15.908 -14.431 -31.061  1.00  0.00     0.233 C 
HETATM   32  N6  UNL     1      15.155 -13.661 -31.983  1.00  0.00    -0.062 NA
HETATM   33  O8  UNL     1      15.529 -15.596 -30.840  1.00  0.00    -0.277 OA
ENDBRANCH  30  31
ENDBRANCH  29  30
BRANCH  29  34
HETATM   34  C17 UNL     1      16.593 -11.896 -28.938  1.00  0.00     0.254 C 
HETATM   35  N7  UNL     1      15.684 -11.455 -27.954  1.00  0.00    -0.060 NA
HETATM   36  O9  UNL     1      17.143 -11.068 -29.730  1.00  0.00    -0.275 OA
ENDBRANCH  29  34
ENDBRANCH  27  29
ENDBRANCH   7  25
TORSDOF 13
ENDMDL
MODEL 2
REMARK VINA RESULT: -7.722486249      2.176      8.791
REMARK  13 active torsions:
REMARK  status: ('A' for Active; 'I' for Inactive)
REMARK    1  A    between atoms: O1_2  and  C2_3 
REMARK       I    between atoms: C2_3  and  N1_5 
REMARK    2  A    between atoms: N1_5  and  C3_7 
REMARK    3  A    between atoms: C3_7  and  C4_8 
REMARK    4  A    between atoms: C3_7  and  C5_11 
REMARK    5  A    between atoms: C5_11  and  C6_12 
REMARK    6  A    between atoms: C5_11  and  C7_15 
REMARK    7  A    between atoms: C7_15  and  O5_16 
REMARK    8  A    between atoms: C7_15  and  C8_18 
REMARK       I    between atoms: C8_18  and  N4_20 
REMARK    9  A    between atoms: C12_24  and  C13_25 
REMARK       I    between atoms: C13_25  and  N5_27 
REMARK   10  A    between atoms: N5_27  and  C14_29 
REMARK   11  A    between atoms: C14_29  and  C15_30 
REMARK   12  A    between atoms: C14_29  and  C17_34 
REMARK   13  A    between atoms: C15_30  and  C16_31 
ROOT
HETATM    1  C8  UNL     1      14.720 -13.043 -24.599  1.00  0.00     0.250 C 
HETATM    2  O6  UNL     1      14.918 -11.820 -24.363  1.00  0.00    -0.270 OA
HETATM    3  N4  UNL     1      14.836 -13.934 -23.500  1.00  0.00    -0.337 N 
HETATM    4  C9  UNL     1      14.702 -15.375 -23.426  1.00  0.00     0.127 C 
HETATM    5  C10 UNL     1      15.895 -15.735 -22.525  1.00  0.00     0.022 C 
HETATM    6  C11 UNL     1      15.761 -14.697 -21.435  1.00  0.00     0.037 C 
HETATM    7  C12 UNL     1      15.134 -13.530 -22.117  1.00  0.00     0.179 C 
ENDROOT
BRANCH   1   8
HETATM    8  C7  UNL     1      14.392 -13.439 -25.976  1.00  0.00     0.225 C 
BRANCH   8   9
HETATM    9  C5  UNL     1      15.625 -13.750 -26.773  1.00  0.00     0.144 C 
BRANCH   9  10
HETATM   10  C3  UNL     1      15.715 -12.979 -28.066  1.00  0.00     0.191 C 
BRANCH  10  11
HETATM   11  N1  UNL     1      16.840 -13.506 -28.815  1.00  0.00    -0.323 N 
HETATM   12  C2  UNL     1      16.867 -13.647 -30.206  1.00  0.00     0.360 C 
HETATM   13  O2  UNL     1      15.886 -13.314 -30.911  1.00  0.00    -0.239 OA
ATOM     14  H1  UNL     1      17.668 -13.794 -28.292  1.00  0.00     0.165 HD
BRANCH  12  15
HETATM   15  O1  UNL     1      17.983 -14.162 -30.844  1.00  0.00    -0.309 OA
HETATM   16  C1  UNL     1      17.912 -15.288 -31.709  1.00  0.00     0.215 C 
ENDBRANCH  12  15
ENDBRANCH  10  11
BRANCH  10  17
HETATM   17  C4  UNL     1      15.743 -11.528 -27.935  1.00  0.00     0.255 C 
HETATM   18  N2  UNL     1      16.850 -10.733 -28.328  1.00  0.00    -0.060 NA
HETATM   19  O3  UNL     1      14.757 -10.875 -27.451  1.00  0.00    -0.275 OA
ENDBRANCH  10  17
ENDBRANCH   9  10
BRANCH   9  20
HETATM   20  C6  UNL     1      15.776 -15.223 -27.013  1.00  0.00     0.240 C 
HETATM   21  N3  UNL     1      15.384 -15.818 -28.240  1.00  0.00    -0.062 NA
HETATM   22  O4  UNL     1      16.250 -16.012 -26.156  1.00  0.00    -0.276 OA
ENDBRANCH   9  20
ENDBRANCH   8   9
BRANCH   8  23
HETATM   23  O5  UNL     1      13.504 -14.523 -25.972  1.00  0.00    -0.385 OA
ATOM     24  H5  UNL     1      13.020 -14.573 -26.787  1.00  0.00     0.210 HD
ENDBRANCH   8  23
ENDBRANCH   1   8
BRANCH   7  25
HETATM   25  C13 UNL     1      13.902 -13.059 -21.469  1.00  0.00     0.241 C 
HETATM   26  O7  UNL     1      12.885 -12.690 -22.104  1.00  0.00    -0.271 OA
HETATM   27  N5  UNL     1      13.869 -13.021 -20.031  1.00  0.00    -0.346 N 
ATOM     28  H5  UNL     1      14.690 -13.320 -19.505  1.00  0.00     0.163 HD
BRANCH  27  29
HETATM   29  C14 UNL     1      12.704 -12.572 -19.321  1.00  0.00     0.182 C 
BRANCH  29  30
HETATM   30  C15 UNL     1      12.011 -13.638 -18.535  1.00  0.00     0.134 C 
BRANCH  30  31
HETATM   31  C16 UNL     1      10.972 -14.380 -19.252  1.00  0.00     0.233 C 
HETATM   32  N6  UNL     1       9.891 -14.908 -18.501  1.00  0.00    -0.062 NA
HETATM   33  O8  UNL     1      10.970 -14.581 -20.482  1.00  0.00    -0.277 OA
ENDBRANCH  30  31
ENDBRANCH  29  30
BRANCH  29  34
HETATM   34  C17 UNL     1      13.019 -11.379 -18.491  1.00  0.00     0.254 C 
HETATM   35  N7  UNL     1      12.164 -11.073 -17.411  1.00  0.00    -0.060 NA
HETATM   36  O9  UNL     1      14.029 -10.651 -18.745  1.00  0.00    -0.275 OA
ENDBRANCH  29  34
ENDBRANCH  27  29
ENDBRANCH   7  25
TORSDOF 13
ENDMDL
MODEL 3
REMARK VINA RESULT: -7.630776692      1.705      8.510
REMARK  13 active torsions:
REMARK  status: ('A' for Active; 'I' for Inactive)
REMARK    1  A    between atoms: O1_2  and  C2_3 
REMARK       I    between atoms: C2_3  and  N1_5 
REMARK    2  A    between atoms: N1_5  and  C3_7 
REMARK    3  A    between atoms: C3_7  and  C4_8 
REMARK    4  A    between atoms: C3_7  and  C5_11 
REMARK    5  A    between atoms: C5_11  and  C6_12 
REMARK    6  A    between atoms: C5_11  and  C7_15 
REMARK    7  A    between atoms: C7_15  and  O5_16 
REMARK    8  A    between atoms: C7_15  and  C8_18 
REMARK       I    between atoms: C8_18  and  N4_20 
REMARK    9  A    between atoms: C12_24  and  C13_25 
REMARK       I    between atoms: C13_25  and  N5_27 
REMARK   10  A    between atoms: N5_27  and  C14_29 
REMARK   11  A    between atoms: C14_29  and  C15_30 
REMARK   12  A    between atoms: C14_29  and  C17_34 
REMARK   13  A    between atoms: C15_30  and  C16_31 
ROOT
HETATM    1  C8  UNL     1      15.451 -14.467 -25.894  1.00  0.00     0.250 C 
HETATM    2  O6  UNL     1      15.758 -13.245 -25.838  1.00  0.00    -0.270 OA
HETATM    3  N4  UNL     1      15.307 -15.148 -24.657  1.00  0.00    -0.337 N 
HETATM    4  C9  UNL     1      14.994 -16.532 -24.363  1.00  0.00     0.127 C 
HETATM    5  C10 UNL     1      15.999 -16.828 -23.238  1.00  0.00     0.022 C 
HETATM    6  C11 UNL     1      15.838 -15.600 -22.373  1.00  0.00     0.037 C 
HETATM    7  C12 UNL     1      15.455 -14.526 -23.332  1.00  0.00     0.179 C 
ENDROOT
BRANCH   1   8
HETATM    8  C7  UNL     1      15.274 -15.078 -27.219  1.00  0.00     0.225 C 
BRANCH   8   9
HETATM    9  C5  UNL     1      16.472 -14.861 -28.096  1.00  0.00     0.144 C 
BRANCH   9  10
HETATM   10  C3  UNL     1      16.186 -14.007 -29.306  1.00  0.00     0.191 C 
BRANCH  10  11
HETATM   11  N1  UNL     1      16.548 -14.776 -30.482  1.00  0.00    -0.323 N 
HETATM   12  C2  UNL     1      15.932 -14.646 -31.731  1.00  0.00     0.360 C 
HETATM   13  O2  UNL     1      14.999 -13.830 -31.912  1.00  0.00    -0.239 OA
ATOM     14  H1  UNL     1      17.302 -15.457 -30.392  1.00  0.00     0.165 HD
BRANCH  12  15
HETATM   15  O1  UNL     1      16.337 -15.421 -32.804  1.00  0.00    -0.309 OA
HETATM   16  C1  UNL     1      17.024 -16.655 -32.635  1.00  0.00     0.215 C 
ENDBRANCH  12  15
ENDBRANCH  10  11
BRANCH  10  17
HETATM   17  C4  UNL     1      16.772 -12.674 -29.290  1.00  0.00     0.255 C 
HETATM   18  N2  UNL     1      16.116 -11.543 -28.741  1.00  0.00    -0.060 NA
HETATM   19  O3  UNL     1      17.930 -12.439 -29.778  1.00  0.00    -0.275 OA
ENDBRANCH  10  17
ENDBRANCH   9  10
BRANCH   9  20
HETATM   20  C6  UNL     1      17.114 -16.158 -28.492  1.00  0.00     0.240 C 
HETATM   21  N3  UNL     1      18.518 -16.347 -28.408  1.00  0.00    -0.062 NA
HETATM   22  O4  UNL     1      16.460 -17.144 -28.919  1.00  0.00    -0.276 OA
ENDBRANCH   9  20
ENDBRANCH   8   9
BRANCH   8  23
HETATM   23  O5  UNL     1      14.980 -16.442 -27.091  1.00  0.00    -0.385 OA
ATOM     24  H5  UNL     1      15.714 -16.918 -26.724  1.00  0.00     0.210 HD
ENDBRANCH   8  23
ENDBRANCH   1   8
BRANCH   7  25
HETATM   25  C13 UNL     1      14.210 -13.832 -22.975  1.00  0.00     0.241 C 
HETATM   26  O7  UNL     1      13.926 -12.675 -23.368  1.00  0.00    -0.271 OA
HETATM   27  N5  UNL     1      13.272 -14.523 -22.131  1.00  0.00    -0.346 N 
ATOM     28  H5  UNL     1      13.491 -15.465 -21.806  1.00  0.00     0.163 HD
BRANCH  27  29
HETATM   29  C14 UNL     1      12.032 -13.915 -21.735  1.00  0.00     0.182 C 
BRANCH  29  30
HETATM   30  C15 UNL     1      10.821 -14.745 -22.012  1.00  0.00     0.134 C 
BRANCH  30  31
HETATM   31  C16 UNL     1      11.070 -16.166 -22.265  1.00  0.00     0.233 C 
HETATM   32  N6  UNL     1       9.959 -16.995 -22.562  1.00  0.00    -0.062 NA
HETATM   33  O8  UNL     1      12.195 -16.700 -22.236  1.00  0.00    -0.277 OA
ENDBRANCH  30  31
ENDBRANCH  29  30
BRANCH  29  34
HETATM   34  C17 UNL     1      12.092 -13.467 -20.318  1.00  0.00     0.254 C 
HETATM   35  N7  UNL     1      12.731 -12.242 -20.031  1.00  0.00    -0.060 NA
HETATM   36  O9  UNL     1      11.584 -14.167 -19.387  1.00  0.00    -0.275 OA
ENDBRANCH  29  34
ENDBRANCH  27  29
ENDBRANCH   7  25
TORSDOF 13
ENDMDL
MODEL 4
REMARK VINA RESULT: -7.625784998      2.804      8.934
REMARK  13 active torsions:
REMARK  status: ('A' for Active; 'I' for Inactive)
REMARK    1  A    between atoms: O1_2  and  C2_3 
REMARK       I    between atoms: C2_3  and  N1_5 
REMARK    2  A    between atoms: N1_5  and  C3_7 
REMARK    3  A    between atoms: C3_7  and  C4_8 
REMARK    4  A    between atoms: C3_7  and  C5_11 
REMARK    5  A    between atoms: C5_11  and  C6_12 
REMARK    6  A    between atoms: C5_11  and  C7_15 
REMARK    7  A    between atoms: C7_15  and  O5_16 
REMARK    8  A    between atoms: C7_15  and  C8_18 
REMARK       I    between atoms: C8_18  and  N4_20 
REMARK    9  A    between atoms: C12_24  and  C13_25 
REMARK       I    between atoms: C13_25  and  N5_27 
REMARK   10  A    between atoms: N5_27  and  C14_29 
REMARK   11  A    between atoms: C14_29  and  C15_30 
REMARK   12  A    between atoms: C14_29  and  C17_34 
REMARK   13  A    between atoms: C15_30  and  C16_31 
ROOT
HETATM    1  C8  UNL     1      13.232 -15.229 -21.288  1.00  0.00     0.250 C 
HETATM    2  O6  UNL     1      14.303 -15.237 -20.622  1.00  0.00    -0.270 OA
HETATM    3  N4  UNL     1      12.090 -14.671 -20.655  1.00  0.00    -0.337 N 
HETATM    4  C9  UNL     1      10.723 -14.529 -21.113  1.00  0.00     0.127 C 
HETATM    5  C10 UNL     1       9.946 -14.948 -19.854  1.00  0.00     0.022 C 
HETATM    6  C11 UNL     1      10.688 -14.179 -18.785  1.00  0.00     0.037 C 
HETATM    7  C12 UNL     1      12.080 -14.078 -19.309  1.00  0.00     0.179 C 
ENDROOT
BRANCH   1   8
HETATM    8  C7  UNL     1      13.253 -15.794 -22.644  1.00  0.00     0.225 C 
BRANCH   8   9
HETATM    9  C5  UNL     1      14.579 -15.580 -23.314  1.00  0.00     0.144 C 
BRANCH   9  10
HETATM   10  C3  UNL     1      14.614 -14.363 -24.204  1.00  0.00     0.191 C 
BRANCH  10  11
HETATM   11  N1  UNL     1      15.472 -14.668 -25.333  1.00  0.00    -0.323 N 
HETATM   12  C2  UNL     1      15.370 -14.063 -26.590  1.00  0.00     0.360 C 
HETATM   13  O2  UNL     1      14.500 -13.191 -26.821  1.00  0.00    -0.239 OA
ATOM     14  H1  UNL     1      16.199 -15.372 -25.202  1.00  0.00     0.165 HD
BRANCH  12  15
HETATM   15  O1  UNL     1      16.229 -14.414 -27.617  1.00  0.00    -0.309 OA
HETATM   16  C1  UNL     1      16.394 -13.610 -28.778  1.00  0.00     0.215 C 
ENDBRANCH  12  15
ENDBRANCH  10  11
BRANCH  10  17
HETATM   17  C4  UNL     1      14.957 -13.110 -23.546  1.00  0.00     0.255 C 
HETATM   18  N2  UNL     1      14.568 -11.839 -24.041  1.00  0.00    -0.060 NA
HETATM   19  O3  UNL     1      15.641 -13.079 -22.466  1.00  0.00    -0.275 OA
ENDBRANCH  10  17
ENDBRANCH   9  10
BRANCH   9  20
HETATM   20  C6  UNL     1      15.032 -16.803 -24.056  1.00  0.00     0.240 C 
HETATM   21  N3  UNL     1      16.294 -17.398 -23.805  1.00  0.00    -0.062 NA
HETATM   22  O4  UNL     1      14.332 -17.368 -24.936  1.00  0.00    -0.276 OA
ENDBRANCH   9  20
ENDBRANCH   8   9
BRANCH   8  23
HETATM   23  O5  UNL     1      12.916 -17.153 -22.611  1.00  0.00    -0.385 OA
ATOM     24  H5  UNL     1      12.604 -17.451 -23.457  1.00  0.00     0.210 HD
ENDBRANCH   8  23
ENDBRANCH   1   8
BRANCH   7  25
HETATM   25  C13 UNL     1      12.585 -12.700 -19.378  1.00  0.00     0.241 C 
HETATM   26  O7  UNL     1      13.306 -12.274 -20.312  1.00  0.00    -0.271 OA
HETATM   27  N5  UNL     1      12.232 -11.798 -18.314  1.00  0.00    -0.346 N 
ATOM     28  H5  UNL     1      11.646 -12.133 -17.549  1.00  0.00     0.163 HD
BRANCH  27  29
HETATM   29  C14 UNL     1      12.686 -10.436 -18.305  1.00  0.00     0.182 C 
BRANCH  29  30
HETATM   30  C15 UNL     1      11.818  -9.490 -19.070  1.00  0.00     0.134 C 
BRANCH  30  31
HETATM   31  C16 UNL     1      12.079  -8.066 -18.845  1.00  0.00     0.233 C 
HETATM   32  N6  UNL     1      11.049  -7.143 -19.153  1.00  0.00    -0.062 NA
HETATM   33  O8  UNL     1      13.148  -7.608 -18.399  1.00  0.00    -0.277 OA
ENDBRANCH  30  31
ENDBRANCH  29  30
BRANCH  29  34
HETATM   34  C17 UNL     1      12.933  -9.969 -16.914  1.00  0.00     0.254 C 
HETATM   35  N7  UNL     1      14.258  -9.666 -16.537  1.00  0.00    -0.060 NA
HETATM   36  O9  UNL     1      11.978  -9.848 -16.084  1.00  0.00    -0.275 OA
ENDBRANCH  29  34
ENDBRANCH  27  29
ENDBRANCH   7  25
TORSDOF 13
ENDMDL
MODEL 5
REMARK VINA RESULT: -7.587781306      2.047      3.567
REMARK  13 active torsions:
REMARK  status: ('A' for Active; 'I' for Inactive)
REMARK    1  A    between atoms: O1_2  and  C2_3 
REMARK       I    between atoms: C2_3  and  N1_5 
REMARK    2  A    between atoms: N1_5  and  C3_7 
REMARK    3  A    between atoms: C3_7  and  C4_8 
REMARK    4  A    between atoms: C3_7  and  C5_11 
REMARK    5  A    between atoms: C5_11  and  C6_12 
REMARK    6  A    between atoms: C5_11  and  C7_15 
REMARK    7  A    between atoms: C7_15  and  O5_16 
REMARK    8  A    between atoms: C7_15  and  C8_18 
REMARK       I    between atoms: C8_18  and  N4_20 
REMARK    9  A    between atoms: C12_24  and  C13_25 
REMARK       I    between atoms: C13_25  and  N5_27 
REMARK   10  A    between atoms: N5_27  and  C14_29 
REMARK   11  A    between atoms: C14_29  and  C15_30 
REMARK   12  A    between atoms: C14_29  and  C17_34 
REMARK   13  A    between atoms: C15_30  and  C16_31 
ROOT
HETATM    1  C8  UNL     1      12.549 -15.709 -22.992  1.00  0.00     0.250 C 
HETATM    2  O6  UNL     1      11.914 -14.982 -23.804  1.00  0.00    -0.270 OA
HETATM    3  N4  UNL     1      13.652 -16.437 -23.511  1.00  0.00    -0.337 N 
HETATM    4  C9  UNL     1      14.563 -17.366 -22.875  1.00  0.00     0.127 C 
HETATM    5  C10 UNL     1      14.645 -18.472 -23.940  1.00  0.00     0.022 C 
HETATM    6  C11 UNL     1      14.827 -17.653 -25.197  1.00  0.00     0.037 C 
HETATM    7  C12 UNL     1      14.118 -16.375 -24.905  1.00  0.00     0.179 C 
ENDROOT
BRANCH   1   8
HETATM    8  C7  UNL     1      12.099 -15.743 -21.593  1.00  0.00     0.225 C 
BRANCH   8   9
HETATM    9  C5  UNL     1      11.673 -14.387 -21.113  1.00  0.00     0.144 C 
BRANCH   9  10
HETATM   10  C3  UNL     1      12.772 -13.621 -20.419  1.00  0.00     0.191 C 
BRANCH  10  11
HETATM   11  N1  UNL     1      12.216 -12.356 -19.977  1.00  0.00    -0.323 N 
HETATM   12  C2  UNL     1      12.843 -11.489 -19.078  1.00  0.00     0.360 C 
HETATM   13  O2  UNL     1      13.961 -11.764 -18.583  1.00  0.00    -0.239 OA
ATOM     14  H1  UNL     1      11.306 -12.081 -20.348  1.00  0.00     0.165 HD
BRANCH  12  15
HETATM   15  O1  UNL     1      12.242 -10.299 -18.706  1.00  0.00    -0.309 OA
HETATM   16  C1  UNL     1      12.441  -9.714 -17.425  1.00  0.00     0.215 C 
ENDBRANCH  12  15
ENDBRANCH  10  11
BRANCH  10  17
HETATM   17  C4  UNL     1      14.009 -13.471 -21.173  1.00  0.00     0.255 C 
HETATM   18  N2  UNL     1      15.223 -14.109 -20.811  1.00  0.00    -0.060 NA
HETATM   19  O3  UNL     1      14.077 -12.744 -22.223  1.00  0.00    -0.275 OA
ENDBRANCH  10  17
ENDBRANCH   9  10
BRANCH   9  20
HETATM   20  C6  UNL     1      10.444 -14.460 -20.255  1.00  0.00     0.240 C 
HETATM   21  N3  UNL     1       9.145 -14.327 -20.808  1.00  0.00    -0.062 NA
HETATM   22  O4  UNL     1      10.487 -14.640 -19.011  1.00  0.00    -0.276 OA
ENDBRANCH   9  20
ENDBRANCH   8   9
BRANCH   8  23
HETATM   23  O5  UNL     1      11.072 -16.683 -21.435  1.00  0.00    -0.385 OA
ATOM     24  H5  UNL     1      11.274 -17.492 -21.888  1.00  0.00     0.210 HD
ENDBRANCH   8  23
ENDBRANCH   1   8
BRANCH   7  25
HETATM   25  C13 UNL     1      14.955 -15.181 -25.089  1.00  0.00     0.241 C 
HETATM   26  O7  UNL     1      15.812 -14.803 -24.254  1.00  0.00    -0.271 OA
HETATM   27  N5  UNL     1      14.775 -14.410 -26.290  1.00  0.00    -0.346 N 
ATOM     28  H5  UNL     1      14.081 -14.709 -26.976  1.00  0.00     0.163 HD
BRANCH  27  29
HETATM   29  C14 UNL     1      15.551 -13.229 -26.545  1.00  0.00     0.182 C 
BRANCH  29  30
HETATM   30  C15 UNL     1      16.073 -13.122 -27.941  1.00  0.00     0.134 C 
BRANCH  30  31
HETATM   31  C16 UNL     1      16.331 -14.394 -28.621  1.00  0.00     0.233 C 
HETATM   32  N6  UNL     1      16.044 -14.479 -30.007  1.00  0.00    -0.062 NA
HETATM   33  O8  UNL     1      16.788 -15.411 -28.064  1.00  0.00    -0.277 OA
ENDBRANCH  30  31
ENDBRANCH  29  30
BRANCH  29  34
HETATM   34  C17 UNL     1      14.808 -12.009 -26.130  1.00  0.00     0.254 C 
HETATM   35  N7  UNL     1      14.270 -11.181 -27.137  1.00  0.00    -0.060 NA
HETATM   36  O9  UNL     1      14.661 -11.716 -24.902  1.00  0.00    -0.275 OA
ENDBRANCH  29  34
ENDBRANCH  27  29
ENDBRANCH   7  25
TORSDOF 13
ENDMDL
