MODEL 1
REMARK VINA RESULT: -6.438657435      0.000      0.000
REMARK  2 active torsions:
REMARK  status: ('A' for Active; 'I' for Inactive)
REMARK    1  A    between atoms: O1_1  and  O2_3 
REMARK    2  A    between atoms: O2_3  and  C1_4 
ROOT
HETATM    1  C1  UNL     1     -17.499   0.677 -12.106  1.00  0.00     0.160 C 
HETATM    2  C2  UNL     1     -17.892   0.831 -13.545  1.00  0.00     0.036 C 
HETATM    3  C3  UNL     1     -17.125   1.815 -14.316  1.00  0.00     0.012 C 
HETATM    4  C4  UNL     1     -16.806   3.099 -13.654  1.00  0.00    -0.040 A 
HETATM    5  C5  UNL     1     -16.604   3.019 -12.171  1.00  0.00     0.012 C 
HETATM    6  C6  UNL     1     -16.403   1.612 -11.678  1.00  0.00     0.036 C 
HETATM    7  C7  UNL     1     -17.219   4.419 -14.189  1.00  0.00     0.010 A 
HETATM    8  C8  UNL     1     -15.797   3.963 -14.429  1.00  0.00     0.010 A 
ENDROOT
BRANCH   1   9
HETATM    9  O2  UNL     1     -18.575   0.875 -11.245  1.00  0.00    -0.238 OA
BRANCH   9  10
HETATM   10  O1  UNL     1     -18.639  -0.085 -10.349  1.00  0.00    -0.250 OA
ATOM     11  H1  UNL     1     -19.027   0.232  -9.542  1.00  0.00     0.253 HD
ENDBRANCH   9  10
ENDBRANCH   1   9
TORSDOF 2
ENDMDL
MODEL 2
REMARK VINA RESULT: -6.347488731      1.157      2.112
REMARK  2 active torsions:
REMARK  status: ('A' for Active; 'I' for Inactive)
REMARK    1  A    between atoms: O1_1  and  O2_3 
REMARK    2  A    between atoms: O2_3  and  C1_4 
ROOT
HETATM    1  C1  UNL     1     -18.040   1.479 -10.765  1.00  0.00     0.160 C 
HETATM    2  C2  UNL     1     -16.748   2.152 -11.119  1.00  0.00     0.036 C 
HETATM    3  C3  UNL     1     -16.751   2.931 -12.362  1.00  0.00     0.012 C 
HETATM    4  C4  UNL     1     -17.448   2.347 -13.528  1.00  0.00    -0.040 A 
HETATM    5  C5  UNL     1     -18.637   1.494 -13.201  1.00  0.00     0.012 C 
HETATM    6  C6  UNL     1     -19.122   1.677 -11.789  1.00  0.00     0.036 C 
HETATM    7  C7  UNL     1     -16.782   2.072 -14.825  1.00  0.00     0.010 A 
HETATM    8  C8  UNL     1     -17.620   3.325 -14.702  1.00  0.00     0.010 A 
ENDROOT
BRANCH   1   9
HETATM    9  O2  UNL     1     -17.885   0.108 -10.583  1.00  0.00    -0.238 OA
BRANCH   9  10
HETATM   10  O1  UNL     1     -18.857  -0.378  -9.843  1.00  0.00    -0.250 OA
ATOM     11  H1  UNL     1     -18.578  -1.170  -9.398  1.00  0.00     0.253 HD
ENDBRANCH   9  10
ENDBRANCH   1   9
TORSDOF 2
ENDMDL
MODEL 3
REMARK VINA RESULT: -6.285737953      2.281      3.607
REMARK  2 active torsions:
REMARK  status: ('A' for Active; 'I' for Inactive)
REMARK    1  A    between atoms: O1_1  and  O2_3 
REMARK    2  A    between atoms: O2_3  and  C1_4 
ROOT
HETATM    1  C1  UNL     1     -17.188   0.945 -12.146  1.00  0.00     0.160 C 
HETATM    2  C2  UNL     1     -17.195   2.444 -12.196  1.00  0.00     0.036 C 
HETATM    3  C3  UNL     1     -17.048   3.128 -10.907  1.00  0.00     0.012 C 
HETATM    4  C4  UNL     1     -17.793   2.577  -9.756  1.00  0.00    -0.040 A 
HETATM    5  C5  UNL     1     -17.984   1.090  -9.772  1.00  0.00     0.012 C 
HETATM    6  C6  UNL     1     -17.084   0.390 -10.753  1.00  0.00     0.036 C 
HETATM    7  C7  UNL     1     -18.783   3.356  -8.974  1.00  0.00     0.010 A 
HETATM    8  C8  UNL     1     -17.392   3.192  -8.404  1.00  0.00     0.010 A 
ENDROOT
BRANCH   1   9
HETATM    9  O2  UNL     1     -18.327   0.396 -12.728  1.00  0.00    -0.238 OA
BRANCH   9  10
HETATM   10  O1  UNL     1     -19.289   1.289 -12.804  1.00  0.00    -0.250 OA
ATOM     11  H1  UNL     1     -20.134   0.890 -12.629  1.00  0.00     0.253 HD
ENDBRANCH   9  10
ENDBRANCH   1   9
TORSDOF 2
ENDMDL
MODEL 4
REMARK VINA RESULT: -6.080256106      2.849      4.324
REMARK  2 active torsions:
REMARK  status: ('A' for Active; 'I' for Inactive)
REMARK    1  A    between atoms: O1_1  and  O2_3 
REMARK    2  A    between atoms: O2_3  and  C1_4 
ROOT
HETATM    1  C1  UNL     1     -16.247   3.739 -14.278  1.00  0.00     0.160 C 
HETATM    2  C2  UNL     1     -16.127   4.031 -12.812  1.00  0.00     0.036 C 
HETATM    3  C3  UNL     1     -16.329   2.890 -11.914  1.00  0.00     0.012 C 
HETATM    4  C4  UNL     1     -17.429   1.956 -12.237  1.00  0.00    -0.040 A 
HETATM    5  C5  UNL     1     -17.715   1.790 -13.699  1.00  0.00     0.012 C 
HETATM    6  C6  UNL     1     -16.613   2.313 -14.580  1.00  0.00     0.036 C 
HETATM    7  C7  UNL     1     -18.550   1.660 -11.312  1.00  0.00     0.010 A 
HETATM    8  C8  UNL     1     -17.414   0.665 -11.401  1.00  0.00     0.010 A 
ENDROOT
BRANCH   1   9
HETATM    9  O2  UNL     1     -17.191   4.551 -14.899  1.00  0.00    -0.238 OA
BRANCH   9  10
HETATM   10  O1  UNL     1     -16.627   5.306 -15.815  1.00  0.00    -0.250 OA
ATOM     11  H1  UNL     1     -16.131   4.777 -16.430  1.00  0.00     0.253 HD
ENDBRANCH   9  10
ENDBRANCH   1   9
TORSDOF 2
ENDMDL
MODEL 5
REMARK VINA RESULT: -6.025847195      2.815      4.072
REMARK  2 active torsions:
REMARK  status: ('A' for Active; 'I' for Inactive)
REMARK    1  A    between atoms: O1_1  and  O2_3 
REMARK    2  A    between atoms: O2_3  and  C1_4 
ROOT
HETATM    1  C1  UNL     1     -16.800   3.534 -14.501  1.00  0.00     0.160 C 
HETATM    2  C2  UNL     1     -17.608   2.281 -14.661  1.00  0.00     0.036 C 
HETATM    3  C3  UNL     1     -18.261   1.781 -13.447  1.00  0.00     0.012 C 
HETATM    4  C4  UNL     1     -17.482   1.820 -12.191  1.00  0.00    -0.040 A 
HETATM    5  C5  UNL     1     -16.509   2.954 -12.078  1.00  0.00     0.012 C 
HETATM    6  C6  UNL     1     -16.752   4.043 -13.087  1.00  0.00     0.036 C 
HETATM    7  C7  UNL     1     -17.183   0.616 -11.377  1.00  0.00     0.010 A 
HETATM    8  C8  UNL     1     -18.316   1.517 -10.934  1.00  0.00     0.010 A 
ENDROOT
BRANCH   1   9
HETATM    9  O2  UNL     1     -15.486   3.368 -14.928  1.00  0.00    -0.238 OA
BRANCH   9  10
HETATM   10  O1  UNL     1     -14.884   4.531 -15.048  1.00  0.00    -0.250 OA
ATOM     11  H1  UNL     1     -14.995   4.879 -15.925  1.00  0.00     0.253 HD
ENDBRANCH   9  10
ENDBRANCH   1   9
TORSDOF 2
ENDMDL
