MODEL 1
REMARK VINA RESULT: -8.215387179      0.000      0.000
REMARK  5 active torsions:
REMARK  status: ('A' for Active; 'I' for Inactive)
REMARK    1  A    between atoms: N1_1  and  C1_4 
REMARK    2  A    between atoms: C3_11  and  C4_12 
REMARK    3  A    between atoms: N4_13  and  N5_15 
REMARK       I    between atoms: N5_15  and  C5_17 
REMARK       I    between atoms: C5_17  and  N6_19 
REMARK    4  A    between atoms: N6_19  and  N7_21 
REMARK    5  A    between atoms: C6_24  and  N8_25 
ROOT
HETATM    1  C1  UNL     1      29.044  74.758  28.451  1.00  0.00     0.148 A 
HETATM    2  N2  UNL     1      29.568  75.085  27.271  1.00  0.00    -0.281 N 
ATOM      3  H2  UNL     1      28.963  75.162  26.454  1.00  0.00     0.188 HD
HETATM    4  N3  UNL     1      30.865  75.311  27.146  1.00  0.00    -0.264 N 
ATOM      5  H3  UNL     1      31.235  75.559  26.228  1.00  0.00     0.190 HD
HETATM    6  C2  UNL     1      31.711  75.227  28.183  1.00  0.00     0.274 A 
HETATM    7  O1  UNL     1      32.959  75.448  28.045  1.00  0.00    -0.266 OA
HETATM    8  C3  UNL     1      31.254  74.890  29.459  1.00  0.00     0.087 A 
HETATM    9  C6  UNL     1      29.904  74.659  29.559  1.00  0.00     0.164 A 
ENDROOT
BRANCH   8  10
HETATM   10  C4  UNL     1      32.186  74.815  30.556  1.00  0.00     0.127 C 
HETATM   11  N4  UNL     1      31.958  74.374  31.722  1.00  0.00    -0.307 N 
ATOM     12  H4  UNL     1      31.021  74.031  31.928  1.00  0.00     0.186 HD
BRANCH  11  13
HETATM   13  N5  UNL     1      32.905  74.329  32.737  1.00  0.00    -0.251 N 
HETATM   14  C5  UNL     1      32.625  73.990  34.086  1.00  0.00     0.352 C 
HETATM   15  O2  UNL     1      31.447  73.703  34.426  1.00  0.00    -0.244 OA
HETATM   16  N6  UNL     1      33.672  73.979  35.031  1.00  0.00    -0.257 N 
ATOM     17  H6  UNL     1      34.622  74.214  34.744  1.00  0.00     0.191 HD
ATOM     18  H5  UNL     1      33.871  74.556  32.496  1.00  0.00     0.191 HD
BRANCH  16  19
HETATM   19  N7  UNL     1      33.406  73.648  36.348  1.00  0.00    -0.341 N 
ATOM     20  H72 UNL     1      32.480  73.842  36.732  1.00  0.00     0.177 HD
ATOM     21  H71 UNL     1      34.133  73.215  36.918  1.00  0.00     0.177 HD
ENDBRANCH  16  19
ENDBRANCH  11  13
ENDBRANCH   8  10
BRANCH   9  22
HETATM   22  N8  UNL     1      29.364  74.284  30.831  1.00  0.00    -0.111 N 
HETATM   23  O3  UNL     1      29.305  73.091  31.184  1.00  0.00    -0.532 OA
HETATM   24  O4  UNL     1      28.887  75.228  31.714  1.00  0.00    -0.532 OA
ENDBRANCH   9  22
BRANCH   1  25
HETATM   25  N1  UNL     1      27.790  74.522  28.631  1.00  0.00    -0.382 N 
ATOM     26  H12 UNL     1      27.529  73.771  29.270  1.00  0.00     0.157 HD
ATOM     27  H11 UNL     1      27.047  75.042  28.167  1.00  0.00     0.157 HD
ENDBRANCH   1  25
TORSDOF 5
ENDMDL
MODEL 2
REMARK VINA RESULT: -8.189231917      2.643      3.522
REMARK  5 active torsions:
REMARK  status: ('A' for Active; 'I' for Inactive)
REMARK    1  A    between atoms: N1_1  and  C1_4 
REMARK    2  A    between atoms: C3_11  and  C4_12 
REMARK    3  A    between atoms: N4_13  and  N5_15 
REMARK       I    between atoms: N5_15  and  C5_17 
REMARK       I    between atoms: C5_17  and  N6_19 
REMARK    4  A    between atoms: N6_19  and  N7_21 
REMARK    5  A    between atoms: C6_24  and  N8_25 
ROOT
HETATM    1  C1  UNL     1      30.269  75.418  31.536  1.00  0.00     0.148 A 
HETATM    2  N2  UNL     1      30.970  75.168  30.431  1.00  0.00    -0.281 N 
ATOM      3  H2  UNL     1      30.498  75.152  29.527  1.00  0.00     0.188 HD
HETATM    4  N3  UNL     1      32.271  74.939  30.492  1.00  0.00    -0.264 N 
ATOM      5  H3  UNL     1      32.778  74.750  29.627  1.00  0.00     0.190 HD
HETATM    6  C2  UNL     1      32.948  74.948  31.650  1.00  0.00     0.274 A 
HETATM    7  O1  UNL     1      34.202  74.726  31.691  1.00  0.00    -0.266 OA
HETATM    8  C3  UNL     1      32.298  75.202  32.861  1.00  0.00     0.087 A 
HETATM    9  C6  UNL     1      30.948  75.434  32.767  1.00  0.00     0.164 A 
ENDROOT
BRANCH   8  10
HETATM   10  C4  UNL     1      33.053  75.212  34.089  1.00  0.00     0.127 C 
HETATM   11  N4  UNL     1      33.256  74.234  34.868  1.00  0.00    -0.307 N 
ATOM     12  H4  UNL     1      32.850  73.333  34.619  1.00  0.00     0.186 HD
BRANCH  11  13
HETATM   13  N5  UNL     1      33.996  74.313  36.041  1.00  0.00    -0.251 N 
HETATM   14  C5  UNL     1      33.954  73.354  37.086  1.00  0.00     0.352 C 
HETATM   15  O2  UNL     1      33.206  72.346  36.980  1.00  0.00    -0.244 OA
HETATM   16  N6  UNL     1      34.754  73.542  38.232  1.00  0.00    -0.257 N 
ATOM     17  H6  UNL     1      35.356  74.362  38.308  1.00  0.00     0.191 HD
ATOM     18  H5  UNL     1      34.614  75.117  36.159  1.00  0.00     0.191 HD
BRANCH  16  19
HETATM   19  N7  UNL     1      34.719  72.609  39.255  1.00  0.00    -0.341 N 
ATOM     20  H72 UNL     1      33.923  72.602  39.893  1.00  0.00     0.177 HD
ATOM     21  H71 UNL     1      35.485  71.943  39.359  1.00  0.00     0.177 HD
ENDBRANCH  16  19
ENDBRANCH  11  13
ENDBRANCH   8  10
BRANCH   9  22
HETATM   22  N8  UNL     1      30.208  75.676  33.969  1.00  0.00    -0.111 N 
HETATM   23  O3  UNL     1      29.634  74.752  34.575  1.00  0.00    -0.532 OA
HETATM   24  O4  UNL     1      30.102  76.942  34.502  1.00  0.00    -0.532 OA
ENDBRANCH   9  22
BRANCH   1  25
HETATM   25  N1  UNL     1      29.001  75.643  31.538  1.00  0.00    -0.382 N 
ATOM     26  H12 UNL     1      28.684  76.613  31.542  1.00  0.00     0.157 HD
ATOM     27  H11 UNL     1      28.298  74.905  31.540  1.00  0.00     0.157 HD
ENDBRANCH   1  25
TORSDOF 5
ENDMDL
MODEL 3
REMARK VINA RESULT: -8.062895923      1.407      1.486
REMARK  5 active torsions:
REMARK  status: ('A' for Active; 'I' for Inactive)
REMARK    1  A    between atoms: N1_1  and  C1_4 
REMARK    2  A    between atoms: C3_11  and  C4_12 
REMARK    3  A    between atoms: N4_13  and  N5_15 
REMARK       I    between atoms: N5_15  and  C5_17 
REMARK       I    between atoms: C5_17  and  N6_19 
REMARK    4  A    between atoms: N6_19  and  N7_21 
REMARK    5  A    between atoms: C6_24  and  N8_25 
ROOT
HETATM    1  C1  UNL     1      29.109  74.769  28.391  1.00  0.00     0.148 A 
HETATM    2  N2  UNL     1      29.720  75.071  27.246  1.00  0.00    -0.281 N 
ATOM      3  H2  UNL     1      29.173  75.149  26.389  1.00  0.00     0.188 HD
HETATM    4  N3  UNL     1      31.026  75.271  27.208  1.00  0.00    -0.264 N 
ATOM      5  H3  UNL     1      31.462  75.500  26.315  1.00  0.00     0.190 HD
HETATM    6  C2  UNL     1      31.798  75.183  28.301  1.00  0.00     0.274 A 
HETATM    7  O1  UNL     1      33.056  75.379  28.247  1.00  0.00    -0.266 OA
HETATM    8  C3  UNL     1      31.247  74.871  29.547  1.00  0.00     0.087 A 
HETATM    9  C6  UNL     1      29.889  74.667  29.557  1.00  0.00     0.164 A 
ENDROOT
BRANCH   8  10
HETATM   10  C4  UNL     1      32.100  74.792  30.706  1.00  0.00     0.127 C 
HETATM   11  N4  UNL     1      31.762  74.959  31.916  1.00  0.00    -0.307 N 
ATOM     12  H4  UNL     1      30.785  75.175  32.113  1.00  0.00     0.186 HD
BRANCH  11  13
HETATM   13  N5  UNL     1      32.638  74.868  32.990  1.00  0.00    -0.251 N 
HETATM   14  C5  UNL     1      33.355  75.962  33.540  1.00  0.00     0.352 C 
HETATM   15  O2  UNL     1      33.214  77.113  33.047  1.00  0.00    -0.244 OA
HETATM   16  N6  UNL     1      34.218  75.745  34.634  1.00  0.00    -0.257 N 
ATOM     17  H6  UNL     1      34.325  74.809  35.024  1.00  0.00     0.191 HD
ATOM     18  H5  UNL     1      32.775  73.950  33.413  1.00  0.00     0.191 HD
BRANCH  16  19
HETATM   19  N7  UNL     1      34.920  76.808  35.176  1.00  0.00    -0.341 N 
ATOM     20  H72 UNL     1      35.097  77.632  34.601  1.00  0.00     0.177 HD
ATOM     21  H71 UNL     1      35.251  76.758  36.141  1.00  0.00     0.177 HD
ENDBRANCH  16  19
ENDBRANCH  11  13
ENDBRANCH   8  10
BRANCH   9  22
HETATM   22  N8  UNL     1      29.256  74.318  30.793  1.00  0.00    -0.111 N 
HETATM   23  O3  UNL     1      29.183  73.135  31.173  1.00  0.00    -0.532 OA
HETATM   24  O4  UNL     1      28.701  75.279  31.610  1.00  0.00    -0.532 OA
ENDBRANCH   9  22
BRANCH   1  25
HETATM   25  N1  UNL     1      27.842  74.559  28.488  1.00  0.00    -0.382 N 
ATOM     26  H12 UNL     1      27.348  74.210  27.666  1.00  0.00     0.157 HD
ATOM     27  H11 UNL     1      27.307  74.727  29.339  1.00  0.00     0.157 HD
ENDBRANCH   1  25
TORSDOF 5
ENDMDL
MODEL 4
REMARK VINA RESULT: -7.893710819      3.989      5.905
REMARK  5 active torsions:
REMARK  status: ('A' for Active; 'I' for Inactive)
REMARK    1  A    between atoms: N1_1  and  C1_4 
REMARK    2  A    between atoms: C3_11  and  C4_12 
REMARK    3  A    between atoms: N4_13  and  N5_15 
REMARK       I    between atoms: N5_15  and  C5_17 
REMARK       I    between atoms: C5_17  and  N6_19 
REMARK    4  A    between atoms: N6_19  and  N7_21 
REMARK    5  A    between atoms: C6_24  and  N8_25 
ROOT
HETATM    1  C1  UNL     1      32.482  75.124  32.903  1.00  0.00     0.148 A 
HETATM    2  N2  UNL     1      32.487  76.441  32.708  1.00  0.00    -0.281 N 
ATOM      3  H2  UNL     1      32.009  76.833  31.897  1.00  0.00     0.188 HD
HETATM    4  N3  UNL     1      33.105  77.248  33.555  1.00  0.00    -0.264 N 
ATOM      5  H3  UNL     1      33.091  78.252  33.376  1.00  0.00     0.190 HD
HETATM    6  C2  UNL     1      33.749  76.793  34.639  1.00  0.00     0.274 A 
HETATM    7  O1  UNL     1      34.340  77.584  35.445  1.00  0.00    -0.266 OA
HETATM    8  C3  UNL     1      33.798  75.427  34.927  1.00  0.00     0.087 A 
HETATM    9  C6  UNL     1      33.149  74.613  34.031  1.00  0.00     0.164 A 
ENDROOT
BRANCH   8  10
HETATM   10  C4  UNL     1      34.491  74.968  36.104  1.00  0.00     0.127 C 
HETATM   11  N4  UNL     1      34.046  74.184  36.995  1.00  0.00    -0.307 N 
ATOM     12  H4  UNL     1      33.097  73.828  36.887  1.00  0.00     0.186 HD
BRANCH  11  13
HETATM   13  N5  UNL     1      34.770  73.779  38.109  1.00  0.00    -0.251 N 
HETATM   14  C5  UNL     1      35.613  72.639  38.152  1.00  0.00     0.352 C 
HETATM   15  O2  UNL     1      35.743  71.919  37.126  1.00  0.00    -0.244 OA
HETATM   16  N6  UNL     1      36.299  72.328  39.344  1.00  0.00    -0.257 N 
ATOM     17  H6  UNL     1      36.187  72.918  40.168  1.00  0.00     0.191 HD
ATOM     18  H5  UNL     1      34.689  74.341  38.957  1.00  0.00     0.191 HD
BRANCH  16  19
HETATM   19  N7  UNL     1      37.125  71.218  39.392  1.00  0.00    -0.341 N 
ATOM     20  H72 UNL     1      36.785  70.329  39.026  1.00  0.00     0.177 HD
ATOM     21  H71 UNL     1      38.062  71.301  39.789  1.00  0.00     0.177 HD
ENDBRANCH  16  19
ENDBRANCH  11  13
ENDBRANCH   8  10
BRANCH   9  22
HETATM   22  N8  UNL     1      33.177  73.197  34.244  1.00  0.00    -0.111 N 
HETATM   23  O3  UNL     1      34.100  72.491  33.798  1.00  0.00    -0.532 OA
HETATM   24  O4  UNL     1      32.180  72.560  34.951  1.00  0.00    -0.532 OA
ENDBRANCH   9  22
BRANCH   1  25
HETATM   25  N1  UNL     1      31.901  74.290  32.111  1.00  0.00    -0.382 N 
ATOM     26  H12 UNL     1      31.513  74.646  31.238  1.00  0.00     0.157 HD
ATOM     27  H11 UNL     1      31.805  73.295  32.313  1.00  0.00     0.157 HD
ENDBRANCH   1  25
TORSDOF 5
ENDMDL
MODEL 5
REMARK VINA RESULT: -7.694335451      4.341      6.271
REMARK  5 active torsions:
REMARK  status: ('A' for Active; 'I' for Inactive)
REMARK    1  A    between atoms: N1_1  and  C1_4 
REMARK    2  A    between atoms: C3_11  and  C4_12 
REMARK    3  A    between atoms: N4_13  and  N5_15 
REMARK       I    between atoms: N5_15  and  C5_17 
REMARK       I    between atoms: C5_17  and  N6_19 
REMARK    4  A    between atoms: N6_19  and  N7_21 
REMARK    5  A    between atoms: C6_24  and  N8_25 
ROOT
HETATM    1  C1  UNL     1      32.480  75.828  33.192  1.00  0.00     0.148 A 
HETATM    2  N2  UNL     1      31.638  74.859  32.836  1.00  0.00    -0.281 N 
ATOM      3  H2  UNL     1      31.008  75.004  32.048  1.00  0.00     0.188 HD
HETATM    4  N3  UNL     1      31.610  73.711  33.492  1.00  0.00    -0.264 N 
ATOM      5  H3  UNL     1      30.953  72.990  33.194  1.00  0.00     0.190 HD
HETATM    6  C2  UNL     1      32.415  73.461  34.535  1.00  0.00     0.274 A 
HETATM    7  O1  UNL     1      32.375  72.349  35.157  1.00  0.00    -0.266 OA
HETATM    8  C3  UNL     1      33.332  74.416  34.982  1.00  0.00     0.087 A 
HETATM    9  C6  UNL     1      33.338  75.598  34.283  1.00  0.00     0.164 A 
ENDROOT
BRANCH   8  10
HETATM   10  C4  UNL     1      34.190  74.116  36.100  1.00  0.00     0.127 C 
HETATM   11  N4  UNL     1      33.831  73.789  37.271  1.00  0.00    -0.307 N 
ATOM     12  H4  UNL     1      32.832  73.726  37.464  1.00  0.00     0.186 HD
BRANCH  11  13
HETATM   13  N5  UNL     1      34.713  73.512  38.307  1.00  0.00    -0.251 N 
HETATM   14  C5  UNL     1      35.622  72.422  38.322  1.00  0.00     0.352 C 
HETATM   15  O2  UNL     1      35.663  71.629  37.344  1.00  0.00    -0.244 OA
HETATM   16  N6  UNL     1      36.471  72.242  39.433  1.00  0.00    -0.257 N 
ATOM     17  H6  UNL     1      36.429  72.889  40.220  1.00  0.00     0.191 HD
ATOM     18  H5  UNL     1      34.707  74.135  39.115  1.00  0.00     0.191 HD
BRANCH  16  19
HETATM   19  N7  UNL     1      37.362  71.182  39.453  1.00  0.00    -0.341 N 
ATOM     20  H72 UNL     1      38.100  71.165  40.157  1.00  0.00     0.177 HD
ATOM     21  H71 UNL     1      37.271  70.432  38.766  1.00  0.00     0.177 HD
ENDBRANCH  16  19
ENDBRANCH  11  13
ENDBRANCH   8  10
BRANCH   9  22
HETATM   22  N8  UNL     1      34.233  76.636  34.698  1.00  0.00    -0.111 N 
HETATM   23  O3  UNL     1      35.466  76.520  34.572  1.00  0.00    -0.532 OA
HETATM   24  O4  UNL     1      33.763  77.806  35.256  1.00  0.00    -0.532 OA
ENDBRANCH   9  22
BRANCH   1  25
HETATM   25  N1  UNL     1      32.549  76.966  32.594  1.00  0.00    -0.382 N 
ATOM     26  H12 UNL     1      33.470  77.316  32.328  1.00  0.00     0.157 HD
ATOM     27  H11 UNL     1      31.733  77.538  32.376  1.00  0.00     0.157 HD
ENDBRANCH   1  25
TORSDOF 5
ENDMDL
