MODEL 1
REMARK VINA RESULT: -7.324061671      0.000      0.000
REMARK  6 active torsions:
REMARK  status: ('A' for Active; 'I' for Inactive)
REMARK    1  A    between atoms: C4_4  and  C5_5 
REMARK    2  A    between atoms: C6_6  and  C7_7 
REMARK    3  A    between atoms: N2_11  and  C9_12 
REMARK    4  A    between atoms: C9_12  and  C10_13 
REMARK    5  A    between atoms: C10_13  and  N3_14 
REMARK    6  A    between atoms: C18_27  and  N6_28 
ROOT
HETATM    1  C5  UNL     1      -8.685  -3.582  -0.211  1.00  0.00     0.016 A 
HETATM    2  C6  UNL     1      -8.156  -4.185  -1.321  1.00  0.00     0.032 A 
HETATM    3  S1  UNL     1      -6.644  -4.742  -0.778  1.00  0.00    -0.070 SA
HETATM    4  C16 UNL     1      -6.711  -4.202   0.840  1.00  0.00     0.090 A 
HETATM    5  N4  UNL     1      -5.869  -4.269   1.922  1.00  0.00    -0.346 N 
ATOM      6  H4  UNL     1      -4.967  -4.733   1.824  1.00  0.00     0.167 HD
HETATM    7  C17 UNL     1      -6.211  -3.739   3.102  1.00  0.00     0.182 A 
HETATM    8  N5  UNL     1      -7.399  -3.133   3.216  1.00  0.00    -0.338 N 
ATOM      9  H5  UNL     1      -7.669  -2.725   4.111  1.00  0.00     0.168 HD
HETATM   10  C18 UNL     1      -8.234  -3.053   2.181  1.00  0.00     0.113 A 
HETATM   11  C19 UNL     1      -7.928  -3.592   0.915  1.00  0.00     0.054 A 
ENDROOT
BRANCH   2  12
HETATM   12  C7  UNL     1      -8.787  -4.307  -2.658  1.00  0.00     0.016 A 
HETATM   13  C8  UNL     1      -8.464  -3.628  -3.812  1.00  0.00     0.121 A 
HETATM   14  N1  UNL     1      -9.274  -4.025  -4.809  1.00  0.00    -0.309 N 
HETATM   15  N2  UNL     1     -10.096  -4.934  -4.314  1.00  0.00    -0.301 N 
ATOM     16  H1  UNL     1      -9.257  -3.686  -5.771  1.00  0.00     0.186 HD
HETATM   17  C15 UNL     1      -9.829  -5.129  -3.013  1.00  0.00     0.124 A 
BRANCH  15  18
HETATM   18  C9  UNL     1     -11.158  -5.647  -5.034  1.00  0.00     0.178 C 
BRANCH  18  19
HETATM   19  C10 UNL     1     -10.697  -7.066  -5.355  1.00  0.00     0.294 C 
BRANCH  19  20
HETATM   20  N3  UNL     1     -11.830  -7.917  -5.659  1.00  0.00     0.090 N 
HETATM   21  C11 UNL     1     -12.978  -7.136  -6.058  1.00  0.00     0.272 C 
HETATM   22  C12 UNL     1     -13.659  -7.840  -7.181  1.00  0.00     0.032 C 
HETATM   23  C13 UNL     1     -12.678  -8.888  -7.659  1.00  0.00     0.032 C 
HETATM   24  C14 UNL     1     -11.455  -8.715  -6.809  1.00  0.00     0.272 C 
ENDBRANCH  19  20
ENDBRANCH  18  19
ENDBRANCH  15  18
ENDBRANCH   2  12
BRANCH   1  25
HETATM   25  C4  UNL     1     -10.044  -2.960  -0.310  1.00  0.00     0.019 A 
HETATM   26  C3  UNL     1     -11.225  -3.488   0.139  1.00  0.00     0.028 A 
HETATM   27  C2  UNL     1     -12.338  -2.771  -0.066  1.00  0.00    -0.032 A 
HETATM   28  C1  UNL     1     -13.714  -3.250   0.384  1.00  0.00     0.050 C 
HETATM   29  C20 UNL     1     -12.198  -1.568  -0.711  1.00  0.00     0.081 A 
HETATM   30  S2  UNL     1     -10.525  -1.482  -1.005  1.00  0.00    -0.077 SA
HETATM   31 CL1  UNL     1     -13.478  -0.411  -1.120  1.00  0.00    -0.076 Cl
ENDBRANCH   1  25
BRANCH  10  32
HETATM   32  N6  UNL     1      -9.356  -2.453   2.402  1.00  0.00    -0.385 N 
ATOM     33  H62 UNL     1      -9.850  -2.563   3.288  1.00  0.00     0.157 HD
ATOM     34  H61 UNL     1      -9.708  -1.868   1.644  1.00  0.00     0.157 HD
ENDBRANCH  10  32
TORSDOF 6
ENDMDL
MODEL 2
REMARK VINA RESULT: -7.023326639      0.987      1.478
REMARK  6 active torsions:
REMARK  status: ('A' for Active; 'I' for Inactive)
REMARK    1  A    between atoms: C4_4  and  C5_5 
REMARK    2  A    between atoms: C6_6  and  C7_7 
REMARK    3  A    between atoms: N2_11  and  C9_12 
REMARK    4  A    between atoms: C9_12  and  C10_13 
REMARK    5  A    between atoms: C10_13  and  N3_14 
REMARK    6  A    between atoms: C18_27  and  N6_28 
ROOT
HETATM    1  C5  UNL     1      -8.458  -3.117  -0.369  1.00  0.00     0.016 A 
HETATM    2  C6  UNL     1      -8.068  -4.029  -1.312  1.00  0.00     0.032 A 
HETATM    3  S1  UNL     1      -6.777  -4.841  -0.559  1.00  0.00    -0.070 SA
HETATM    4  C16 UNL     1      -6.758  -4.011   0.933  1.00  0.00     0.090 A 
HETATM    5  N4  UNL     1      -6.004  -4.088   2.077  1.00  0.00    -0.346 N 
ATOM      6  H4  UNL     1      -5.253  -4.775   2.136  1.00  0.00     0.167 HD
HETATM    7  C17 UNL     1      -6.237  -3.279   3.117  1.00  0.00     0.182 A 
HETATM    8  N5  UNL     1      -7.225  -2.381   3.028  1.00  0.00    -0.338 N 
ATOM      9  H5  UNL     1      -7.410  -1.759   3.815  1.00  0.00     0.168 HD
HETATM   10  C18 UNL     1      -7.971  -2.286   1.928  1.00  0.00     0.113 A 
HETATM   11  C19 UNL     1      -7.773  -3.110   0.801  1.00  0.00     0.054 A 
ENDROOT
BRANCH   2  12
HETATM   12  C7  UNL     1      -8.659  -4.234  -2.658  1.00  0.00     0.016 A 
HETATM   13  C8  UNL     1      -8.235  -3.709  -3.858  1.00  0.00     0.121 A 
HETATM   14  N1  UNL     1      -9.041  -4.134  -4.846  1.00  0.00    -0.309 N 
HETATM   15  N2  UNL     1      -9.960  -4.911  -4.300  1.00  0.00    -0.301 N 
ATOM     16  H1  UNL     1      -8.959  -3.899  -5.835  1.00  0.00     0.186 HD
HETATM   17  C15 UNL     1      -9.759  -4.993  -2.975  1.00  0.00     0.124 A 
BRANCH  15  18
HETATM   18  C9  UNL     1     -11.057  -5.599  -4.992  1.00  0.00     0.178 C 
BRANCH  18  19
HETATM   19  C10 UNL     1     -10.625  -7.017  -5.356  1.00  0.00     0.294 C 
BRANCH  19  20
HETATM   20  N3  UNL     1     -11.779  -7.852  -5.621  1.00  0.00     0.090 N 
HETATM   21  C11 UNL     1     -12.913  -7.060  -6.038  1.00  0.00     0.272 C 
HETATM   22  C12 UNL     1     -13.619  -7.787  -7.131  1.00  0.00     0.032 C 
HETATM   23  C13 UNL     1     -12.666  -8.872  -7.580  1.00  0.00     0.032 C 
HETATM   24  C14 UNL     1     -11.432  -8.697  -6.746  1.00  0.00     0.272 C 
ENDBRANCH  19  20
ENDBRANCH  18  19
ENDBRANCH  15  18
ENDBRANCH   2  12
BRANCH   1  25
HETATM   25  C4  UNL     1      -9.600  -2.200  -0.686  1.00  0.00     0.019 A 
HETATM   26  C3  UNL     1      -9.520  -0.941  -1.217  1.00  0.00     0.028 A 
HETATM   27  C2  UNL     1     -10.669  -0.279  -1.408  1.00  0.00    -0.032 A 
HETATM   28  C1  UNL     1     -10.715   1.130  -1.990  1.00  0.00     0.050 C 
HETATM   29  C20 UNL     1     -11.828  -0.921  -1.053  1.00  0.00     0.081 A 
HETATM   30  S2  UNL     1     -11.274  -2.420  -0.469  1.00  0.00    -0.077 SA
HETATM   31 CL1  UNL     1     -13.485  -0.304  -1.188  1.00  0.00    -0.076 Cl
ENDBRANCH   1  25
BRANCH  10  32
HETATM   32  N6  UNL     1      -8.902  -1.391   1.949  1.00  0.00    -0.385 N 
ATOM     33  H62 UNL     1      -9.854  -1.623   2.234  1.00  0.00     0.157 HD
ATOM     34  H61 UNL     1      -8.625  -0.450   1.671  1.00  0.00     0.157 HD
ENDBRANCH  10  32
TORSDOF 6
ENDMDL
MODEL 3
REMARK VINA RESULT: -6.990674533      2.177      2.671
REMARK  6 active torsions:
REMARK  status: ('A' for Active; 'I' for Inactive)
REMARK    1  A    between atoms: C4_4  and  C5_5 
REMARK    2  A    between atoms: C6_6  and  C7_7 
REMARK    3  A    between atoms: N2_11  and  C9_12 
REMARK    4  A    between atoms: C9_12  and  C10_13 
REMARK    5  A    between atoms: C10_13  and  N3_14 
REMARK    6  A    between atoms: C18_27  and  N6_28 
ROOT
HETATM    1  C5  UNL     1      -7.466  -2.664  -0.839  1.00  0.00     0.016 A 
HETATM    2  C6  UNL     1      -7.547  -3.881  -1.464  1.00  0.00     0.032 A 
HETATM    3  S1  UNL     1      -6.691  -4.913  -0.418  1.00  0.00    -0.070 SA
HETATM    4  C16 UNL     1      -6.249  -3.788   0.787  1.00  0.00     0.090 A 
HETATM    5  N4  UNL     1      -5.547  -3.851   1.964  1.00  0.00    -0.346 N 
ATOM      6  H4  UNL     1      -5.159  -4.744   2.267  1.00  0.00     0.167 HD
HETATM    7  C17 UNL     1      -5.363  -2.764   2.722  1.00  0.00     0.182 A 
HETATM    8  N5  UNL     1      -5.877  -1.598   2.314  1.00  0.00    -0.338 N 
ATOM      9  H5  UNL     1      -5.742  -0.763   2.884  1.00  0.00     0.168 HD
HETATM   10  C18 UNL     1      -6.562  -1.509   1.174  1.00  0.00     0.113 A 
HETATM   11  C19 UNL     1      -6.788  -2.619   0.335  1.00  0.00     0.054 A 
ENDROOT
BRANCH   2  12
HETATM   12  C7  UNL     1      -8.231  -4.185  -2.744  1.00  0.00     0.016 A 
HETATM   13  C8  UNL     1      -7.831  -3.851  -4.019  1.00  0.00     0.121 A 
HETATM   14  N1  UNL     1      -8.729  -4.309  -4.908  1.00  0.00    -0.309 N 
HETATM   15  N2  UNL     1      -9.683  -4.921  -4.227  1.00  0.00    -0.301 N 
ATOM     16  H1  UNL     1      -8.683  -4.203  -5.921  1.00  0.00     0.186 HD
HETATM   17  C15 UNL     1      -9.413  -4.864  -2.914  1.00  0.00     0.124 A 
BRANCH  15  18
HETATM   18  C9  UNL     1     -10.876  -5.575  -4.777  1.00  0.00     0.178 C 
BRANCH  18  19
HETATM   19  C10 UNL     1     -10.498  -6.941  -5.345  1.00  0.00     0.294 C 
BRANCH  19  20
HETATM   20  N3  UNL     1     -11.681  -7.747  -5.571  1.00  0.00     0.090 N 
HETATM   21  C11 UNL     1     -12.792  -6.934  -6.007  1.00  0.00     0.272 C 
HETATM   22  C12 UNL     1     -13.531  -7.677  -7.068  1.00  0.00     0.032 C 
HETATM   23  C13 UNL     1     -12.616  -8.808  -7.485  1.00  0.00     0.032 C 
HETATM   24  C14 UNL     1     -11.370  -8.643  -6.667  1.00  0.00     0.272 C 
ENDBRANCH  19  20
ENDBRANCH  18  19
ENDBRANCH  15  18
ENDBRANCH   2  12
BRANCH   1  25
HETATM   25  C4  UNL     1      -8.121  -1.481  -1.483  1.00  0.00     0.019 A 
HETATM   26  C3  UNL     1      -7.561  -0.625  -2.393  1.00  0.00     0.028 A 
HETATM   27  C2  UNL     1      -8.319   0.386  -2.836  1.00  0.00    -0.032 A 
HETATM   28  C1  UNL     1      -7.812   1.409  -3.847  1.00  0.00     0.050 C 
HETATM   29  C20 UNL     1      -9.594   0.477  -2.337  1.00  0.00     0.081 A 
HETATM   30  S2  UNL     1      -9.687  -0.848  -1.274  1.00  0.00    -0.077 SA
HETATM   31 CL1  UNL     1     -10.820   1.697  -2.732  1.00  0.00    -0.076 Cl
ENDBRANCH   1  25
BRANCH  10  32
HETATM   32  N6  UNL     1      -7.021  -0.339   0.877  1.00  0.00    -0.385 N 
ATOM     33  H62 UNL     1      -6.764   0.485   1.421  1.00  0.00     0.157 HD
ATOM     34  H61 UNL     1      -7.644  -0.294   0.071  1.00  0.00     0.157 HD
ENDBRANCH  10  32
TORSDOF 6
ENDMDL
MODEL 4
REMARK VINA RESULT: -6.933058365      3.140      4.146
REMARK  6 active torsions:
REMARK  status: ('A' for Active; 'I' for Inactive)
REMARK    1  A    between atoms: C4_4  and  C5_5 
REMARK    2  A    between atoms: C6_6  and  C7_7 
REMARK    3  A    between atoms: N2_11  and  C9_12 
REMARK    4  A    between atoms: C9_12  and  C10_13 
REMARK    5  A    between atoms: C10_13  and  N3_14 
REMARK    6  A    between atoms: C18_27  and  N6_28 
ROOT
HETATM    1  C5  UNL     1      -7.635  -2.051  -1.131  1.00  0.00     0.016 A 
HETATM    2  C6  UNL     1      -8.396  -2.216  -2.258  1.00  0.00     0.032 A 
HETATM    3  S1  UNL     1      -8.126  -0.778  -3.125  1.00  0.00    -0.070 SA
HETATM    4  C16 UNL     1      -7.057   0.002  -2.048  1.00  0.00     0.090 A 
HETATM    5  N4  UNL     1      -6.391   1.202  -2.038  1.00  0.00    -0.346 N 
ATOM      6  H4  UNL     1      -6.508   1.844  -2.822  1.00  0.00     0.167 HD
HETATM    7  C17 UNL     1      -5.592   1.546  -1.022  1.00  0.00     0.182 A 
HETATM    8  N5  UNL     1      -5.448   0.695   0.001  1.00  0.00    -0.338 N 
ATOM      9  H5  UNL     1      -4.842   0.947   0.781  1.00  0.00     0.168 HD
HETATM   10  C18 UNL     1      -6.083  -0.477   0.017  1.00  0.00     0.113 A 
HETATM   11  C19 UNL     1      -6.938  -0.892  -1.025  1.00  0.00     0.054 A 
ENDROOT
BRANCH   2  12
HETATM   12  C7  UNL     1      -9.238  -3.387  -2.604  1.00  0.00     0.016 A 
HETATM   13  C8  UNL     1     -10.343  -3.865  -1.935  1.00  0.00     0.121 A 
HETATM   14  N1  UNL     1     -10.822  -4.948  -2.570  1.00  0.00    -0.309 N 
HETATM   15  N2  UNL     1     -10.049  -5.165  -3.620  1.00  0.00    -0.301 N 
ATOM     16  H1  UNL     1     -11.633  -5.500  -2.293  1.00  0.00     0.186 HD
HETATM   17  C15 UNL     1      -9.079  -4.239  -3.671  1.00  0.00     0.124 A 
BRANCH  15  18
HETATM   18  C9  UNL     1     -10.186  -6.242  -4.607  1.00  0.00     0.178 C 
BRANCH  18  19
HETATM   19  C10 UNL     1     -11.479  -6.054  -5.397  1.00  0.00     0.294 C 
BRANCH  19  20
HETATM   20  N3  UNL     1     -12.139  -7.327  -5.610  1.00  0.00     0.090 N 
HETATM   21  C11 UNL     1     -13.230  -7.198  -6.548  1.00  0.00     0.272 C 
HETATM   22  C12 UNL     1     -13.230  -8.396  -7.437  1.00  0.00     0.032 C 
HETATM   23  C13 UNL     1     -11.893  -9.068  -7.213  1.00  0.00     0.032 C 
HETATM   24  C14 UNL     1     -11.165  -8.203  -6.228  1.00  0.00     0.272 C 
ENDBRANCH  19  20
ENDBRANCH  18  19
ENDBRANCH  15  18
ENDBRANCH   2  12
BRANCH   1  25
HETATM   25  C4  UNL     1      -7.622  -3.143  -0.106  1.00  0.00     0.019 A 
HETATM   26  C3  UNL     1      -6.770  -4.213  -0.056  1.00  0.00     0.028 A 
HETATM   27  C2  UNL     1      -6.940  -5.091   0.941  1.00  0.00    -0.032 A 
HETATM   28  C1  UNL     1      -6.059  -6.324   1.106  1.00  0.00     0.050 C 
HETATM   29  C20 UNL     1      -7.958  -4.841   1.827  1.00  0.00     0.081 A 
HETATM   30  S2  UNL     1      -8.635  -3.396   1.239  1.00  0.00    -0.077 SA
HETATM   31 CL1  UNL     1      -8.422  -5.814   3.236  1.00  0.00    -0.076 Cl
ENDBRANCH   1  25
BRANCH  10  32
HETATM   32  N6  UNL     1      -5.869  -1.225   1.047  1.00  0.00    -0.385 N 
ATOM     33  H62 UNL     1      -5.339  -0.883   1.850  1.00  0.00     0.157 HD
ATOM     34  H61 UNL     1      -6.262  -2.165   1.008  1.00  0.00     0.157 HD
ENDBRANCH  10  32
TORSDOF 6
ENDMDL
MODEL 5
REMARK VINA RESULT: -6.862562640      2.433      4.125
REMARK  6 active torsions:
REMARK  status: ('A' for Active; 'I' for Inactive)
REMARK    1  A    between atoms: C4_4  and  C5_5 
REMARK    2  A    between atoms: C6_6  and  C7_7 
REMARK    3  A    between atoms: N2_11  and  C9_12 
REMARK    4  A    between atoms: C9_12  and  C10_13 
REMARK    5  A    between atoms: C10_13  and  N3_14 
REMARK    6  A    between atoms: C18_27  and  N6_28 
ROOT
HETATM    1  C5  UNL     1     -10.268  -3.377   0.600  1.00  0.00     0.016 A 
HETATM    2  C6  UNL     1     -10.974  -3.585  -0.554  1.00  0.00     0.032 A 
HETATM    3  S1  UNL     1     -12.579  -3.261  -0.093  1.00  0.00    -0.070 SA
HETATM    4  C16 UNL     1     -12.325  -2.868   1.548  1.00  0.00     0.090 A 
HETATM    5  N4  UNL     1     -13.131  -2.492   2.592  1.00  0.00    -0.346 N 
ATOM      6  H4  UNL     1     -14.136  -2.404   2.442  1.00  0.00     0.167 HD
HETATM    7  C17 UNL     1     -12.624  -2.239   3.805  1.00  0.00     0.182 A 
HETATM    8  N5  UNL     1     -11.305  -2.358   3.990  1.00  0.00    -0.338 N 
ATOM      9  H5  UNL     1     -10.908  -2.168   4.910  1.00  0.00     0.168 HD
HETATM   10  C18 UNL     1     -10.500  -2.722   2.992  1.00  0.00     0.113 A 
HETATM   11  C19 UNL     1     -10.976  -3.003   1.695  1.00  0.00     0.054 A 
ENDROOT
BRANCH   2  12
HETATM   12  C7  UNL     1     -10.431  -3.992  -1.874  1.00  0.00     0.016 A 
HETATM   13  C8  UNL     1      -9.491  -3.340  -2.641  1.00  0.00     0.121 A 
HETATM   14  N1  UNL     1      -9.272  -4.034  -3.771  1.00  0.00    -0.309 N 
HETATM   15  N2  UNL     1     -10.047  -5.103  -3.736  1.00  0.00    -0.301 N 
ATOM     16  H1  UNL     1      -8.625  -3.781  -4.518  1.00  0.00     0.186 HD
HETATM   17  C15 UNL     1     -10.764  -5.110  -2.601  1.00  0.00     0.124 A 
BRANCH  15  18
HETATM   18  C9  UNL     1     -10.149  -6.152  -4.757  1.00  0.00     0.178 C 
BRANCH  18  19
HETATM   19  C10 UNL     1     -11.467  -6.008  -5.513  1.00  0.00     0.294 C 
BRANCH  19  20
HETATM   20  N3  UNL     1     -12.123  -7.293  -5.650  1.00  0.00     0.090 N 
HETATM   21  C11 UNL     1     -13.251  -7.210  -6.548  1.00  0.00     0.272 C 
HETATM   22  C12 UNL     1     -13.275  -8.441  -7.390  1.00  0.00     0.032 C 
HETATM   23  C13 UNL     1     -11.924  -9.092  -7.195  1.00  0.00     0.032 C 
HETATM   24  C14 UNL     1     -11.165  -8.184  -6.274  1.00  0.00     0.272 C 
ENDBRANCH  19  20
ENDBRANCH  18  19
ENDBRANCH  15  18
ENDBRANCH   2  12
BRANCH   1  25
HETATM   25  C4  UNL     1      -8.783  -3.572   0.579  1.00  0.00     0.019 A 
HETATM   26  C3  UNL     1      -8.098  -4.708   0.916  1.00  0.00     0.028 A 
HETATM   27  C2  UNL     1      -6.761  -4.666   0.843  1.00  0.00    -0.032 A 
HETATM   28  C1  UNL     1      -5.884  -5.864   1.194  1.00  0.00     0.050 C 
HETATM   29  C20 UNL     1      -6.193  -3.485   0.437  1.00  0.00     0.081 A 
HETATM   30  S2  UNL     1      -7.540  -2.481   0.171  1.00  0.00    -0.077 SA
HETATM   31 CL1  UNL     1      -4.466  -3.131   0.245  1.00  0.00    -0.076 Cl
ENDBRANCH   1  25
BRANCH  10  32
HETATM   32  N6  UNL     1      -9.242  -2.801   3.277  1.00  0.00    -0.385 N 
ATOM     33  H62 UNL     1      -8.651  -1.970   3.297  1.00  0.00     0.157 HD
ATOM     34  H61 UNL     1      -8.887  -3.734   3.481  1.00  0.00     0.157 HD
ENDBRANCH  10  32
TORSDOF 6
ENDMDL
