MODEL 1
REMARK VINA RESULT: -6.111209589      0.000      0.000
REMARK  4 active torsions:
REMARK  status: ('A' for Active; 'I' for Inactive)
REMARK       I    between atoms: C2_2  and  N1_4 
REMARK    1  A    between atoms: N1_4  and  C3_6 
REMARK    2  A    between atoms: C4_9  and  N3_10 
REMARK    3  A    between atoms: N3_10  and  O2_11 
REMARK    4  A    between atoms: C5_13  and  C7_15 
ROOT
HETATM    1  C3  UNL     1      32.336 -27.860 -23.381  1.00  0.00     0.153 A 
HETATM    2  N2  UNL     1      31.544 -27.149 -24.186  1.00  0.00    -0.320 N 
ATOM      3  H2  UNL     1      30.606 -26.876 -23.890  1.00  0.00     0.169 HD
HETATM    4  C4  UNL     1      32.000 -26.810 -25.361  1.00  0.00     0.147 A 
HETATM    5  C11 UNL     1      33.263 -27.202 -25.702  1.00  0.00     0.029 A 
HETATM    6  C12 UNL     1      34.013 -26.943 -26.983  1.00  0.00     0.060 C 
HETATM    7  S1  UNL     1      33.754 -28.055 -24.304  1.00  0.00    -0.055 SA
ENDROOT
BRANCH   4   8
HETATM    8  N3  UNL     1      31.206 -26.035 -26.301  1.00  0.00    -0.212 N 
HETATM    9  C5  UNL     1      31.279 -24.733 -26.316  1.00  0.00     0.038 C 
HETATM   10  C6  UNL     1      30.447 -24.032 -27.294  1.00  0.00     0.071 C 
BRANCH   8  11
HETATM   11  O2  UNL     1      30.373 -26.657 -27.182  1.00  0.00    -0.281 OA
ATOM     12  H2  UNL     1      29.438 -26.492 -27.162  1.00  0.00     0.245 HD
ENDBRANCH   8  11
BRANCH   9  13
HETATM   13  C7  UNL     1      32.147 -24.095 -25.396  1.00  0.00     0.029 C 
HETATM   14  C8  UNL     1      33.182 -23.357 -25.609  1.00  0.00    -0.086 C 
HETATM   15  C9  UNL     1      33.956 -22.780 -24.428  1.00  0.00     0.043 C 
HETATM   16  C10 UNL     1      33.732 -22.991 -26.918  1.00  0.00     0.043 C 
ENDBRANCH   9  13
ENDBRANCH   4   8
BRANCH   1  17
HETATM   17  N1  UNL     1      32.108 -28.314 -22.175  1.00  0.00    -0.307 N 
HETATM   18  C2  UNL     1      32.837 -29.439 -21.721  1.00  0.00     0.219 C 
HETATM   19  C1  UNL     1      33.762 -29.370 -20.574  1.00  0.00     0.117 C 
HETATM   20  O1  UNL     1      32.688 -30.528 -22.317  1.00  0.00    -0.274 OA
ATOM     21  H1  UNL     1      31.417 -27.865 -21.573  1.00  0.00     0.171 HD
ENDBRANCH   1  17
TORSDOF 4
ENDMDL
MODEL 2
REMARK VINA RESULT: -5.984836574      1.506      1.685
REMARK  4 active torsions:
REMARK  status: ('A' for Active; 'I' for Inactive)
REMARK       I    between atoms: C2_2  and  N1_4 
REMARK    1  A    between atoms: N1_4  and  C3_6 
REMARK    2  A    between atoms: C4_9  and  N3_10 
REMARK    3  A    between atoms: N3_10  and  O2_11 
REMARK    4  A    between atoms: C5_13  and  C7_15 
ROOT
HETATM    1  C3  UNL     1      32.153 -26.923 -24.581  1.00  0.00     0.153 A 
HETATM    2  N2  UNL     1      31.401 -25.948 -25.097  1.00  0.00    -0.320 N 
ATOM      3  H2  UNL     1      30.505 -25.700 -24.678  1.00  0.00     0.169 HD
HETATM    4  C4  UNL     1      31.845 -25.319 -26.152  1.00  0.00     0.147 A 
HETATM    5  C11 UNL     1      33.052 -25.695 -26.669  1.00  0.00     0.029 A 
HETATM    6  C12 UNL     1      33.776 -25.135 -27.866  1.00  0.00     0.060 C 
HETATM    7  S1  UNL     1      33.511 -26.952 -25.607  1.00  0.00    -0.055 SA
ENDROOT
BRANCH   4   8
HETATM    8  N3  UNL     1      31.093 -24.244 -26.780  1.00  0.00    -0.212 N 
HETATM    9  C5  UNL     1      31.172 -23.025 -26.325  1.00  0.00     0.038 C 
HETATM   10  C6  UNL     1      30.384 -22.006 -27.016  1.00  0.00     0.071 C 
BRANCH   8  11
HETATM   11  O2  UNL     1      30.294 -24.494 -27.855  1.00  0.00    -0.281 OA
ATOM     12  H2  UNL     1      29.529 -23.957 -28.024  1.00  0.00     0.245 HD
ENDBRANCH   8  11
BRANCH   9  13
HETATM   13  C7  UNL     1      32.004 -22.775 -25.206  1.00  0.00     0.029 C 
HETATM   14  C8  UNL     1      33.180 -22.250 -25.150  1.00  0.00    -0.086 C 
HETATM   15  C9  UNL     1      33.872 -22.087 -23.800  1.00  0.00     0.043 C 
HETATM   16  C10 UNL     1      33.970 -21.767 -26.287  1.00  0.00     0.043 C 
ENDBRANCH   9  13
ENDBRANCH   4   8
BRANCH   1  17
HETATM   17  N1  UNL     1      31.927 -27.687 -23.543  1.00  0.00    -0.307 N 
HETATM   18  C2  UNL     1      32.856 -28.711 -23.236  1.00  0.00     0.219 C 
HETATM   19  C1  UNL     1      33.628 -28.726 -21.980  1.00  0.00     0.117 C 
HETATM   20  O1  UNL     1      33.024 -29.634 -24.064  1.00  0.00    -0.274 OA
ATOM     21  H1  UNL     1      31.097 -27.548 -22.966  1.00  0.00     0.171 HD
ENDBRANCH   1  17
TORSDOF 4
ENDMDL
MODEL 3
REMARK VINA RESULT: -5.643733862      2.197      2.999
REMARK  4 active torsions:
REMARK  status: ('A' for Active; 'I' for Inactive)
REMARK       I    between atoms: C2_2  and  N1_4 
REMARK    1  A    between atoms: N1_4  and  C3_6 
REMARK    2  A    between atoms: C4_9  and  N3_10 
REMARK    3  A    between atoms: N3_10  and  O2_11 
REMARK    4  A    between atoms: C5_13  and  C7_15 
ROOT
HETATM    1  C3  UNL     1      33.424 -27.272 -25.146  1.00  0.00     0.153 A 
HETATM    2  N2  UNL     1      33.360 -25.970 -24.859  1.00  0.00    -0.320 N 
ATOM      3  H2  UNL     1      33.972 -25.557 -24.155  1.00  0.00     0.169 HD
HETATM    4  C4  UNL     1      32.492 -25.237 -25.504  1.00  0.00     0.147 A 
HETATM    5  C11 UNL     1      31.699 -25.845 -26.435  1.00  0.00     0.029 A 
HETATM    6  C12 UNL     1      30.632 -25.230 -27.305  1.00  0.00     0.060 C 
HETATM    7  S1  UNL     1      32.236 -27.465 -26.349  1.00  0.00    -0.055 SA
ENDROOT
BRANCH   4   8
HETATM    8  N3  UNL     1      32.353 -23.811 -25.256  1.00  0.00    -0.212 N 
HETATM    9  C5  UNL     1      32.997 -22.945 -25.987  1.00  0.00     0.038 C 
HETATM   10  C6  UNL     1      32.800 -21.531 -25.671  1.00  0.00     0.071 C 
BRANCH   8  11
HETATM   11  O2  UNL     1      31.547 -23.357 -24.256  1.00  0.00    -0.281 OA
ATOM     12  H2  UNL     1      31.090 -22.529 -24.342  1.00  0.00     0.245 HD
ENDBRANCH   8  11
BRANCH   9  13
HETATM   13  C7  UNL     1      33.834 -23.426 -27.025  1.00  0.00     0.029 C 
HETATM   14  C8  UNL     1      33.709 -23.325 -28.303  1.00  0.00    -0.086 C 
HETATM   15  C9  UNL     1      34.765 -23.939 -29.218  1.00  0.00     0.043 C 
HETATM   16  C10 UNL     1      32.616 -22.658 -29.018  1.00  0.00     0.043 C 
ENDBRANCH   9  13
ENDBRANCH   4   8
BRANCH   1  17
HETATM   17  N1  UNL     1      34.199 -28.198 -24.641  1.00  0.00    -0.307 N 
HETATM   18  C2  UNL     1      33.816 -28.820 -23.428  1.00  0.00     0.219 C 
HETATM   19  C1  UNL     1      33.511 -30.260 -23.341  1.00  0.00     0.117 C 
HETATM   20  O1  UNL     1      33.736 -28.118 -22.396  1.00  0.00    -0.274 OA
ATOM     21  H1  UNL     1      35.063 -28.467 -25.113  1.00  0.00     0.171 HD
ENDBRANCH   1  17
TORSDOF 4
ENDMDL
MODEL 4
REMARK VINA RESULT: -5.305949787      2.725      3.883
REMARK  4 active torsions:
REMARK  status: ('A' for Active; 'I' for Inactive)
REMARK       I    between atoms: C2_2  and  N1_4 
REMARK    1  A    between atoms: N1_4  and  C3_6 
REMARK    2  A    between atoms: C4_9  and  N3_10 
REMARK    3  A    between atoms: N3_10  and  O2_11 
REMARK    4  A    between atoms: C5_13  and  C7_15 
ROOT
HETATM    1  C3  UNL     1      32.685 -25.861 -25.403  1.00  0.00     0.153 A 
HETATM    2  N2  UNL     1      32.531 -24.538 -25.307  1.00  0.00    -0.320 N 
ATOM      3  H2  UNL     1      32.130 -24.118 -24.469  1.00  0.00     0.169 HD
HETATM    4  C4  UNL     1      32.906 -23.797 -26.315  1.00  0.00     0.147 A 
HETATM    5  C11 UNL     1      33.436 -24.417 -27.410  1.00  0.00     0.029 A 
HETATM    6  C12 UNL     1      33.940 -23.797 -28.689  1.00  0.00     0.060 C 
HETATM    7  S1  UNL     1      33.373 -26.061 -26.947  1.00  0.00    -0.055 SA
ENDROOT
BRANCH   4   8
HETATM    8  N3  UNL     1      32.776 -22.349 -26.296  1.00  0.00    -0.212 N 
HETATM    9  C5  UNL     1      31.688 -21.775 -26.728  1.00  0.00     0.038 C 
HETATM   10  C6  UNL     1      31.640 -20.315 -26.673  1.00  0.00     0.071 C 
BRANCH   8  11
HETATM   11  O2  UNL     1      33.789 -21.569 -25.825  1.00  0.00    -0.281 OA
ATOM     12  H2  UNL     1      33.861 -20.660 -26.090  1.00  0.00     0.245 HD
ENDBRANCH   8  11
BRANCH   9  13
HETATM   13  C7  UNL     1      30.640 -22.595 -27.216  1.00  0.00     0.029 C 
HETATM   14  C8  UNL     1      30.207 -22.756 -28.419  1.00  0.00    -0.086 C 
HETATM   15  C9  UNL     1      29.048 -23.712 -28.685  1.00  0.00     0.043 C 
HETATM   16  C10 UNL     1      30.720 -22.092 -29.622  1.00  0.00     0.043 C 
ENDBRANCH   9  13
ENDBRANCH   4   8
BRANCH   1  17
HETATM   17  N1  UNL     1      32.388 -26.799 -24.540  1.00  0.00    -0.307 N 
HETATM   18  C2  UNL     1      33.000 -28.068 -24.676  1.00  0.00     0.219 C 
HETATM   19  C1  UNL     1      33.900 -28.625 -23.649  1.00  0.00     0.117 C 
HETATM   20  O1  UNL     1      32.767 -28.738 -25.707  1.00  0.00    -0.274 OA
ATOM     21  H1  UNL     1      31.727 -26.619 -23.784  1.00  0.00     0.171 HD
ENDBRANCH   1  17
TORSDOF 4
ENDMDL
MODEL 5
REMARK VINA RESULT: -5.299637197      3.649      6.419
REMARK  4 active torsions:
REMARK  status: ('A' for Active; 'I' for Inactive)
REMARK       I    between atoms: C2_2  and  N1_4 
REMARK    1  A    between atoms: N1_4  and  C3_6 
REMARK    2  A    between atoms: C4_9  and  N3_10 
REMARK    3  A    between atoms: N3_10  and  O2_11 
REMARK    4  A    between atoms: C5_13  and  C7_15 
ROOT
HETATM    1  C3  UNL     1      33.224 -22.873 -29.394  1.00  0.00     0.153 A 
HETATM    2  N2  UNL     1      33.080 -23.869 -28.518  1.00  0.00    -0.320 N 
ATOM      3  H2  UNL     1      33.811 -24.571 -28.399  1.00  0.00     0.169 HD
HETATM    4  C4  UNL     1      31.980 -23.921 -27.816  1.00  0.00     0.147 A 
HETATM    5  C11 UNL     1      31.038 -22.953 -28.019  1.00  0.00     0.029 A 
HETATM    6  C12 UNL     1      29.699 -22.791 -27.346  1.00  0.00     0.060 C 
HETATM    7  S1  UNL     1      31.777 -21.993 -29.224  1.00  0.00    -0.055 SA
ENDROOT
BRANCH   4   8
HETATM    8  N3  UNL     1      31.739 -24.971 -26.839  1.00  0.00    -0.212 N 
HETATM    9  C5  UNL     1      32.335 -24.948 -25.680  1.00  0.00     0.038 C 
HETATM   10  C6  UNL     1      32.035 -26.041 -24.756  1.00  0.00     0.071 C 
BRANCH   8  11
HETATM   11  O2  UNL     1      30.886 -25.996 -27.119  1.00  0.00    -0.281 OA
ATOM     12  H2  UNL     1      30.142 -26.172 -26.556  1.00  0.00     0.245 HD
ENDBRANCH   8  11
BRANCH   9  13
HETATM   13  C7  UNL     1      33.221 -23.879 -25.397  1.00  0.00     0.029 C 
HETATM   14  C8  UNL     1      33.005 -22.760 -24.795  1.00  0.00    -0.086 C 
HETATM   15  C9  UNL     1      34.146 -21.764 -24.615  1.00  0.00     0.043 C 
HETATM   16  C10 UNL     1      31.726 -22.309 -24.236  1.00  0.00     0.043 C 
ENDBRANCH   9  13
ENDBRANCH   4   8
BRANCH   1  17
HETATM   17  N1  UNL     1      34.221 -22.611 -30.201  1.00  0.00    -0.307 N 
HETATM   18  C2  UNL     1      35.542 -22.862 -29.756  1.00  0.00     0.219 C 
HETATM   19  C1  UNL     1      36.420 -23.851 -30.408  1.00  0.00     0.117 C 
HETATM   20  O1  UNL     1      35.974 -22.218 -28.775  1.00  0.00    -0.274 OA
ATOM     21  H1  UNL     1      34.049 -22.232 -31.133  1.00  0.00     0.171 HD
ENDBRANCH   1  17
TORSDOF 4
ENDMDL
