MODEL 1
REMARK VINA RESULT: -6.475799164      0.000      0.000
REMARK  0 active torsions:
REMARK  status: ('A' for Active; 'I' for Inactive)
ROOT
HETATM    1  C1  UNL     1      -7.095   4.730 -31.541  1.00  0.00     0.006 C 
HETATM    2  C2  UNL     1      -6.983   4.027 -30.215  1.00  0.00     0.011 C 
HETATM    3  C3  UNL     1      -6.578   5.304 -29.513  1.00  0.00    -0.033 A 
HETATM    4  C4  UNL     1      -5.887   5.013 -28.297  1.00  0.00     0.015 A 
HETATM    5  C5  UNL     1      -5.062   5.628 -29.264  1.00  0.00    -0.005 A 
HETATM    6  C6  UNL     1      -4.843   5.199 -30.682  1.00  0.00     0.011 C 
HETATM    7  C7  UNL     1      -6.224   5.778 -30.845  1.00  0.00    -0.005 C 
ENDROOT
TORSDOF 0
ENDMDL
MODEL 2
REMARK VINA RESULT: -6.200277307      0.795      2.691
REMARK  0 active torsions:
REMARK  status: ('A' for Active; 'I' for Inactive)
ROOT
HETATM    1  C1  UNL     1      -5.459   6.004 -29.297  1.00  0.00     0.006 C 
HETATM    2  C2  UNL     1      -5.141   5.130 -30.479  1.00  0.00     0.011 C 
HETATM    3  C3  UNL     1      -6.593   5.086 -30.904  1.00  0.00    -0.033 A 
HETATM    4  C4  UNL     1      -6.842   3.948 -31.730  1.00  0.00     0.015 A 
HETATM    5  C5  UNL     1      -7.507   3.880 -30.486  1.00  0.00    -0.005 A 
HETATM    6  C6  UNL     1      -6.908   4.030 -29.122  1.00  0.00     0.011 C 
HETATM    7  C7  UNL     1      -6.877   5.480 -29.529  1.00  0.00    -0.005 C 
ENDROOT
TORSDOF 0
ENDMDL
MODEL 3
REMARK VINA RESULT: -6.173346098      0.694      2.373
REMARK  0 active torsions:
REMARK  status: ('A' for Active; 'I' for Inactive)
ROOT
HETATM    1  C1  UNL     1      -5.032   5.723 -28.628  1.00  0.00     0.006 C 
HETATM    2  C2  UNL     1      -6.335   4.970 -28.637  1.00  0.00     0.011 C 
HETATM    3  C3  UNL     1      -6.072   4.425 -30.024  1.00  0.00    -0.033 A 
HETATM    4  C4  UNL     1      -7.293   4.030 -30.651  1.00  0.00     0.015 A 
HETATM    5  C5  UNL     1      -6.680   5.134 -31.285  1.00  0.00    -0.005 A 
HETATM    6  C6  UNL     1      -6.233   6.416 -30.654  1.00  0.00     0.011 C 
HETATM    7  C7  UNL     1      -5.128   5.530 -30.143  1.00  0.00    -0.005 C 
ENDROOT
TORSDOF 0
ENDMDL
MODEL 4
REMARK VINA RESULT: -6.106679796      0.848      1.406
REMARK  0 active torsions:
REMARK  status: ('A' for Active; 'I' for Inactive)
ROOT
HETATM    1  C1  UNL     1      -6.062   6.095 -31.261  1.00  0.00     0.006 C 
HETATM    2  C2  UNL     1      -6.507   4.685 -30.982  1.00  0.00     0.011 C 
HETATM    3  C3  UNL     1      -7.013   5.062 -29.606  1.00  0.00    -0.033 A 
HETATM    4  C4  UNL     1      -7.091   3.911 -28.764  1.00  0.00     0.015 A 
HETATM    5  C5  UNL     1      -6.114   4.837 -28.339  1.00  0.00    -0.005 A 
HETATM    6  C6  UNL     1      -5.001   5.427 -29.150  1.00  0.00     0.011 C 
HETATM    7  C7  UNL     1      -6.138   6.221 -29.738  1.00  0.00    -0.005 C 
ENDROOT
TORSDOF 0
ENDMDL
MODEL 5
REMARK VINA RESULT: -6.105739059      0.978      2.006
REMARK  0 active torsions:
REMARK  status: ('A' for Active; 'I' for Inactive)
ROOT
HETATM    1  C1  UNL     1      -7.787   3.970 -28.648  1.00  0.00     0.006 C 
HETATM    2  C2  UNL     1      -6.306   4.096 -28.415  1.00  0.00     0.011 C 
HETATM    3  C3  UNL     1      -6.219   5.324 -29.296  1.00  0.00    -0.033 A 
HETATM    4  C4  UNL     1      -4.883   5.515 -29.764  1.00  0.00     0.015 A 
HETATM    5  C5  UNL     1      -5.789   5.195 -30.800  1.00  0.00    -0.005 A 
HETATM    6  C6  UNL     1      -6.728   4.029 -30.862  1.00  0.00     0.011 C 
HETATM    7  C7  UNL     1      -7.483   4.859 -29.856  1.00  0.00    -0.005 C 
ENDROOT
TORSDOF 0
ENDMDL
