MODEL 1
REMARK VINA RESULT: -9.013679154      0.000      0.000
REMARK  5 active torsions:
REMARK  status: ('A' for Active; 'I' for Inactive)
REMARK    1  A    between atoms: C2_2  and  C3_3 
REMARK       I    between atoms: N1_6  and  C6_7 
REMARK    2  A    between atoms: C6_7  and  C7_9 
REMARK    3  A    between atoms: C7_9  and  C8_10 
REMARK    4  A    between atoms: C8_10  and  C9_11 
REMARK       I    between atoms: C9_11  and  N2_13 
REMARK    5  A    between atoms: N2_13  and  C10_15 
ROOT
HETATM    1  C9  UNL     1      -6.939  20.087   6.050  1.00  0.00     0.218 C 
HETATM    2  O2  UNL     1      -6.009  20.464   5.313  1.00  0.00    -0.274 OA
HETATM    3  N2  UNL     1      -6.919  18.788   6.579  1.00  0.00    -0.356 N 
ATOM      4  H2  UNL     1      -7.695  18.508   7.179  1.00  0.00     0.162 HD
ENDROOT
BRANCH   1   5
HETATM    5  C8  UNL     1      -8.048  21.000   6.359  1.00  0.00     0.112 C 
BRANCH   5   6
HETATM    6  C7  UNL     1      -9.201  20.314   7.037  1.00  0.00     0.112 C 
BRANCH   6   7
HETATM    7  C6  UNL     1     -10.390  20.368   6.143  1.00  0.00     0.220 C 
HETATM    8  N1  UNL     1     -11.304  19.302   6.022  1.00  0.00    -0.352 N 
HETATM    9  C5  UNL     1     -12.436  19.406   5.145  1.00  0.00     0.126 C 
HETATM   10  C20 UNL     1     -11.105  18.097   6.782  1.00  0.00     0.126 C 
HETATM   11  C4  UNL     1     -13.421  18.292   5.524  1.00  0.00     0.024 C 
HETATM   12  C3  UNL     1     -12.732  16.989   5.243  1.00  0.00    -0.012 C 
HETATM   13  C21 UNL     1     -11.450  16.868   6.003  1.00  0.00     0.024 C 
HETATM   14  O1  UNL     1     -10.588  21.413   5.464  1.00  0.00    -0.273 OA
BRANCH  12  15
HETATM   15  C2  UNL     1     -13.623  15.800   5.530  1.00  0.00     0.000 C 
HETATM   16  C1  UNL     1     -15.057  16.064   5.199  1.00  0.00     0.005 C 
ENDBRANCH  12  15
ENDBRANCH   6   7
ENDBRANCH   5   6
ENDBRANCH   1   5
BRANCH   3  17
HETATM   17  C10 UNL     1      -5.876  17.816   6.336  1.00  0.00     0.092 C 
HETATM   18  C11 UNL     1      -4.886  17.714   7.462  1.00  0.00     0.009 C 
HETATM   19  C12 UNL     1      -3.692  16.947   6.901  1.00  0.00     0.011 C 
HETATM   20  C16 UNL     1      -5.391  16.941   8.638  1.00  0.00     0.011 C 
HETATM   21  C13 UNL     1      -4.123  15.596   6.383  1.00  0.00    -0.013 C 
HETATM   22  C14 UNL     1      -4.597  14.800   7.600  1.00  0.00     0.009 C 
HETATM   23  C19 UNL     1      -5.229  15.688   5.372  1.00  0.00     0.011 C 
HETATM   24  C15 UNL     1      -5.756  15.541   8.209  1.00  0.00    -0.013 C 
HETATM   25  C17 UNL     1      -6.858  15.666   7.177  1.00  0.00     0.011 C 
HETATM   26  C18 UNL     1      -6.399  16.462   5.980  1.00  0.00     0.009 C 
ENDBRANCH   3  17
TORSDOF 5
ENDMDL
MODEL 2
REMARK VINA RESULT: -8.756217521      0.773      1.416
REMARK  5 active torsions:
REMARK  status: ('A' for Active; 'I' for Inactive)
REMARK    1  A    between atoms: C2_2  and  C3_3 
REMARK       I    between atoms: N1_6  and  C6_7 
REMARK    2  A    between atoms: C6_7  and  C7_9 
REMARK    3  A    between atoms: C7_9  and  C8_10 
REMARK    4  A    between atoms: C8_10  and  C9_11 
REMARK       I    between atoms: C9_11  and  N2_13 
REMARK    5  A    between atoms: N2_13  and  C10_15 
ROOT
HETATM    1  C9  UNL     1      -6.780  19.283   6.210  1.00  0.00     0.218 C 
HETATM    2  O2  UNL     1      -5.711  19.857   6.489  1.00  0.00    -0.274 OA
HETATM    3  N2  UNL     1      -6.898  17.900   6.417  1.00  0.00    -0.356 N 
ATOM      4  H2  UNL     1      -7.786  17.460   6.177  1.00  0.00     0.162 HD
ENDROOT
BRANCH   1   5
HETATM    5  C8  UNL     1      -7.907  20.053   5.666  1.00  0.00     0.112 C 
BRANCH   5   6
HETATM    6  C7  UNL     1      -8.998  20.287   6.673  1.00  0.00     0.112 C 
BRANCH   6   7
HETATM    7  C6  UNL     1     -10.302  20.383   5.961  1.00  0.00     0.220 C 
HETATM    8  N1  UNL     1     -11.229  19.323   5.917  1.00  0.00    -0.352 N 
HETATM    9  C5  UNL     1     -12.474  19.468   5.216  1.00  0.00     0.126 C 
HETATM   10  C20 UNL     1     -10.930  18.081   6.580  1.00  0.00     0.126 C 
HETATM   11  C4  UNL     1     -13.400  18.334   5.675  1.00  0.00     0.024 C 
HETATM   12  C3  UNL     1     -12.765  17.048   5.232  1.00  0.00    -0.012 C 
HETATM   13  C21 UNL     1     -11.387  16.893   5.796  1.00  0.00     0.024 C 
HETATM   14  O1  UNL     1     -10.590  21.461   5.371  1.00  0.00    -0.273 OA
BRANCH  12  15
HETATM   15  C2  UNL     1     -13.611  15.844   5.583  1.00  0.00     0.000 C 
HETATM   16  C1  UNL     1     -15.051  16.031   5.226  1.00  0.00     0.005 C 
ENDBRANCH  12  15
ENDBRANCH   6   7
ENDBRANCH   5   6
ENDBRANCH   1   5
BRANCH   3  17
HETATM   17  C10 UNL     1      -5.852  17.055   6.945  1.00  0.00     0.092 C 
HETATM   18  C11 UNL     1      -6.368  15.948   7.821  1.00  0.00     0.009 C 
HETATM   19  C12 UNL     1      -5.154  15.403   8.566  1.00  0.00     0.011 C 
HETATM   20  C16 UNL     1      -6.964  14.807   7.060  1.00  0.00     0.011 C 
HETATM   21  C13 UNL     1      -4.101  14.930   7.594  1.00  0.00    -0.013 C 
HETATM   22  C14 UNL     1      -4.705  13.737   6.852  1.00  0.00     0.009 C 
HETATM   23  C19 UNL     1      -3.699  15.991   6.611  1.00  0.00     0.011 C 
HETATM   24  C15 UNL     1      -5.932  14.223   6.128  1.00  0.00    -0.013 C 
HETATM   25  C17 UNL     1      -5.532  15.318   5.162  1.00  0.00     0.011 C 
HETATM   26  C18 UNL     1      -4.946  16.503   5.891  1.00  0.00     0.009 C 
ENDBRANCH   3  17
TORSDOF 5
ENDMDL
MODEL 3
REMARK VINA RESULT: -8.670309636      1.736      2.981
REMARK  5 active torsions:
REMARK  status: ('A' for Active; 'I' for Inactive)
REMARK    1  A    between atoms: C2_2  and  C3_3 
REMARK       I    between atoms: N1_6  and  C6_7 
REMARK    2  A    between atoms: C6_7  and  C7_9 
REMARK    3  A    between atoms: C7_9  and  C8_10 
REMARK    4  A    between atoms: C8_10  and  C9_11 
REMARK       I    between atoms: C9_11  and  N2_13 
REMARK    5  A    between atoms: N2_13  and  C10_15 
ROOT
HETATM    1  C9  UNL     1      -4.368  19.175   7.083  1.00  0.00     0.218 C 
HETATM    2  O2  UNL     1      -3.194  19.100   7.493  1.00  0.00    -0.274 OA
HETATM    3  N2  UNL     1      -5.137  18.006   6.970  1.00  0.00    -0.356 N 
ATOM      4  H2  UNL     1      -6.094  18.101   6.631  1.00  0.00     0.162 HD
ENDROOT
BRANCH   1   5
HETATM    5  C8  UNL     1      -4.938  20.479   6.720  1.00  0.00     0.112 C 
BRANCH   5   6
HETATM    6  C7  UNL     1      -6.092  20.370   5.764  1.00  0.00     0.112 C 
BRANCH   6   7
HETATM    7  C6  UNL     1      -7.246  21.139   6.308  1.00  0.00     0.220 C 
HETATM    8  N1  UNL     1      -8.569  20.657   6.273  1.00  0.00    -0.352 N 
HETATM    9  C5  UNL     1      -9.647  21.439   6.812  1.00  0.00     0.126 C 
HETATM   10  C20 UNL     1      -8.849  19.370   5.695  1.00  0.00     0.126 C 
HETATM   11  C4  UNL     1     -10.854  20.508   6.986  1.00  0.00     0.024 C 
HETATM   12  C3  UNL     1     -11.252  20.053   5.613  1.00  0.00    -0.012 C 
HETATM   13  C21 UNL     1     -10.124  19.361   4.914  1.00  0.00     0.024 C 
HETATM   14  O1  UNL     1      -7.029  22.271   6.821  1.00  0.00    -0.273 OA
BRANCH  12  15
HETATM   15  C2  UNL     1     -12.474  19.160   5.641  1.00  0.00     0.000 C 
HETATM   16  C1  UNL     1     -12.122  17.707   5.686  1.00  0.00     0.005 C 
ENDBRANCH  12  15
ENDBRANCH   6   7
ENDBRANCH   5   6
ENDBRANCH   1   5
BRANCH   3  17
HETATM   17  C10 UNL     1      -4.670  16.679   7.301  1.00  0.00     0.092 C 
HETATM   18  C11 UNL     1      -5.706  15.844   8.001  1.00  0.00     0.009 C 
HETATM   19  C12 UNL     1      -4.955  14.652   8.588  1.00  0.00     0.011 C 
HETATM   20  C16 UNL     1      -6.754  15.294   7.086  1.00  0.00     0.011 C 
HETATM   21  C13 UNL     1      -4.232  13.892   7.503  1.00  0.00    -0.013 C 
HETATM   22  C14 UNL     1      -5.314  13.299   6.599  1.00  0.00     0.009 C 
HETATM   23  C19 UNL     1      -3.314  14.763   6.696  1.00  0.00     0.011 C 
HETATM   24  C15 UNL     1      -6.106  14.441   6.024  1.00  0.00    -0.013 C 
HETATM   25  C17 UNL     1      -5.173  15.341   5.239  1.00  0.00     0.011 C 
HETATM   26  C18 UNL     1      -4.111  15.938   6.129  1.00  0.00     0.009 C 
ENDBRANCH   3  17
TORSDOF 5
ENDMDL
MODEL 4
REMARK VINA RESULT: -8.391797319      1.247      2.184
REMARK  5 active torsions:
REMARK  status: ('A' for Active; 'I' for Inactive)
REMARK    1  A    between atoms: C2_2  and  C3_3 
REMARK       I    between atoms: N1_6  and  C6_7 
REMARK    2  A    between atoms: C6_7  and  C7_9 
REMARK    3  A    between atoms: C7_9  and  C8_10 
REMARK    4  A    between atoms: C8_10  and  C9_11 
REMARK       I    between atoms: C9_11  and  N2_13 
REMARK    5  A    between atoms: N2_13  and  C10_15 
ROOT
HETATM    1  C9  UNL     1      -7.617  18.063   6.546  1.00  0.00     0.218 C 
HETATM    2  O2  UNL     1      -7.891  17.952   7.755  1.00  0.00    -0.274 OA
HETATM    3  N2  UNL     1      -6.827  17.085   5.922  1.00  0.00    -0.356 N 
ATOM      4  H2  UNL     1      -6.619  17.205   4.931  1.00  0.00     0.162 HD
ENDROOT
BRANCH   1   5
HETATM    5  C8  UNL     1      -8.117  19.214   5.782  1.00  0.00     0.112 C 
BRANCH   5   6
HETATM    6  C7  UNL     1      -9.035  20.095   6.581  1.00  0.00     0.112 C 
BRANCH   6   7
HETATM    7  C6  UNL     1     -10.333  20.222   5.862  1.00  0.00     0.220 C 
HETATM    8  N1  UNL     1     -11.302  19.199   5.848  1.00  0.00    -0.352 N 
HETATM    9  C5  UNL     1     -12.539  19.373   5.139  1.00  0.00     0.126 C 
HETATM   10  C20 UNL     1     -11.056  17.969   6.552  1.00  0.00     0.126 C 
HETATM   11  C4  UNL     1     -13.512  18.293   5.631  1.00  0.00     0.024 C 
HETATM   12  C3  UNL     1     -12.929  16.969   5.232  1.00  0.00    -0.012 C 
HETATM   13  C21 UNL     1     -11.561  16.775   5.805  1.00  0.00     0.024 C 
HETATM   14  O1  UNL     1     -10.575  21.291   5.236  1.00  0.00    -0.273 OA
BRANCH  12  15
HETATM   15  C2  UNL     1     -13.825  15.813   5.619  1.00  0.00     0.000 C 
HETATM   16  C1  UNL     1     -15.257  16.052   5.261  1.00  0.00     0.005 C 
ENDBRANCH  12  15
ENDBRANCH   6   7
ENDBRANCH   5   6
ENDBRANCH   1   5
BRANCH   3  17
HETATM   17  C10 UNL     1      -6.288  15.918   6.584  1.00  0.00     0.092 C 
HETATM   18  C11 UNL     1      -5.871  14.835   5.629  1.00  0.00     0.009 C 
HETATM   19  C12 UNL     1      -5.682  13.580   6.476  1.00  0.00     0.011 C 
HETATM   20  C16 UNL     1      -4.567  15.104   4.947  1.00  0.00     0.011 C 
HETATM   21  C13 UNL     1      -4.663  13.821   7.563  1.00  0.00    -0.013 C 
HETATM   22  C14 UNL     1      -3.326  14.051   6.857  1.00  0.00     0.009 C 
HETATM   23  C19 UNL     1      -4.997  15.006   8.421  1.00  0.00     0.011 C 
HETATM   24  C15 UNL     1      -3.477  15.264   5.978  1.00  0.00    -0.013 C 
HETATM   25  C17 UNL     1      -3.850  16.452   6.839  1.00  0.00     0.011 C 
HETATM   26  C18 UNL     1      -5.174  16.234   7.529  1.00  0.00     0.009 C 
ENDBRANCH   3  17
TORSDOF 5
ENDMDL
MODEL 5
REMARK VINA RESULT: -8.285173935      2.205      3.584
REMARK  5 active torsions:
REMARK  status: ('A' for Active; 'I' for Inactive)
REMARK    1  A    between atoms: C2_2  and  C3_3 
REMARK       I    between atoms: N1_6  and  C6_7 
REMARK    2  A    between atoms: C6_7  and  C7_9 
REMARK    3  A    between atoms: C7_9  and  C8_10 
REMARK    4  A    between atoms: C8_10  and  C9_11 
REMARK       I    between atoms: C9_11  and  N2_13 
REMARK    5  A    between atoms: N2_13  and  C10_15 
ROOT
HETATM    1  C9  UNL     1      -6.039  16.557   7.851  1.00  0.00     0.218 C 
HETATM    2  O2  UNL     1      -5.774  16.270   9.033  1.00  0.00    -0.274 OA
HETATM    3  N2  UNL     1      -5.382  15.882   6.811  1.00  0.00    -0.356 N 
ATOM      4  H2  UNL     1      -5.620  16.140   5.854  1.00  0.00     0.162 HD
ENDROOT
BRANCH   1   5
HETATM    5  C8  UNL     1      -7.034  17.596   7.552  1.00  0.00     0.112 C 
BRANCH   5   6
HETATM    6  C7  UNL     1      -7.312  17.738   6.082  1.00  0.00     0.112 C 
BRANCH   6   7
HETATM    7  C6  UNL     1      -7.995  19.038   5.841  1.00  0.00     0.220 C 
HETATM    8  N1  UNL     1      -9.396  19.185   5.885  1.00  0.00    -0.352 N 
HETATM    9  C5  UNL     1     -10.005  20.464   5.646  1.00  0.00     0.126 C 
HETATM   10  C20 UNL     1     -10.228  18.047   6.173  1.00  0.00     0.126 C 
HETATM   11  C4  UNL     1     -11.454  20.388   6.144  1.00  0.00     0.024 C 
HETATM   12  C3  UNL     1     -12.155  19.372   5.290  1.00  0.00    -0.012 C 
HETATM   13  C21 UNL     1     -11.482  18.037   5.359  1.00  0.00     0.024 C 
HETATM   14  O1  UNL     1      -7.290  20.053   5.586  1.00  0.00    -0.273 OA
BRANCH  12  15
HETATM   15  C2  UNL     1     -13.619  19.237   5.650  1.00  0.00     0.000 C 
HETATM   16  C1  UNL     1     -14.183  17.906   5.267  1.00  0.00     0.005 C 
ENDBRANCH  12  15
ENDBRANCH   6   7
ENDBRANCH   5   6
ENDBRANCH   1   5
BRANCH   3  17
HETATM   17  C10 UNL     1      -4.391  14.847   6.999  1.00  0.00     0.092 C 
HETATM   18  C11 UNL     1      -4.900  13.471   6.668  1.00  0.00     0.009 C 
HETATM   19  C12 UNL     1      -3.885  12.497   7.258  1.00  0.00     0.011 C 
HETATM   20  C16 UNL     1      -4.973  13.194   5.200  1.00  0.00     0.011 C 
HETATM   21  C13 UNL     1      -2.509  12.757   6.695  1.00  0.00    -0.013 C 
HETATM   22  C14 UNL     1      -2.584  12.429   5.203  1.00  0.00     0.009 C 
HETATM   23  C19 UNL     1      -2.064  14.178   6.883  1.00  0.00     0.011 C 
HETATM   24  C15 UNL     1      -3.604  13.347   4.585  1.00  0.00    -0.013 C 
HETATM   25  C17 UNL     1      -3.174  14.782   4.806  1.00  0.00     0.011 C 
HETATM   26  C18 UNL     1      -3.110  15.113   6.277  1.00  0.00     0.009 C 
ENDBRANCH   3  17
TORSDOF 5
ENDMDL
