MODEL 1
REMARK VINA RESULT: -7.357820216      0.000      0.000
REMARK  8 active torsions:
REMARK  status: ('A' for Active; 'I' for Inactive)
REMARK    1  A    between atoms: N1_1  and  N2_4 
REMARK    2  A    between atoms: C2_9  and  N4_10 
REMARK    3  A    between atoms: N4_10  and  N5_12 
REMARK    4  A    between atoms: C8_22  and  N7_23 
REMARK    5  A    between atoms: C10_25  and  C11_26 
REMARK    6  A    between atoms: C11_26  and  C12_27 
REMARK    7  A    between atoms: C12_27  and  N8_28 
REMARK    8  A    between atoms: C12_27  and  C13_32 
ROOT
HETATM    1  N2  UNL     1     -32.581   6.663 -23.824  1.00  0.00    -0.290 N 
ATOM      2  H2  UNL     1     -33.090   6.236 -23.050  1.00  0.00     0.188 HD
HETATM    3  C1  UNL     1     -32.956   7.845 -24.086  1.00  0.00     0.167 A 
HETATM    4  N3  UNL     1     -33.966   8.403 -23.332  1.00  0.00    -0.171 N 
ATOM      5  H3  UNL     1     -34.376   7.840 -22.587  1.00  0.00     0.186 HD
HETATM    6  C2  UNL     1     -34.437   9.636 -23.521  1.00  0.00     0.699 A 
HETATM    7  N6  UNL     1     -33.886  10.364 -24.507  1.00  0.00    -0.181 N 
ATOM      8  H6  UNL     1     -34.227  11.310 -24.673  1.00  0.00     0.185 HD
HETATM    9  C7  UNL     1     -32.899   9.883 -25.279  1.00  0.00     0.129 A 
HETATM   10  S1  UNL     1     -32.178  10.874 -26.591  1.00  0.00    -0.030 SA
HETATM   11  C8  UNL     1     -32.396   8.584 -25.087  1.00  0.00     0.138 A 
ENDROOT
BRANCH  11  12
HETATM   12  N7  UNL     1     -31.345   8.128 -25.937  1.00  0.00    -0.245 N 
HETATM   13  C9  UNL     1     -31.391   7.467 -27.093  1.00  0.00     0.145 A 
HETATM   14  C10 UNL     1     -30.096   7.279 -27.531  1.00  0.00     0.047 A 
HETATM   15  N10 UNL     1     -29.296   7.852 -26.594  1.00  0.00    -0.289 N 
HETATM   16  N11 UNL     1     -30.067   8.344 -25.667  1.00  0.00    -0.236 N 
ATOM     17  H10 UNL     1     -28.277   7.890 -26.615  1.00  0.00     0.188 HD
ATOM     18  H11 UNL     1     -29.729   8.833 -24.838  1.00  0.00     0.209 HD
BRANCH  14  19
HETATM   19  C11 UNL     1     -29.674   6.589 -28.747  1.00  0.00     0.102 C 
BRANCH  19  20
HETATM   20  C12 UNL     1     -29.710   5.096 -28.641  1.00  0.00     0.277 C 
BRANCH  20  21
HETATM   21  N8  UNL     1     -30.912   4.589 -29.308  1.00  0.00    -0.067 N 
ATOM     22  H83 UNL     1     -31.523   4.080 -28.669  1.00  0.00     0.275 HD
ATOM     23  H82 UNL     1     -31.558   5.337 -29.561  1.00  0.00     0.275 HD
ATOM     24  H81 UNL     1     -30.641   4.025 -30.113  1.00  0.00     0.275 HD
ENDBRANCH  20  21
BRANCH  20  25
HETATM   25  C13 UNL     1     -29.639   4.555 -27.286  1.00  0.00     0.262 C 
HETATM   26  N9  UNL     1     -30.803   3.899 -26.749  1.00  0.00    -0.060 NA
HETATM   27  O2  UNL     1     -28.646   4.602 -26.519  1.00  0.00    -0.275 OA
ENDBRANCH  20  25
ENDBRANCH  19  20
ENDBRANCH  14  19
ENDBRANCH  11  12
BRANCH   1  28
HETATM   28  N1  UNL     1     -31.644   5.858 -24.365  1.00  0.00    -0.344 N 
ATOM     29  H12 UNL     1     -30.753   5.912 -23.869  1.00  0.00     0.176 HD
ATOM     30  H11 UNL     1     -31.655   5.218 -25.159  1.00  0.00     0.176 HD
ENDBRANCH   1  28
BRANCH   6  31
HETATM   31  N4  UNL     1     -35.365  10.068 -22.783  1.00  0.00    -0.134 N 
ATOM     32  H4  UNL     1     -35.739  10.976 -23.062  1.00  0.00     0.205 HD
BRANCH  31  33
HETATM   33  N5  UNL     1     -35.955   9.533 -21.678  1.00  0.00    -0.310 N 
HETATM   34  C3  UNL     1     -37.044   8.625 -21.811  1.00  0.00     0.169 C 
HETATM   35  C4  UNL     1     -38.115   9.047 -20.826  1.00  0.00     0.189 C 
HETATM   36  O1  UNL     1     -37.610   9.307 -19.577  1.00  0.00    -0.388 OA
HETATM   37  C5  UNL     1     -36.685  10.360 -19.586  1.00  0.00     0.189 C 
HETATM   38  C6  UNL     1     -35.489   9.859 -20.370  1.00  0.00     0.169 C 
ENDBRANCH  31  33
ENDBRANCH   6  31
TORSDOF 8
ENDMDL
MODEL 2
REMARK VINA RESULT: -7.095671981      1.684      1.965
REMARK  8 active torsions:
REMARK  status: ('A' for Active; 'I' for Inactive)
REMARK    1  A    between atoms: N1_1  and  N2_4 
REMARK    2  A    between atoms: C2_9  and  N4_10 
REMARK    3  A    between atoms: N4_10  and  N5_12 
REMARK    4  A    between atoms: C8_22  and  N7_23 
REMARK    5  A    between atoms: C10_25  and  C11_26 
REMARK    6  A    between atoms: C11_26  and  C12_27 
REMARK    7  A    between atoms: C12_27  and  N8_28 
REMARK    8  A    between atoms: C12_27  and  C13_32 
ROOT
HETATM    1  N2  UNL     1     -32.260   6.097 -23.745  1.00  0.00    -0.290 N 
ATOM      2  H2  UNL     1     -32.716   5.808 -22.880  1.00  0.00     0.188 HD
HETATM    3  C1  UNL     1     -32.539   7.284 -24.093  1.00  0.00     0.167 A 
HETATM    4  N3  UNL     1     -33.390   8.024 -23.302  1.00  0.00    -0.171 N 
ATOM      5  H3  UNL     1     -33.766   7.587 -22.461  1.00  0.00     0.186 HD
HETATM    6  C2  UNL     1     -33.750   9.280 -23.573  1.00  0.00     0.699 A 
HETATM    7  N6  UNL     1     -33.245   9.841 -24.685  1.00  0.00    -0.181 N 
ATOM      8  H6  UNL     1     -33.503  10.800 -24.915  1.00  0.00     0.185 HD
HETATM    9  C7  UNL     1     -32.410   9.177 -25.500  1.00  0.00     0.129 A 
HETATM   10  S1  UNL     1     -31.749   9.948 -26.981  1.00  0.00    -0.030 SA
HETATM   11  C8  UNL     1     -32.026   7.854 -25.222  1.00  0.00     0.138 A 
ENDROOT
BRANCH  11  12
HETATM   12  N7  UNL     1     -31.135   7.200 -26.124  1.00  0.00    -0.245 N 
HETATM   13  C9  UNL     1     -31.383   6.434 -27.185  1.00  0.00     0.145 A 
HETATM   14  C10 UNL     1     -30.175   6.060 -27.737  1.00  0.00     0.047 A 
HETATM   15  N10 UNL     1     -29.216   6.634 -26.965  1.00  0.00    -0.289 N 
HETATM   16  N11 UNL     1     -29.818   7.300 -26.021  1.00  0.00    -0.236 N 
ATOM     17  H10 UNL     1     -28.208   6.557 -27.100  1.00  0.00     0.188 HD
ATOM     18  H11 UNL     1     -29.337   7.830 -25.295  1.00  0.00     0.209 HD
BRANCH  14  19
HETATM   19  C11 UNL     1     -29.972   5.207 -28.905  1.00  0.00     0.102 C 
BRANCH  19  20
HETATM   20  C12 UNL     1     -29.691   5.964 -30.167  1.00  0.00     0.277 C 
BRANCH  20  21
HETATM   21  N8  UNL     1     -30.939   6.148 -30.912  1.00  0.00    -0.067 N 
ATOM     22  H83 UNL     1     -30.791   6.142 -31.921  1.00  0.00     0.275 HD
ATOM     23  H82 UNL     1     -31.550   5.333 -30.850  1.00  0.00     0.275 HD
ATOM     24  H81 UNL     1     -31.401   7.000 -30.595  1.00  0.00     0.275 HD
ENDBRANCH  20  21
BRANCH  20  25
HETATM   25  C13 UNL     1     -28.680   5.380 -31.044  1.00  0.00     0.262 C 
HETATM   26  N9  UNL     1     -27.303   5.750 -30.841  1.00  0.00    -0.060 NA
HETATM   27  O2  UNL     1     -28.887   4.570 -31.980  1.00  0.00    -0.275 OA
ENDBRANCH  20  25
ENDBRANCH  19  20
ENDBRANCH  14  19
ENDBRANCH  11  12
BRANCH   1  28
HETATM   28  N1  UNL     1     -31.481   5.141 -24.292  1.00  0.00    -0.344 N 
ATOM     29  H12 UNL     1     -31.831   4.826 -25.197  1.00  0.00     0.176 HD
ATOM     30  H11 UNL     1     -30.625   4.683 -23.979  1.00  0.00     0.176 HD
ENDBRANCH   1  28
BRANCH   6  31
HETATM   31  N4  UNL     1     -34.535   9.885 -22.792  1.00  0.00    -0.134 N 
ATOM     32  H4  UNL     1     -34.651  10.878 -22.996  1.00  0.00     0.205 HD
BRANCH  31  33
HETATM   33  N5  UNL     1     -35.256   9.442 -21.725  1.00  0.00    -0.310 N 
HETATM   34  C3  UNL     1     -36.507   8.788 -21.921  1.00  0.00     0.169 C 
HETATM   35  C4  UNL     1     -37.494   9.387 -20.941  1.00  0.00     0.189 C 
HETATM   36  O1  UNL     1     -36.983   9.486 -19.671  1.00  0.00    -0.388 OA
HETATM   37  C5  UNL     1     -35.859  10.320 -19.614  1.00  0.00     0.189 C 
HETATM   38  C6  UNL     1     -34.772   9.611 -20.394  1.00  0.00     0.169 C 
ENDBRANCH  31  33
ENDBRANCH   6  31
TORSDOF 8
ENDMDL
MODEL 3
REMARK VINA RESULT: -7.021685790      1.605      2.233
REMARK  8 active torsions:
REMARK  status: ('A' for Active; 'I' for Inactive)
REMARK    1  A    between atoms: N1_1  and  N2_4 
REMARK    2  A    between atoms: C2_9  and  N4_10 
REMARK    3  A    between atoms: N4_10  and  N5_12 
REMARK    4  A    between atoms: C8_22  and  N7_23 
REMARK    5  A    between atoms: C10_25  and  C11_26 
REMARK    6  A    between atoms: C11_26  and  C12_27 
REMARK    7  A    between atoms: C12_27  and  N8_28 
REMARK    8  A    between atoms: C12_27  and  C13_32 
ROOT
HETATM    1  N2  UNL     1     -31.452   5.738 -24.596  1.00  0.00    -0.290 N 
ATOM      2  H2  UNL     1     -31.618   5.159 -23.773  1.00  0.00     0.188 HD
HETATM    3  C1  UNL     1     -31.930   6.908 -24.498  1.00  0.00     0.167 A 
HETATM    4  N3  UNL     1     -32.594   7.258 -23.343  1.00  0.00    -0.171 N 
ATOM      5  H3  UNL     1     -32.676   6.559 -22.605  1.00  0.00     0.186 HD
HETATM    6  C2  UNL     1     -33.134   8.459 -23.134  1.00  0.00     0.699 A 
HETATM    7  N6  UNL     1     -33.017   9.369 -24.116  1.00  0.00    -0.181 N 
ATOM      8  H6  UNL     1     -33.421  10.295 -23.982  1.00  0.00     0.185 HD
HETATM    9  C7  UNL     1     -32.383   9.095 -25.267  1.00  0.00     0.129 A 
HETATM   10  S1  UNL     1     -32.239  10.327 -26.565  1.00  0.00    -0.030 SA
HETATM   11  C8  UNL     1     -31.810   7.832 -25.495  1.00  0.00     0.138 A 
ENDROOT
BRANCH  11  12
HETATM   12  N7  UNL     1     -31.147   7.599 -26.737  1.00  0.00    -0.245 N 
HETATM   13  C9  UNL     1     -31.636   7.276 -27.933  1.00  0.00     0.145 A 
HETATM   14  C10 UNL     1     -30.581   7.184 -28.818  1.00  0.00     0.047 A 
HETATM   15  N10 UNL     1     -29.463   7.465 -28.099  1.00  0.00    -0.289 N 
HETATM   16  N11 UNL     1     -29.834   7.704 -26.873  1.00  0.00    -0.236 N 
ATOM     17  H10 UNL     1     -28.508   7.484 -28.454  1.00  0.00     0.188 HD
ATOM     18  H11 UNL     1     -29.194   7.943 -26.115  1.00  0.00     0.209 HD
BRANCH  14  19
HETATM   19  C11 UNL     1     -30.654   6.840 -30.235  1.00  0.00     0.102 C 
BRANCH  19  20
HETATM   20  C12 UNL     1     -30.160   5.461 -30.550  1.00  0.00     0.277 C 
BRANCH  20  21
HETATM   21  N8  UNL     1     -30.399   4.584 -29.401  1.00  0.00    -0.067 N 
ATOM     22  H83 UNL     1     -29.808   4.823 -28.604  1.00  0.00     0.275 HD
ATOM     23  H82 UNL     1     -31.306   4.756 -28.966  1.00  0.00     0.275 HD
ATOM     24  H81 UNL     1     -30.287   3.612 -29.688  1.00  0.00     0.275 HD
ENDBRANCH  20  21
BRANCH  20  25
HETATM   25  C13 UNL     1     -28.760   5.367 -30.954  1.00  0.00     0.262 C 
HETATM   26  N9  UNL     1     -28.413   4.449 -32.009  1.00  0.00    -0.060 NA
HETATM   27  O2  UNL     1     -27.801   6.016 -30.470  1.00  0.00    -0.275 OA
ENDBRANCH  20  25
ENDBRANCH  19  20
ENDBRANCH  14  19
ENDBRANCH  11  12
BRANCH   1  28
HETATM   28  N1  UNL     1     -30.767   5.106 -25.572  1.00  0.00    -0.344 N 
ATOM     29  H12 UNL     1     -29.977   5.656 -25.910  1.00  0.00     0.176 HD
ATOM     30  H11 UNL     1     -30.886   4.201 -26.027  1.00  0.00     0.176 HD
ENDBRANCH   1  28
BRANCH   6  31
HETATM   31  N4  UNL     1     -33.725   8.696 -22.044  1.00  0.00    -0.134 N 
ATOM     32  H4  UNL     1     -33.181   8.472 -21.211  1.00  0.00     0.205 HD
BRANCH  31  33
HETATM   33  N5  UNL     1     -34.964   9.200 -21.788  1.00  0.00    -0.310 N 
HETATM   34  C3  UNL     1     -35.191  10.005 -20.634  1.00  0.00     0.169 C 
HETATM   35  C4  UNL     1     -36.460   9.510 -19.973  1.00  0.00     0.189 C 
HETATM   36  O1  UNL     1     -37.483   9.321 -20.868  1.00  0.00    -0.388 OA
HETATM   37  C5  UNL     1     -37.173   8.355 -21.834  1.00  0.00     0.189 C 
HETATM   38  C6  UNL     1     -36.055   8.944 -22.670  1.00  0.00     0.169 C 
ENDBRANCH  31  33
ENDBRANCH   6  31
TORSDOF 8
ENDMDL
MODEL 4
REMARK VINA RESULT: -6.960766341      3.543      9.698
REMARK  8 active torsions:
REMARK  status: ('A' for Active; 'I' for Inactive)
REMARK    1  A    between atoms: N1_1  and  N2_4 
REMARK    2  A    between atoms: C2_9  and  N4_10 
REMARK    3  A    between atoms: N4_10  and  N5_12 
REMARK    4  A    between atoms: C8_22  and  N7_23 
REMARK    5  A    between atoms: C10_25  and  C11_26 
REMARK    6  A    between atoms: C11_26  and  C12_27 
REMARK    7  A    between atoms: C12_27  and  N8_28 
REMARK    8  A    between atoms: C12_27  and  C13_32 
ROOT
HETATM    1  N2  UNL     1     -28.852   5.199 -28.025  1.00  0.00    -0.290 N 
ATOM      2  H2  UNL     1     -28.279   4.368 -28.172  1.00  0.00     0.188 HD
HETATM    3  C1  UNL     1     -29.438   5.603 -29.074  1.00  0.00     0.167 A 
HETATM    4  N3  UNL     1     -29.248   4.909 -30.249  1.00  0.00    -0.171 N 
ATOM      5  H3  UNL     1     -28.639   4.091 -30.231  1.00  0.00     0.186 HD
HETATM    6  C2  UNL     1     -29.814   5.245 -31.409  1.00  0.00     0.699 A 
HETATM    7  N6  UNL     1     -30.614   6.325 -31.416  1.00  0.00    -0.181 N 
ATOM      8  H6  UNL     1     -31.060   6.604 -32.289  1.00  0.00     0.185 HD
HETATM    9  C7  UNL     1     -30.843   7.047 -30.307  1.00  0.00     0.129 A 
HETATM   10  S1  UNL     1     -31.915   8.486 -30.341  1.00  0.00    -0.030 SA
HETATM   11  C8  UNL     1     -30.251   6.700 -29.081  1.00  0.00     0.138 A 
ENDROOT
BRANCH  11  12
HETATM   12  N7  UNL     1     -30.533   7.503 -27.937  1.00  0.00    -0.245 N 
HETATM   13  C9  UNL     1     -31.516   7.421 -27.042  1.00  0.00     0.145 A 
HETATM   14  C10 UNL     1     -31.333   8.423 -26.110  1.00  0.00     0.047 A 
HETATM   15  N10 UNL     1     -30.212   9.089 -26.491  1.00  0.00    -0.289 N 
HETATM   16  N11 UNL     1     -29.765   8.519 -27.574  1.00  0.00    -0.236 N 
ATOM     17  H10 UNL     1     -29.796   9.889 -26.015  1.00  0.00     0.188 HD
ATOM     18  H11 UNL     1     -28.931   8.818 -28.078  1.00  0.00     0.209 HD
BRANCH  14  19
HETATM   19  C11 UNL     1     -32.183   8.714 -24.959  1.00  0.00     0.102 C 
BRANCH  19  20
HETATM   20  C12 UNL     1     -32.854   7.507 -24.379  1.00  0.00     0.277 C 
BRANCH  20  21
HETATM   21  N8  UNL     1     -33.948   7.932 -23.502  1.00  0.00    -0.067 N 
ATOM     22  H83 UNL     1     -34.047   8.947 -23.473  1.00  0.00     0.275 HD
ATOM     23  H82 UNL     1     -34.864   7.708 -23.890  1.00  0.00     0.275 HD
ATOM     24  H81 UNL     1     -33.814   7.531 -22.574  1.00  0.00     0.275 HD
ENDBRANCH  20  21
BRANCH  20  25
HETATM   25  C13 UNL     1     -31.983   6.582 -23.660  1.00  0.00     0.262 C 
HETATM   26  N9  UNL     1     -31.988   5.195 -24.048  1.00  0.00    -0.060 NA
HETATM   27  O2  UNL     1     -31.209   6.872 -22.715  1.00  0.00    -0.275 OA
ENDBRANCH  20  25
ENDBRANCH  19  20
ENDBRANCH  14  19
ENDBRANCH  11  12
BRANCH   1  28
HETATM   28  N1  UNL     1     -28.835   5.650 -26.754  1.00  0.00    -0.344 N 
ATOM     29  H12 UNL     1     -28.928   6.664 -26.701  1.00  0.00     0.176 HD
ATOM     30  H11 UNL     1     -28.749   5.179 -25.853  1.00  0.00     0.176 HD
ENDBRANCH   1  28
BRANCH   6  31
HETATM   31  N4  UNL     1     -29.585   4.552 -32.438  1.00  0.00    -0.134 N 
ATOM     32  H4  UNL     1     -30.384   4.010 -32.769  1.00  0.00     0.205 HD
BRANCH  31  33
HETATM   33  N5  UNL     1     -28.457   4.403 -33.185  1.00  0.00    -0.310 N 
HETATM   34  C3  UNL     1     -27.181   4.317 -32.555  1.00  0.00     0.169 C 
HETATM   35  C4  UNL     1     -26.237   5.230 -33.308  1.00  0.00     0.189 C 
HETATM   36  O1  UNL     1     -26.322   5.072 -34.669  1.00  0.00    -0.388 OA
HETATM   37  C5  UNL     1     -27.598   5.378 -35.161  1.00  0.00     0.189 C 
HETATM   38  C6  UNL     1     -28.525   4.317 -34.607  1.00  0.00     0.169 C 
ENDBRANCH  31  33
ENDBRANCH   6  31
TORSDOF 8
ENDMDL
MODEL 5
REMARK VINA RESULT: -6.956208153      1.715      2.182
REMARK  8 active torsions:
REMARK  status: ('A' for Active; 'I' for Inactive)
REMARK    1  A    between atoms: N1_1  and  N2_4 
REMARK    2  A    between atoms: C2_9  and  N4_10 
REMARK    3  A    between atoms: N4_10  and  N5_12 
REMARK    4  A    between atoms: C8_22  and  N7_23 
REMARK    5  A    between atoms: C10_25  and  C11_26 
REMARK    6  A    between atoms: C11_26  and  C12_27 
REMARK    7  A    between atoms: C12_27  and  N8_28 
REMARK    8  A    between atoms: C12_27  and  C13_32 
ROOT
HETATM    1  N2  UNL     1     -31.381   5.704 -24.601  1.00  0.00    -0.290 N 
ATOM      2  H2  UNL     1     -31.526   5.121 -23.777  1.00  0.00     0.188 HD
HETATM    3  C1  UNL     1     -31.864   6.871 -24.488  1.00  0.00     0.167 A 
HETATM    4  N3  UNL     1     -32.504   7.213 -23.317  1.00  0.00    -0.171 N 
ATOM      5  H3  UNL     1     -32.565   6.510 -22.580  1.00  0.00     0.186 HD
HETATM    6  C2  UNL     1     -33.047   8.410 -23.091  1.00  0.00     0.699 A 
HETATM    7  N6  UNL     1     -32.956   9.324 -24.071  1.00  0.00    -0.181 N 
ATOM      8  H6  UNL     1     -33.362  10.248 -23.925  1.00  0.00     0.185 HD
HETATM    9  C7  UNL     1     -32.346   9.058 -25.237  1.00  0.00     0.129 A 
HETATM   10  S1  UNL     1     -32.238  10.296 -26.533  1.00  0.00    -0.030 SA
HETATM   11  C8  UNL     1     -31.771   7.799 -25.484  1.00  0.00     0.138 A 
ENDROOT
BRANCH  11  12
HETATM   12  N7  UNL     1     -31.135   7.576 -26.740  1.00  0.00    -0.245 N 
HETATM   13  C9  UNL     1     -31.648   7.245 -27.925  1.00  0.00     0.145 A 
HETATM   14  C10 UNL     1     -30.613   7.168 -28.834  1.00  0.00     0.047 A 
HETATM   15  N10 UNL     1     -29.483   7.464 -28.142  1.00  0.00    -0.289 N 
HETATM   16  N11 UNL     1     -29.827   7.700 -26.908  1.00  0.00    -0.236 N 
ATOM     17  H10 UNL     1     -28.536   7.497 -28.521  1.00  0.00     0.188 HD
ATOM     18  H11 UNL     1     -29.174   7.948 -26.166  1.00  0.00     0.209 HD
BRANCH  14  19
HETATM   19  C11 UNL     1     -30.715   6.822 -30.249  1.00  0.00     0.102 C 
BRANCH  19  20
HETATM   20  C12 UNL     1     -30.200   5.454 -30.578  1.00  0.00     0.277 C 
BRANCH  20  21
HETATM   21  N8  UNL     1     -30.423   4.563 -29.436  1.00  0.00    -0.067 N 
ATOM     22  H83 UNL     1     -30.396   5.061 -28.547  1.00  0.00     0.275 HD
ATOM     23  H82 UNL     1     -31.386   4.232 -29.388  1.00  0.00     0.275 HD
ATOM     24  H81 UNL     1     -29.752   3.796 -29.469  1.00  0.00     0.275 HD
ENDBRANCH  20  21
BRANCH  20  25
HETATM   25  C13 UNL     1     -28.799   5.386 -30.985  1.00  0.00     0.262 C 
HETATM   26  N9  UNL     1     -28.445   4.511 -32.073  1.00  0.00    -0.060 NA
HETATM   27  O2  UNL     1     -27.845   6.023 -30.475  1.00  0.00    -0.275 OA
ENDBRANCH  20  25
ENDBRANCH  19  20
ENDBRANCH  14  19
ENDBRANCH  11  12
BRANCH   1  28
HETATM   28  N1  UNL     1     -30.715   5.080 -25.595  1.00  0.00    -0.344 N 
ATOM     29  H12 UNL     1     -29.769   4.814 -25.320  1.00  0.00     0.176 HD
ATOM     30  H11 UNL     1     -30.972   4.829 -26.549  1.00  0.00     0.176 HD
ENDBRANCH   1  28
BRANCH   6  31
HETATM   31  N4  UNL     1     -33.615   8.639 -21.987  1.00  0.00    -0.134 N 
ATOM     32  H4  UNL     1     -33.023   8.491 -21.169  1.00  0.00     0.205 HD
BRANCH  31  33
HETATM   33  N5  UNL     1     -34.880   9.049 -21.699  1.00  0.00    -0.310 N 
HETATM   34  C3  UNL     1     -35.957   8.738 -22.580  1.00  0.00     0.169 C 
HETATM   35  C4  UNL     1     -36.770  10.002 -22.772  1.00  0.00     0.189 C 
HETATM   36  O1  UNL     1     -37.038  10.642 -21.588  1.00  0.00    -0.388 OA
HETATM   37  C5  UNL     1     -35.872  11.054 -20.930  1.00  0.00     0.189 C 
HETATM   38  C6  UNL     1     -35.159   9.785 -20.510  1.00  0.00     0.169 C 
ENDBRANCH  31  33
ENDBRANCH   6  31
TORSDOF 8
ENDMDL
