MODEL 1
REMARK VINA RESULT: -7.992510588      0.000      0.000
REMARK  7 active torsions:
REMARK  status: ('A' for Active; 'I' for Inactive)
REMARK    1  A    between atoms: O1_2  and  C2_3 
REMARK    2  A    between atoms: C2_3  and  O2_4 
REMARK    3  A    between atoms: C5_7  and  O3_8 
REMARK    4  A    between atoms: O3_8  and  C6_9 
REMARK    5  A    between atoms: C15_20  and  O5_21 
REMARK    6  A    between atoms: C17_24  and  O6_26 
REMARK    7  A    between atoms: C20_29  and  O7_30 
ROOT
HETATM    1  C2  UNL     1      64.212  52.158  11.597  1.00  0.00     0.171 C 
HETATM    2  C4  UNL     1      63.391  51.006  11.125  1.00  0.00     0.102 C 
HETATM    3  C5  UNL     1      64.269  49.769  11.091  1.00  0.00     0.145 C 
HETATM    4  C8  UNL     1      65.334  50.030  10.014  1.00  0.00     0.065 C 
HETATM    5  C9  UNL     1      66.003  48.796   9.526  1.00  0.00     0.075 C 
HETATM    6 BR1  UNL     1      65.261  48.470   7.739  1.00  0.00    -0.090 Br
HETATM    7  C10 UNL     1      67.482  48.711   9.595  1.00  0.00     0.042 C 
HETATM    8  C11 UNL     1      68.222  49.943   9.933  1.00  0.00     0.019 C 
HETATM    9  C12 UNL     1      69.553  50.167   9.414  1.00  0.00    -0.017 C 
HETATM   10  C13 UNL     1      70.222  49.917   8.279  1.00  0.00    -0.059 C 
HETATM   11  C14 UNL     1      71.643  50.352   8.188  1.00  0.00     0.046 C 
HETATM   12  C15 UNL     1      69.721  49.254   7.087  1.00  0.00     0.149 C 
HETATM   13  C16 UNL     1      68.301  48.750   7.214  1.00  0.00     0.074 C 
HETATM   14  C17 UNL     1      68.117  47.934   8.425  1.00  0.00     0.062 C 
HETATM   15  C18 UNL     1      67.448  46.604   8.222  1.00  0.00     0.046 C 
HETATM   16  C19 UNL     1      67.398  51.225   9.694  1.00  0.00     0.048 C 
HETATM   17  C20 UNL     1      66.228  51.068  10.609  1.00  0.00     0.074 C 
HETATM   18  C21 UNL     1      65.444  52.359  10.722  1.00  0.00     0.079 C 
HETATM   19  C22 UNL     1      66.290  53.425  11.369  1.00  0.00     0.019 C 
ENDROOT
BRANCH   1  20
HETATM   20  O1  UNL     1      64.635  51.915  12.899  1.00  0.00    -0.359 OA
HETATM   21  C1  UNL     1      63.673  52.089  13.871  1.00  0.00     0.205 C 
ENDBRANCH   1  20
BRANCH   1  22
HETATM   22  O2  UNL     1      63.456  53.299  11.620  1.00  0.00    -0.359 OA
HETATM   23  C3  UNL     1      62.280  53.272  10.923  1.00  0.00     0.205 C 
ENDBRANCH   1  22
BRANCH   3  24
HETATM   24  O3  UNL     1      63.535  48.606  10.877  1.00  0.00    -0.316 OA
BRANCH  24  25
HETATM   25  C6  UNL     1      63.178  47.789  11.955  1.00  0.00     0.255 C 
HETATM   26  C7  UNL     1      64.134  46.891  12.640  1.00  0.00     0.126 C 
HETATM   27  O4  UNL     1      61.992  47.825  12.354  1.00  0.00    -0.266 OA
ENDBRANCH  24  25
ENDBRANCH   3  24
BRANCH  17  28
HETATM   28  O7  UNL     1      66.584  50.651  11.890  1.00  0.00    -0.389 OA
ATOM     29  H7  UNL     1      67.132  51.323  12.278  1.00  0.00     0.210 HD
ENDBRANCH  17  28
BRANCH  14  30
HETATM   30  O6  UNL     1      69.418  47.608   8.907  1.00  0.00    -0.390 OA
ATOM     31  H6  UNL     1      69.946  47.576   8.118  1.00  0.00     0.210 HD
ENDBRANCH  14  30
BRANCH  12  32
HETATM   32  O5  UNL     1      70.564  48.152   6.815  1.00  0.00    -0.391 OA
ATOM     33  H5  UNL     1      70.173  47.380   7.210  1.00  0.00     0.210 HD
ENDBRANCH  12  32
TORSDOF 7
ENDMDL
MODEL 2
REMARK VINA RESULT: -7.778785929      2.711      5.583
REMARK  7 active torsions:
REMARK  status: ('A' for Active; 'I' for Inactive)
REMARK    1  A    between atoms: O1_2  and  C2_3 
REMARK    2  A    between atoms: C2_3  and  O2_4 
REMARK    3  A    between atoms: C5_7  and  O3_8 
REMARK    4  A    between atoms: O3_8  and  C6_9 
REMARK    5  A    between atoms: C15_20  and  O5_21 
REMARK    6  A    between atoms: C17_24  and  O6_26 
REMARK    7  A    between atoms: C20_29  and  O7_30 
ROOT
HETATM    1  C2  UNL     1      63.577  51.710  12.496  1.00  0.00     0.171 C 
HETATM    2  C4  UNL     1      65.009  51.665  12.079  1.00  0.00     0.102 C 
HETATM    3  C5  UNL     1      65.100  50.958  10.740  1.00  0.00     0.145 C 
HETATM    4  C8  UNL     1      64.662  49.507  10.992  1.00  0.00     0.065 C 
HETATM    5  C9  UNL     1      65.094  48.562   9.930  1.00  0.00     0.075 C 
HETATM    6 BR1  UNL     1      66.568  47.530  10.715  1.00  0.00    -0.090 Br
HETATM    7  C10 UNL     1      64.068  47.734   9.249  1.00  0.00     0.042 C 
HETATM    8  C11 UNL     1      62.706  47.731   9.819  1.00  0.00     0.019 C 
HETATM    9  C12 UNL     1      61.862  46.562   9.699  1.00  0.00    -0.017 C 
HETATM   10  C13 UNL     1      62.016  45.231   9.714  1.00  0.00    -0.059 C 
HETATM   11  C14 UNL     1      60.807  44.379   9.548  1.00  0.00     0.046 C 
HETATM   12  C15 UNL     1      63.255  44.488   9.876  1.00  0.00     0.149 C 
HETATM   13  C16 UNL     1      64.487  45.358   9.970  1.00  0.00     0.074 C 
HETATM   14  C17 UNL     1      64.559  46.325   8.863  1.00  0.00     0.062 C 
HETATM   15  C18 UNL     1      65.868  46.382   8.128  1.00  0.00     0.046 C 
HETATM   16  C19 UNL     1      62.668  48.194  11.290  1.00  0.00     0.048 C 
HETATM   17  C20 UNL     1      63.191  49.591  11.233  1.00  0.00     0.074 C 
HETATM   18  C21 UNL     1      62.969  50.312  12.547  1.00  0.00     0.079 C 
HETATM   19  C22 UNL     1      61.493  50.471  12.809  1.00  0.00     0.019 C 
ENDROOT
BRANCH   1  20
HETATM   20  O1  UNL     1      62.858  52.468  11.578  1.00  0.00    -0.359 OA
HETATM   21  C1  UNL     1      63.150  53.814  11.572  1.00  0.00     0.205 C 
ENDBRANCH   1  20
BRANCH   1  22
HETATM   22  O2  UNL     1      63.458  52.323  13.714  1.00  0.00    -0.359 OA
HETATM   23  C3  UNL     1      63.981  51.661  14.790  1.00  0.00     0.205 C 
ENDBRANCH   1  22
BRANCH   3  24
HETATM   24  O3  UNL     1      66.366  51.066  10.172  1.00  0.00    -0.316 OA
BRANCH  24  25
HETATM   25  C6  UNL     1      67.165  52.184  10.437  1.00  0.00     0.255 C 
HETATM   26  C7  UNL     1      68.483  52.096  11.105  1.00  0.00     0.126 C 
HETATM   27  O4  UNL     1      66.739  53.309  10.089  1.00  0.00    -0.266 OA
ENDBRANCH  24  25
ENDBRANCH   3  24
BRANCH  17  28
HETATM   28  O7  UNL     1      62.626  50.349  10.210  1.00  0.00    -0.389 OA
ATOM     29  H7  UNL     1      63.156  51.128  10.091  1.00  0.00     0.210 HD
ENDBRANCH  17  28
BRANCH  14  30
HETATM   30  O6  UNL     1      63.617  45.901   7.880  1.00  0.00    -0.390 OA
ATOM     31  H6  UNL     1      64.159  45.705   7.124  1.00  0.00     0.210 HD
ENDBRANCH  14  30
BRANCH  12  32
HETATM   32  O5  UNL     1      63.397  43.630   8.762  1.00  0.00    -0.391 OA
ATOM     33  H5  UNL     1      64.283  43.724   8.431  1.00  0.00     0.210 HD
ENDBRANCH  12  32
TORSDOF 7
ENDMDL
MODEL 3
REMARK VINA RESULT: -7.713772742      3.066      6.247
REMARK  7 active torsions:
REMARK  status: ('A' for Active; 'I' for Inactive)
REMARK    1  A    between atoms: O1_2  and  C2_3 
REMARK    2  A    between atoms: C2_3  and  O2_4 
REMARK    3  A    between atoms: C5_7  and  O3_8 
REMARK    4  A    between atoms: O3_8  and  C6_9 
REMARK    5  A    between atoms: C15_20  and  O5_21 
REMARK    6  A    between atoms: C17_24  and  O6_26 
REMARK    7  A    between atoms: C20_29  and  O7_30 
ROOT
HETATM    1  C2  UNL     1      64.359  45.198   9.829  1.00  0.00     0.171 C 
HETATM    2  C4  UNL     1      63.152  45.272  10.702  1.00  0.00     0.102 C 
HETATM    3  C5  UNL     1      62.544  46.656  10.571  1.00  0.00     0.145 C 
HETATM    4  C8  UNL     1      63.578  47.633  11.152  1.00  0.00     0.065 C 
HETATM    5  C9  UNL     1      63.007  48.956  11.515  1.00  0.00     0.075 C 
HETATM    6 BR1  UNL     1      62.911  48.966  13.476  1.00  0.00    -0.090 Br
HETATM    7  C10 UNL     1      63.610  50.180  10.930  1.00  0.00     0.042 C 
HETATM    8  C11 UNL     1      64.885  50.029  10.200  1.00  0.00     0.019 C 
HETATM    9  C12 UNL     1      65.848  51.108  10.175  1.00  0.00    -0.017 C 
HETATM   10  C13 UNL     1      66.287  52.056  11.015  1.00  0.00    -0.059 C 
HETATM   11  C14 UNL     1      67.343  52.990  10.535  1.00  0.00     0.046 C 
HETATM   12  C15 UNL     1      65.849  52.297  12.379  1.00  0.00     0.149 C 
HETATM   13  C16 UNL     1      64.726  51.394  12.834  1.00  0.00     0.074 C 
HETATM   14  C17 UNL     1      63.605  51.393  11.881  1.00  0.00     0.062 C 
HETATM   15  C18 UNL     1      62.242  51.620  12.472  1.00  0.00     0.046 C 
HETATM   16  C19 UNL     1      65.635  48.731  10.560  1.00  0.00     0.048 C 
HETATM   17  C20 UNL     1      64.687  47.651  10.153  1.00  0.00     0.074 C 
HETATM   18  C21 UNL     1      65.362  46.295  10.171  1.00  0.00     0.079 C 
HETATM   19  C22 UNL     1      66.457  46.245   9.137  1.00  0.00     0.019 C 
ENDROOT
BRANCH   1  20
HETATM   20  O1  UNL     1      63.974  45.356   8.502  1.00  0.00    -0.359 OA
HETATM   21  C1  UNL     1      63.310  44.281   7.952  1.00  0.00     0.205 C 
ENDBRANCH   1  20
BRANCH   1  22
HETATM   22  O2  UNL     1      64.948  43.968   9.939  1.00  0.00    -0.359 OA
HETATM   23  C3  UNL     1      64.743  43.289  11.109  1.00  0.00     0.205 C 
ENDBRANCH   1  22
BRANCH   3  24
HETATM   24  O3  UNL     1      61.294  46.743  11.175  1.00  0.00    -0.316 OA
BRANCH  24  25
HETATM   25  C6  UNL     1      60.814  45.686  11.956  1.00  0.00     0.255 C 
HETATM   26  C7  UNL     1      61.188  45.494  13.375  1.00  0.00     0.126 C 
HETATM   27  O4  UNL     1      60.030  44.869  11.423  1.00  0.00    -0.266 OA
ENDBRANCH  24  25
ENDBRANCH   3  24
BRANCH  17  28
HETATM   28  O7  UNL     1      64.132  47.854   8.892  1.00  0.00    -0.389 OA
ATOM     29  H7  UNL     1      64.642  48.521   8.447  1.00  0.00     0.210 HD
ENDBRANCH  17  28
BRANCH  14  30
HETATM   30  O6  UNL     1      63.802  52.502  11.007  1.00  0.00    -0.390 OA
ATOM     31  H6  UNL     1      63.131  53.119  11.276  1.00  0.00     0.210 HD
ENDBRANCH  14  30
BRANCH  12  32
HETATM   32  O5  UNL     1      65.406  53.637  12.464  1.00  0.00    -0.391 OA
ATOM     33  H5  UNL     1      64.615  53.718  11.943  1.00  0.00     0.210 HD
ENDBRANCH  12  32
TORSDOF 7
ENDMDL
MODEL 4
REMARK VINA RESULT: -7.657299147      1.785      4.080
REMARK  7 active torsions:
REMARK  status: ('A' for Active; 'I' for Inactive)
REMARK    1  A    between atoms: O1_2  and  C2_3 
REMARK    2  A    between atoms: C2_3  and  O2_4 
REMARK    3  A    between atoms: C5_7  and  O3_8 
REMARK    4  A    between atoms: O3_8  and  C6_9 
REMARK    5  A    between atoms: C15_20  and  O5_21 
REMARK    6  A    between atoms: C17_24  and  O6_26 
REMARK    7  A    between atoms: C20_29  and  O7_30 
ROOT
HETATM    1  C2  UNL     1      63.861  50.636  11.972  1.00  0.00     0.171 C 
HETATM    2  C4  UNL     1      64.776  51.808  11.853  1.00  0.00     0.102 C 
HETATM    3  C5  UNL     1      65.454  51.755  10.496  1.00  0.00     0.145 C 
HETATM    4  C8  UNL     1      66.336  50.498  10.508  1.00  0.00     0.065 C 
HETATM    5  C9  UNL     1      67.397  50.505   9.467  1.00  0.00     0.075 C 
HETATM    6 BR1  UNL     1      69.072  50.855  10.428  1.00  0.00    -0.090 Br
HETATM    7  C10 UNL     1      67.469  49.371   8.512  1.00  0.00     0.042 C 
HETATM    8  C11 UNL     1      66.628  48.191   8.791  1.00  0.00     0.019 C 
HETATM    9  C12 UNL     1      67.057  46.870   8.386  1.00  0.00    -0.017 C 
HETATM   10  C13 UNL     1      68.211  46.194   8.299  1.00  0.00    -0.059 C 
HETATM   11  C14 UNL     1      68.171  44.789   7.806  1.00  0.00     0.046 C 
HETATM   12  C15 UNL     1      69.542  46.673   8.634  1.00  0.00     0.149 C 
HETATM   13  C16 UNL     1      69.585  48.121   9.063  1.00  0.00     0.074 C 
HETATM   14  C17 UNL     1      68.905  48.998   8.096  1.00  0.00     0.062 C 
HETATM   15  C18 UNL     1      69.679  50.206   7.651  1.00  0.00     0.046 C 
HETATM   16  C19 UNL     1      66.171  48.110  10.262  1.00  0.00     0.048 C 
HETATM   17  C20 UNL     1      65.374  49.358  10.452  1.00  0.00     0.074 C 
HETATM   18  C21 UNL     1      64.607  49.323  11.759  1.00  0.00     0.079 C 
HETATM   19  C22 UNL     1      63.581  48.220  11.730  1.00  0.00     0.019 C 
ENDROOT
BRANCH   1  20
HETATM   20  O1  UNL     1      62.864  50.735  11.008  1.00  0.00    -0.359 OA
HETATM   21  C1  UNL     1      61.900  51.688  11.256  1.00  0.00     0.205 C 
ENDBRANCH   1  20
BRANCH   1  22
HETATM   22  O2  UNL     1      63.247  50.638  13.195  1.00  0.00    -0.359 OA
HETATM   23  C3  UNL     1      63.804  51.429  14.162  1.00  0.00     0.205 C 
ENDBRANCH   1  22
BRANCH   3  24
HETATM   24  O3  UNL     1      66.153  52.924  10.211  1.00  0.00    -0.316 OA
BRANCH  24  25
HETATM   25  C6  UNL     1      66.469  53.825  11.233  1.00  0.00     0.255 C 
HETATM   26  C7  UNL     1      65.789  55.129  11.399  1.00  0.00     0.126 C 
HETATM   27  O4  UNL     1      67.368  53.506  12.044  1.00  0.00    -0.266 OA
ENDBRANCH  24  25
ENDBRANCH   3  24
BRANCH  17  28
HETATM   28  O7  UNL     1      64.474  49.599   9.417  1.00  0.00    -0.389 OA
ATOM     29  H7  UNL     1      63.602  49.652   9.788  1.00  0.00     0.210 HD
ENDBRANCH  17  28
BRANCH  14  30
HETATM   30  O6  UNL     1      68.720  48.237   6.904  1.00  0.00    -0.390 OA
ATOM     31  H6  UNL     1      69.572  47.841   6.759  1.00  0.00     0.210 HD
ENDBRANCH  14  30
BRANCH  12  32
HETATM   32  O5  UNL     1      70.361  46.520   7.492  1.00  0.00    -0.391 OA
ATOM     33  H5  UNL     1      71.244  46.781   7.727  1.00  0.00     0.210 HD
ENDBRANCH  12  32
TORSDOF 7
ENDMDL
MODEL 5
REMARK VINA RESULT: -7.514973339      2.142      4.476
REMARK  7 active torsions:
REMARK  status: ('A' for Active; 'I' for Inactive)
REMARK    1  A    between atoms: O1_2  and  C2_3 
REMARK    2  A    between atoms: C2_3  and  O2_4 
REMARK    3  A    between atoms: C5_7  and  O3_8 
REMARK    4  A    between atoms: O3_8  and  C6_9 
REMARK    5  A    between atoms: C15_20  and  O5_21 
REMARK    6  A    between atoms: C17_24  and  O6_26 
REMARK    7  A    between atoms: C20_29  and  O7_30 
ROOT
HETATM    1  C2  UNL     1      63.433  51.086  12.679  1.00  0.00     0.171 C 
HETATM    2  C4  UNL     1      64.557  51.980  12.278  1.00  0.00     0.102 C 
HETATM    3  C5  UNL     1      64.891  51.713  10.822  1.00  0.00     0.145 C 
HETATM    4  C8  UNL     1      65.422  50.273  10.762  1.00  0.00     0.065 C 
HETATM    5  C9  UNL     1      66.200  49.976   9.532  1.00  0.00     0.075 C 
HETATM    6 BR1  UNL     1      68.078  49.916  10.101  1.00  0.00    -0.090 Br
HETATM    7  C10 UNL     1      65.786  48.832   8.683  1.00  0.00     0.042 C 
HETATM    8  C11 UNL     1      64.764  47.915   9.225  1.00  0.00     0.019 C 
HETATM    9  C12 UNL     1      64.761  46.516   8.856  1.00  0.00    -0.017 C 
HETATM   10  C13 UNL     1      65.668  45.565   8.595  1.00  0.00    -0.059 C 
HETATM   11  C14 UNL     1      65.181  44.203   8.243  1.00  0.00     0.046 C 
HETATM   12  C15 UNL     1      67.116  45.698   8.613  1.00  0.00     0.149 C 
HETATM   13  C16 UNL     1      67.602  47.100   8.899  1.00  0.00     0.074 C 
HETATM   14  C17 UNL     1      66.962  48.090   8.018  1.00  0.00     0.062 C 
HETATM   15  C18 UNL     1      67.891  49.046   7.324  1.00  0.00     0.046 C 
HETATM   16  C19 UNL     1      64.632  48.000  10.760  1.00  0.00     0.048 C 
HETATM   17  C20 UNL     1      64.223  49.416  11.000  1.00  0.00     0.074 C 
HETATM   18  C21 UNL     1      63.773  49.620  12.432  1.00  0.00     0.079 C 
HETATM   19  C22 UNL     1      62.529  48.815  12.706  1.00  0.00     0.019 C 
ENDROOT
BRANCH   1  20
HETATM   20  O1  UNL     1      62.305  51.406  11.932  1.00  0.00    -0.359 OA
HETATM   21  C1  UNL     1      61.717  52.612  12.244  1.00  0.00     0.205 C 
ENDBRANCH   1  20
BRANCH   1  22
HETATM   22  O2  UNL     1      63.119  51.283  13.997  1.00  0.00    -0.359 OA
HETATM   23  C3  UNL     1      64.080  51.862  14.779  1.00  0.00     0.205 C 
ENDBRANCH   1  22
BRANCH   3  24
HETATM   24  O3  UNL     1      65.774  52.654  10.302  1.00  0.00    -0.316 OA
BRANCH  24  25
HETATM   25  C6  UNL     1      66.419  53.560  11.151  1.00  0.00     0.255 C 
HETATM   26  C7  UNL     1      65.936  54.941  11.377  1.00  0.00     0.126 C 
HETATM   27  O4  UNL     1      67.453  53.178  11.745  1.00  0.00    -0.266 OA
ENDBRANCH  24  25
ENDBRANCH   3  24
BRANCH  17  28
HETATM   28  O7  UNL     1      63.206  49.846  10.151  1.00  0.00    -0.389 OA
ATOM     29  H7  UNL     1      62.952  49.116   9.600  1.00  0.00     0.210 HD
ENDBRANCH  17  28
BRANCH  14  30
HETATM   30  O6  UNL     1      66.343  47.364   6.958  1.00  0.00    -0.390 OA
ATOM     31  H6  UNL     1      65.941  46.625   7.400  1.00  0.00     0.210 HD
ENDBRANCH  14  30
BRANCH  12  32
HETATM   32  O5  UNL     1      67.604  45.305   7.346  1.00  0.00    -0.391 OA
ATOM     33  H5  UNL     1      67.563  44.356   7.298  1.00  0.00     0.210 HD
ENDBRANCH  12  32
TORSDOF 7
ENDMDL
