MODEL 1
REMARK VINA RESULT: -8.866186822      0.000      0.000
REMARK  7 active torsions:
REMARK  status: ('A' for Active; 'I' for Inactive)
REMARK    1  A    between atoms: C2_2  and  O2_4 
REMARK    2  A    between atoms: O2_4  and  C3_5 
REMARK    3  A    between atoms: C14_18  and  O4_19 
REMARK    4  A    between atoms: C24_30  and  O5_31 
REMARK    5  A    between atoms: C24_30  and  C25_33 
REMARK    6  A    between atoms: C25_33  and  C26_35 
REMARK    7  A    between atoms: C26_35  and  O7_36 
ROOT
HETATM    1  C3  UNL     1      73.347  43.642   6.219  1.00  0.00     0.181 C 
HETATM    2  C4  UNL     1      73.546  44.928   5.484  1.00  0.00     0.115 C 
HETATM    3  C5  UNL     1      72.689  46.046   5.974  1.00  0.00     0.139 C 
HETATM    4  O3  UNL     1      72.238  46.838   5.168  1.00  0.00    -0.297 OA
HETATM    5  C6  UNL     1      72.466  46.083   7.435  1.00  0.00     0.032 C 
HETATM    6  C7  UNL     1      73.882  46.139   8.033  1.00  0.00     0.025 C 
HETATM    7  C8  UNL     1      71.806  47.340   7.937  1.00  0.00     0.009 C 
HETATM    8  C9  UNL     1      72.456  48.531   7.362  1.00  0.00     0.043 C 
HETATM    9  C10 UNL     1      72.602  49.724   8.272  1.00  0.00     0.171 C 
HETATM   10  F1  UNL     1      72.912  49.445   9.560  1.00  0.00    -0.249 F 
HETATM   11  C11 UNL     1      71.227  50.405   8.295  1.00  0.00     0.042 C 
HETATM   12  C12 UNL     1      70.274  49.515   9.029  1.00  0.00    -0.001 C 
HETATM   13  C13 UNL     1      69.387  50.298   9.931  1.00  0.00     0.037 C 
HETATM   14  C14 UNL     1      68.046  50.639   9.415  1.00  0.00     0.118 C 
HETATM   15  C15 UNL     1      67.351  49.416   8.944  1.00  0.00     0.032 C 
HETATM   16  C16 UNL     1      68.263  48.187   8.883  1.00  0.00     0.012 C 
HETATM   17  C17 UNL     1      69.570  48.522   8.142  1.00  0.00    -0.036 C 
HETATM   18  C18 UNL     1      69.085  49.150   6.834  1.00  0.00     0.016 C 
HETATM   19  C19 UNL     1      70.317  47.275   7.881  1.00  0.00    -0.001 C 
HETATM   20  C20 UNL     1      69.953  46.139   8.853  1.00  0.00     0.007 C 
HETATM   21  C21 UNL     1      70.324  44.883   8.039  1.00  0.00     0.014 C 
HETATM   22  C22 UNL     1      71.830  44.803   7.885  1.00  0.00     0.011 C 
HETATM   23  C23 UNL     1      72.338  44.615   9.332  1.00  0.00     0.020 C 
HETATM   24  C24 UNL     1      72.092  43.602   7.057  1.00  0.00     0.155 C 
ENDROOT
BRANCH  24  25
HETATM   25  O5  UNL     1      72.289  42.519   7.959  1.00  0.00    -0.378 OA
ATOM     26  H5  UNL     1      71.415  42.260   8.224  1.00  0.00     0.211 HD
ENDBRANCH  24  25
BRANCH  24  27
HETATM   27  C25 UNL     1      71.003  43.153   6.163  1.00  0.00     0.187 C 
HETATM   28  O6  UNL     1      70.657  43.857   5.196  1.00  0.00    -0.292 OA
BRANCH  27  29
HETATM   29  C26 UNL     1      70.221  41.908   6.268  1.00  0.00     0.245 C 
BRANCH  29  30
HETATM   30  O7  UNL     1      70.822  40.766   5.827  1.00  0.00    -0.393 OA
ATOM     31  H7  UNL     1      70.640  39.971   6.314  1.00  0.00     0.209 HD
ENDBRANCH  29  30
ENDBRANCH  27  29
ENDBRANCH  24  27
BRANCH   1  32
HETATM   32  O2  UNL     1      73.219  42.629   5.229  1.00  0.00    -0.312 OA
BRANCH  32  33
HETATM   33  C2  UNL     1      74.024  41.509   5.208  1.00  0.00     0.255 C 
HETATM   34  C1  UNL     1      75.309  41.524   5.977  1.00  0.00     0.126 C 
HETATM   35  O1  UNL     1      73.664  40.499   4.546  1.00  0.00    -0.266 OA
ENDBRANCH  32  33
ENDBRANCH   1  32
BRANCH  14  36
HETATM   36  O4  UNL     1      67.297  51.152  10.504  1.00  0.00    -0.396 OA
ATOM     37  H4  UNL     1      67.073  52.050  10.290  1.00  0.00     0.210 HD
ENDBRANCH  14  36
TORSDOF 7
ENDMDL
MODEL 2
REMARK VINA RESULT: -8.698526100      0.898      1.150
REMARK  7 active torsions:
REMARK  status: ('A' for Active; 'I' for Inactive)
REMARK    1  A    between atoms: C2_2  and  O2_4 
REMARK    2  A    between atoms: O2_4  and  C3_5 
REMARK    3  A    between atoms: C14_18  and  O4_19 
REMARK    4  A    between atoms: C24_30  and  O5_31 
REMARK    5  A    between atoms: C24_30  and  C25_33 
REMARK    6  A    between atoms: C25_33  and  C26_35 
REMARK    7  A    between atoms: C26_35  and  O7_36 
ROOT
HETATM    1  C3  UNL     1      73.814  43.974   6.853  1.00  0.00     0.181 C 
HETATM    2  C4  UNL     1      73.826  45.178   5.965  1.00  0.00     0.115 C 
HETATM    3  C5  UNL     1      72.853  46.235   6.364  1.00  0.00     0.139 C 
HETATM    4  O3  UNL     1      72.280  46.865   5.496  1.00  0.00    -0.297 OA
HETATM    5  C6  UNL     1      72.676  46.420   7.820  1.00  0.00     0.032 C 
HETATM    6  C7  UNL     1      74.093  46.718   8.339  1.00  0.00     0.025 C 
HETATM    7  C8  UNL     1      71.881  47.640   8.205  1.00  0.00     0.009 C 
HETATM    8  C9  UNL     1      72.358  48.823   7.467  1.00  0.00     0.043 C 
HETATM    9  C10 UNL     1      72.384  50.125   8.225  1.00  0.00     0.171 C 
HETATM   10  F1  UNL     1      72.769  50.042   9.521  1.00  0.00    -0.249 F 
HETATM   11  C11 UNL     1      70.936  50.634   8.236  1.00  0.00     0.042 C 
HETATM   12  C12 UNL     1      70.127  49.731   9.112  1.00  0.00    -0.001 C 
HETATM   13  C13 UNL     1      69.179  50.504   9.959  1.00  0.00     0.037 C 
HETATM   14  C14 UNL     1      67.790  50.617   9.472  1.00  0.00     0.118 C 
HETATM   15  C15 UNL     1      67.237  49.271   9.179  1.00  0.00     0.032 C 
HETATM   16  C16 UNL     1      68.293  48.163   9.216  1.00  0.00     0.012 C 
HETATM   17  C17 UNL     1      69.523  48.561   8.379  1.00  0.00    -0.036 C 
HETATM   18  C18 UNL     1      68.920  48.965   7.033  1.00  0.00     0.016 C 
HETATM   19  C19 UNL     1      70.411  47.391   8.228  1.00  0.00    -0.001 C 
HETATM   20  C20 UNL     1      70.224  46.344   9.341  1.00  0.00     0.007 C 
HETATM   21  C21 UNL     1      70.722  45.053   8.660  1.00  0.00     0.014 C 
HETATM   22  C22 UNL     1      72.220  45.137   8.445  1.00  0.00     0.011 C 
HETATM   23  C23 UNL     1      72.796  45.186   9.877  1.00  0.00     0.020 C 
HETATM   24  C24 UNL     1      72.602  43.885   7.749  1.00  0.00     0.155 C 
ENDROOT
BRANCH  24  25
HETATM   25  O5  UNL     1      72.963  42.950   8.758  1.00  0.00    -0.378 OA
ATOM     26  H5  UNL     1      73.495  42.302   8.312  1.00  0.00     0.211 HD
ENDBRANCH  24  25
BRANCH  24  27
HETATM   27  C25 UNL     1      71.548  43.205   6.966  1.00  0.00     0.187 C 
HETATM   28  O6  UNL     1      71.222  42.035   7.239  1.00  0.00    -0.292 OA
BRANCH  27  29
HETATM   29  C26 UNL     1      70.784  43.758   5.833  1.00  0.00     0.245 C 
BRANCH  29  30
HETATM   30  O7  UNL     1      71.224  43.441   4.581  1.00  0.00    -0.393 OA
ATOM     31  H7  UNL     1      72.119  43.132   4.508  1.00  0.00     0.209 HD
ENDBRANCH  29  30
ENDBRANCH  27  29
ENDBRANCH  24  27
BRANCH   1  32
HETATM   32  O2  UNL     1      73.781  42.842   5.994  1.00  0.00    -0.312 OA
BRANCH  32  33
HETATM   33  C2  UNL     1      74.676  41.799   6.108  1.00  0.00     0.255 C 
HETATM   34  C1  UNL     1      74.852  40.864   4.952  1.00  0.00     0.126 C 
HETATM   35  O1  UNL     1      75.326  41.654   7.177  1.00  0.00    -0.266 OA
ENDBRANCH  32  33
ENDBRANCH   1  32
BRANCH  14  36
HETATM   36  O4  UNL     1      67.020  51.163  10.529  1.00  0.00    -0.396 OA
ATOM     37  H4  UNL     1      66.153  50.778  10.471  1.00  0.00     0.210 HD
ENDBRANCH  14  36
TORSDOF 7
ENDMDL
MODEL 3
REMARK VINA RESULT: -7.341092039      1.591      1.805
REMARK  7 active torsions:
REMARK  status: ('A' for Active; 'I' for Inactive)
REMARK    1  A    between atoms: C2_2  and  O2_4 
REMARK    2  A    between atoms: O2_4  and  C3_5 
REMARK    3  A    between atoms: C14_18  and  O4_19 
REMARK    4  A    between atoms: C24_30  and  O5_31 
REMARK    5  A    between atoms: C24_30  and  C25_33 
REMARK    6  A    between atoms: C25_33  and  C26_35 
REMARK    7  A    between atoms: C26_35  and  O7_36 
ROOT
HETATM    1  C3  UNL     1      74.694  43.869   8.110  1.00  0.00     0.181 C 
HETATM    2  C4  UNL     1      74.758  44.947   7.074  1.00  0.00     0.115 C 
HETATM    3  C5  UNL     1      73.672  45.963   7.189  1.00  0.00     0.139 C 
HETATM    4  O3  UNL     1      73.191  46.427   6.173  1.00  0.00    -0.297 OA
HETATM    5  C6  UNL     1      73.275  46.317   8.568  1.00  0.00     0.032 C 
HETATM    6  C7  UNL     1      74.581  46.794   9.227  1.00  0.00     0.025 C 
HETATM    7  C8  UNL     1      72.358  47.507   8.671  1.00  0.00     0.009 C 
HETATM    8  C9  UNL     1      72.860  48.621   7.847  1.00  0.00     0.043 C 
HETATM    9  C10 UNL     1      72.693  50.007   8.415  1.00  0.00     0.171 C 
HETATM   10  F1  UNL     1      72.892  50.122   9.749  1.00  0.00    -0.249 F 
HETATM   11  C11 UNL     1      71.229  50.392   8.161  1.00  0.00     0.042 C 
HETATM   12  C12 UNL     1      70.361  49.545   9.037  1.00  0.00    -0.001 C 
HETATM   13  C13 UNL     1      69.255  50.340   9.634  1.00  0.00     0.037 C 
HETATM   14  C14 UNL     1      67.946  50.275   8.954  1.00  0.00     0.118 C 
HETATM   15  C15 UNL     1      67.528  48.862   8.778  1.00  0.00     0.032 C 
HETATM   16  C16 UNL     1      68.636  47.858   9.109  1.00  0.00     0.012 C 
HETATM   17  C17 UNL     1      69.945  48.246   8.398  1.00  0.00    -0.036 C 
HETATM   18  C18 UNL     1      69.518  48.422   6.941  1.00  0.00     0.016 C 
HETATM   19  C19 UNL     1      70.918  47.142   8.531  1.00  0.00    -0.001 C 
HETATM   20  C20 UNL     1      70.640  46.235   9.743  1.00  0.00     0.007 C 
HETATM   21  C21 UNL     1      71.311  44.913   9.319  1.00  0.00     0.014 C 
HETATM   22  C22 UNL     1      72.817  45.091   9.298  1.00  0.00     0.011 C 
HETATM   23  C23 UNL     1      73.176  45.371  10.774  1.00  0.00     0.020 C 
HETATM   24  C24 UNL     1      73.374  43.796   8.839  1.00  0.00     0.155 C 
ENDROOT
BRANCH  24  25
HETATM   25  O5  UNL     1      73.645  43.031  10.007  1.00  0.00    -0.378 OA
ATOM     26  H5  UNL     1      73.883  43.670  10.668  1.00  0.00     0.211 HD
ENDBRANCH  24  25
BRANCH  24  27
HETATM   27  C25 UNL     1      72.489  42.937   8.023  1.00  0.00     0.187 C 
HETATM   28  O6  UNL     1      72.106  43.319   6.902  1.00  0.00    -0.292 OA
BRANCH  27  29
HETATM   29  C26 UNL     1      71.966  41.605   8.379  1.00  0.00     0.245 C 
BRANCH  29  30
HETATM   30  O7  UNL     1      72.582  40.531   7.808  1.00  0.00    -0.393 OA
ATOM     31  H7  UNL     1      72.045  39.764   7.649  1.00  0.00     0.209 HD
ENDBRANCH  29  30
ENDBRANCH  27  29
ENDBRANCH  24  27
BRANCH   1  32
HETATM   32  O2  UNL     1      74.857  42.638   7.418  1.00  0.00    -0.312 OA
BRANCH  32  33
HETATM   33  C2  UNL     1      75.802  41.703   7.785  1.00  0.00     0.255 C 
HETATM   34  C1  UNL     1      77.180  42.166   8.144  1.00  0.00     0.126 C 
HETATM   35  O1  UNL     1      75.490  40.483   7.810  1.00  0.00    -0.266 OA
ENDBRANCH  32  33
ENDBRANCH   1  32
BRANCH  14  36
HETATM   36  O4  UNL     1      66.998  50.886   9.813  1.00  0.00    -0.396 OA
ATOM     37  H4  UNL     1      66.145  50.542   9.577  1.00  0.00     0.210 HD
ENDBRANCH  14  36
TORSDOF 7
ENDMDL
MODEL 4
REMARK VINA RESULT: -6.978275249      5.303      8.276
REMARK  7 active torsions:
REMARK  status: ('A' for Active; 'I' for Inactive)
REMARK    1  A    between atoms: C2_2  and  O2_4 
REMARK    2  A    between atoms: O2_4  and  C3_5 
REMARK    3  A    between atoms: C14_18  and  O4_19 
REMARK    4  A    between atoms: C24_30  and  O5_31 
REMARK    5  A    between atoms: C24_30  and  C25_33 
REMARK    6  A    between atoms: C25_33  and  C26_35 
REMARK    7  A    between atoms: C26_35  and  O7_36 
ROOT
HETATM    1  C3  UNL     1      64.784  45.402   9.346  1.00  0.00     0.181 C 
HETATM    2  C4  UNL     1      64.413  45.588  10.783  1.00  0.00     0.115 C 
HETATM    3  C5  UNL     1      64.482  47.003  11.249  1.00  0.00     0.139 C 
HETATM    4  O3  UNL     1      64.871  47.233  12.378  1.00  0.00    -0.297 OA
HETATM    5  C6  UNL     1      64.057  48.019  10.262  1.00  0.00     0.032 C 
HETATM    6  C7  UNL     1      62.624  47.606   9.887  1.00  0.00     0.025 C 
HETATM    7  C8  UNL     1      63.904  49.409  10.819  1.00  0.00     0.009 C 
HETATM    8  C9  UNL     1      63.134  49.381  12.076  1.00  0.00     0.043 C 
HETATM    9  C10 UNL     1      62.175  50.521  12.304  1.00  0.00     0.171 C 
HETATM   10  F1  UNL     1      61.505  50.953  11.210  1.00  0.00    -0.249 F 
HETATM   11  C11 UNL     1      63.033  51.702  12.779  1.00  0.00     0.042 C 
HETATM   12  C12 UNL     1      63.869  52.169  11.629  1.00  0.00    -0.001 C 
HETATM   13  C13 UNL     1      63.926  53.654  11.568  1.00  0.00     0.037 C 
HETATM   14  C14 UNL     1      65.108  54.300  12.173  1.00  0.00     0.118 C 
HETATM   15  C15 UNL     1      66.354  53.714  11.618  1.00  0.00     0.032 C 
HETATM   16  C16 UNL     1      66.108  52.460  10.775  1.00  0.00     0.012 C 
HETATM   17  C17 UNL     1      65.201  51.472  11.530  1.00  0.00    -0.036 C 
HETATM   18  C18 UNL     1      65.887  51.328  12.889  1.00  0.00     0.016 C 
HETATM   19  C19 UNL     1      65.180  50.181  10.812  1.00  0.00    -0.001 C 
HETATM   20  C20 UNL     1      65.530  50.315   9.319  1.00  0.00     0.007 C 
HETATM   21  C21 UNL     1      66.049  48.903   8.980  1.00  0.00     0.014 C 
HETATM   22  C22 UNL     1      64.901  47.914   9.028  1.00  0.00     0.011 C 
HETATM   23  C23 UNL     1      63.966  48.379   7.889  1.00  0.00     0.020 C 
HETATM   24  C24 UNL     1      65.493  46.587   8.737  1.00  0.00     0.155 C 
ENDROOT
BRANCH  24  25
HETATM   25  O5  UNL     1      65.388  46.392   7.332  1.00  0.00    -0.378 OA
ATOM     26  H5  UNL     1      66.254  46.112   7.059  1.00  0.00     0.211 HD
ENDBRANCH  24  25
BRANCH  24  27
HETATM   27  C25 UNL     1      66.931  46.415   9.034  1.00  0.00     0.187 C 
HETATM   28  O6  UNL     1      67.368  46.658  10.175  1.00  0.00    -0.292 OA
BRANCH  27  29
HETATM   29  C26 UNL     1      67.985  45.967   8.105  1.00  0.00     0.245 C 
BRANCH  29  30
HETATM   30  O7  UNL     1      67.806  44.751   7.513  1.00  0.00    -0.393 OA
ATOM     31  H7  UNL     1      68.050  43.988   8.022  1.00  0.00     0.209 HD
ENDBRANCH  29  30
ENDBRANCH  27  29
ENDBRANCH  24  27
BRANCH   1  32
HETATM   32  O2  UNL     1      65.689  44.307   9.304  1.00  0.00    -0.312 OA
BRANCH  32  33
HETATM   33  C2  UNL     1      65.431  43.160   8.581  1.00  0.00     0.255 C 
HETATM   34  C1  UNL     1      64.146  43.057   7.818  1.00  0.00     0.126 C 
HETATM   35  O1  UNL     1      66.276  42.227   8.577  1.00  0.00    -0.266 OA
ENDBRANCH  32  33
ENDBRANCH   1  32
BRANCH  14  36
HETATM   36  O4  UNL     1      65.081  55.664  11.787  1.00  0.00    -0.396 OA
ATOM     37  H4  UNL     1      65.959  56.007  11.910  1.00  0.00     0.210 HD
ENDBRANCH  14  36
TORSDOF 7
ENDMDL
MODEL 5
REMARK VINA RESULT: -6.966128925      4.722      8.322
REMARK  7 active torsions:
REMARK  status: ('A' for Active; 'I' for Inactive)
REMARK    1  A    between atoms: C2_2  and  O2_4 
REMARK    2  A    between atoms: O2_4  and  C3_5 
REMARK    3  A    between atoms: C14_18  and  O4_19 
REMARK    4  A    between atoms: C24_30  and  O5_31 
REMARK    5  A    between atoms: C24_30  and  C25_33 
REMARK    6  A    between atoms: C25_33  and  C26_35 
REMARK    7  A    between atoms: C26_35  and  O7_36 
ROOT
HETATM    1  C3  UNL     1      62.953  46.613  10.330  1.00  0.00     0.181 C 
HETATM    2  C4  UNL     1      63.795  47.189  11.424  1.00  0.00     0.115 C 
HETATM    3  C5  UNL     1      65.202  47.474  11.019  1.00  0.00     0.139 C 
HETATM    4  O3  UNL     1      66.096  47.284  11.823  1.00  0.00    -0.297 OA
HETATM    5  C6  UNL     1      65.379  47.974   9.640  1.00  0.00     0.032 C 
HETATM    6  C7  UNL     1      64.497  49.233   9.579  1.00  0.00     0.025 C 
HETATM    7  C8  UNL     1      66.762  48.481   9.329  1.00  0.00     0.009 C 
HETATM    8  C9  UNL     1      67.238  49.378  10.397  1.00  0.00     0.043 C 
HETATM    9  C10 UNL     1      68.047  50.573   9.963  1.00  0.00     0.171 C 
HETATM   10  F1  UNL     1      67.636  51.177   8.822  1.00  0.00    -0.249 F 
HETATM   11  C11 UNL     1      69.461  50.045   9.686  1.00  0.00     0.042 C 
HETATM   12  C12 UNL     1      69.412  49.188   8.461  1.00  0.00    -0.001 C 
HETATM   13  C13 UNL     1      70.586  49.433   7.580  1.00  0.00     0.037 C 
HETATM   14  C14 UNL     1      71.719  48.495   7.705  1.00  0.00     0.118 C 
HETATM   15  C15 UNL     1      71.247  47.095   7.556  1.00  0.00     0.032 C 
HETATM   16  C16 UNL     1      69.721  46.969   7.560  1.00  0.00     0.012 C 
HETATM   17  C17 UNL     1      69.119  47.738   8.750  1.00  0.00    -0.036 C 
HETATM   18  C18 UNL     1      69.909  47.211   9.949  1.00  0.00     0.016 C 
HETATM   19  C19 UNL     1      67.686  47.401   8.875  1.00  0.00    -0.001 C 
HETATM   20  C20 UNL     1      67.066  46.904   7.557  1.00  0.00     0.007 C 
HETATM   21  C21 UNL     1      65.872  46.066   8.056  1.00  0.00     0.014 C 
HETATM   22  C22 UNL     1      64.827  46.981   8.663  1.00  0.00     0.011 C 
HETATM   23  C23 UNL     1      64.355  47.843   7.471  1.00  0.00     0.020 C 
HETATM   24  C24 UNL     1      63.745  46.095   9.154  1.00  0.00     0.155 C 
ENDROOT
BRANCH  24  25
HETATM   25  O5  UNL     1      62.798  45.982   8.099  1.00  0.00    -0.378 OA
ATOM     26  H5  UNL     1      62.126  45.401   8.435  1.00  0.00     0.211 HD
ENDBRANCH  24  25
BRANCH  24  27
HETATM   27  C25 UNL     1      64.116  44.700   9.478  1.00  0.00     0.187 C 
HETATM   28  O6  UNL     1      64.960  44.466  10.362  1.00  0.00    -0.292 OA
BRANCH  27  29
HETATM   29  C26 UNL     1      63.588  43.472   8.856  1.00  0.00     0.245 C 
BRANCH  29  30
HETATM   30  O7  UNL     1      62.331  43.090   9.222  1.00  0.00    -0.393 OA
ATOM     31  H7  UNL     1      62.092  42.187   9.052  1.00  0.00     0.209 HD
ENDBRANCH  29  30
ENDBRANCH  27  29
ENDBRANCH  24  27
BRANCH   1  32
HETATM   32  O2  UNL     1      62.269  45.502  10.894  1.00  0.00    -0.312 OA
BRANCH  32  33
HETATM   33  C2  UNL     1      60.892  45.425  10.937  1.00  0.00     0.255 C 
HETATM   34  C1  UNL     1      60.204  45.473  12.267  1.00  0.00     0.126 C 
HETATM   35  O1  UNL     1      60.243  45.315   9.864  1.00  0.00    -0.266 OA
ENDBRANCH  32  33
ENDBRANCH   1  32
BRANCH  14  36
HETATM   36  O4  UNL     1      72.598  48.756   6.625  1.00  0.00    -0.396 OA
ATOM     37  H4  UNL     1      73.360  48.200   6.743  1.00  0.00     0.210 HD
ENDBRANCH  14  36
TORSDOF 7
ENDMDL
