MODEL 1
REMARK VINA RESULT: -9.120377821      0.000      0.000
REMARK  10 active torsions:
REMARK  status: ('A' for Active; 'I' for Inactive)
REMARK    1  A    between atoms: C2_2  and  C3_3 
REMARK    2  A    between atoms: C2_2  and  C7_9 
REMARK    3  A    between atoms: C3_3  and  C4_4 
REMARK    4  A    between atoms: C4_4  and  C5_5 
REMARK    5  A    between atoms: C5_5  and  C6_6 
REMARK    6  A    between atoms: C23_26  and  N1_27 
REMARK    7  A    between atoms: N1_27  and  C24_29 
REMARK    8  A    between atoms: C24_29  and  C25_30 
REMARK    9  A    between atoms: C25_30  and  N2_31 
REMARK   10  A    between atoms: C28_34  and  O3_35 
ROOT
HETATM    1  C7  UNL     1      20.681 -42.336   6.314  1.00  0.00    -0.003 C 
HETATM    2  C8  UNL     1      20.788 -43.831   6.746  1.00  0.00     0.006 C 
HETATM    3  C9  UNL     1      20.035 -43.940   8.051  1.00  0.00     0.010 C 
HETATM    4  C10 UNL     1      20.422 -42.610   8.652  1.00  0.00    -0.033 C 
HETATM    5  C11 UNL     1      21.808 -42.684   9.075  1.00  0.00     0.016 C 
HETATM    6  C12 UNL     1      20.073 -41.761   7.457  1.00  0.00     0.033 C 
HETATM    7  C13 UNL     1      20.059 -40.421   7.975  1.00  0.00     0.184 C 
HETATM    8  F1  UNL     1      19.241 -39.501   7.302  1.00  0.00    -0.248 F 
HETATM    9  C14 UNL     1      19.508 -40.588   9.413  1.00  0.00    -0.004 C 
HETATM   10  C15 UNL     1      20.624 -40.030  10.315  1.00  0.00     0.019 C 
HETATM   11  C16 UNL     1      19.475 -42.070   9.655  1.00  0.00     0.005 C 
HETATM   12  C17 UNL     1      18.120 -42.674   9.633  1.00  0.00     0.007 C 
HETATM   13  C18 UNL     1      17.153 -41.835  10.488  1.00  0.00     0.011 C 
HETATM   14  C19 UNL     1      16.973 -40.546   9.761  1.00  0.00    -0.032 C 
HETATM   15  C20 UNL     1      16.229 -40.687   8.462  1.00  0.00     0.011 C 
HETATM   16  C21 UNL     1      14.923 -41.336   8.697  1.00  0.00     0.008 C 
HETATM   17  C22 UNL     1      14.018 -40.648   9.731  1.00  0.00     0.019 C 
HETATM   18  C23 UNL     1      12.994 -41.652  10.120  1.00  0.00     0.110 C 
HETATM   19  C28 UNL     1      12.585 -41.749  11.543  1.00  0.00     0.140 C 
HETATM   20  C29 UNL     1      13.067 -40.635  12.421  1.00  0.00     0.034 C 
HETATM   21  C30 UNL     1      14.573 -40.476  12.177  1.00  0.00     0.012 C 
HETATM   22  C31 UNL     1      14.726 -39.905  10.780  1.00  0.00    -0.034 C 
HETATM   23  C32 UNL     1      14.042 -38.519  10.932  1.00  0.00     0.016 C 
HETATM   24  C33 UNL     1      16.139 -39.518  10.493  1.00  0.00     0.003 C 
HETATM   25  C34 UNL     1      16.975 -39.200  11.663  1.00  0.00     0.006 C 
HETATM   26  C35 UNL     1      18.342 -39.181  11.081  1.00  0.00     0.007 C 
HETATM   27  C36 UNL     1      18.277 -39.850   9.694  1.00  0.00     0.006 C 
ENDROOT
BRANCH   1  28
HETATM   28  C2  UNL     1      21.961 -41.914   5.689  1.00  0.00    -0.014 C 
HETATM   29  C1  UNL     1      22.707 -43.223   5.356  1.00  0.00     0.010 C 
BRANCH  28  30
HETATM   30  C3  UNL     1      21.833 -41.144   4.420  1.00  0.00     0.005 C 
BRANCH  30  31
HETATM   31  C4  UNL     1      20.524 -40.909   3.812  1.00  0.00     0.011 C 
BRANCH  31  32
HETATM   32  C5  UNL     1      19.940 -41.688   2.727  1.00  0.00     0.113 C 
BRANCH  32  33
HETATM   33  C6  UNL     1      20.395 -43.094   2.587  1.00  0.00     0.172 C 
HETATM   34  O1  UNL     1      19.903 -43.988   3.282  1.00  0.00    -0.648 OA
HETATM   35  O2  UNL     1      21.380 -43.400   1.666  1.00  0.00    -0.648 OA
ENDBRANCH  32  33
ENDBRANCH  31  32
ENDBRANCH  30  31
ENDBRANCH  28  30
ENDBRANCH   1  28
BRANCH  18  36
HETATM   36  N1  UNL     1      11.791 -41.661   9.325  1.00  0.00    -0.413 N 
ATOM     37  H1  UNL     1      11.060 -40.962   9.466  1.00  0.00     0.153 HD
BRANCH  36  38
HETATM   38  C24 UNL     1      11.656 -42.668   8.343  1.00  0.00     0.133 C 
BRANCH  38  39
HETATM   39  C25 UNL     1      11.108 -43.967   8.903  1.00  0.00     0.135 C 
BRANCH  39  40
HETATM   40  N2  UNL     1      11.724 -45.128   8.390  1.00  0.00    -0.419 N 
HETATM   41  C26 UNL     1      11.348 -46.376   8.948  1.00  0.00     0.142 C 
HETATM   42  C27 UNL     1      13.156 -45.006   8.202  1.00  0.00     0.142 C 
ENDBRANCH  39  40
ENDBRANCH  38  39
ENDBRANCH  36  38
ENDBRANCH  18  36
BRANCH  19  43
HETATM   43  O3  UNL     1      11.220 -41.903  11.763  1.00  0.00    -0.394 OA
ATOM     44  H3  UNL     1      10.744 -41.102  11.947  1.00  0.00     0.210 HD
ENDBRANCH  19  43
TORSDOF 10
ENDMDL
MODEL 2
REMARK VINA RESULT: -8.477885111      4.318      9.159
REMARK  10 active torsions:
REMARK  status: ('A' for Active; 'I' for Inactive)
REMARK    1  A    between atoms: C2_2  and  C3_3 
REMARK    2  A    between atoms: C2_2  and  C7_9 
REMARK    3  A    between atoms: C3_3  and  C4_4 
REMARK    4  A    between atoms: C4_4  and  C5_5 
REMARK    5  A    between atoms: C5_5  and  C6_6 
REMARK    6  A    between atoms: C23_26  and  N1_27 
REMARK    7  A    between atoms: N1_27  and  C24_29 
REMARK    8  A    between atoms: C24_29  and  C25_30 
REMARK    9  A    between atoms: C25_30  and  N2_31 
REMARK   10  A    between atoms: C28_34  and  O3_35 
ROOT
HETATM    1  C7  UNL     1      15.744 -40.536  11.534  1.00  0.00    -0.003 C 
HETATM    2  C8  UNL     1      14.883 -41.555  10.727  1.00  0.00     0.006 C 
HETATM    3  C9  UNL     1      15.810 -42.154   9.695  1.00  0.00     0.010 C 
HETATM    4  C10 UNL     1      16.617 -40.921   9.367  1.00  0.00    -0.033 C 
HETATM    5  C11 UNL     1      15.791 -40.030   8.575  1.00  0.00     0.016 C 
HETATM    6  C12 UNL     1      16.946 -40.536  10.787  1.00  0.00     0.033 C 
HETATM    7  C13 UNL     1      18.000 -39.569  10.648  1.00  0.00     0.184 C 
HETATM    8  F1  UNL     1      18.886 -39.454  11.730  1.00  0.00    -0.248 F 
HETATM    9  C14 UNL     1      18.804 -40.073   9.424  1.00  0.00    -0.004 C 
HETATM   10  C15 UNL     1      18.741 -38.907   8.420  1.00  0.00     0.019 C 
HETATM   11  C16 UNL     1      17.975 -41.178   8.833  1.00  0.00     0.005 C 
HETATM   12  C17 UNL     1      18.499 -42.545   9.074  1.00  0.00     0.007 C 
HETATM   13  C18 UNL     1      20.005 -42.597   8.759  1.00  0.00     0.011 C 
HETATM   14  C19 UNL     1      20.674 -41.777   9.808  1.00  0.00    -0.032 C 
HETATM   15  C20 UNL     1      20.603 -42.383  11.182  1.00  0.00     0.011 C 
HETATM   16  C21 UNL     1      21.162 -43.750  11.159  1.00  0.00     0.008 C 
HETATM   17  C22 UNL     1      22.596 -43.870  10.623  1.00  0.00     0.019 C 
HETATM   18  C23 UNL     1      22.796 -45.305  10.290  1.00  0.00     0.110 C 
HETATM   19  C28 UNL     1      23.542 -45.661   9.057  1.00  0.00     0.140 C 
HETATM   20  C29 UNL     1      24.252 -44.522   8.391  1.00  0.00     0.034 C 
HETATM   21  C30 UNL     1      23.243 -43.375   8.244  1.00  0.00     0.012 C 
HETATM   22  C31 UNL     1      22.981 -42.848   9.643  1.00  0.00    -0.034 C 
HETATM   23  C32 UNL     1      24.381 -42.305  10.040  1.00  0.00     0.016 C 
HETATM   24  C33 UNL     1      22.165 -41.599   9.618  1.00  0.00     0.003 C 
HETATM   25  C34 UNL     1      22.238 -40.800   8.383  1.00  0.00     0.006 C 
HETATM   26  C35 UNL     1      21.109 -39.849   8.552  1.00  0.00     0.007 C 
HETATM   27  C36 UNL     1      20.210 -40.377   9.688  1.00  0.00     0.006 C 
ENDROOT
BRANCH   1  28
HETATM   28  C2  UNL     1      14.912 -39.350  11.869  1.00  0.00    -0.014 C 
HETATM   29  C1  UNL     1      13.575 -39.918  12.387  1.00  0.00     0.010 C 
BRANCH  28  30
HETATM   30  C3  UNL     1      15.458 -38.463  12.934  1.00  0.00     0.005 C 
BRANCH  30  31
HETATM   31  C4  UNL     1      16.092 -37.188  12.599  1.00  0.00     0.011 C 
BRANCH  31  32
HETATM   32  C5  UNL     1      15.853 -36.414  11.388  1.00  0.00     0.113 C 
BRANCH  32  33
HETATM   33  C6  UNL     1      15.111 -35.137  11.539  1.00  0.00     0.172 C 
HETATM   34  O1  UNL     1      14.500 -34.882  12.581  1.00  0.00    -0.648 OA
HETATM   35  O2  UNL     1      15.110 -34.226  10.498  1.00  0.00    -0.648 OA
ENDBRANCH  32  33
ENDBRANCH  31  32
ENDBRANCH  30  31
ENDBRANCH  28  30
ENDBRANCH   1  28
BRANCH  18  36
HETATM   36  N1  UNL     1      23.308 -46.131  11.356  1.00  0.00    -0.413 N 
ATOM     37  H1  UNL     1      23.218 -47.147  11.325  1.00  0.00     0.153 HD
BRANCH  36  38
HETATM   38  C24 UNL     1      23.937 -45.486  12.445  1.00  0.00     0.133 C 
BRANCH  38  39
HETATM   39  C25 UNL     1      23.431 -45.972  13.790  1.00  0.00     0.135 C 
BRANCH  39  40
HETATM   40  N2  UNL     1      22.025 -46.004  13.904  1.00  0.00    -0.419 N 
HETATM   41  C26 UNL     1      21.394 -44.930  14.582  1.00  0.00     0.142 C 
HETATM   42  C27 UNL     1      21.489 -47.297  14.281  1.00  0.00     0.142 C 
ENDBRANCH  39  40
ENDBRANCH  38  39
ENDBRANCH  36  38
ENDBRANCH  18  36
BRANCH  19  43
HETATM   43  O3  UNL     1      24.450 -46.707   9.190  1.00  0.00    -0.394 OA
ATOM     44  H3  UNL     1      24.403 -47.375   8.517  1.00  0.00     0.210 HD
ENDBRANCH  19  43
TORSDOF 10
ENDMDL
MODEL 3
REMARK VINA RESULT: -8.335293925      1.295      2.039
REMARK  10 active torsions:
REMARK  status: ('A' for Active; 'I' for Inactive)
REMARK    1  A    between atoms: C2_2  and  C3_3 
REMARK    2  A    between atoms: C2_2  and  C7_9 
REMARK    3  A    between atoms: C3_3  and  C4_4 
REMARK    4  A    between atoms: C4_4  and  C5_5 
REMARK    5  A    between atoms: C5_5  and  C6_6 
REMARK    6  A    between atoms: C23_26  and  N1_27 
REMARK    7  A    between atoms: N1_27  and  C24_29 
REMARK    8  A    between atoms: C24_29  and  C25_30 
REMARK    9  A    between atoms: C25_30  and  N2_31 
REMARK   10  A    between atoms: C28_34  and  O3_35 
ROOT
HETATM    1  C7  UNL     1      19.440 -41.591   7.370  1.00  0.00    -0.003 C 
HETATM    2  C8  UNL     1      20.140 -42.612   8.319  1.00  0.00     0.006 C 
HETATM    3  C9  UNL     1      19.469 -42.457   9.663  1.00  0.00     0.010 C 
HETATM    4  C10 UNL     1      19.263 -40.962   9.646  1.00  0.00    -0.033 C 
HETATM    5  C11 UNL     1      20.547 -40.320   9.854  1.00  0.00     0.016 C 
HETATM    6  C12 UNL     1      18.624 -40.881   8.283  1.00  0.00     0.033 C 
HETATM    7  C13 UNL     1      18.050 -39.564   8.247  1.00  0.00     0.184 C 
HETATM    8  F1  UNL     1      16.942 -39.390   7.404  1.00  0.00    -0.248 F 
HETATM    9  C14 UNL     1      17.582 -39.325   9.704  1.00  0.00    -0.004 C 
HETATM   10  C15 UNL     1      18.350 -38.067  10.149  1.00  0.00     0.019 C 
HETATM   11  C16 UNL     1      18.155 -40.466  10.496  1.00  0.00     0.005 C 
HETATM   12  C17 UNL     1      17.167 -41.495  10.908  1.00  0.00     0.007 C 
HETATM   13  C18 UNL     1      15.922 -40.821  11.511  1.00  0.00     0.011 C 
HETATM   14  C19 UNL     1      15.246 -40.119  10.383  1.00  0.00    -0.032 C 
HETATM   15  C20 UNL     1      14.655 -41.051   9.362  1.00  0.00     0.011 C 
HETATM   16  C21 UNL     1      13.725 -41.993  10.018  1.00  0.00     0.008 C 
HETATM   17  C22 UNL     1      12.594 -41.347  10.833  1.00  0.00     0.019 C 
HETATM   18  C23 UNL     1      12.064 -42.412  11.723  1.00  0.00     0.110 C 
HETATM   19  C28 UNL     1      11.698 -42.067  13.120  1.00  0.00     0.140 C 
HETATM   20  C29 UNL     1      11.660 -40.600  13.424  1.00  0.00     0.034 C 
HETATM   21  C30 UNL     1      12.974 -39.992  12.917  1.00  0.00     0.012 C 
HETATM   22  C31 UNL     1      12.911 -40.031  11.401  1.00  0.00    -0.034 C 
HETATM   23  C32 UNL     1      11.716 -39.083  11.113  1.00  0.00     0.016 C 
HETATM   24  C33 UNL     1      14.047 -39.287  10.782  1.00  0.00     0.003 C 
HETATM   25  C34 UNL     1      14.652 -38.225  11.604  1.00  0.00     0.006 C 
HETATM   26  C35 UNL     1      15.904 -37.924  10.863  1.00  0.00     0.007 C 
HETATM   27  C36 UNL     1      16.151 -39.071   9.862  1.00  0.00     0.006 C 
ENDROOT
BRANCH   1  28
HETATM   28  C2  UNL     1      20.449 -41.007   6.448  1.00  0.00    -0.014 C 
HETATM   29  C1  UNL     1      21.526 -42.097   6.273  1.00  0.00     0.010 C 
BRANCH  28  30
HETATM   30  C3  UNL     1      19.950 -40.657   5.089  1.00  0.00     0.005 C 
BRANCH  30  31
HETATM   31  C4  UNL     1      20.592 -41.195   3.890  1.00  0.00     0.011 C 
BRANCH  31  32
HETATM   32  C5  UNL     1      19.906 -41.618   2.677  1.00  0.00     0.113 C 
BRANCH  32  33
HETATM   33  C6  UNL     1      19.904 -43.072   2.376  1.00  0.00     0.172 C 
HETATM   34  O1  UNL     1      19.850 -43.476   1.210  1.00  0.00    -0.648 OA
HETATM   35  O2  UNL     1      19.966 -43.980   3.418  1.00  0.00    -0.648 OA
ENDBRANCH  32  33
ENDBRANCH  31  32
ENDBRANCH  30  31
ENDBRANCH  28  30
ENDBRANCH   1  28
BRANCH  18  36
HETATM   36  N1  UNL     1      10.988 -43.205  11.180  1.00  0.00    -0.413 N 
ATOM     37  H1  UNL     1      10.053 -42.813  11.060  1.00  0.00     0.153 HD
BRANCH  36  38
HETATM   38  C24 UNL     1      11.272 -44.541  10.819  1.00  0.00     0.133 C 
BRANCH  38  39
HETATM   39  C25 UNL     1      10.950 -44.839   9.367  1.00  0.00     0.135 C 
BRANCH  39  40
HETATM   40  N2  UNL     1      11.730 -45.869   8.798  1.00  0.00    -0.419 N 
HETATM   41  C26 UNL     1      12.555 -46.628   9.666  1.00  0.00     0.142 C 
HETATM   42  C27 UNL     1      12.402 -45.495   7.569  1.00  0.00     0.142 C 
ENDBRANCH  39  40
ENDBRANCH  38  39
ENDBRANCH  36  38
ENDBRANCH  18  36
BRANCH  19  43
HETATM   43  O3  UNL     1      10.511 -42.627  13.582  1.00  0.00    -0.394 OA
ATOM     44  H3  UNL     1      10.109 -42.181  14.318  1.00  0.00     0.210 HD
ENDBRANCH  19  43
TORSDOF 10
ENDMDL
MODEL 4
REMARK VINA RESULT: -8.296684460      4.490      9.600
REMARK  10 active torsions:
REMARK  status: ('A' for Active; 'I' for Inactive)
REMARK    1  A    between atoms: C2_2  and  C3_3 
REMARK    2  A    between atoms: C2_2  and  C7_9 
REMARK    3  A    between atoms: C3_3  and  C4_4 
REMARK    4  A    between atoms: C4_4  and  C5_5 
REMARK    5  A    between atoms: C5_5  and  C6_6 
REMARK    6  A    between atoms: C23_26  and  N1_27 
REMARK    7  A    between atoms: N1_27  and  C24_29 
REMARK    8  A    between atoms: C24_29  and  C25_30 
REMARK    9  A    between atoms: C25_30  and  N2_31 
REMARK   10  A    between atoms: C28_34  and  O3_35 
ROOT
HETATM    1  C7  UNL     1      15.832 -40.639  11.539  1.00  0.00    -0.003 C 
HETATM    2  C8  UNL     1      14.979 -41.641  10.703  1.00  0.00     0.006 C 
HETATM    3  C9  UNL     1      15.913 -42.212   9.662  1.00  0.00     0.010 C 
HETATM    4  C10 UNL     1      16.718 -40.969   9.368  1.00  0.00    -0.033 C 
HETATM    5  C11 UNL     1      15.893 -40.061   8.594  1.00  0.00     0.016 C 
HETATM    6  C12 UNL     1      17.039 -40.618  10.798  1.00  0.00     0.033 C 
HETATM    7  C13 UNL     1      18.091 -39.645  10.688  1.00  0.00     0.184 C 
HETATM    8  F1  UNL     1      18.971 -39.554  11.777  1.00  0.00    -0.248 F 
HETATM    9  C14 UNL     1      18.902 -40.117   9.456  1.00  0.00    -0.004 C 
HETATM   10  C15 UNL     1      18.840 -38.927   8.481  1.00  0.00     0.019 C 
HETATM   11  C16 UNL     1      18.079 -41.209   8.835  1.00  0.00     0.005 C 
HETATM   12  C17 UNL     1      18.606 -42.580   9.045  1.00  0.00     0.007 C 
HETATM   13  C18 UNL     1      20.113 -42.620   8.736  1.00  0.00     0.011 C 
HETATM   14  C19 UNL     1      20.775 -41.824   9.808  1.00  0.00    -0.032 C 
HETATM   15  C20 UNL     1      20.699 -42.464  11.166  1.00  0.00     0.011 C 
HETATM   16  C21 UNL     1      21.262 -43.829  11.113  1.00  0.00     0.008 C 
HETATM   17  C22 UNL     1      22.699 -43.932  10.582  1.00  0.00     0.019 C 
HETATM   18  C23 UNL     1      22.904 -45.358  10.214  1.00  0.00     0.110 C 
HETATM   19  C28 UNL     1      23.658 -45.681   8.977  1.00  0.00     0.140 C 
HETATM   20  C29 UNL     1      24.368 -44.524   8.343  1.00  0.00     0.034 C 
HETATM   21  C30 UNL     1      23.356 -43.377   8.219  1.00  0.00     0.012 C 
HETATM   22  C31 UNL     1      23.086 -42.885   9.629  1.00  0.00    -0.034 C 
HETATM   23  C32 UNL     1      24.482 -42.348  10.046  1.00  0.00     0.016 C 
HETATM   24  C33 UNL     1      22.266 -41.638   9.630  1.00  0.00     0.003 C 
HETATM   25  C34 UNL     1      22.344 -40.809   8.416  1.00  0.00     0.006 C 
HETATM   26  C35 UNL     1      21.211 -39.866   8.602  1.00  0.00     0.007 C 
HETATM   27  C36 UNL     1      20.307 -40.424   9.720  1.00  0.00     0.006 C 
ENDROOT
BRANCH   1  28
HETATM   28  C2  UNL     1      14.996 -39.464  11.899  1.00  0.00    -0.014 C 
HETATM   29  C1  UNL     1      13.663 -40.048  12.409  1.00  0.00     0.010 C 
BRANCH  28  30
HETATM   30  C3  UNL     1      15.540 -38.595  12.980  1.00  0.00     0.005 C 
BRANCH  30  31
HETATM   31  C4  UNL     1      16.227 -37.343  12.664  1.00  0.00     0.011 C 
BRANCH  31  32
HETATM   32  C5  UNL     1      16.101 -36.597  11.418  1.00  0.00     0.113 C 
BRANCH  32  33
HETATM   33  C6  UNL     1      15.392 -35.294  11.482  1.00  0.00     0.172 C 
HETATM   34  O1  UNL     1      14.722 -34.988  12.473  1.00  0.00    -0.648 OA
HETATM   35  O2  UNL     1      15.489 -34.416  10.417  1.00  0.00    -0.648 OA
ENDBRANCH  32  33
ENDBRANCH  31  32
ENDBRANCH  30  31
ENDBRANCH  28  30
ENDBRANCH   1  28
BRANCH  18  36
HETATM   36  N1  UNL     1      23.413 -46.208  11.263  1.00  0.00    -0.413 N 
ATOM     37  H1  UNL     1      23.311 -47.222  11.215  1.00  0.00     0.153 HD
BRANCH  36  38
HETATM   38  C24 UNL     1      24.058 -45.589  12.358  1.00  0.00     0.133 C 
BRANCH  38  39
HETATM   39  C25 UNL     1      25.553 -45.844  12.381  1.00  0.00     0.135 C 
BRANCH  39  40
HETATM   40  N2  UNL     1      26.323 -44.846  11.747  1.00  0.00    -0.419 N 
HETATM   41  C26 UNL     1      27.271 -45.259  10.778  1.00  0.00     0.142 C 
HETATM   42  C27 UNL     1      26.846 -43.838  12.649  1.00  0.00     0.142 C 
ENDBRANCH  39  40
ENDBRANCH  38  39
ENDBRANCH  36  38
ENDBRANCH  18  36
BRANCH  19  43
HETATM   43  O3  UNL     1      24.568 -46.728   9.089  1.00  0.00    -0.394 OA
ATOM     44  H3  UNL     1      25.146 -46.846   8.345  1.00  0.00     0.210 HD
ENDBRANCH  19  43
TORSDOF 10
ENDMDL
MODEL 5
REMARK VINA RESULT: -8.247233447      4.470      9.156
REMARK  10 active torsions:
REMARK  status: ('A' for Active; 'I' for Inactive)
REMARK    1  A    between atoms: C2_2  and  C3_3 
REMARK    2  A    between atoms: C2_2  and  C7_9 
REMARK    3  A    between atoms: C3_3  and  C4_4 
REMARK    4  A    between atoms: C4_4  and  C5_5 
REMARK    5  A    between atoms: C5_5  and  C6_6 
REMARK    6  A    between atoms: C23_26  and  N1_27 
REMARK    7  A    between atoms: N1_27  and  C24_29 
REMARK    8  A    between atoms: C24_29  and  C25_30 
REMARK    9  A    between atoms: C25_30  and  N2_31 
REMARK   10  A    between atoms: C28_34  and  O3_35 
ROOT
HETATM    1  C7  UNL     1      16.405 -40.485  11.663  1.00  0.00    -0.003 C 
HETATM    2  C8  UNL     1      15.431 -41.376  10.833  1.00  0.00     0.006 C 
HETATM    3  C9  UNL     1      16.274 -42.023   9.760  1.00  0.00     0.010 C 
HETATM    4  C10 UNL     1      17.198 -40.866   9.465  1.00  0.00    -0.033 C 
HETATM    5  C11 UNL     1      16.456 -39.862   8.727  1.00  0.00     0.016 C 
HETATM    6  C12 UNL     1      17.589 -40.577  10.892  1.00  0.00     0.033 C 
HETATM    7  C13 UNL     1      18.735 -39.718  10.770  1.00  0.00     0.184 C 
HETATM    8  F1  UNL     1      19.646 -39.740  11.837  1.00  0.00    -0.248 F 
HETATM    9  C14 UNL     1      19.462 -40.250   9.510  1.00  0.00    -0.004 C 
HETATM   10  C15 UNL     1      19.502 -39.042   8.556  1.00  0.00     0.019 C 
HETATM   11  C16 UNL     1      18.514 -41.238   8.893  1.00  0.00     0.005 C 
HETATM   12  C17 UNL     1      18.898 -42.661   9.068  1.00  0.00     0.007 C 
HETATM   13  C18 UNL     1      20.385 -42.853   8.720  1.00  0.00     0.011 C 
HETATM   14  C19 UNL     1      21.152 -42.151   9.786  1.00  0.00    -0.032 C 
HETATM   15  C20 UNL     1      21.042 -42.804  11.136  1.00  0.00     0.011 C 
HETATM   16  C21 UNL     1      21.456 -44.219  11.047  1.00  0.00     0.008 C 
HETATM   17  C22 UNL     1      22.861 -44.462  10.477  1.00  0.00     0.019 C 
HETATM   18  C23 UNL     1      22.906 -45.895  10.082  1.00  0.00     0.110 C 
HETATM   19  C28 UNL     1      23.592 -46.273   8.821  1.00  0.00     0.140 C 
HETATM   20  C29 UNL     1      24.404 -45.185   8.187  1.00  0.00     0.034 C 
HETATM   21  C30 UNL     1      23.517 -43.937   8.107  1.00  0.00     0.012 C 
HETATM   22  C31 UNL     1      23.334 -43.445   9.531  1.00  0.00    -0.034 C 
HETATM   23  C32 UNL     1      24.788 -43.065   9.920  1.00  0.00     0.016 C 
HETATM   24  C33 UNL     1      22.650 -42.119   9.573  1.00  0.00     0.003 C 
HETATM   25  C34 UNL     1      22.785 -41.280   8.370  1.00  0.00     0.006 C 
HETATM   26  C35 UNL     1      21.763 -40.227   8.600  1.00  0.00     0.007 C 
HETATM   27  C36 UNL     1      20.833 -40.707   9.733  1.00  0.00     0.006 C 
ENDROOT
BRANCH   1  28
HETATM   28  C2  UNL     1      15.706 -39.235  12.063  1.00  0.00    -0.014 C 
HETATM   29  C1  UNL     1      14.203 -39.580  12.042  1.00  0.00     0.010 C 
BRANCH  28  30
HETATM   30  C3  UNL     1      16.025 -38.729  13.427  1.00  0.00     0.005 C 
BRANCH  30  31
HETATM   31  C4  UNL     1      17.404 -38.435  13.817  1.00  0.00     0.011 C 
BRANCH  31  32
HETATM   32  C5  UNL     1      17.991 -38.702  15.124  1.00  0.00     0.113 C 
BRANCH  32  33
HETATM   33  C6  UNL     1      19.462 -38.896  15.174  1.00  0.00     0.172 C 
HETATM   34  O1  UNL     1      20.230 -37.983  14.856  1.00  0.00    -0.648 OA
HETATM   35  O2  UNL     1      19.972 -40.116  15.582  1.00  0.00    -0.648 OA
ENDBRANCH  32  33
ENDBRANCH  31  32
ENDBRANCH  30  31
ENDBRANCH  28  30
ENDBRANCH   1  28
BRANCH  18  36
HETATM   36  N1  UNL     1      23.348 -46.812  11.104  1.00  0.00    -0.413 N 
ATOM     37  H1  UNL     1      24.340 -47.009  11.244  1.00  0.00     0.153 HD
BRANCH  36  38
HETATM   38  C24 UNL     1      22.361 -47.431  11.905  1.00  0.00     0.133 C 
BRANCH  38  39
HETATM   39  C25 UNL     1      22.437 -47.011  13.361  1.00  0.00     0.135 C 
BRANCH  39  40
HETATM   40  N2  UNL     1      21.195 -46.654  13.928  1.00  0.00    -0.419 N 
HETATM   41  C26 UNL     1      20.026 -46.890  13.160  1.00  0.00     0.142 C 
HETATM   42  C27 UNL     1      21.188 -45.356  14.574  1.00  0.00     0.142 C 
ENDBRANCH  39  40
ENDBRANCH  38  39
ENDBRANCH  36  38
ENDBRANCH  18  36
BRANCH  19  43
HETATM   43  O3  UNL     1      24.389 -47.411   8.893  1.00  0.00    -0.394 OA
ATOM     44  H3  UNL     1      23.995 -48.206   8.554  1.00  0.00     0.210 HD
ENDBRANCH  19  43
TORSDOF 10
ENDMDL
