MODEL 1
REMARK VINA RESULT: -7.990837288      0.000      0.000
REMARK  11 active torsions:
REMARK  status: ('A' for Active; 'I' for Inactive)
REMARK       I    between atoms: C2_2  and  N1_4 
REMARK    1  A    between atoms: N1_4  and  C3_6 
REMARK    2  A    between atoms: C3_6  and  C4_7 
REMARK    3  A    between atoms: C3_6  and  C10_19 
REMARK    4  A    between atoms: C4_7  and  C5_8 
REMARK    5  A    between atoms: C5_8  and  C6_9 
REMARK    6  A    between atoms: C6_9  and  C7_10 
REMARK    7  A    between atoms: C7_10  and  C8_11 
REMARK    8  A    between atoms: C8_11  and  C9_12 
REMARK    9  A    between atoms: C9_12  and  O2_13 
REMARK   10  A    between atoms: N2_15  and  O3_17 
REMARK   11  A    between atoms: N3_26  and  C16_27 
ROOT
HETATM    1  C10 UNL     1      16.114 -38.861  11.114  1.00  0.00     0.041 C 
HETATM    2  C11 UNL     1      17.378 -38.099  10.763  1.00  0.00     0.011 C 
HETATM    3  C12 UNL     1      17.698 -38.222   9.282  1.00  0.00     0.001 C 
HETATM    4  C13 UNL     1      19.012 -38.931   9.080  1.00  0.00     0.009 C 
HETATM    5  C14 UNL     1      18.980 -39.781   7.803  1.00  0.00     0.103 C 
HETATM    6  C15 UNL     1      20.121 -40.718   7.715  1.00  0.00     0.220 C 
HETATM    7  O4  UNL     1      21.263 -40.127   7.666  1.00  0.00    -0.273 OA
HETATM    8  N3  UNL     1      20.055 -42.139   7.681  1.00  0.00    -0.346 N 
HETATM    9  C22 UNL     1      19.297 -42.939   8.649  1.00  0.00     0.142 C 
HETATM   10  C23 UNL     1      18.016 -43.493   8.136  1.00  0.00     0.080 C 
HETATM   11 BR1  UNL     1      18.195 -45.218   7.277  1.00  0.00    -0.089 Br
HETATM   12  C24 UNL     1      17.043 -43.635   9.319  1.00  0.00     0.056 C 
HETATM   13  C25 UNL     1      16.360 -42.347   9.597  1.00  0.00    -0.057 A 
HETATM   14  C26 UNL     1      15.187 -42.256   8.812  1.00  0.00     0.007 A 
HETATM   15  C27 UNL     1      14.370 -41.155   8.796  1.00  0.00     0.001 A 
HETATM   16  C28 UNL     1      14.767 -40.127   9.603  1.00  0.00     0.007 A 
HETATM   17  C29 UNL     1      15.936 -40.169  10.410  1.00  0.00    -0.051 A 
HETATM   18  C30 UNL     1      16.738 -41.290  10.409  1.00  0.00     0.014 A 
ENDROOT
BRANCH   1  19
HETATM   19  C3  UNL     1      15.902 -38.855  12.584  1.00  0.00     0.092 C 
BRANCH  19  20
HETATM   20  N1  UNL     1      14.647 -38.286  13.027  1.00  0.00    -0.356 N 
HETATM   21  C2  UNL     1      13.474 -39.060  13.210  1.00  0.00     0.213 C 
HETATM   22  C1  UNL     1      12.227 -38.445  13.659  1.00  0.00     0.117 C 
HETATM   23  O1  UNL     1      13.512 -40.292  12.983  1.00  0.00    -0.274 OA
ATOM     24  H1  UNL     1      14.604 -37.284  13.216  1.00  0.00     0.162 HD
ENDBRANCH  19  20
BRANCH  19  25
HETATM   25  C4  UNL     1      16.974 -38.093  13.336  1.00  0.00     0.026 C 
BRANCH  25  26
HETATM   26  C5  UNL     1      17.710 -39.051  14.247  1.00  0.00     0.002 C 
BRANCH  26  27
HETATM   27  C6  UNL     1      19.227 -38.820  14.147  1.00  0.00     0.001 C 
BRANCH  27  28
HETATM   28  C7  UNL     1      19.918 -40.069  13.696  1.00  0.00     0.008 C 
BRANCH  28  29
HETATM   29  C8  UNL     1      19.597 -40.491  12.299  1.00  0.00     0.086 C 
BRANCH  29  30
HETATM   30  C9  UNL     1      20.699 -41.220  11.681  1.00  0.00     0.135 C 
HETATM   31  N2  UNL     1      21.509 -40.614  10.872  1.00  0.00    -0.251 N 
ATOM     32  H2  UNL     1      21.378 -39.624  10.664  1.00  0.00     0.196 HD
BRANCH  30  33
HETATM   33  O2  UNL     1      20.895 -42.560  11.949  1.00  0.00    -0.348 OA
ATOM     34  H2  UNL     1      21.765 -42.896  12.132  1.00  0.00     0.219 HD
ENDBRANCH  30  33
BRANCH  31  35
HETATM   35  O3  UNL     1      22.533 -41.299  10.301  1.00  0.00    -0.288 OA
ATOM     36  H3  UNL     1      22.356 -41.929   9.613  1.00  0.00     0.244 HD
ENDBRANCH  31  35
ENDBRANCH  29  30
ENDBRANCH  28  29
ENDBRANCH  27  28
ENDBRANCH  26  27
ENDBRANCH  25  26
ENDBRANCH  19  25
ENDBRANCH   1  19
BRANCH   8  37
HETATM   37  C16 UNL     1      20.788 -42.832   6.652  1.00  0.00     0.087 C 
HETATM   38  C17 UNL     1      22.151 -43.197   7.186  1.00  0.00     0.025 C 
HETATM   39  C18 UNL     1      22.670 -44.222   6.149  1.00  0.00     0.002 C 
HETATM   40  C19 UNL     1      23.054 -43.340   4.969  1.00  0.00     0.000 C 
HETATM   41  C20 UNL     1      21.931 -42.546   4.419  1.00  0.00     0.002 C 
HETATM   42  C21 UNL     1      20.811 -42.198   5.311  1.00  0.00     0.025 C 
ENDBRANCH   8  37
TORSDOF 11
ENDMDL
MODEL 2
REMARK VINA RESULT: -7.846450378      2.668      8.395
REMARK  11 active torsions:
REMARK  status: ('A' for Active; 'I' for Inactive)
REMARK       I    between atoms: C2_2  and  N1_4 
REMARK    1  A    between atoms: N1_4  and  C3_6 
REMARK    2  A    between atoms: C3_6  and  C4_7 
REMARK    3  A    between atoms: C3_6  and  C10_19 
REMARK    4  A    between atoms: C4_7  and  C5_8 
REMARK    5  A    between atoms: C5_8  and  C6_9 
REMARK    6  A    between atoms: C6_9  and  C7_10 
REMARK    7  A    between atoms: C7_10  and  C8_11 
REMARK    8  A    between atoms: C8_11  and  C9_12 
REMARK    9  A    between atoms: C9_12  and  O2_13 
REMARK   10  A    between atoms: N2_15  and  O3_17 
REMARK   11  A    between atoms: N3_26  and  C16_27 
ROOT
HETATM    1  C10 UNL     1      21.120 -42.706   8.970  1.00  0.00     0.041 C 
HETATM    2  C11 UNL     1      21.689 -41.919  10.134  1.00  0.00     0.011 C 
HETATM    3  C12 UNL     1      20.797 -42.031  11.360  1.00  0.00     0.001 C 
HETATM    4  C13 UNL     1      20.245 -40.682  11.741  1.00  0.00     0.009 C 
HETATM    5  C14 UNL     1      18.830 -40.817  12.317  1.00  0.00     0.103 C 
HETATM    6  C15 UNL     1      18.135 -39.516  12.429  1.00  0.00     0.220 C 
HETATM    7  O4  UNL     1      18.720 -38.693  13.229  1.00  0.00    -0.273 OA
HETATM    8  N3  UNL     1      16.941 -39.128  11.761  1.00  0.00    -0.346 N 
HETATM    9  C22 UNL     1      16.738 -39.266  10.315  1.00  0.00     0.142 C 
HETATM   10  C23 UNL     1      15.857 -40.392   9.910  1.00  0.00     0.080 C 
HETATM   11 BR1  UNL     1      13.978 -39.932   9.842  1.00  0.00    -0.089 Br
HETATM   12  C24 UNL     1      16.293 -40.869   8.514  1.00  0.00     0.056 C 
HETATM   13  C25 UNL     1      17.433 -41.816   8.614  1.00  0.00    -0.057 A 
HETATM   14  C26 UNL     1      16.941 -43.133   8.769  1.00  0.00     0.007 A 
HETATM   15  C27 UNL     1      17.748 -44.226   8.951  1.00  0.00     0.001 A 
HETATM   16  C28 UNL     1      19.087 -43.959   8.977  1.00  0.00     0.007 A 
HETATM   17  C29 UNL     1      19.631 -42.656   8.827  1.00  0.00    -0.051 A 
HETATM   18  C30 UNL     1      18.797 -41.574   8.641  1.00  0.00     0.014 A 
ENDROOT
BRANCH   1  19
HETATM   19  C3  UNL     1      21.922 -42.462   7.745  1.00  0.00     0.092 C 
BRANCH  19  20
HETATM   20  N1  UNL     1      23.114 -43.274   7.612  1.00  0.00    -0.356 N 
HETATM   21  C2  UNL     1      23.325 -44.160   6.527  1.00  0.00     0.213 C 
HETATM   22  C1  UNL     1      24.543 -44.961   6.432  1.00  0.00     0.117 C 
HETATM   23  O1  UNL     1      22.448 -44.254   5.635  1.00  0.00    -0.274 OA
ATOM     24  H1  UNL     1      23.834 -43.204   8.332  1.00  0.00     0.162 HD
ENDBRANCH  19  20
BRANCH  19  25
HETATM   25  C4  UNL     1      22.397 -41.030   7.620  1.00  0.00     0.026 C 
BRANCH  25  26
HETATM   26  C5  UNL     1      21.502 -40.298   6.645  1.00  0.00     0.002 C 
BRANCH  26  27
HETATM   27  C6  UNL     1      21.701 -40.850   5.223  1.00  0.00     0.001 C 
BRANCH  27  28
HETATM   28  C7  UNL     1      20.396 -40.889   4.489  1.00  0.00     0.008 C 
BRANCH  28  29
HETATM   29  C8  UNL     1      20.454 -41.540   3.146  1.00  0.00     0.086 C 
BRANCH  29  30
HETATM   30  C9  UNL     1      20.746 -42.966   3.242  1.00  0.00     0.135 C 
HETATM   31  N2  UNL     1      19.951 -43.750   3.899  1.00  0.00    -0.251 N 
ATOM     32  H2  UNL     1      19.118 -43.372   4.351  1.00  0.00     0.196 HD
BRANCH  30  33
HETATM   33  O2  UNL     1      21.867 -43.498   2.639  1.00  0.00    -0.348 OA
ATOM     34  H2  UNL     1      22.666 -43.637   3.135  1.00  0.00     0.219 HD
ENDBRANCH  30  33
BRANCH  31  35
HETATM   35  O3  UNL     1      20.228 -45.077   3.985  1.00  0.00    -0.288 OA
ATOM     36  H3  UNL     1      19.538 -45.715   3.846  1.00  0.00     0.244 HD
ENDBRANCH  31  35
ENDBRANCH  29  30
ENDBRANCH  28  29
ENDBRANCH  27  28
ENDBRANCH  26  27
ENDBRANCH  25  26
ENDBRANCH  19  25
ENDBRANCH   1  19
BRANCH   8  37
HETATM   37  C16 UNL     1      15.876 -38.552  12.543  1.00  0.00     0.087 C 
HETATM   38  C17 UNL     1      14.960 -39.656  13.008  1.00  0.00     0.025 C 
HETATM   39  C18 UNL     1      14.109 -38.967  14.103  1.00  0.00     0.002 C 
HETATM   40  C19 UNL     1      13.141 -38.120  13.289  1.00  0.00     0.000 C 
HETATM   41  C20 UNL     1      13.800 -37.120  12.418  1.00  0.00     0.002 C 
HETATM   42  C21 UNL     1      15.172 -37.388  11.951  1.00  0.00     0.025 C 
ENDBRANCH   8  37
TORSDOF 11
ENDMDL
MODEL 3
REMARK VINA RESULT: -7.817117748      1.453      1.791
REMARK  11 active torsions:
REMARK  status: ('A' for Active; 'I' for Inactive)
REMARK       I    between atoms: C2_2  and  N1_4 
REMARK    1  A    between atoms: N1_4  and  C3_6 
REMARK    2  A    between atoms: C3_6  and  C4_7 
REMARK    3  A    between atoms: C3_6  and  C10_19 
REMARK    4  A    between atoms: C4_7  and  C5_8 
REMARK    5  A    between atoms: C5_8  and  C6_9 
REMARK    6  A    between atoms: C6_9  and  C7_10 
REMARK    7  A    between atoms: C7_10  and  C8_11 
REMARK    8  A    between atoms: C8_11  and  C9_12 
REMARK    9  A    between atoms: C9_12  and  O2_13 
REMARK   10  A    between atoms: N2_15  and  O3_17 
REMARK   11  A    between atoms: N3_26  and  C16_27 
ROOT
HETATM    1  C10 UNL     1      15.782 -39.095  10.308  1.00  0.00     0.041 C 
HETATM    2  C11 UNL     1      17.167 -38.482  10.237  1.00  0.00     0.011 C 
HETATM    3  C12 UNL     1      17.781 -38.673   8.859  1.00  0.00     0.001 C 
HETATM    4  C13 UNL     1      19.022 -39.523   8.944  1.00  0.00     0.009 C 
HETATM    5  C14 UNL     1      19.170 -40.395   7.690  1.00  0.00     0.103 C 
HETATM    6  C15 UNL     1      20.194 -41.450   7.848  1.00  0.00     0.220 C 
HETATM    7  O4  UNL     1      21.378 -40.986   8.046  1.00  0.00    -0.273 OA
HETATM    8  N3  UNL     1      19.981 -42.856   7.800  1.00  0.00    -0.346 N 
HETATM    9  C22 UNL     1      18.950 -43.548   8.582  1.00  0.00     0.142 C 
HETATM   10  C23 UNL     1      17.756 -43.973   7.806  1.00  0.00     0.080 C 
HETATM   11 BR1  UNL     1      17.923 -45.726   7.004  1.00  0.00    -0.089 Br
HETATM   12  C24 UNL     1      16.543 -43.982   8.752  1.00  0.00     0.056 C 
HETATM   13  C25 UNL     1      15.961 -42.622   8.877  1.00  0.00    -0.057 A 
HETATM   14  C26 UNL     1      15.001 -42.423   7.858  1.00  0.00     0.007 A 
HETATM   15  C27 UNL     1      14.332 -41.242   7.668  1.00  0.00     0.001 A 
HETATM   16  C28 UNL     1      14.658 -40.244   8.541  1.00  0.00     0.007 A 
HETATM   17  C29 UNL     1      15.615 -40.393   9.581  1.00  0.00    -0.051 A 
HETATM   18  C30 UNL     1      16.272 -41.593   9.752  1.00  0.00     0.014 A 
ENDROOT
BRANCH   1  19
HETATM   19  C3  UNL     1      15.263 -39.032  11.698  1.00  0.00     0.092 C 
BRANCH  19  20
HETATM   20  N1  UNL     1      14.979 -37.702  12.194  1.00  0.00    -0.356 N 
HETATM   21  C2  UNL     1      13.662 -37.227  12.411  1.00  0.00     0.213 C 
HETATM   22  C1  UNL     1      13.420 -35.876  12.912  1.00  0.00     0.117 C 
HETATM   23  O1  UNL     1      12.691 -37.982  12.168  1.00  0.00    -0.274 OA
ATOM     24  H1  UNL     1      15.762 -37.079  12.396  1.00  0.00     0.162 HD
ENDBRANCH  19  20
BRANCH  19  25
HETATM   25  C4  UNL     1      16.205 -39.645  12.713  1.00  0.00     0.026 C 
BRANCH  25  26
HETATM   26  C5  UNL     1      16.675 -38.566  13.662  1.00  0.00     0.002 C 
BRANCH  26  27
HETATM   27  C6  UNL     1      18.206 -38.436  13.605  1.00  0.00     0.001 C 
BRANCH  27  28
HETATM   28  C7  UNL     1      18.806 -38.714  14.949  1.00  0.00     0.008 C 
BRANCH  28  29
HETATM   29  C8  UNL     1      20.270 -39.011  14.929  1.00  0.00     0.086 C 
BRANCH  29  30
HETATM   30  C9  UNL     1      20.547 -40.367  14.466  1.00  0.00     0.135 C 
HETATM   31  N2  UNL     1      20.704 -41.328  15.320  1.00  0.00    -0.251 N 
ATOM     32  H2  UNL     1      20.634 -41.140  16.320  1.00  0.00     0.196 HD
BRANCH  30  33
HETATM   33  O2  UNL     1      20.645 -40.644  13.117  1.00  0.00    -0.348 OA
ATOM     34  H2  UNL     1      20.497 -41.524  12.791  1.00  0.00     0.219 HD
ENDBRANCH  30  33
BRANCH  31  35
HETATM   35  O3  UNL     1      20.960 -42.587  14.881  1.00  0.00    -0.288 OA
ATOM     36  H3  UNL     1      20.344 -43.287  15.063  1.00  0.00     0.244 HD
ENDBRANCH  31  35
ENDBRANCH  29  30
ENDBRANCH  28  29
ENDBRANCH  27  28
ENDBRANCH  26  27
ENDBRANCH  25  26
ENDBRANCH  19  25
ENDBRANCH   1  19
BRANCH   8  37
HETATM   37  C16 UNL     1      20.836 -43.648   6.953  1.00  0.00     0.087 C 
HETATM   38  C17 UNL     1      22.037 -44.091   7.750  1.00  0.00     0.025 C 
HETATM   39  C18 UNL     1      22.657 -45.197   6.862  1.00  0.00     0.002 C 
HETATM   40  C19 UNL     1      23.331 -44.400   5.754  1.00  0.00     0.000 C 
HETATM   41  C20 UNL     1      22.402 -43.548   4.975  1.00  0.00     0.002 C 
HETATM   42  C21 UNL     1      21.166 -43.077   5.623  1.00  0.00     0.025 C 
ENDBRANCH   8  37
TORSDOF 11
ENDMDL
MODEL 4
REMARK VINA RESULT: -7.734108907      2.514      4.397
REMARK  11 active torsions:
REMARK  status: ('A' for Active; 'I' for Inactive)
REMARK       I    between atoms: C2_2  and  N1_4 
REMARK    1  A    between atoms: N1_4  and  C3_6 
REMARK    2  A    between atoms: C3_6  and  C4_7 
REMARK    3  A    between atoms: C3_6  and  C10_19 
REMARK    4  A    between atoms: C4_7  and  C5_8 
REMARK    5  A    between atoms: C5_8  and  C6_9 
REMARK    6  A    between atoms: C6_9  and  C7_10 
REMARK    7  A    between atoms: C7_10  and  C8_11 
REMARK    8  A    between atoms: C8_11  and  C9_12 
REMARK    9  A    between atoms: C9_12  and  O2_13 
REMARK   10  A    between atoms: N2_15  and  O3_17 
REMARK   11  A    between atoms: N3_26  and  C16_27 
ROOT
HETATM    1  C10 UNL     1      16.725 -39.391  10.077  1.00  0.00     0.041 C 
HETATM    2  C11 UNL     1      18.164 -38.971   9.847  1.00  0.00     0.011 C 
HETATM    3  C12 UNL     1      18.607 -39.288   8.428  1.00  0.00     0.001 C 
HETATM    4  C13 UNL     1      19.730 -40.294   8.434  1.00  0.00     0.009 C 
HETATM    5  C14 UNL     1      19.638 -41.219   7.214  1.00  0.00     0.103 C 
HETATM    6  C15 UNL     1      20.527 -42.396   7.325  1.00  0.00     0.220 C 
HETATM    7  O4  UNL     1      21.775 -42.087   7.388  1.00  0.00    -0.273 OA
HETATM    8  N3  UNL     1      20.131 -43.761   7.363  1.00  0.00    -0.346 N 
HETATM    9  C22 UNL     1      19.102 -44.283   8.270  1.00  0.00     0.142 C 
HETATM   10  C23 UNL     1      17.791 -44.570   7.631  1.00  0.00     0.080 C 
HETATM   11 BR1  UNL     1      17.650 -46.356   6.900  1.00  0.00    -0.089 Br
HETATM   12  C24 UNL     1      16.688 -44.386   8.687  1.00  0.00     0.056 C 
HETATM   13  C25 UNL     1      16.303 -42.957   8.802  1.00  0.00    -0.057 A 
HETATM   14  C26 UNL     1      15.279 -42.667   7.870  1.00  0.00     0.007 A 
HETATM   15  C27 UNL     1      14.754 -41.413   7.689  1.00  0.00     0.001 A 
HETATM   16  C28 UNL     1      15.292 -40.439   8.480  1.00  0.00     0.007 A 
HETATM   17  C29 UNL     1      16.320 -40.679   9.430  1.00  0.00    -0.051 A 
HETATM   18  C30 UNL     1      16.829 -41.949   9.595  1.00  0.00     0.014 A 
ENDROOT
BRANCH   1  19
HETATM   19  C3  UNL     1      16.360 -39.212  11.505  1.00  0.00     0.092 C 
BRANCH  19  20
HETATM   20  N1  UNL     1      17.413 -39.502  12.455  1.00  0.00    -0.356 N 
HETATM   21  C2  UNL     1      17.799 -38.597  13.475  1.00  0.00     0.213 C 
HETATM   22  C1  UNL     1      18.868 -38.930  14.414  1.00  0.00     0.117 C 
HETATM   23  O1  UNL     1      17.210 -37.495  13.570  1.00  0.00    -0.274 OA
ATOM     24  H1  UNL     1      17.899 -40.397  12.388  1.00  0.00     0.162 HD
ENDBRANCH  19  20
BRANCH  19  25
HETATM   25  C4  UNL     1      15.188 -40.072  11.931  1.00  0.00     0.026 C 
BRANCH  25  26
HETATM   26  C5  UNL     1      14.175 -39.204  12.643  1.00  0.00     0.002 C 
BRANCH  26  27
HETATM   27  C6  UNL     1      14.055 -37.842  11.940  1.00  0.00     0.001 C 
BRANCH  27  28
HETATM   28  C7  UNL     1      13.592 -36.793  12.905  1.00  0.00     0.008 C 
BRANCH  28  29
HETATM   29  C8  UNL     1      14.399 -35.536  12.895  1.00  0.00     0.086 C 
BRANCH  29  30
HETATM   30  C9  UNL     1      14.162 -34.744  11.693  1.00  0.00     0.135 C 
HETATM   31  N2  UNL     1      15.147 -34.441  10.908  1.00  0.00    -0.251 N 
ATOM     32  H2  UNL     1      16.092 -34.755  11.128  1.00  0.00     0.196 HD
BRANCH  30  33
HETATM   33  O2  UNL     1      12.891 -34.309  11.376  1.00  0.00    -0.348 OA
ATOM     34  H2  UNL     1      12.764 -33.543  10.828  1.00  0.00     0.219 HD
ENDBRANCH  30  33
BRANCH  31  35
HETATM   35  O3  UNL     1      14.918 -33.704   9.790  1.00  0.00    -0.288 OA
ATOM     36  H3  UNL     1      14.605 -34.128   8.999  1.00  0.00     0.244 HD
ENDBRANCH  31  35
ENDBRANCH  29  30
ENDBRANCH  28  29
ENDBRANCH  27  28
ENDBRANCH  26  27
ENDBRANCH  25  26
ENDBRANCH  19  25
ENDBRANCH   1  19
BRANCH   8  37
HETATM   37  C16 UNL     1      20.787 -44.689   6.477  1.00  0.00     0.087 C 
HETATM   38  C17 UNL     1      21.903 -45.372   7.226  1.00  0.00     0.025 C 
HETATM   39  C18 UNL     1      22.267 -46.562   6.304  1.00  0.00     0.002 C 
HETATM   40  C19 UNL     1      23.048 -45.890   5.184  1.00  0.00     0.000 C 
HETATM   41  C20 UNL     1      22.280 -44.859   4.448  1.00  0.00     0.002 C 
HETATM   42  C21 UNL     1      21.181 -44.168   5.144  1.00  0.00     0.025 C 
ENDBRANCH   8  37
TORSDOF 11
ENDMDL
MODEL 5
REMARK VINA RESULT: -7.711753615      2.624      8.384
REMARK  11 active torsions:
REMARK  status: ('A' for Active; 'I' for Inactive)
REMARK       I    between atoms: C2_2  and  N1_4 
REMARK    1  A    between atoms: N1_4  and  C3_6 
REMARK    2  A    between atoms: C3_6  and  C4_7 
REMARK    3  A    between atoms: C3_6  and  C10_19 
REMARK    4  A    between atoms: C4_7  and  C5_8 
REMARK    5  A    between atoms: C5_8  and  C6_9 
REMARK    6  A    between atoms: C6_9  and  C7_10 
REMARK    7  A    between atoms: C7_10  and  C8_11 
REMARK    8  A    between atoms: C8_11  and  C9_12 
REMARK    9  A    between atoms: C9_12  and  O2_13 
REMARK   10  A    between atoms: N2_15  and  O3_17 
REMARK   11  A    between atoms: N3_26  and  C16_27 
ROOT
HETATM    1  C10 UNL     1      20.840 -42.315   8.875  1.00  0.00     0.041 C 
HETATM    2  C11 UNL     1      21.119 -41.170   9.829  1.00  0.00     0.011 C 
HETATM    3  C12 UNL     1      20.285 -41.295  11.094  1.00  0.00     0.001 C 
HETATM    4  C13 UNL     1      19.337 -40.130  11.222  1.00  0.00     0.009 C 
HETATM    5  C14 UNL     1      18.024 -40.569  11.881  1.00  0.00     0.103 C 
HETATM    6  C15 UNL     1      16.960 -39.548  11.763  1.00  0.00     0.220 C 
HETATM    7  O4  UNL     1      17.249 -38.441  12.352  1.00  0.00    -0.273 OA
HETATM    8  N3  UNL     1      15.715 -39.690  11.089  1.00  0.00    -0.346 N 
HETATM    9  C22 UNL     1      15.589 -40.177   9.711  1.00  0.00     0.142 C 
HETATM   10  C23 UNL     1      15.105 -41.577   9.583  1.00  0.00     0.080 C 
HETATM   11 BR1  UNL     1      13.178 -41.737   9.515  1.00  0.00    -0.089 Br
HETATM   12  C24 UNL     1      15.690 -42.175   8.292  1.00  0.00     0.056 C 
HETATM   13  C25 UNL     1      17.065 -42.687   8.525  1.00  0.00    -0.057 A 
HETATM   14  C26 UNL     1      17.001 -44.029   8.965  1.00  0.00     0.007 A 
HETATM   15  C27 UNL     1      18.103 -44.761   9.325  1.00  0.00     0.001 A 
HETATM   16  C28 UNL     1      19.293 -44.100   9.231  1.00  0.00     0.007 A 
HETATM   17  C29 UNL     1      19.411 -42.753   8.796  1.00  0.00    -0.051 A 
HETATM   18  C30 UNL     1      18.287 -42.039   8.437  1.00  0.00     0.014 A 
ENDROOT
BRANCH   1  19
HETATM   19  C3  UNL     1      21.548 -42.096   7.588  1.00  0.00     0.092 C 
BRANCH  19  20
HETATM   20  N1  UNL     1      22.798 -42.811   7.439  1.00  0.00    -0.356 N 
HETATM   21  C2  UNL     1      22.903 -44.042   6.745  1.00  0.00     0.213 C 
HETATM   22  C1  UNL     1      24.185 -44.731   6.618  1.00  0.00     0.117 C 
HETATM   23  O1  UNL     1      21.874 -44.545   6.233  1.00  0.00    -0.274 OA
ATOM     24  H1  UNL     1      23.642 -42.411   7.851  1.00  0.00     0.162 HD
ENDBRANCH  19  20
BRANCH  19  25
HETATM   25  C4  UNL     1      21.886 -40.642   7.335  1.00  0.00     0.026 C 
BRANCH  25  26
HETATM   26  C5  UNL     1      21.918 -40.397   5.844  1.00  0.00     0.002 C 
BRANCH  26  27
HETATM   27  C6  UNL     1      20.722 -41.087   5.166  1.00  0.00     0.001 C 
BRANCH  27  28
HETATM   28  C7  UNL     1      20.811 -40.945   3.677  1.00  0.00     0.008 C 
BRANCH  28  29
HETATM   29  C8  UNL     1      20.165 -42.050   2.906  1.00  0.00     0.086 C 
BRANCH  29  30
HETATM   30  C9  UNL     1      20.662 -43.361   3.309  1.00  0.00     0.135 C 
HETATM   31  N2  UNL     1      21.898 -43.683   3.093  1.00  0.00    -0.251 N 
ATOM     32  H2  UNL     1      22.528 -43.020   2.640  1.00  0.00     0.196 HD
BRANCH  30  33
HETATM   33  O2  UNL     1      19.827 -44.273   3.923  1.00  0.00    -0.348 OA
ATOM     34  H2  UNL     1      19.468 -45.006   3.436  1.00  0.00     0.219 HD
ENDBRANCH  30  33
BRANCH  31  35
HETATM   35  O3  UNL     1      22.354 -44.905   3.471  1.00  0.00    -0.288 OA
ATOM     36  H3  UNL     1      22.460 -45.106   4.394  1.00  0.00     0.244 HD
ENDBRANCH  31  35
ENDBRANCH  29  30
ENDBRANCH  28  29
ENDBRANCH  27  28
ENDBRANCH  26  27
ENDBRANCH  25  26
ENDBRANCH  19  25
ENDBRANCH   1  19
BRANCH   8  37
HETATM   37  C16 UNL     1      14.512 -39.318  11.790  1.00  0.00     0.087 C 
HETATM   38  C17 UNL     1      14.451 -37.814  11.888  1.00  0.00     0.025 C 
HETATM   39  C18 UNL     1      12.986 -37.551  12.315  1.00  0.00     0.002 C 
HETATM   40  C19 UNL     1      12.993 -37.932  13.789  1.00  0.00     0.000 C 
HETATM   41  C20 UNL     1      13.379 -39.339  14.046  1.00  0.00     0.002 C 
HETATM   42  C21 UNL     1      14.244 -40.022  13.068  1.00  0.00     0.025 C 
ENDBRANCH   8  37
TORSDOF 11
ENDMDL
