MODEL 1
REMARK VINA RESULT: -9.627685805      0.000      0.000
REMARK  10 active torsions:
REMARK  status: ('A' for Active; 'I' for Inactive)
REMARK    1  A    between atoms: C2_2  and  C3_3 
REMARK    2  A    between atoms: C4_4  and  C5_5 
REMARK    3  A    between atoms: C5_5  and  O1_6 
REMARK    4  A    between atoms: C22_24  and  C23_25 
REMARK    5  A    between atoms: C23_25  and  C24_27 
REMARK    6  A    between atoms: C24_27  and  C25_28 
REMARK       I    between atoms: C25_28  and  N1_30 
REMARK    7  A    between atoms: N1_30  and  C26_32 
REMARK    8  A    between atoms: C26_32  and  C27_33 
REMARK    9  A    between atoms: C27_33  and  C28_34 
REMARK   10  A    between atoms: C28_34  and  N2_35 
REMARK       I    between atoms: N2_35  and  C29_37 
ROOT
HETATM    1  C3  UNL     1      11.886 -38.154  11.889  1.00  0.00     0.018 C 
HETATM    2  C4  UNL     1      12.117 -36.746  12.279  1.00  0.00     0.017 C 
HETATM    3  C6  UNL     1      12.755 -36.590  13.619  1.00  0.00     0.008 C 
HETATM    4  C7  UNL     1      14.162 -37.200  13.501  1.00  0.00     0.011 C 
HETATM    5  C8  UNL     1      14.145 -38.601  12.955  1.00  0.00    -0.032 C 
HETATM    6  C9  UNL     1      13.914 -39.523  14.138  1.00  0.00     0.016 C 
HETATM    7  C10 UNL     1      13.229 -38.832  11.805  1.00  0.00     0.002 C 
HETATM    8  C11 UNL     1      13.194 -40.291  11.519  1.00  0.00     0.006 C 
HETATM    9  C12 UNL     1      14.548 -40.633  10.919  1.00  0.00     0.006 C 
HETATM   10  C13 UNL     1      15.712 -40.103  11.643  1.00  0.00     0.003 C 
HETATM   11  C14 UNL     1      16.905 -39.898  10.710  1.00  0.00    -0.036 C 
HETATM   12  C15 UNL     1      18.155 -40.253  11.426  1.00  0.00     0.011 C 
HETATM   13  C16 UNL     1      19.338 -40.583  10.522  1.00  0.00     0.011 C 
HETATM   14  C17 UNL     1      19.008 -41.614   9.513  1.00  0.00    -0.032 C 
HETATM   15  C18 UNL     1      18.620 -42.943  10.065  1.00  0.00     0.016 C 
HETATM   16  C19 UNL     1      17.887 -41.009   8.665  1.00  0.00    -0.005 C 
HETATM   17  C20 UNL     1      18.585 -39.880   7.894  1.00  0.00     0.006 C 
HETATM   18  C21 UNL     1      20.046 -40.283   7.823  1.00  0.00     0.011 C 
HETATM   19  C22 UNL     1      20.069 -41.681   8.438  1.00  0.00     0.035 C 
HETATM   20  C31 UNL     1      16.697 -40.584   9.398  1.00  0.00     0.015 C 
HETATM   21  C32 UNL     1      16.926 -38.391  10.487  1.00  0.00     0.011 C 
HETATM   22  C33 UNL     1      16.078 -37.769  11.561  1.00  0.00     0.011 C 
HETATM   23  C34 UNL     1      15.560 -38.864  12.425  1.00  0.00    -0.032 C 
HETATM   24  C35 UNL     1      16.448 -38.921  13.673  1.00  0.00     0.016 C 
ENDROOT
BRANCH  19  25
HETATM   25  C23 UNL     1      21.390 -42.123   8.821  1.00  0.00     0.001 C 
HETATM   26  S1  UNL     1      22.106 -41.552   9.905  1.00  0.00    -0.089 SA
BRANCH  25  27
HETATM   27  C24 UNL     1      22.045 -43.239   8.097  1.00  0.00     0.149 C 
BRANCH  27  28
HETATM   28  C25 UNL     1      21.870 -43.185   6.627  1.00  0.00     0.222 C 
HETATM   29  O2  UNL     1      21.313 -44.087   5.949  1.00  0.00    -0.273 OA
HETATM   30  N1  UNL     1      22.353 -42.055   5.916  1.00  0.00    -0.360 N 
ATOM     31  H1  UNL     1      22.814 -41.303   6.428  1.00  0.00     0.162 HD
BRANCH  30  32
HETATM   32  C26 UNL     1      22.203 -41.946   4.460  1.00  0.00     0.128 C 
BRANCH  32  33
HETATM   33  C27 UNL     1      21.424 -40.749   4.070  1.00  0.00     0.064 C 
BRANCH  33  34
HETATM   34  C28 UNL     1      20.051 -40.935   3.598  1.00  0.00     0.065 C 
BRANCH  34  35
HETATM   35  N2  UNL     1      19.742 -41.513   2.359  1.00  0.00    -0.341 N 
HETATM   36  C29 UNL     1      19.738 -42.802   1.840  1.00  0.00     0.217 C 
HETATM   37  C30 UNL     1      19.345 -43.037   0.389  1.00  0.00     0.117 C 
HETATM   38  O3  UNL     1      20.044 -43.810   2.498  1.00  0.00    -0.274 OA
ATOM     39  H2  UNL     1      19.450 -40.819   1.670  1.00  0.00     0.167 HD
ENDBRANCH  34  35
ENDBRANCH  33  34
ENDBRANCH  32  33
ENDBRANCH  30  32
ENDBRANCH  27  28
ENDBRANCH  25  27
ENDBRANCH  19  25
BRANCH   1  40
HETATM   40  C2  UNL     1      10.858 -38.942  12.534  1.00  0.00    -0.031 C 
HETATM   41  C1  UNL     1       9.606 -39.142  12.281  1.00  0.00     0.007 C 
ENDBRANCH   1  40
BRANCH   2  42
HETATM   42  C5  UNL     1      11.068 -35.760  11.912  1.00  0.00     0.169 C 
BRANCH  42  43
HETATM   43  O1  UNL     1      11.368 -34.447  11.887  1.00  0.00    -0.400 OA
ATOM     44  H1  UNL     1      11.728 -34.062  11.097  1.00  0.00     0.209 HD
ENDBRANCH  42  43
ENDBRANCH   2  42
TORSDOF 10
ENDMDL
MODEL 2
REMARK VINA RESULT: -9.514900459      4.275     10.054
REMARK  10 active torsions:
REMARK  status: ('A' for Active; 'I' for Inactive)
REMARK    1  A    between atoms: C2_2  and  C3_3 
REMARK    2  A    between atoms: C4_4  and  C5_5 
REMARK    3  A    between atoms: C5_5  and  O1_6 
REMARK    4  A    between atoms: C22_24  and  C23_25 
REMARK    5  A    between atoms: C23_25  and  C24_27 
REMARK    6  A    between atoms: C24_27  and  C25_28 
REMARK       I    between atoms: C25_28  and  N1_30 
REMARK    7  A    between atoms: N1_30  and  C26_32 
REMARK    8  A    between atoms: C26_32  and  C27_33 
REMARK    9  A    between atoms: C27_33  and  C28_34 
REMARK   10  A    between atoms: C28_34  and  N2_35 
REMARK       I    between atoms: N2_35  and  C29_37 
ROOT
HETATM    1  C3  UNL     1      20.625 -41.618   6.512  1.00  0.00     0.018 C 
HETATM    2  C4  UNL     1      20.784 -43.076   6.707  1.00  0.00     0.017 C 
HETATM    3  C6  UNL     1      21.582 -43.437   7.916  1.00  0.00     0.008 C 
HETATM    4  C7  UNL     1      20.763 -42.965   9.130  1.00  0.00     0.011 C 
HETATM    5  C8  UNL     1      20.359 -41.520   9.034  1.00  0.00    -0.032 C 
HETATM    6  C9  UNL     1      21.519 -40.709   9.581  1.00  0.00     0.016 C 
HETATM    7  C10 UNL     1      19.871 -41.076   7.699  1.00  0.00     0.002 C 
HETATM    8  C11 UNL     1      19.699 -39.600   7.731  1.00  0.00     0.006 C 
HETATM    9  C12 UNL     1      18.490 -39.337   8.613  1.00  0.00     0.006 C 
HETATM   10  C13 UNL     1      18.474 -40.057   9.894  1.00  0.00     0.003 C 
HETATM   11  C14 UNL     1      17.046 -40.285  10.390  1.00  0.00    -0.036 C 
HETATM   12  C15 UNL     1      17.010 -40.138  11.865  1.00  0.00     0.011 C 
HETATM   13  C16 UNL     1      15.631 -39.838  12.444  1.00  0.00     0.011 C 
HETATM   14  C17 UNL     1      14.984 -38.678  11.792  1.00  0.00    -0.032 C 
HETATM   15  C18 UNL     1      15.705 -37.381  11.939  1.00  0.00     0.016 C 
HETATM   16  C19 UNL     1      14.832 -39.071  10.321  1.00  0.00    -0.005 C 
HETATM   17  C20 UNL     1      13.769 -40.179  10.350  1.00  0.00     0.006 C 
HETATM   18  C21 UNL     1      12.955 -39.922  11.606  1.00  0.00     0.011 C 
HETATM   19  C22 UNL     1      13.515 -38.607  12.142  1.00  0.00     0.035 C 
HETATM   20  C31 UNL     1      16.065 -39.447   9.634  1.00  0.00     0.015 C 
HETATM   21  C32 UNL     1      16.792 -41.754  10.077  1.00  0.00     0.011 C 
HETATM   22  C33 UNL     1      18.128 -42.395   9.827  1.00  0.00     0.011 C 
HETATM   23  C34 UNL     1      19.174 -41.350   9.992  1.00  0.00    -0.032 C 
HETATM   24  C35 UNL     1      19.769 -41.516  11.395  1.00  0.00     0.016 C 
ENDROOT
BRANCH  19  25
HETATM   25  C23 UNL     1      13.162 -38.346  13.519  1.00  0.00     0.001 C 
HETATM   26  S1  UNL     1      12.383 -37.225  13.911  1.00  0.00    -0.089 SA
BRANCH  25  27
HETATM   27  C24 UNL     1      13.583 -39.280  14.590  1.00  0.00     0.149 C 
BRANCH  27  28
HETATM   28  C25 UNL     1      12.461 -40.011  15.225  1.00  0.00     0.222 C 
HETATM   29  O2  UNL     1      12.085 -39.830  16.412  1.00  0.00    -0.273 OA
HETATM   30  N1  UNL     1      11.751 -40.979  14.467  1.00  0.00    -0.360 N 
ATOM     31  H1  UNL     1      12.027 -41.157  13.502  1.00  0.00     0.162 HD
BRANCH  30  32
HETATM   32  C26 UNL     1      10.629 -41.729  15.044  1.00  0.00     0.128 C 
BRANCH  32  33
HETATM   33  C27 UNL     1      10.308 -42.940  14.256  1.00  0.00     0.064 C 
BRANCH  33  34
HETATM   34  C28 UNL     1      11.293 -43.420  13.285  1.00  0.00     0.065 C 
BRANCH  34  35
HETATM   35  N2  UNL     1      11.169 -43.212  11.905  1.00  0.00    -0.341 N 
HETATM   36  C29 UNL     1      11.821 -43.678  10.769  1.00  0.00     0.217 C 
HETATM   37  C30 UNL     1      11.395 -43.188   9.393  1.00  0.00     0.117 C 
HETATM   38  O3  UNL     1      12.758 -44.492  10.799  1.00  0.00    -0.274 OA
ATOM     39  H2  UNL     1      10.418 -42.559  11.679  1.00  0.00     0.167 HD
ENDBRANCH  34  35
ENDBRANCH  33  34
ENDBRANCH  32  33
ENDBRANCH  30  32
ENDBRANCH  27  28
ENDBRANCH  25  27
ENDBRANCH  19  25
BRANCH   1  40
HETATM   40  C2  UNL     1      21.742 -40.801   6.090  1.00  0.00    -0.031 C 
HETATM   41  C1  UNL     1      22.192 -40.445   4.931  1.00  0.00     0.007 C 
ENDBRANCH   1  40
BRANCH   2  42
HETATM   42  C5  UNL     1      20.989 -43.904   5.491  1.00  0.00     0.169 C 
BRANCH  42  43
HETATM   43  O1  UNL     1      20.034 -43.940   4.542  1.00  0.00    -0.400 OA
ATOM     44  H1  UNL     1      19.628 -44.768   4.315  1.00  0.00     0.209 HD
ENDBRANCH  42  43
ENDBRANCH   2  42
TORSDOF 10
ENDMDL
MODEL 3
REMARK VINA RESULT: -9.477799983      3.881      9.460
REMARK  10 active torsions:
REMARK  status: ('A' for Active; 'I' for Inactive)
REMARK    1  A    between atoms: C2_2  and  C3_3 
REMARK    2  A    between atoms: C4_4  and  C5_5 
REMARK    3  A    between atoms: C5_5  and  O1_6 
REMARK    4  A    between atoms: C22_24  and  C23_25 
REMARK    5  A    between atoms: C23_25  and  C24_27 
REMARK    6  A    between atoms: C24_27  and  C25_28 
REMARK       I    between atoms: C25_28  and  N1_30 
REMARK    7  A    between atoms: N1_30  and  C26_32 
REMARK    8  A    between atoms: C26_32  and  C27_33 
REMARK    9  A    between atoms: C27_33  and  C28_34 
REMARK   10  A    between atoms: C28_34  and  N2_35 
REMARK       I    between atoms: N2_35  and  C29_37 
ROOT
HETATM    1  C3  UNL     1      21.734 -41.324   8.948  1.00  0.00     0.018 C 
HETATM    2  C4  UNL     1      21.443 -41.454   7.503  1.00  0.00     0.017 C 
HETATM    3  C6  UNL     1      20.602 -42.640   7.164  1.00  0.00     0.008 C 
HETATM    4  C7  UNL     1      19.233 -42.400   7.821  1.00  0.00     0.011 C 
HETATM    5  C8  UNL     1      19.337 -42.084   9.287  1.00  0.00    -0.032 C 
HETATM    6  C9  UNL     1      19.382 -43.415  10.014  1.00  0.00     0.016 C 
HETATM    7  C10 UNL     1      20.422 -41.138   9.665  1.00  0.00     0.002 C 
HETATM    8  C11 UNL     1      20.504 -41.086  11.148  1.00  0.00     0.006 C 
HETATM    9  C12 UNL     1      19.261 -40.344  11.611  1.00  0.00     0.006 C 
HETATM   10  C13 UNL     1      17.997 -40.790  11.009  1.00  0.00     0.003 C 
HETATM   11  C14 UNL     1      16.964 -39.663  10.976  1.00  0.00    -0.036 C 
HETATM   12  C15 UNL     1      15.619 -40.224  11.252  1.00  0.00     0.011 C 
HETATM   13  C16 UNL     1      14.592 -39.208  11.743  1.00  0.00     0.011 C 
HETATM   14  C17 UNL     1      15.078 -38.431  12.906  1.00  0.00    -0.032 C 
HETATM   15  C18 UNL     1      15.377 -39.233  14.127  1.00  0.00     0.016 C 
HETATM   16  C19 UNL     1      16.317 -37.684  12.407  1.00  0.00    -0.005 C 
HETATM   17  C20 UNL     1      15.747 -36.652  11.424  1.00  0.00     0.006 C 
HETATM   18  C21 UNL     1      14.315 -36.419  11.871  1.00  0.00     0.011 C 
HETATM   19  C22 UNL     1      14.198 -37.228  13.160  1.00  0.00     0.035 C 
HETATM   20  C31 UNL     1      17.377 -38.519  11.846  1.00  0.00     0.015 C 
HETATM   21  C32 UNL     1      16.977 -39.213   9.521  1.00  0.00     0.011 C 
HETATM   22  C33 UNL     1      17.645 -40.297   8.723  1.00  0.00     0.011 C 
HETATM   23  C34 UNL     1      18.023 -41.388   9.663  1.00  0.00    -0.032 C 
HETATM   24  C35 UNL     1      16.950 -42.478   9.555  1.00  0.00     0.016 C 
ENDROOT
BRANCH  19  25
HETATM   25  C23 UNL     1      12.834 -37.465  13.574  1.00  0.00     0.001 C 
HETATM   26  S1  UNL     1      11.726 -36.811  12.974  1.00  0.00    -0.089 SA
BRANCH  25  27
HETATM   27  C24 UNL     1      12.537 -38.449  14.643  1.00  0.00     0.149 C 
BRANCH  27  28
HETATM   28  C25 UNL     1      11.728 -39.604  14.187  1.00  0.00     0.222 C 
HETATM   29  O2  UNL     1      10.470 -39.632  14.196  1.00  0.00    -0.273 OA
HETATM   30  N1  UNL     1      12.392 -40.764  13.706  1.00  0.00    -0.360 N 
ATOM     31  H1  UNL     1      13.411 -40.783  13.685  1.00  0.00     0.162 HD
BRANCH  30  32
HETATM   32  C26 UNL     1      11.641 -41.935  13.238  1.00  0.00     0.128 C 
BRANCH  32  33
HETATM   33  C27 UNL     1      12.081 -42.375  11.894  1.00  0.00     0.064 C 
BRANCH  33  34
HETATM   34  C28 UNL     1      11.641 -41.602  10.730  1.00  0.00     0.065 C 
BRANCH  34  35
HETATM   35  N2  UNL     1      12.504 -41.233   9.689  1.00  0.00    -0.341 N 
HETATM   36  C29 UNL     1      13.228 -41.910   8.715  1.00  0.00     0.217 C 
HETATM   37  C30 UNL     1      14.098 -41.134   7.738  1.00  0.00     0.117 C 
HETATM   38  O3  UNL     1      13.216 -43.145   8.581  1.00  0.00    -0.274 OA
ATOM     39  H2  UNL     1      12.631 -40.222   9.633  1.00  0.00     0.167 HD
ENDBRANCH  34  35
ENDBRANCH  33  34
ENDBRANCH  32  33
ENDBRANCH  30  32
ENDBRANCH  27  28
ENDBRANCH  25  27
ENDBRANCH  19  25
BRANCH   1  40
HETATM   40  C2  UNL     1      22.650 -42.232   9.603  1.00  0.00    -0.031 C 
HETATM   41  C1  UNL     1      23.939 -42.282   9.688  1.00  0.00     0.007 C 
ENDBRANCH   1  40
BRANCH   2  42
HETATM   42  C5  UNL     1      22.534 -41.108   6.557  1.00  0.00     0.169 C 
BRANCH  42  43
HETATM   43  O1  UNL     1      22.231 -40.600   5.347  1.00  0.00    -0.400 OA
ATOM     44  H1  UNL     1      22.697 -39.836   5.027  1.00  0.00     0.209 HD
ENDBRANCH  42  43
ENDBRANCH   2  42
TORSDOF 10
ENDMDL
MODEL 4
REMARK VINA RESULT: -9.466034310      3.591     10.025
REMARK  10 active torsions:
REMARK  status: ('A' for Active; 'I' for Inactive)
REMARK    1  A    between atoms: C2_2  and  C3_3 
REMARK    2  A    between atoms: C4_4  and  C5_5 
REMARK    3  A    between atoms: C5_5  and  O1_6 
REMARK    4  A    between atoms: C22_24  and  C23_25 
REMARK    5  A    between atoms: C23_25  and  C24_27 
REMARK    6  A    between atoms: C24_27  and  C25_28 
REMARK       I    between atoms: C25_28  and  N1_30 
REMARK    7  A    between atoms: N1_30  and  C26_32 
REMARK    8  A    between atoms: C26_32  and  C27_33 
REMARK    9  A    between atoms: C27_33  and  C28_34 
REMARK   10  A    between atoms: C28_34  and  N2_35 
REMARK       I    between atoms: N2_35  and  C29_37 
ROOT
HETATM    1  C3  UNL     1      21.404 -41.840   6.483  1.00  0.00     0.018 C 
HETATM    2  C4  UNL     1      22.195 -42.845   7.227  1.00  0.00     0.017 C 
HETATM    3  C6  UNL     1      22.777 -42.330   8.501  1.00  0.00     0.008 C 
HETATM    4  C7  UNL     1      21.586 -42.007   9.420  1.00  0.00     0.011 C 
HETATM    5  C8  UNL     1      20.571 -41.110   8.766  1.00  0.00    -0.032 C 
HETATM    6  C9  UNL     1      21.047 -39.686   8.989  1.00  0.00     0.016 C 
HETATM    7  C10 UNL     1      20.242 -41.437   7.352  1.00  0.00     0.002 C 
HETATM    8  C11 UNL     1      19.381 -40.352   6.809  1.00  0.00     0.006 C 
HETATM    9  C12 UNL     1      18.032 -40.505   7.493  1.00  0.00     0.006 C 
HETATM   10  C13 UNL     1      18.079 -40.680   8.951  1.00  0.00     0.003 C 
HETATM   11  C14 UNL     1      16.865 -41.457   9.461  1.00  0.00    -0.036 C 
HETATM   12  C15 UNL     1      16.436 -40.895  10.765  1.00  0.00     0.011 C 
HETATM   13  C16 UNL     1      14.992 -41.204  11.150  1.00  0.00     0.011 C 
HETATM   14  C17 UNL     1      14.033 -40.834  10.086  1.00  0.00    -0.032 C 
HETATM   15  C18 UNL     1      13.991 -39.384   9.742  1.00  0.00     0.016 C 
HETATM   16  C19 UNL     1      14.418 -41.688   8.875  1.00  0.00    -0.005 C 
HETATM   17  C20 UNL     1      14.040 -43.113   9.302  1.00  0.00     0.006 C 
HETATM   18  C21 UNL     1      12.947 -42.946  10.342  1.00  0.00     0.011 C 
HETATM   19  C22 UNL     1      12.673 -41.443  10.346  1.00  0.00     0.035 C 
HETATM   20  C31 UNL     1      15.798 -41.549   8.417  1.00  0.00     0.015 C 
HETATM   21  C32 UNL     1      17.422 -42.848   9.730  1.00  0.00     0.011 C 
HETATM   22  C33 UNL     1      18.919 -42.729   9.779  1.00  0.00     0.011 C 
HETATM   23  C34 UNL     1      19.270 -41.299   9.556  1.00  0.00    -0.032 C 
HETATM   24  C35 UNL     1      19.544 -40.676  10.929  1.00  0.00     0.016 C 
ENDROOT
BRANCH  19  25
HETATM   25  C23 UNL     1      11.942 -40.991  11.507  1.00  0.00     0.001 C 
HETATM   26  S1  UNL     1      12.064 -41.609  12.779  1.00  0.00    -0.089 SA
BRANCH  25  27
HETATM   27  C24 UNL     1      11.043 -39.816  11.413  1.00  0.00     0.149 C 
BRANCH  27  28
HETATM   28  C25 UNL     1      11.283 -38.791  12.456  1.00  0.00     0.222 C 
HETATM   29  O2  UNL     1      10.521 -38.593  13.438  1.00  0.00    -0.273 OA
HETATM   30  N1  UNL     1      12.438 -37.971  12.365  1.00  0.00    -0.360 N 
ATOM     31  H1  UNL     1      13.080 -38.099  11.582  1.00  0.00     0.162 HD
BRANCH  30  32
HETATM   32  C26 UNL     1      12.729 -36.944  13.372  1.00  0.00     0.128 C 
BRANCH  32  33
HETATM   33  C27 UNL     1      12.932 -35.610  12.762  1.00  0.00     0.064 C 
BRANCH  33  34
HETATM   34  C28 UNL     1      14.303 -35.158  12.518  1.00  0.00     0.065 C 
BRANCH  34  35
HETATM   35  N2  UNL     1      15.211 -35.869  11.721  1.00  0.00    -0.341 N 
HETATM   36  C29 UNL     1      16.160 -36.860  11.944  1.00  0.00     0.217 C 
HETATM   37  C30 UNL     1      16.996 -37.386  10.786  1.00  0.00     0.117 C 
HETATM   38  O3  UNL     1      16.384 -37.362  13.057  1.00  0.00    -0.274 OA
ATOM     39  H2  UNL     1      15.163 -35.593  10.740  1.00  0.00     0.167 HD
ENDBRANCH  34  35
ENDBRANCH  33  34
ENDBRANCH  32  33
ENDBRANCH  30  32
ENDBRANCH  27  28
ENDBRANCH  25  27
ENDBRANCH  19  25
BRANCH   1  40
HETATM   40  C2  UNL     1      22.056 -40.739   5.807  1.00  0.00    -0.031 C 
HETATM   41  C1  UNL     1      22.232 -40.444   4.560  1.00  0.00     0.007 C 
ENDBRANCH   1  40
BRANCH   2  42
HETATM   42  C5  UNL     1      23.035 -43.774   6.428  1.00  0.00     0.169 C 
BRANCH  42  43
HETATM   43  O1  UNL     1      22.684 -44.067   5.161  1.00  0.00    -0.400 OA
ATOM     44  H1  UNL     1      23.299 -44.522   4.597  1.00  0.00     0.209 HD
ENDBRANCH  42  43
ENDBRANCH   2  42
TORSDOF 10
ENDMDL
MODEL 5
REMARK VINA RESULT: -9.336090514      1.340      1.832
REMARK  10 active torsions:
REMARK  status: ('A' for Active; 'I' for Inactive)
REMARK    1  A    between atoms: C2_2  and  C3_3 
REMARK    2  A    between atoms: C4_4  and  C5_5 
REMARK    3  A    between atoms: C5_5  and  O1_6 
REMARK    4  A    between atoms: C22_24  and  C23_25 
REMARK    5  A    between atoms: C23_25  and  C24_27 
REMARK    6  A    between atoms: C24_27  and  C25_28 
REMARK       I    between atoms: C25_28  and  N1_30 
REMARK    7  A    between atoms: N1_30  and  C26_32 
REMARK    8  A    between atoms: C26_32  and  C27_33 
REMARK    9  A    between atoms: C27_33  and  C28_34 
REMARK   10  A    between atoms: C28_34  and  N2_35 
REMARK       I    between atoms: N2_35  and  C29_37 
ROOT
HETATM    1  C3  UNL     1      12.087 -38.165  11.946  1.00  0.00     0.018 C 
HETATM    2  C4  UNL     1      12.278 -36.727  12.235  1.00  0.00     0.017 C 
HETATM    3  C6  UNL     1      12.994 -36.462  13.518  1.00  0.00     0.008 C 
HETATM    4  C7  UNL     1      14.416 -37.021  13.342  1.00  0.00     0.011 C 
HETATM    5  C8  UNL     1      14.427 -38.452  12.884  1.00  0.00    -0.032 C 
HETATM    6  C9  UNL     1      14.313 -39.308  14.132  1.00  0.00     0.016 C 
HETATM    7  C10 UNL     1      13.450 -38.792  11.813  1.00  0.00     0.002 C 
HETATM    8  C11 UNL     1      13.463 -40.265  11.617  1.00  0.00     0.006 C 
HETATM    9  C12 UNL     1      14.789 -40.589  10.950  1.00  0.00     0.006 C 
HETATM   10  C13 UNL     1      15.972 -39.968  11.561  1.00  0.00     0.003 C 
HETATM   11  C14 UNL     1      17.093 -39.773  10.540  1.00  0.00    -0.036 C 
HETATM   12  C15 UNL     1      18.400 -40.032  11.191  1.00  0.00     0.011 C 
HETATM   13  C16 UNL     1      19.536 -40.368  10.230  1.00  0.00     0.011 C 
HETATM   14  C17 UNL     1      19.189 -41.473   9.309  1.00  0.00    -0.032 C 
HETATM   15  C18 UNL     1      18.897 -42.780   9.964  1.00  0.00     0.016 C 
HETATM   16  C19 UNL     1      17.989 -40.968   8.503  1.00  0.00    -0.005 C 
HETATM   17  C20 UNL     1      18.585 -39.861   7.622  1.00  0.00     0.006 C 
HETATM   18  C21 UNL     1      20.056 -40.209   7.478  1.00  0.00     0.011 C 
HETATM   19  C22 UNL     1      20.180 -41.563   8.171  1.00  0.00     0.035 C 
HETATM   20  C31 UNL     1      16.831 -40.547   9.288  1.00  0.00     0.015 C 
HETATM   21  C32 UNL     1      17.031 -38.283  10.227  1.00  0.00     0.011 C 
HETATM   22  C33 UNL     1      16.227 -37.630  11.316  1.00  0.00     0.011 C 
HETATM   23  C34 UNL     1      15.815 -38.690  12.277  1.00  0.00    -0.032 C 
HETATM   24  C35 UNL     1      16.784 -38.633  13.464  1.00  0.00     0.016 C 
ENDROOT
BRANCH  19  25
HETATM   25  C23 UNL     1      21.542 -41.927   8.491  1.00  0.00     0.001 C 
HETATM   26  S1  UNL     1      22.599 -40.980   8.533  1.00  0.00    -0.089 SA
BRANCH  25  27
HETATM   27  C24 UNL     1      21.883 -43.330   8.826  1.00  0.00     0.149 C 
BRANCH  27  28
HETATM   28  C25 UNL     1      21.699 -44.278   7.702  1.00  0.00     0.222 C 
HETATM   29  O2  UNL     1      22.503 -44.395   6.740  1.00  0.00    -0.273 OA
HETATM   30  N1  UNL     1      20.555 -45.118   7.688  1.00  0.00    -0.360 N 
ATOM     31  H1  UNL     1      19.878 -45.053   8.448  1.00  0.00     0.162 HD
BRANCH  30  32
HETATM   32  C26 UNL     1      20.325 -46.079   6.602  1.00  0.00     0.128 C 
BRANCH  32  33
HETATM   33  C27 UNL     1      19.399 -45.546   5.577  1.00  0.00     0.064 C 
BRANCH  33  34
HETATM   34  C28 UNL     1      19.964 -44.821   4.437  1.00  0.00     0.065 C 
BRANCH  34  35
HETATM   35  N2  UNL     1      20.367 -43.480   4.510  1.00  0.00    -0.341 N 
HETATM   36  C29 UNL     1      21.222 -42.661   3.783  1.00  0.00     0.217 C 
HETATM   37  C30 UNL     1      21.420 -41.210   4.196  1.00  0.00     0.117 C 
HETATM   38  O3  UNL     1      21.859 -43.042   2.787  1.00  0.00    -0.274 OA
ATOM     39  H2  UNL     1      19.924 -42.985   5.285  1.00  0.00     0.167 HD
ENDBRANCH  34  35
ENDBRANCH  33  34
ENDBRANCH  32  33
ENDBRANCH  30  32
ENDBRANCH  27  28
ENDBRANCH  25  27
ENDBRANCH  19  25
BRANCH   1  40
HETATM   40  C2  UNL     1      11.138 -38.953  12.704  1.00  0.00    -0.031 C 
HETATM   41  C1  UNL     1       9.890 -39.242  12.532  1.00  0.00     0.007 C 
ENDBRANCH   1  40
BRANCH   2  42
HETATM   42  C5  UNL     1      11.165 -35.809  11.881  1.00  0.00     0.169 C 
BRANCH  42  43
HETATM   43  O1  UNL     1      11.400 -34.487  11.774  1.00  0.00    -0.400 OA
ATOM     44  H1  UNL     1      10.754 -33.927  11.359  1.00  0.00     0.209 HD
ENDBRANCH  42  43
ENDBRANCH   2  42
TORSDOF 10
ENDMDL
