MODEL 1
REMARK VINA RESULT: -8.681360137      0.000      0.000
REMARK  13 active torsions:
REMARK  status: ('A' for Active; 'I' for Inactive)
REMARK    1  A    between atoms: C2_2  and  C4_4 
REMARK    2  A    between atoms: C5_5  and  O1_6 
REMARK    3  A    between atoms: C9_11  and  C10_12 
REMARK    4  A    between atoms: C11_13  and  C12_14 
REMARK    5  A    between atoms: C12_14  and  O2_27 
REMARK    6  A    between atoms: C13_15  and  C14_16 
REMARK    7  A    between atoms: C15_17  and  C16_18 
REMARK    8  A    between atoms: C18_20  and  C19_21 
REMARK    9  A    between atoms: C19_21  and  C20_22 
REMARK   10  A    between atoms: C21_23  and  C22_24 
REMARK   11  A    between atoms: C22_24  and  C23_25 
REMARK   12  A    between atoms: C29_33  and  O3_34 
REMARK   13  A    between atoms: C31_37  and  O4_38 
ROOT
HETATM    1  C4  UNL     1      21.655  43.793 -10.929  1.00  0.00    -0.038 C 
HETATM    2  C5  UNL     1      22.812  42.954 -10.443  1.00  0.00     0.149 C 
HETATM    3  C6  UNL     1      22.847  42.570  -9.001  1.00  0.00     0.042 C 
HETATM    4  C7  UNL     1      21.586  42.675  -8.307  1.00  0.00    -0.000 C 
HETATM    5  C8  UNL     1      20.344  42.894  -9.209  1.00  0.00     0.012 C 
HETATM    6  C9  UNL     1      19.213  42.632  -8.331  1.00  0.00     0.033 C 
HETATM    7  C26 UNL     1      19.465  42.107  -6.897  1.00  0.00     0.101 C 
HETATM    8 CL1  UNL     1      19.219  40.355  -6.778  1.00  0.00    -0.123 Cl
HETATM    9  C27 UNL     1      20.714  42.574  -6.201  1.00  0.00     0.004 C 
HETATM   10  C28 UNL     1      21.721  41.411  -6.031  1.00  0.00     0.020 C 
HETATM   11  C29 UNL     1      20.681  43.197  -4.887  1.00  0.00     0.130 C 
HETATM   12  C30 UNL     1      21.996  43.808  -4.580  1.00  0.00     0.065 C 
HETATM   13  C31 UNL     1      22.876  44.300  -5.732  1.00  0.00     0.129 C 
HETATM   14  C32 UNL     1      22.016  44.726  -6.811  1.00  0.00    -0.013 C 
HETATM   15  C33 UNL     1      21.200  45.887  -6.175  1.00  0.00     0.018 C 
HETATM   16  C34 UNL     1      22.413  45.308  -8.102  1.00  0.00     0.013 C 
HETATM   17  C35 UNL     1      21.280  45.284  -9.052  1.00  0.00     0.015 C 
HETATM   18  C36 UNL     1      20.727  44.203  -9.816  1.00  0.00    -0.013 C 
HETATM   19  C37 UNL     1      19.444  44.759 -10.429  1.00  0.00     0.021 C 
HETATM   20  C38 UNL     1      21.222  43.569  -7.223  1.00  0.00     0.013 C 
ENDROOT
BRANCH   6  21
HETATM   21  C10 UNL     1      18.348  41.530  -8.923  1.00  0.00    -0.017 C 
HETATM   22  C11 UNL     1      18.334  41.204 -10.161  1.00  0.00     0.033 C 
BRANCH  22  23
HETATM   23  C12 UNL     1      17.486  40.138 -10.668  1.00  0.00     0.067 C 
HETATM   24  C13 UNL     1      17.880  38.862 -10.624  1.00  0.00     0.037 C 
BRANCH  24  25
HETATM   25  C14 UNL     1      17.063  37.773 -11.115  1.00  0.00     0.003 C 
HETATM   26  C15 UNL     1      16.746  36.721 -10.399  1.00  0.00     0.006 C 
BRANCH  26  27
HETATM   27  C16 UNL     1      15.936  35.609 -10.834  1.00  0.00    -0.066 C 
HETATM   28  C17 UNL     1      16.007  34.242 -10.241  1.00  0.00     0.048 C 
HETATM   29  C18 UNL     1      15.054  35.757 -11.817  1.00  0.00    -0.016 C 
BRANCH  29  30
HETATM   30  C19 UNL     1      14.188  34.689 -12.329  1.00  0.00     0.054 C 
BRANCH  30  31
HETATM   31  C20 UNL     1      12.833  35.169 -12.699  1.00  0.00    -0.027 C 
HETATM   32  C21 UNL     1      12.424  36.408 -12.445  1.00  0.00    -0.030 C 
BRANCH  32  33
HETATM   33  C22 UNL     1      11.092  36.919 -12.796  1.00  0.00     0.026 C 
BRANCH  33  34
HETATM   34  C23 UNL     1      10.405  37.407 -11.554  1.00  0.00    -0.001 C 
HETATM   35  C24 UNL     1      10.677  38.885 -11.323  1.00  0.00     0.005 C 
ENDBRANCH  33  34
ENDBRANCH  32  33
ENDBRANCH  30  31
ENDBRANCH  29  30
ENDBRANCH  26  27
ENDBRANCH  24  25
BRANCH  23  36
HETATM   36  O2  UNL     1      16.233  40.360 -11.219  1.00  0.00    -0.356 OA
HETATM   37  C25 UNL     1      15.106  40.822 -10.549  1.00  0.00     0.210 C 
ENDBRANCH  23  36
ENDBRANCH  22  23
ENDBRANCH   6  21
BRANCH   1  38
HETATM   38  C2  UNL     1      21.951  44.626 -12.061  1.00  0.00    -0.066 C 
HETATM   39  C1  UNL     1      22.528  45.773 -12.173  1.00  0.00     0.019 C 
HETATM   40  C3  UNL     1      21.536  44.113 -13.477  1.00  0.00     0.047 C 
ENDBRANCH   1  38
BRANCH  11  41
HETATM   41  O3  UNL     1      19.541  43.892  -4.514  1.00  0.00    -0.395 OA
ATOM     42  H3  UNL     1      19.644  44.703  -4.030  1.00  0.00     0.210 HD
ENDBRANCH  11  41
BRANCH   2  43
HETATM   43  O1  UNL     1      24.050  43.544 -10.746  1.00  0.00    -0.391 OA
ATOM     44  H1  UNL     1      24.421  43.197 -11.548  1.00  0.00     0.210 HD
ENDBRANCH   2  43
BRANCH  13  45
HETATM   45  O4  UNL     1      23.514  45.463  -5.211  1.00  0.00    -0.395 OA
ATOM     46  H4  UNL     1      24.138  45.707  -5.885  1.00  0.00     0.210 HD
ENDBRANCH  13  45
TORSDOF 13
ENDMDL
MODEL 2
REMARK VINA RESULT: -8.411067519      0.872      2.409
REMARK  13 active torsions:
REMARK  status: ('A' for Active; 'I' for Inactive)
REMARK    1  A    between atoms: C2_2  and  C4_4 
REMARK    2  A    between atoms: C5_5  and  O1_6 
REMARK    3  A    between atoms: C9_11  and  C10_12 
REMARK    4  A    between atoms: C11_13  and  C12_14 
REMARK    5  A    between atoms: C12_14  and  O2_27 
REMARK    6  A    between atoms: C13_15  and  C14_16 
REMARK    7  A    between atoms: C15_17  and  C16_18 
REMARK    8  A    between atoms: C18_20  and  C19_21 
REMARK    9  A    between atoms: C19_21  and  C20_22 
REMARK   10  A    between atoms: C21_23  and  C22_24 
REMARK   11  A    between atoms: C22_24  and  C23_25 
REMARK   12  A    between atoms: C29_33  and  O3_34 
REMARK   13  A    between atoms: C31_37  and  O4_38 
ROOT
HETATM    1  C4  UNL     1      21.633  43.912 -10.923  1.00  0.00    -0.038 C 
HETATM    2  C5  UNL     1      22.697  42.944 -10.467  1.00  0.00     0.149 C 
HETATM    3  C6  UNL     1      22.698  42.525  -9.033  1.00  0.00     0.042 C 
HETATM    4  C7  UNL     1      21.460  42.748  -8.327  1.00  0.00    -0.000 C 
HETATM    5  C8  UNL     1      20.244  43.118  -9.213  1.00  0.00     0.012 C 
HETATM    6  C9  UNL     1      19.096  42.958  -8.332  1.00  0.00     0.033 C 
HETATM    7  C26 UNL     1      19.299  42.376  -6.913  1.00  0.00     0.101 C 
HETATM    8 CL1  UNL     1      18.869  40.658  -6.831  1.00  0.00    -0.123 Cl
HETATM    9  C27 UNL     1      20.595  42.691  -6.216  1.00  0.00     0.004 C 
HETATM   10  C28 UNL     1      21.473  41.425  -6.081  1.00  0.00     0.020 C 
HETATM   11  C29 UNL     1      20.636  43.285  -4.889  1.00  0.00     0.130 C 
HETATM   12  C30 UNL     1      22.011  43.744  -4.579  1.00  0.00     0.065 C 
HETATM   13  C31 UNL     1      22.931  44.167  -5.728  1.00  0.00     0.129 C 
HETATM   14  C32 UNL     1      22.115  44.706  -6.790  1.00  0.00    -0.013 C 
HETATM   15  C33 UNL     1      21.431  45.932  -6.121  1.00  0.00     0.018 C 
HETATM   16  C34 UNL     1      22.565  45.272  -8.071  1.00  0.00     0.013 C 
HETATM   17  C35 UNL     1      21.430  45.391  -9.011  1.00  0.00     0.015 C 
HETATM   18  C36 UNL     1      20.760  44.393  -9.795  1.00  0.00    -0.013 C 
HETATM   19  C37 UNL     1      19.540  45.096 -10.384  1.00  0.00     0.021 C 
HETATM   20  C38 UNL     1      21.200  43.650  -7.221  1.00  0.00     0.013 C 
ENDROOT
BRANCH   6  21
HETATM   21  C10 UNL     1      18.115  41.968  -8.942  1.00  0.00    -0.017 C 
HETATM   22  C11 UNL     1      18.019  41.718 -10.194  1.00  0.00     0.033 C 
BRANCH  22  23
HETATM   23  C12 UNL     1      17.062  40.757 -10.716  1.00  0.00     0.067 C 
HETATM   24  C13 UNL     1      15.748  40.927 -10.544  1.00  0.00     0.037 C 
BRANCH  24  25
HETATM   25  C14 UNL     1      14.764  39.995 -11.052  1.00  0.00     0.003 C 
HETATM   26  C15 UNL     1      13.572  40.350 -11.466  1.00  0.00     0.006 C 
BRANCH  26  27
HETATM   27  C16 UNL     1      12.554  39.469 -11.982  1.00  0.00    -0.066 C 
HETATM   28  C17 UNL     1      11.165  39.389 -11.444  1.00  0.00     0.048 C 
HETATM   29  C18 UNL     1      12.814  38.657 -13.003  1.00  0.00    -0.016 C 
BRANCH  29  30
HETATM   30  C19 UNL     1      11.849  37.726 -13.597  1.00  0.00     0.054 C 
BRANCH  30  31
HETATM   31  C20 UNL     1      12.254  36.304 -13.461  1.00  0.00    -0.027 C 
HETATM   32  C21 UNL     1      13.390  35.942 -12.874  1.00  0.00    -0.030 C 
BRANCH  32  33
HETATM   33  C22 UNL     1      13.825  34.547 -12.721  1.00  0.00     0.026 C 
BRANCH  33  34
HETATM   34  C23 UNL     1      14.777  34.449 -11.565  1.00  0.00    -0.001 C 
HETATM   35  C24 UNL     1      15.358  35.810 -11.218  1.00  0.00     0.005 C 
ENDBRANCH  33  34
ENDBRANCH  32  33
ENDBRANCH  30  31
ENDBRANCH  29  30
ENDBRANCH  26  27
ENDBRANCH  24  25
BRANCH  23  36
HETATM   36  O2  UNL     1      17.432  39.620 -11.419  1.00  0.00    -0.356 OA
HETATM   37  C25 UNL     1      18.288  39.567 -12.513  1.00  0.00     0.210 C 
ENDBRANCH  23  36
ENDBRANCH  22  23
ENDBRANCH   6  21
BRANCH   1  38
HETATM   38  C2  UNL     1      22.009  44.735 -12.039  1.00  0.00    -0.066 C 
HETATM   39  C1  UNL     1      22.688  45.826 -12.129  1.00  0.00     0.019 C 
HETATM   40  C3  UNL     1      21.557  44.287 -13.466  1.00  0.00     0.047 C 
ENDBRANCH   1  38
BRANCH  11  41
HETATM   41  O3  UNL     1      19.579  44.088  -4.491  1.00  0.00    -0.395 OA
ATOM     42  H3  UNL     1      19.568  44.995  -4.776  1.00  0.00     0.210 HD
ENDBRANCH  11  41
BRANCH   2  43
HETATM   43  O1  UNL     1      23.988  43.406 -10.766  1.00  0.00    -0.391 OA
ATOM     44  H1  UNL     1      24.009  43.893 -11.581  1.00  0.00     0.210 HD
ENDBRANCH   2  43
BRANCH  13  45
HETATM   45  O4  UNL     1      23.692  45.243  -5.186  1.00  0.00    -0.395 OA
ATOM     46  H4  UNL     1      23.068  45.726  -4.658  1.00  0.00     0.210 HD
ENDBRANCH  13  45
TORSDOF 13
ENDMDL
MODEL 3
REMARK VINA RESULT: -8.309870499      1.387      2.644
REMARK  13 active torsions:
REMARK  status: ('A' for Active; 'I' for Inactive)
REMARK    1  A    between atoms: C2_2  and  C4_4 
REMARK    2  A    between atoms: C5_5  and  O1_6 
REMARK    3  A    between atoms: C9_11  and  C10_12 
REMARK    4  A    between atoms: C11_13  and  C12_14 
REMARK    5  A    between atoms: C12_14  and  O2_27 
REMARK    6  A    between atoms: C13_15  and  C14_16 
REMARK    7  A    between atoms: C15_17  and  C16_18 
REMARK    8  A    between atoms: C18_20  and  C19_21 
REMARK    9  A    between atoms: C19_21  and  C20_22 
REMARK   10  A    between atoms: C21_23  and  C22_24 
REMARK   11  A    between atoms: C22_24  and  C23_25 
REMARK   12  A    between atoms: C29_33  and  O3_34 
REMARK   13  A    between atoms: C31_37  and  O4_38 
ROOT
HETATM    1  C4  UNL     1      22.293  44.631 -10.759  1.00  0.00    -0.038 C 
HETATM    2  C5  UNL     1      23.402  43.841 -10.109  1.00  0.00     0.149 C 
HETATM    3  C6  UNL     1      23.234  43.435  -8.682  1.00  0.00     0.042 C 
HETATM    4  C7  UNL     1      21.879  43.469  -8.189  1.00  0.00    -0.000 C 
HETATM    5  C8  UNL     1      20.780  43.643  -9.269  1.00  0.00     0.012 C 
HETATM    6  C9  UNL     1      19.542  43.313  -8.577  1.00  0.00     0.033 C 
HETATM    7  C26 UNL     1      19.598  42.777  -7.127  1.00  0.00     0.101 C 
HETATM    8 CL1  UNL     1      19.424  41.014  -7.062  1.00  0.00    -0.123 Cl
HETATM    9  C27 UNL     1      20.700  43.292  -6.242  1.00  0.00     0.004 C 
HETATM   10  C28 UNL     1      21.726  42.176  -5.930  1.00  0.00     0.020 C 
HETATM   11  C29 UNL     1      20.436  43.892  -4.944  1.00  0.00     0.130 C 
HETATM   12  C30 UNL     1      21.657  44.560  -4.434  1.00  0.00     0.065 C 
HETATM   13  C31 UNL     1      22.677  45.112  -5.432  1.00  0.00     0.129 C 
HETATM   14  C32 UNL     1      21.972  45.513  -6.627  1.00  0.00    -0.013 C 
HETATM   15  C33 UNL     1      21.011  46.624  -6.114  1.00  0.00     0.018 C 
HETATM   16  C34 UNL     1      22.533  46.134  -7.836  1.00  0.00     0.013 C 
HETATM   17  C35 UNL     1      21.561  46.072  -8.949  1.00  0.00     0.015 C 
HETATM   18  C36 UNL     1      21.186  44.979  -9.799  1.00  0.00    -0.013 C 
HETATM   19  C37 UNL     1      19.986  45.483 -10.596  1.00  0.00     0.021 C 
HETATM   20  C38 UNL     1      21.309  44.327  -7.166  1.00  0.00     0.013 C 
ENDROOT
BRANCH   6  21
HETATM   21  C10 UNL     1      18.834  42.180  -9.305  1.00  0.00    -0.017 C 
HETATM   22  C11 UNL     1      19.029  41.872 -10.532  1.00  0.00     0.033 C 
BRANCH  22  23
HETATM   23  C12 UNL     1      18.322  40.775 -11.172  1.00  0.00     0.067 C 
HETATM   24  C13 UNL     1      16.993  40.669 -11.092  1.00  0.00     0.037 C 
BRANCH  24  25
HETATM   25  C14 UNL     1      16.253  39.594 -11.718  1.00  0.00     0.003 C 
HETATM   26  C15 UNL     1      15.022  39.714 -12.151  1.00  0.00     0.006 C 
BRANCH  26  27
HETATM   27  C16 UNL     1      14.238  38.681 -12.782  1.00  0.00    -0.066 C 
HETATM   28  C17 UNL     1      13.533  38.845 -14.086  1.00  0.00     0.048 C 
HETATM   29  C18 UNL     1      14.104  37.488 -12.211  1.00  0.00    -0.016 C 
BRANCH  29  30
HETATM   30  C19 UNL     1      13.329  36.375 -12.773  1.00  0.00     0.054 C 
BRANCH  30  31
HETATM   31  C20 UNL     1      13.830  35.045 -12.345  1.00  0.00    -0.027 C 
HETATM   32  C21 UNL     1      14.714  34.901 -11.363  1.00  0.00    -0.030 C 
BRANCH  32  33
HETATM   33  C22 UNL     1      15.233  33.602 -10.911  1.00  0.00     0.026 C 
BRANCH  33  34
HETATM   34  C23 UNL     1      16.555  33.806 -10.230  1.00  0.00    -0.001 C 
HETATM   35  C24 UNL     1      16.991  35.260 -10.308  1.00  0.00     0.005 C 
ENDBRANCH  33  34
ENDBRANCH  32  33
ENDBRANCH  30  31
ENDBRANCH  29  30
ENDBRANCH  26  27
ENDBRANCH  24  25
BRANCH  23  36
HETATM   36  O2  UNL     1      18.960  39.781 -11.899  1.00  0.00    -0.356 OA
HETATM   37  C25 UNL     1      19.811  39.966 -12.983  1.00  0.00     0.210 C 
ENDBRANCH  23  36
ENDBRANCH  22  23
ENDBRANCH   6  21
BRANCH   1  38
HETATM   38  C2  UNL     1      22.716  45.496 -11.825  1.00  0.00    -0.066 C 
HETATM   39  C1  UNL     1      23.183  46.697 -11.841  1.00  0.00     0.019 C 
HETATM   40  C3  UNL     1      22.641  44.949 -13.286  1.00  0.00     0.047 C 
ENDBRANCH   1  38
BRANCH  11  41
HETATM   41  O3  UNL     1      19.220  44.525  -4.745  1.00  0.00    -0.395 OA
ATOM     42  H3  UNL     1      18.947  44.712  -3.854  1.00  0.00     0.210 HD
ENDBRANCH  11  41
BRANCH   2  43
HETATM   43  O1  UNL     1      24.640  44.494 -10.212  1.00  0.00    -0.391 OA
ATOM     44  H1  UNL     1      24.721  44.971 -11.030  1.00  0.00     0.210 HD
ENDBRANCH   2  43
BRANCH  13  45
HETATM   45  O4  UNL     1      23.169  46.296  -4.809  1.00  0.00    -0.395 OA
ATOM     46  H4  UNL     1      23.927  46.534  -5.330  1.00  0.00     0.210 HD
ENDBRANCH  13  45
TORSDOF 13
ENDMDL
MODEL 4
REMARK VINA RESULT: -8.143703946      1.310      2.519
REMARK  13 active torsions:
REMARK  status: ('A' for Active; 'I' for Inactive)
REMARK    1  A    between atoms: C2_2  and  C4_4 
REMARK    2  A    between atoms: C5_5  and  O1_6 
REMARK    3  A    between atoms: C9_11  and  C10_12 
REMARK    4  A    between atoms: C11_13  and  C12_14 
REMARK    5  A    between atoms: C12_14  and  O2_27 
REMARK    6  A    between atoms: C13_15  and  C14_16 
REMARK    7  A    between atoms: C15_17  and  C16_18 
REMARK    8  A    between atoms: C18_20  and  C19_21 
REMARK    9  A    between atoms: C19_21  and  C20_22 
REMARK   10  A    between atoms: C21_23  and  C22_24 
REMARK   11  A    between atoms: C22_24  and  C23_25 
REMARK   12  A    between atoms: C29_33  and  O3_34 
REMARK   13  A    between atoms: C31_37  and  O4_38 
ROOT
HETATM    1  C4  UNL     1      21.595  44.377 -10.754  1.00  0.00    -0.038 C 
HETATM    2  C5  UNL     1      22.779  43.608 -10.220  1.00  0.00     0.149 C 
HETATM    3  C6  UNL     1      22.806  43.279  -8.764  1.00  0.00     0.042 C 
HETATM    4  C7  UNL     1      21.530  43.355  -8.094  1.00  0.00    -0.000 C 
HETATM    5  C8  UNL     1      20.296  43.485  -9.021  1.00  0.00     0.012 C 
HETATM    6  C9  UNL     1      19.162  43.208  -8.151  1.00  0.00     0.033 C 
HETATM    7  C26 UNL     1      19.413  42.747  -6.695  1.00  0.00     0.101 C 
HETATM    8 CL1  UNL     1      19.240  40.992  -6.514  1.00  0.00    -0.123 Cl
HETATM    9  C27 UNL     1      20.628  43.294  -5.998  1.00  0.00     0.004 C 
HETATM   10  C28 UNL     1      21.681  42.183  -5.770  1.00  0.00     0.020 C 
HETATM   11  C29 UNL     1      20.546  43.964  -4.709  1.00  0.00     0.130 C 
HETATM   12  C30 UNL     1      21.829  44.642  -4.406  1.00  0.00     0.065 C 
HETATM   13  C31 UNL     1      22.706  45.129  -5.563  1.00  0.00     0.129 C 
HETATM   14  C32 UNL     1      21.846  45.476  -6.670  1.00  0.00    -0.013 C 
HETATM   15  C33 UNL     1      20.971  46.623  -6.090  1.00  0.00     0.018 C 
HETATM   16  C34 UNL     1      22.240  46.027  -7.976  1.00  0.00     0.013 C 
HETATM   17  C35 UNL     1      21.125  45.918  -8.941  1.00  0.00     0.015 C 
HETATM   18  C36 UNL     1      20.632  44.787  -9.672  1.00  0.00    -0.013 C 
HETATM   19  C37 UNL     1      19.337  45.264 -10.324  1.00  0.00     0.021 C 
HETATM   20  C38 UNL     1      21.110  44.272  -7.050  1.00  0.00     0.013 C 
ENDROOT
BRANCH   6  21
HETATM   21  C10 UNL     1      18.355  42.047  -8.715  1.00  0.00    -0.017 C 
HETATM   22  C11 UNL     1      17.206  42.164  -9.268  1.00  0.00     0.033 C 
BRANCH  22  23
HETATM   23  C12 UNL     1      16.484  41.016  -9.790  1.00  0.00     0.067 C 
HETATM   24  C13 UNL     1      16.547  40.689 -11.085  1.00  0.00     0.037 C 
BRANCH  24  25
HETATM   25  C14 UNL     1      15.845  39.553 -11.641  1.00  0.00     0.003 C 
HETATM   26  C15 UNL     1      14.741  39.652 -12.342  1.00  0.00     0.006 C 
BRANCH  26  27
HETATM   27  C16 UNL     1      14.001  38.557 -12.921  1.00  0.00    -0.066 C 
HETATM   28  C17 UNL     1      13.174  38.668 -14.158  1.00  0.00     0.048 C 
HETATM   29  C18 UNL     1      14.023  37.352 -12.360  1.00  0.00    -0.016 C 
BRANCH  29  30
HETATM   30  C19 UNL     1      13.305  36.179 -12.871  1.00  0.00     0.054 C 
BRANCH  30  31
HETATM   31  C20 UNL     1      13.826  34.899 -12.331  1.00  0.00    -0.027 C 
HETATM   32  C21 UNL     1      14.782  34.854 -11.408  1.00  0.00    -0.030 C 
BRANCH  32  33
HETATM   33  C22 UNL     1      15.324  33.607 -10.850  1.00  0.00     0.026 C 
BRANCH  33  34
HETATM   34  C23 UNL     1      16.604  33.903 -10.126  1.00  0.00    -0.001 C 
HETATM   35  C24 UNL     1      16.985  35.368 -10.265  1.00  0.00     0.005 C 
ENDBRANCH  33  34
ENDBRANCH  32  33
ENDBRANCH  30  31
ENDBRANCH  29  30
ENDBRANCH  26  27
ENDBRANCH  24  25
BRANCH  23  36
HETATM   36  O2  UNL     1      15.695  40.191  -9.002  1.00  0.00    -0.356 OA
HETATM   37  C25 UNL     1      14.655  40.591  -8.170  1.00  0.00     0.210 C 
ENDBRANCH  23  36
ENDBRANCH  22  23
ENDBRANCH   6  21
BRANCH   1  38
HETATM   38  C2  UNL     1      21.873  45.180 -11.912  1.00  0.00    -0.066 C 
HETATM   39  C1  UNL     1      22.259  46.401 -12.055  1.00  0.00     0.019 C 
HETATM   40  C3  UNL     1      21.715  44.518 -13.318  1.00  0.00     0.047 C 
ENDBRANCH   1  38
BRANCH  11  41
HETATM   41  O3  UNL     1      19.372  44.621  -4.381  1.00  0.00    -0.395 OA
ATOM     42  H3  UNL     1      18.752  44.182  -3.809  1.00  0.00     0.210 HD
ENDBRANCH  11  41
BRANCH   2  43
HETATM   43  O1  UNL     1      23.994  44.240 -10.526  1.00  0.00    -0.391 OA
ATOM     44  H1  UNL     1      23.864  45.026 -11.043  1.00  0.00     0.210 HD
ENDBRANCH   2  43
BRANCH  13  45
HETATM   45  O4  UNL     1      23.284  46.337  -5.076  1.00  0.00    -0.395 OA
ATOM     46  H4  UNL     1      23.171  46.953  -5.791  1.00  0.00     0.210 HD
ENDBRANCH  13  45
TORSDOF 13
ENDMDL
MODEL 5
REMARK VINA RESULT: -8.123091780      1.069      2.425
REMARK  13 active torsions:
REMARK  status: ('A' for Active; 'I' for Inactive)
REMARK    1  A    between atoms: C2_2  and  C4_4 
REMARK    2  A    between atoms: C5_5  and  O1_6 
REMARK    3  A    between atoms: C9_11  and  C10_12 
REMARK    4  A    between atoms: C11_13  and  C12_14 
REMARK    5  A    between atoms: C12_14  and  O2_27 
REMARK    6  A    between atoms: C13_15  and  C14_16 
REMARK    7  A    between atoms: C15_17  and  C16_18 
REMARK    8  A    between atoms: C18_20  and  C19_21 
REMARK    9  A    between atoms: C19_21  and  C20_22 
REMARK   10  A    between atoms: C21_23  and  C22_24 
REMARK   11  A    between atoms: C22_24  and  C23_25 
REMARK   12  A    between atoms: C29_33  and  O3_34 
REMARK   13  A    between atoms: C31_37  and  O4_38 
ROOT
HETATM    1  C4  UNL     1      21.305  43.871 -10.792  1.00  0.00    -0.038 C 
HETATM    2  C5  UNL     1      22.420  42.928 -10.412  1.00  0.00     0.149 C 
HETATM    3  C6  UNL     1      22.536  42.516  -8.982  1.00  0.00     0.042 C 
HETATM    4  C7  UNL     1      21.350  42.716  -8.186  1.00  0.00    -0.000 C 
HETATM    5  C8  UNL     1      20.063  43.057  -8.981  1.00  0.00     0.012 C 
HETATM    6  C9  UNL     1      18.987  42.877  -8.017  1.00  0.00     0.033 C 
HETATM    7  C26 UNL     1      19.308  42.306  -6.614  1.00  0.00     0.101 C 
HETATM    8 CL1  UNL     1      18.921  40.580  -6.495  1.00  0.00    -0.123 Cl
HETATM    9  C27 UNL     1      20.644  42.652  -6.017  1.00  0.00     0.004 C 
HETATM   10  C28 UNL     1      21.556  41.404  -5.943  1.00  0.00     0.020 C 
HETATM   11  C29 UNL     1      20.771  43.252  -4.698  1.00  0.00     0.130 C 
HETATM   12  C30 UNL     1      22.155  43.742  -4.493  1.00  0.00     0.065 C 
HETATM   13  C31 UNL     1      22.979  44.178  -5.707  1.00  0.00     0.129 C 
HETATM   14  C32 UNL     1      22.075  44.695  -6.708  1.00  0.00    -0.013 C 
HETATM   15  C33 UNL     1      21.416  45.910  -5.994  1.00  0.00     0.018 C 
HETATM   16  C34 UNL     1      22.416  45.264  -8.020  1.00  0.00     0.013 C 
HETATM   17  C35 UNL     1      21.213  45.355  -8.875  1.00  0.00     0.015 C 
HETATM   18  C36 UNL     1      20.508  44.339  -9.603  1.00  0.00    -0.013 C 
HETATM   19  C37 UNL     1      19.234  45.014 -10.102  1.00  0.00     0.021 C 
HETATM   20  C38 UNL     1      21.153  43.618  -7.067  1.00  0.00     0.013 C 
ENDROOT
BRANCH   6  21
HETATM   21  C10 UNL     1      17.985  41.864  -8.548  1.00  0.00    -0.017 C 
HETATM   22  C11 UNL     1      16.763  42.128  -8.823  1.00  0.00     0.033 C 
BRANCH  22  23
HETATM   23  C12 UNL     1      15.852  41.116  -9.331  1.00  0.00     0.067 C 
HETATM   24  C13 UNL     1      15.733  40.889 -10.642  1.00  0.00     0.037 C 
BRANCH  24  25
HETATM   25  C14 UNL     1      14.840  39.888 -11.187  1.00  0.00     0.003 C 
HETATM   26  C15 UNL     1      13.619  40.145 -11.589  1.00  0.00     0.006 C 
BRANCH  26  27
HETATM   27  C16 UNL     1      12.687  39.191 -12.139  1.00  0.00    -0.066 C 
HETATM   28  C17 UNL     1      11.308  38.971 -11.615  1.00  0.00     0.048 C 
HETATM   29  C18 UNL     1      13.024  38.438 -13.181  1.00  0.00    -0.016 C 
BRANCH  29  30
HETATM   30  C19 UNL     1      12.150  37.442 -13.811  1.00  0.00     0.054 C 
BRANCH  30  31
HETATM   31  C20 UNL     1      12.539  36.045 -13.494  1.00  0.00    -0.027 C 
HETATM   32  C21 UNL     1      13.610  35.754 -12.764  1.00  0.00    -0.030 C 
BRANCH  32  33
HETATM   33  C22 UNL     1      14.027  34.385 -12.430  1.00  0.00     0.026 C 
BRANCH  33  34
HETATM   34  C23 UNL     1      14.988  34.427 -11.278  1.00  0.00    -0.001 C 
HETATM   35  C24 UNL     1      15.511  35.836 -11.052  1.00  0.00     0.005 C 
ENDBRANCH  33  34
ENDBRANCH  32  33
ENDBRANCH  30  31
ENDBRANCH  29  30
ENDBRANCH  26  27
ENDBRANCH  24  25
BRANCH  23  36
HETATM   36  O2  UNL     1      15.058  40.326  -8.512  1.00  0.00    -0.356 OA
HETATM   37  C25 UNL     1      14.093  40.774  -7.616  1.00  0.00     0.210 C 
ENDBRANCH  23  36
ENDBRANCH  22  23
ENDBRANCH   6  21
BRANCH   1  38
HETATM   38  C2  UNL     1      21.580  44.697 -11.935  1.00  0.00    -0.066 C 
HETATM   39  C1  UNL     1      22.115  45.862 -12.062  1.00  0.00     0.019 C 
HETATM   40  C3  UNL     1      21.198  44.146 -13.346  1.00  0.00     0.047 C 
ENDBRANCH   1  38
BRANCH  11  41
HETATM   41  O3  UNL     1      19.730  44.035  -4.226  1.00  0.00    -0.395 OA
ATOM     42  H3  UNL     1      18.888  43.621  -4.067  1.00  0.00     0.210 HD
ENDBRANCH  11  41
BRANCH   2  43
HETATM   43  O1  UNL     1      23.675  43.415 -10.808  1.00  0.00    -0.391 OA
ATOM     44  H1  UNL     1      24.006  44.071 -10.205  1.00  0.00     0.210 HD
ENDBRANCH   2  43
BRANCH  13  45
HETATM   45  O4  UNL     1      23.755  45.272  -5.227  1.00  0.00    -0.395 OA
ATOM     46  H4  UNL     1      23.929  45.792  -6.003  1.00  0.00     0.210 HD
ENDBRANCH  13  45
TORSDOF 13
ENDMDL
