MODEL 1
REMARK VINA RESULT: -6.994417347      0.000      0.000
REMARK  5 active torsions:
REMARK  status: ('A' for Active; 'I' for Inactive)
REMARK    1  A    between atoms: C3_3  and  C4_4 
REMARK    2  A    between atoms: C7_7  and  O1_8 
REMARK    3  A    between atoms: O1_8  and  C8_9 
REMARK    4  A    between atoms: C15_20  and  C16_21 
REMARK    5  A    between atoms: C16_21  and  N2_24 
ROOT
HETATM    1  C1  UNL     1     -29.920  -9.277 -25.638  1.00  0.00     0.051 C 
HETATM    2  C2  UNL     1     -28.728  -8.376 -25.607  1.00  0.00    -0.024 A 
HETATM    3  C3  UNL     1     -27.860  -8.021 -26.591  1.00  0.00     0.050 A 
HETATM    4  N1  UNL     1     -26.949  -7.191 -25.983  1.00  0.00    -0.341 N 
ATOM      5  H1  UNL     1     -26.161  -6.756 -26.464  1.00  0.00     0.167 HD
HETATM    6  C11 UNL     1     -27.215  -7.027 -24.702  1.00  0.00     0.108 A 
HETATM    7  C12 UNL     1     -28.325  -7.749 -24.411  1.00  0.00    -0.006 A 
HETATM    8  C13 UNL     1     -28.879  -7.763 -23.024  1.00  0.00     0.045 C 
HETATM    9  C14 UNL     1     -28.799  -6.339 -22.515  1.00  0.00     0.032 C 
HETATM   10  C15 UNL     1     -27.351  -5.896 -22.450  1.00  0.00     0.118 C 
HETATM   11  N3  UNL     1     -26.613  -6.288 -23.620  1.00  0.00    -0.369 N 
ATOM     12  H3  UNL     1     -25.627  -6.033 -23.688  1.00  0.00     0.161 HD
ENDROOT
BRANCH   3  13
HETATM   13  C4  UNL     1     -27.827  -8.419 -27.978  1.00  0.00    -0.009 A 
HETATM   14  C5  UNL     1     -28.042  -7.627 -29.055  1.00  0.00     0.016 A 
HETATM   15  C6  UNL     1     -28.031  -8.090 -30.387  1.00  0.00     0.038 A 
HETATM   16  C7  UNL     1     -27.792  -9.402 -30.651  1.00  0.00     0.074 A 
HETATM   17  C9  UNL     1     -27.565 -10.251 -29.569  1.00  0.00     0.038 A 
HETATM   18  C10 UNL     1     -27.583  -9.771 -28.285  1.00  0.00     0.016 A 
BRANCH  16  19
HETATM   19  O1  UNL     1     -27.762  -9.945 -31.925  1.00  0.00    -0.290 OA
BRANCH  19  20
HETATM   20  C8  UNL     1     -27.318 -11.206 -32.295  1.00  0.00     0.505 C 
HETATM   21  F1  UNL     1     -27.442 -11.452 -33.652  1.00  0.00    -0.184 F 
HETATM   22  F2  UNL     1     -25.959 -11.303 -32.000  1.00  0.00    -0.184 F 
ENDBRANCH  19  20
ENDBRANCH  16  19
ENDBRANCH   3  13
BRANCH  10  23
HETATM   23  C16 UNL     1     -27.317  -4.400 -22.230  1.00  0.00     0.136 C 
HETATM   24  C17 UNL     1     -26.362  -3.717 -23.165  1.00  0.00     0.048 C 
HETATM   25  C18 UNL     1     -28.705  -3.841 -22.477  1.00  0.00     0.048 C 
BRANCH  23  26
HETATM   26  N2  UNL     1     -26.976  -4.155 -20.839  1.00  0.00    -0.069 N 
ATOM     27  H23 UNL     1     -27.612  -3.496 -20.387  1.00  0.00     0.275 HD
ATOM     28  H22 UNL     1     -27.164  -4.959 -20.240  1.00  0.00     0.275 HD
ATOM     29  H21 UNL     1     -26.003  -3.852 -20.800  1.00  0.00     0.275 HD
ENDBRANCH  23  26
ENDBRANCH  10  23
TORSDOF 5
ENDMDL
MODEL 2
REMARK VINA RESULT: -6.723318134      5.440      8.800
REMARK  5 active torsions:
REMARK  status: ('A' for Active; 'I' for Inactive)
REMARK    1  A    between atoms: C3_3  and  C4_4 
REMARK    2  A    between atoms: C7_7  and  O1_8 
REMARK    3  A    between atoms: O1_8  and  C8_9 
REMARK    4  A    between atoms: C15_20  and  C16_21 
REMARK    5  A    between atoms: C16_21  and  N2_24 
ROOT
HETATM    1  C1  UNL     1     -25.725 -10.286 -24.257  1.00  0.00     0.051 C 
HETATM    2  C2  UNL     1     -26.563  -9.658 -25.323  1.00  0.00    -0.024 A 
HETATM    3  C3  UNL     1     -27.117  -8.419 -25.399  1.00  0.00     0.050 A 
HETATM    4  N1  UNL     1     -27.803  -8.406 -26.589  1.00  0.00    -0.341 N 
ATOM      5  H1  UNL     1     -28.332  -7.605 -26.936  1.00  0.00     0.167 HD
HETATM    6  C11 UNL     1     -27.696  -9.554 -27.229  1.00  0.00     0.108 A 
HETATM    7  C12 UNL     1     -26.927 -10.380 -26.478  1.00  0.00    -0.006 A 
HETATM    8  C13 UNL     1     -26.622 -11.765 -26.943  1.00  0.00     0.045 C 
HETATM    9  C14 UNL     1     -26.328 -11.665 -28.426  1.00  0.00     0.032 C 
HETATM   10  C15 UNL     1     -27.556 -11.170 -29.162  1.00  0.00     0.118 C 
HETATM   11  N3  UNL     1     -28.193 -10.078 -28.477  1.00  0.00    -0.369 N 
ATOM     12  H3  UNL     1     -29.027  -9.658 -28.889  1.00  0.00     0.161 HD
ENDROOT
BRANCH   3  13
HETATM   13  C4  UNL     1     -27.063  -7.327 -24.457  1.00  0.00    -0.009 A 
HETATM   14  C5  UNL     1     -25.965  -6.617 -24.101  1.00  0.00     0.016 A 
HETATM   15  C6  UNL     1     -25.976  -5.582 -23.144  1.00  0.00     0.038 A 
HETATM   16  C7  UNL     1     -27.134  -5.242 -22.517  1.00  0.00     0.074 A 
HETATM   17  C9  UNL     1     -28.286  -5.950 -22.856  1.00  0.00     0.038 A 
HETATM   18  C10 UNL     1     -28.244  -6.952 -23.791  1.00  0.00     0.016 A 
BRANCH  16  19
HETATM   19  O1  UNL     1     -27.237  -4.242 -21.566  1.00  0.00    -0.290 OA
BRANCH  19  20
HETATM   20  C8  UNL     1     -27.847  -4.320 -20.321  1.00  0.00     0.505 C 
HETATM   21  F1  UNL     1     -27.004  -3.976 -19.278  1.00  0.00    -0.184 F 
HETATM   22  F2  UNL     1     -28.906  -3.414 -20.288  1.00  0.00    -0.184 F 
ENDBRANCH  19  20
ENDBRANCH  16  19
ENDBRANCH   3  13
BRANCH  10  23
HETATM   23  C16 UNL     1     -27.151 -10.799 -30.572  1.00  0.00     0.136 C 
HETATM   24  C17 UNL     1     -25.665 -10.645 -30.706  1.00  0.00     0.048 C 
HETATM   25  C18 UNL     1     -27.602 -11.899 -31.513  1.00  0.00     0.048 C 
BRANCH  23  26
HETATM   26  N2  UNL     1     -27.854  -9.580 -30.937  1.00  0.00    -0.069 N 
ATOM     27  H23 UNL     1     -27.281  -8.744 -30.820  1.00  0.00     0.275 HD
ATOM     28  H22 UNL     1     -28.008  -9.501 -31.942  1.00  0.00     0.275 HD
ATOM     29  H21 UNL     1     -28.720  -9.541 -30.401  1.00  0.00     0.275 HD
ENDBRANCH  23  26
ENDBRANCH  10  23
TORSDOF 5
ENDMDL
MODEL 3
REMARK VINA RESULT: -6.697122372      5.630      8.964
REMARK  5 active torsions:
REMARK  status: ('A' for Active; 'I' for Inactive)
REMARK    1  A    between atoms: C3_3  and  C4_4 
REMARK    2  A    between atoms: C7_7  and  O1_8 
REMARK    3  A    between atoms: O1_8  and  C8_9 
REMARK    4  A    between atoms: C15_20  and  C16_21 
REMARK    5  A    between atoms: C16_21  and  N2_24 
ROOT
HETATM    1  C1  UNL     1     -25.117  -9.501 -23.484  1.00  0.00     0.051 C 
HETATM    2  C2  UNL     1     -26.248  -9.240 -24.424  1.00  0.00    -0.024 A 
HETATM    3  C3  UNL     1     -27.154  -8.226 -24.461  1.00  0.00     0.050 A 
HETATM    4  N1  UNL     1     -27.974  -8.517 -25.524  1.00  0.00    -0.341 N 
ATOM      5  H1  UNL     1     -28.763  -7.937 -25.813  1.00  0.00     0.167 HD
HETATM    6  C11 UNL     1     -27.620  -9.636 -26.124  1.00  0.00     0.108 A 
HETATM    7  C12 UNL     1     -26.539 -10.134 -25.474  1.00  0.00    -0.006 A 
HETATM    8  C13 UNL     1     -25.903 -11.407 -25.925  1.00  0.00     0.045 C 
HETATM    9  C14 UNL     1     -25.866 -11.356 -27.438  1.00  0.00     0.032 C 
HETATM   10  C15 UNL     1     -27.278 -11.305 -27.986  1.00  0.00     0.118 C 
HETATM   11  N3  UNL     1     -28.109 -10.389 -27.252  1.00  0.00    -0.369 N 
ATOM     12  H3  UNL     1     -29.081 -10.268 -27.541  1.00  0.00     0.161 HD
ENDROOT
BRANCH   3  13
HETATM   13  C4  UNL     1     -27.296  -7.086 -23.587  1.00  0.00    -0.009 A 
HETATM   14  C5  UNL     1     -26.342  -6.175 -23.281  1.00  0.00     0.016 A 
HETATM   15  C6  UNL     1     -26.538  -5.102 -22.387  1.00  0.00     0.038 A 
HETATM   16  C7  UNL     1     -27.740  -4.934 -21.775  1.00  0.00     0.074 A 
HETATM   17  C9  UNL     1     -28.749  -5.852 -22.064  1.00  0.00     0.038 A 
HETATM   18  C10 UNL     1     -28.528  -6.885 -22.937  1.00  0.00     0.016 A 
BRANCH  16  19
HETATM   19  O1  UNL     1     -28.022  -3.912 -20.884  1.00  0.00    -0.290 OA
BRANCH  19  20
HETATM   20  C8  UNL     1     -28.024  -3.977 -19.498  1.00  0.00     0.505 C 
HETATM   21  F1  UNL     1     -26.761  -3.856 -18.944  1.00  0.00    -0.184 F 
HETATM   22  F2  UNL     1     -28.774  -2.911 -19.004  1.00  0.00    -0.184 F 
ENDBRANCH  19  20
ENDBRANCH  16  19
ENDBRANCH   3  13
BRANCH  10  23
HETATM   23  C16 UNL     1     -27.209 -10.958 -29.457  1.00  0.00     0.136 C 
HETATM   24  C17 UNL     1     -27.650  -9.548 -29.721  1.00  0.00     0.048 C 
HETATM   25  C18 UNL     1     -25.774 -11.102 -29.924  1.00  0.00     0.048 C 
BRANCH  23  26
HETATM   26  N2  UNL     1     -28.017 -11.920 -30.187  1.00  0.00    -0.069 N 
ATOM     27  H23 UNL     1     -27.994 -12.851 -29.769  1.00  0.00     0.275 HD
ATOM     28  H22 UNL     1     -29.018 -11.750 -30.088  1.00  0.00     0.275 HD
ATOM     29  H21 UNL     1     -27.711 -11.918 -31.159  1.00  0.00     0.275 HD
ENDBRANCH  23  26
ENDBRANCH  10  23
TORSDOF 5
ENDMDL
MODEL 4
REMARK VINA RESULT: -6.688524571      5.967      9.009
REMARK  5 active torsions:
REMARK  status: ('A' for Active; 'I' for Inactive)
REMARK    1  A    between atoms: C3_3  and  C4_4 
REMARK    2  A    between atoms: C7_7  and  O1_8 
REMARK    3  A    between atoms: O1_8  and  C8_9 
REMARK    4  A    between atoms: C15_20  and  C16_21 
REMARK    5  A    between atoms: C16_21  and  N2_24 
ROOT
HETATM    1  C1  UNL     1     -28.731  -7.124 -25.881  1.00  0.00     0.051 C 
HETATM    2  C2  UNL     1     -27.697  -7.868 -25.099  1.00  0.00    -0.024 A 
HETATM    3  C3  UNL     1     -27.167  -7.621 -23.872  1.00  0.00     0.050 A 
HETATM    4  N1  UNL     1     -26.242  -8.618 -23.674  1.00  0.00    -0.341 N 
ATOM      5  H1  UNL     1     -25.669  -8.708 -22.835  1.00  0.00     0.167 HD
HETATM    6  C11 UNL     1     -26.186  -9.444 -24.700  1.00  0.00     0.108 A 
HETATM    7  C12 UNL     1     -27.080  -9.020 -25.627  1.00  0.00    -0.006 A 
HETATM    8  C13 UNL     1     -27.249  -9.760 -26.913  1.00  0.00     0.045 C 
HETATM    9  C14 UNL     1     -27.221 -11.234 -26.566  1.00  0.00     0.032 C 
HETATM   10  C15 UNL     1     -25.875 -11.600 -25.975  1.00  0.00     0.118 C 
HETATM   11  N3  UNL     1     -25.422 -10.625 -25.019  1.00  0.00    -0.369 N 
ATOM     12  H3  UNL     1     -24.528 -10.774 -24.550  1.00  0.00     0.161 HD
ENDROOT
BRANCH   3  13
HETATM   13  C4  UNL     1     -27.444  -6.547 -22.948  1.00  0.00    -0.009 A 
HETATM   14  C5  UNL     1     -26.589  -5.573 -22.557  1.00  0.00     0.016 A 
HETATM   15  C6  UNL     1     -26.914  -4.571 -21.619  1.00  0.00     0.038 A 
HETATM   16  C7  UNL     1     -28.149  -4.543 -21.051  1.00  0.00     0.074 A 
HETATM   17  C9  UNL     1     -29.059  -5.529 -21.428  1.00  0.00     0.038 A 
HETATM   18  C10 UNL     1     -28.713  -6.491 -22.342  1.00  0.00     0.016 A 
BRANCH  16  19
HETATM   19  O1  UNL     1     -28.555  -3.599 -20.123  1.00  0.00    -0.290 OA
BRANCH  19  20
HETATM   20  C8  UNL     1     -28.188  -3.516 -18.787  1.00  0.00     0.505 C 
HETATM   21  F1  UNL     1     -28.758  -4.504 -18.002  1.00  0.00    -0.184 F 
HETATM   22  F2  UNL     1     -26.808  -3.687 -18.694  1.00  0.00    -0.184 F 
ENDBRANCH  19  20
ENDBRANCH  16  19
ENDBRANCH   3  13
BRANCH  10  23
HETATM   23  C16 UNL     1     -25.976 -12.983 -25.372  1.00  0.00     0.136 C 
HETATM   24  C17 UNL     1     -26.543 -12.949 -23.982  1.00  0.00     0.048 C 
HETATM   25  C18 UNL     1     -26.893 -13.825 -26.237  1.00  0.00     0.048 C 
BRANCH  23  26
HETATM   26  N2  UNL     1     -24.655 -13.586 -25.400  1.00  0.00    -0.069 N 
ATOM     27  H23 UNL     1     -24.636 -14.472 -25.907  1.00  0.00     0.275 HD
ATOM     28  H22 UNL     1     -24.001 -13.075 -25.993  1.00  0.00     0.275 HD
ATOM     29  H21 UNL     1     -24.327 -13.676 -24.438  1.00  0.00     0.275 HD
ENDBRANCH  23  26
ENDBRANCH  10  23
TORSDOF 5
ENDMDL
MODEL 5
REMARK VINA RESULT: -6.650162118      5.809      8.936
REMARK  5 active torsions:
REMARK  status: ('A' for Active; 'I' for Inactive)
REMARK    1  A    between atoms: C3_3  and  C4_4 
REMARK    2  A    between atoms: C7_7  and  O1_8 
REMARK    3  A    between atoms: O1_8  and  C8_9 
REMARK    4  A    between atoms: C15_20  and  C16_21 
REMARK    5  A    between atoms: C16_21  and  N2_24 
ROOT
HETATM    1  C1  UNL     1     -29.119  -9.423 -23.258  1.00  0.00     0.051 C 
HETATM    2  C2  UNL     1     -28.778  -8.484 -24.368  1.00  0.00    -0.024 A 
HETATM    3  C3  UNL     1     -28.348  -7.194 -24.338  1.00  0.00     0.050 A 
HETATM    4  N1  UNL     1     -28.223  -6.827 -25.656  1.00  0.00    -0.341 N 
ATOM      5  H1  UNL     1     -27.915  -5.905 -25.966  1.00  0.00     0.167 HD
HETATM    6  C11 UNL     1     -28.548  -7.811 -26.471  1.00  0.00     0.108 A 
HETATM    7  C12 UNL     1     -28.906  -8.878 -25.716  1.00  0.00    -0.006 A 
HETATM    8  C13 UNL     1     -29.330 -10.156 -26.360  1.00  0.00     0.045 C 
HETATM    9  C14 UNL     1     -28.385 -10.386 -27.521  1.00  0.00     0.032 C 
HETATM   10  C15 UNL     1     -28.529  -9.267 -28.532  1.00  0.00     0.118 C 
HETATM   11  N3  UNL     1     -28.599  -7.976 -27.903  1.00  0.00    -0.369 N 
ATOM     12  H3  UNL     1     -28.689  -7.147 -28.491  1.00  0.00     0.161 HD
ENDROOT
BRANCH   3  13
HETATM   13  C4  UNL     1     -28.094  -6.335 -23.207  1.00  0.00    -0.009 A 
HETATM   14  C5  UNL     1     -28.985  -5.958 -22.259  1.00  0.00     0.016 A 
HETATM   15  C6  UNL     1     -28.679  -5.083 -21.196  1.00  0.00     0.038 A 
HETATM   16  C7  UNL     1     -27.428  -4.566 -21.076  1.00  0.00     0.074 A 
HETATM   17  C9  UNL     1     -26.481  -4.930 -22.032  1.00  0.00     0.038 A 
HETATM   18  C10 UNL     1     -26.809  -5.782 -23.055  1.00  0.00     0.016 A 
BRANCH  16  19
HETATM   19  O1  UNL     1     -27.039  -3.701 -20.067  1.00  0.00    -0.290 OA
BRANCH  19  20
HETATM   20  C8  UNL     1     -26.966  -3.969 -18.707  1.00  0.00     0.505 C 
HETATM   21  F1  UNL     1     -25.803  -3.501 -18.120  1.00  0.00    -0.184 F 
HETATM   22  F2  UNL     1     -28.020  -3.316 -18.069  1.00  0.00    -0.184 F 
ENDBRANCH  19  20
ENDBRANCH  16  19
ENDBRANCH   3  13
BRANCH  10  23
HETATM   23  C16 UNL     1     -27.382  -9.359 -29.515  1.00  0.00     0.136 C 
HETATM   24  C17 UNL     1     -26.432 -10.467 -29.165  1.00  0.00     0.048 C 
HETATM   25  C18 UNL     1     -27.946  -9.635 -30.895  1.00  0.00     0.048 C 
BRANCH  23  26
HETATM   26  N2  UNL     1     -26.715  -8.069 -29.553  1.00  0.00    -0.069 N 
ATOM     27  H23 UNL     1     -26.666  -7.678 -30.494  1.00  0.00     0.275 HD
ATOM     28  H22 UNL     1     -27.269  -7.327 -29.125  1.00  0.00     0.275 HD
ATOM     29  H21 UNL     1     -25.797  -8.174 -29.122  1.00  0.00     0.275 HD
ENDBRANCH  23  26
ENDBRANCH  10  23
TORSDOF 5
ENDMDL
