MODEL 1
REMARK VINA RESULT: -9.956842688      0.000      0.000
REMARK  17 active torsions:
REMARK  status: ('A' for Active; 'I' for Inactive)
REMARK    1  A    between atoms: C3_3  and  C4_4 
REMARK    2  A    between atoms: C5_5  and  C6_6 
REMARK       I    between atoms: C6_6  and  N1_8 
REMARK    3  A    between atoms: N1_8  and  C7_10 
REMARK    4  A    between atoms: C9_12  and  C10_13 
REMARK       I    between atoms: C10_13  and  N2_15 
REMARK    5  A    between atoms: N2_15  and  C11_17 
REMARK    6  A    between atoms: C15_27  and  O4_28 
REMARK    7  A    between atoms: C16_30  and  C17_31 
REMARK    8  A    between atoms: C17_31  and  O5_32 
REMARK    9  A    between atoms: C18_34  and  O6_35 
REMARK   10  A    between atoms: N8_40  and  C19_41 
REMARK   11  A    between atoms: N12_48  and  C20_49 
REMARK   12  A    between atoms: C20_49  and  O7_50 
REMARK   13  A    between atoms: O7_50  and  C21_51 
REMARK   14  A    between atoms: C21_51  and  C22_53 
REMARK   15  A    between atoms: C22_53  and  O9_54 
REMARK   16  A    between atoms: O9_54  and  S1_55 
REMARK   17  A    between atoms: S1_55  and  N13_56 
ROOT
HETATM    1  C6  UNL     1      22.592 -10.092 -18.876  1.00  0.00     0.245 C 
HETATM    2  O1  UNL     1      22.903  -8.891 -18.993  1.00  0.00    -0.268 OA
HETATM    3  N1  UNL     1      22.087 -10.819 -19.967  1.00  0.00    -0.321 N 
ATOM      4  H1  UNL     1      21.850 -11.798 -19.810  1.00  0.00     0.169 HD
ENDROOT
BRANCH   1   5
HETATM    5  C5  UNL     1      22.774 -10.723 -17.558  1.00  0.00     0.077 C 
HETATM    6  C4  UNL     1      23.000 -10.075 -16.443  1.00  0.00     0.038 C 
BRANCH   6   7
HETATM    7  C3  UNL     1      23.157 -10.869 -15.217  1.00  0.00     0.070 A 
HETATM    8  C2  UNL     1      24.147 -10.691 -14.275  1.00  0.00     0.074 A 
HETATM    9  C1  UNL     1      25.226  -9.678 -14.321  1.00  0.00     0.073 C 
HETATM   10  N8  UNL     1      23.994 -11.592 -13.277  1.00  0.00    -0.070 N 
HETATM   11  N7  UNL     1      22.932 -12.312 -13.595  1.00  0.00     0.000 NA
HETATM   12  N6  UNL     1      22.419 -11.890 -14.755  1.00  0.00    -0.281 N 
ATOM     13  H6  UNL     1      21.598 -12.282 -15.216  1.00  0.00     0.184 HD
BRANCH  10  14
HETATM   14  C19 UNL     1      24.827 -11.710 -12.133  1.00  0.00     0.738 A 
HETATM   15  N9  UNL     1      24.691 -11.072 -10.966  1.00  0.00    -0.113 N 
HETATM   16  N10 UNL     1      25.644 -11.427 -10.137  1.00  0.00    -0.213 N 
ATOM     17  H9  UNL     1      23.950 -10.405 -10.751  1.00  0.00     0.207 HD
HETATM   18  N11 UNL     1      26.385 -12.290 -10.781  1.00  0.00    -0.209 N 
ATOM     19  H10 UNL     1      25.781 -11.095  -9.182  1.00  0.00     0.210 HD
HETATM   20  N12 UNL     1      25.936 -12.496 -11.987  1.00  0.00    -0.081 N 
ATOM     21  H11 UNL     1      27.209 -12.745 -10.390  1.00  0.00     0.210 HD
BRANCH  20  22
HETATM   22  C20 UNL     1      26.476 -13.351 -13.014  1.00  0.00     0.348 C 
BRANCH  22  23
HETATM   23  O7  UNL     1      27.209 -12.619 -13.937  1.00  0.00    -0.297 OA
BRANCH  23  24
HETATM   24  C21 UNL     1      26.992 -12.601 -15.291  1.00  0.00     0.285 C 
HETATM   25  O8  UNL     1      25.917 -13.013 -15.780  1.00  0.00    -0.263 OA
BRANCH  24  26
HETATM   26  C22 UNL     1      28.046 -12.081 -16.221  1.00  0.00     0.302 C 
BRANCH  26  27
HETATM   27  O9  UNL     1      27.511 -11.921 -17.512  1.00  0.00    -0.250 OA
BRANCH  27  28
HETATM   28  S1  UNL     1      28.729 -12.119 -18.649  1.00  0.00     0.356 S 
HETATM   29  O10 UNL     1      28.951 -10.800 -19.317  1.00  0.00    -0.176 OA
HETATM   30  O11 UNL     1      29.967 -12.560 -17.905  1.00  0.00    -0.176 OA
BRANCH  28  31
HETATM   31  N13 UNL     1      28.316 -13.355 -19.785  1.00  0.00    -0.306 N 
ATOM     32 2H13 UNL     1      27.810 -14.206 -19.537  1.00  0.00     0.171 HD
ATOM     33 1H13 UNL     1      28.646 -13.114 -20.719  1.00  0.00     0.171 HD
ENDBRANCH  28  31
ENDBRANCH  27  28
ENDBRANCH  26  27
ENDBRANCH  24  26
ENDBRANCH  23  24
ENDBRANCH  22  23
ENDBRANCH  20  22
ENDBRANCH  10  14
ENDBRANCH   6   7
ENDBRANCH   1   5
BRANCH   3  34
HETATM   34  C7  UNL     1      21.882 -10.302 -21.259  1.00  0.00     0.070 A 
HETATM   35  C8  UNL     1      22.813 -10.134 -22.239  1.00  0.00     0.052 A 
HETATM   36  C9  UNL     1      22.527  -9.614 -23.512  1.00  0.00     0.069 A 
HETATM   37  C15 UNL     1      21.232  -9.256 -23.786  1.00  0.00     0.092 A 
HETATM   38  C16 UNL     1      20.250  -9.402 -22.841  1.00  0.00     0.035 A 
HETATM   39  C18 UNL     1      20.577  -9.920 -21.593  1.00  0.00     0.103 A 
BRANCH  36  40
HETATM   40  C10 UNL     1      23.598  -9.478 -24.482  1.00  0.00     0.272 C 
HETATM   41  O2  UNL     1      23.797 -10.323 -25.379  1.00  0.00    -0.267 OA
HETATM   42  N2  UNL     1      24.452  -8.344 -24.413  1.00  0.00    -0.155 N 
ATOM     43  H2  UNL     1      25.162  -8.297 -23.681  1.00  0.00     0.187 HD
BRANCH  42  44
HETATM   44  C11 UNL     1      24.346  -7.368 -25.261  1.00  0.00     0.689 A 
HETATM   45  N3  UNL     1      23.388  -6.442 -25.078  1.00  0.00    -0.178 N 
HETATM   46  C12 UNL     1      23.250  -5.408 -25.948  1.00  0.00     0.137 A 
ATOM     47  H3  UNL     1      22.760  -6.517 -24.278  1.00  0.00     0.185 HD
HETATM   48  N4  UNL     1      22.248  -4.423 -25.771  1.00  0.00    -0.082 NA
HETATM   49  C13 UNL     1      24.092  -5.303 -27.024  1.00  0.00     0.120 A 
HETATM   50  C14 UNL     1      25.070  -6.265 -27.194  1.00  0.00     0.262 A 
HETATM   51  O3  UNL     1      25.848  -6.183 -28.174  1.00  0.00    -0.268 OA
HETATM   52  N5  UNL     1      25.170  -7.267 -26.312  1.00  0.00    -0.156 N 
ATOM     53  H5  UNL     1      25.895  -7.973 -26.444  1.00  0.00     0.187 HD
ENDBRANCH  42  44
ENDBRANCH  36  40
BRANCH  37  54
HETATM   54  O4  UNL     1      20.908  -8.745 -25.018  1.00  0.00    -0.359 OA
ATOM     55  H4  UNL     1      20.002  -8.551 -25.229  1.00  0.00     0.217 HD
ENDBRANCH  37  54
BRANCH  38  56
HETATM   56  C17 UNL     1      18.848  -9.025 -23.103  1.00  0.00     0.208 C 
BRANCH  56  57
HETATM   57  O5  UNL     1      18.795  -7.744 -23.602  1.00  0.00    -0.396 OA
ATOM     58  H5  UNL     1      17.893  -7.503 -23.776  1.00  0.00     0.209 HD
ENDBRANCH  56  57
ENDBRANCH  38  56
BRANCH  39  59
HETATM   59  O6  UNL     1      19.575 -10.048 -20.686  1.00  0.00    -0.358 OA
ATOM     60  H6  UNL     1      18.714 -10.336 -20.963  1.00  0.00     0.217 HD
ENDBRANCH  39  59
ENDBRANCH   3  34
TORSDOF 17
ENDMDL
MODEL 2
REMARK VINA RESULT: -9.903845551      2.545      3.448
REMARK  17 active torsions:
REMARK  status: ('A' for Active; 'I' for Inactive)
REMARK    1  A    between atoms: C3_3  and  C4_4 
REMARK    2  A    between atoms: C5_5  and  C6_6 
REMARK       I    between atoms: C6_6  and  N1_8 
REMARK    3  A    between atoms: N1_8  and  C7_10 
REMARK    4  A    between atoms: C9_12  and  C10_13 
REMARK       I    between atoms: C10_13  and  N2_15 
REMARK    5  A    between atoms: N2_15  and  C11_17 
REMARK    6  A    between atoms: C15_27  and  O4_28 
REMARK    7  A    between atoms: C16_30  and  C17_31 
REMARK    8  A    between atoms: C17_31  and  O5_32 
REMARK    9  A    between atoms: C18_34  and  O6_35 
REMARK   10  A    between atoms: N8_40  and  C19_41 
REMARK   11  A    between atoms: N12_48  and  C20_49 
REMARK   12  A    between atoms: C20_49  and  O7_50 
REMARK   13  A    between atoms: O7_50  and  C21_51 
REMARK   14  A    between atoms: C21_51  and  C22_53 
REMARK   15  A    between atoms: C22_53  and  O9_54 
REMARK   16  A    between atoms: O9_54  and  S1_55 
REMARK   17  A    between atoms: S1_55  and  N13_56 
ROOT
HETATM    1  C6  UNL     1      22.428  -9.332 -20.670  1.00  0.00     0.245 C 
HETATM    2  O1  UNL     1      22.662  -8.188 -21.104  1.00  0.00    -0.268 OA
HETATM    3  N1  UNL     1      21.714 -10.267 -21.438  1.00  0.00    -0.321 N 
ATOM      4  H1  UNL     1      21.552 -11.187 -21.028  1.00  0.00     0.169 HD
ENDROOT
BRANCH   1   5
HETATM    5  C5  UNL     1      22.925  -9.672 -19.326  1.00  0.00     0.077 C 
HETATM    6  C4  UNL     1      22.215  -9.609 -18.227  1.00  0.00     0.038 C 
BRANCH   6   7
HETATM    7  C3  UNL     1      22.877  -9.984 -16.970  1.00  0.00     0.070 A 
HETATM    8  C2  UNL     1      23.593  -9.129 -16.161  1.00  0.00     0.074 A 
HETATM    9  C1  UNL     1      23.830  -7.688 -16.404  1.00  0.00     0.073 C 
HETATM   10  N8  UNL     1      24.063  -9.805 -15.088  1.00  0.00    -0.070 N 
HETATM   11  N7  UNL     1      23.646 -11.052 -15.228  1.00  0.00     0.000 NA
HETATM   12  N6  UNL     1      22.933 -11.175 -16.352  1.00  0.00    -0.281 N 
ATOM     13  H6  UNL     1      22.501 -12.036 -16.688  1.00  0.00     0.184 HD
BRANCH  10  14
HETATM   14  C19 UNL     1      24.844  -9.252 -14.038  1.00  0.00     0.738 A 
HETATM   15  N9  UNL     1      24.399  -8.663 -12.924  1.00  0.00    -0.113 N 
HETATM   16  N10 UNL     1      25.406  -8.271 -12.180  1.00  0.00    -0.213 N 
ATOM     17  H9  UNL     1      23.415  -8.536 -12.686  1.00  0.00     0.207 HD
HETATM   18  N11 UNL     1      26.491  -8.613 -12.824  1.00  0.00    -0.209 N 
ATOM     19  H10 UNL     1      25.353  -7.795 -11.279  1.00  0.00     0.210 HD
HETATM   20  N12 UNL     1      26.208  -9.207 -13.949  1.00  0.00    -0.081 N 
ATOM     21  H11 UNL     1      27.438  -8.437 -12.490  1.00  0.00     0.210 HD
BRANCH  20  22
HETATM   22  C20 UNL     1      27.112  -9.713 -14.951  1.00  0.00     0.348 C 
BRANCH  22  23
HETATM   23  O7  UNL     1      27.761 -10.856 -14.504  1.00  0.00    -0.297 OA
BRANCH  23  24
HETATM   24  C21 UNL     1      27.147 -11.986 -14.032  1.00  0.00     0.285 C 
HETATM   25  O8  UNL     1      26.757 -12.885 -14.811  1.00  0.00    -0.263 OA
BRANCH  24  26
HETATM   26  C22 UNL     1      26.928 -12.173 -12.562  1.00  0.00     0.302 C 
BRANCH  26  27
HETATM   27  O9  UNL     1      25.640 -11.732 -12.207  1.00  0.00    -0.250 OA
BRANCH  27  28
HETATM   28  S1  UNL     1      24.622 -13.055 -12.045  1.00  0.00     0.356 S 
HETATM   29  O10 UNL     1      25.444 -14.210 -11.569  1.00  0.00    -0.176 OA
HETATM   30  O11 UNL     1      23.570 -12.688 -11.024  1.00  0.00    -0.176 OA
BRANCH  28  31
HETATM   31  N13 UNL     1      23.823 -13.404 -13.537  1.00  0.00    -0.306 N 
ATOM     32 2H13 UNL     1      24.305 -13.735 -14.374  1.00  0.00     0.171 HD
ATOM     33 1H13 UNL     1      22.820 -13.236 -13.460  1.00  0.00     0.171 HD
ENDBRANCH  28  31
ENDBRANCH  27  28
ENDBRANCH  26  27
ENDBRANCH  24  26
ENDBRANCH  23  24
ENDBRANCH  22  23
ENDBRANCH  20  22
ENDBRANCH  10  14
ENDBRANCH   6   7
ENDBRANCH   1   5
BRANCH   3  34
HETATM   34  C7  UNL     1      21.203 -10.033 -22.728  1.00  0.00     0.070 A 
HETATM   35  C8  UNL     1      21.886 -10.073 -23.907  1.00  0.00     0.052 A 
HETATM   36  C9  UNL     1      21.301  -9.833 -25.160  1.00  0.00     0.069 A 
HETATM   37  C15 UNL     1      19.961  -9.543 -25.201  1.00  0.00     0.092 A 
HETATM   38  C16 UNL     1      19.219  -9.489 -24.049  1.00  0.00     0.035 A 
HETATM   39  C18 UNL     1      19.839  -9.733 -22.829  1.00  0.00     0.103 A 
BRANCH  36  40
HETATM   40  C10 UNL     1      22.123  -9.900 -26.354  1.00  0.00     0.272 C 
HETATM   41  O2  UNL     1      21.639 -10.110 -27.485  1.00  0.00    -0.267 OA
HETATM   42  N2  UNL     1      23.528  -9.721 -26.235  1.00  0.00    -0.155 N 
ATOM     43  H2  UNL     1      24.097 -10.475 -25.849  1.00  0.00     0.187 HD
BRANCH  42  44
HETATM   44  C11 UNL     1      24.100  -8.619 -26.609  1.00  0.00     0.689 A 
HETATM   45  N3  UNL     1      23.374  -7.488 -26.659  1.00  0.00    -0.178 N 
HETATM   46  C12 UNL     1      23.943  -6.317 -27.047  1.00  0.00     0.137 A 
ATOM     47  H3  UNL     1      22.387  -7.510 -26.403  1.00  0.00     0.185 HD
HETATM   48  N4  UNL     1      23.195  -5.116 -27.104  1.00  0.00    -0.082 NA
HETATM   49  C13 UNL     1      25.269  -6.282 -27.391  1.00  0.00     0.120 A 
HETATM   50  C14 UNL     1      25.998  -7.456 -27.333  1.00  0.00     0.262 A 
HETATM   51  O3  UNL     1      27.212  -7.440 -27.645  1.00  0.00    -0.268 OA
HETATM   52  N5  UNL     1      25.396  -8.587 -26.945  1.00  0.00    -0.156 N 
ATOM     53  H5  UNL     1      25.941  -9.449 -26.904  1.00  0.00     0.187 HD
ENDBRANCH  42  44
ENDBRANCH  36  40
BRANCH  37  54
HETATM   54  O4  UNL     1      19.348  -9.302 -26.406  1.00  0.00    -0.359 OA
ATOM     55  H4  UNL     1      19.472  -8.469 -26.843  1.00  0.00     0.217 HD
ENDBRANCH  37  54
BRANCH  38  56
HETATM   56  C17 UNL     1      17.777  -9.180 -24.059  1.00  0.00     0.208 C 
BRANCH  56  57
HETATM   57  O5  UNL     1      17.572  -7.933 -24.603  1.00  0.00    -0.396 OA
ATOM     58  H5  UNL     1      17.856  -7.264 -23.991  1.00  0.00     0.209 HD
ENDBRANCH  56  57
ENDBRANCH  38  56
BRANCH  39  59
HETATM   59  O6  UNL     1      19.070  -9.670 -21.712  1.00  0.00    -0.358 OA
ATOM     60  H6  UNL     1      18.134  -9.825 -21.767  1.00  0.00     0.217 HD
ENDBRANCH  39  59
ENDBRANCH   3  34
TORSDOF 17
ENDMDL
MODEL 3
REMARK VINA RESULT: -9.899895132      2.542      3.353
REMARK  17 active torsions:
REMARK  status: ('A' for Active; 'I' for Inactive)
REMARK    1  A    between atoms: C3_3  and  C4_4 
REMARK    2  A    between atoms: C5_5  and  C6_6 
REMARK       I    between atoms: C6_6  and  N1_8 
REMARK    3  A    between atoms: N1_8  and  C7_10 
REMARK    4  A    between atoms: C9_12  and  C10_13 
REMARK       I    between atoms: C10_13  and  N2_15 
REMARK    5  A    between atoms: N2_15  and  C11_17 
REMARK    6  A    between atoms: C15_27  and  O4_28 
REMARK    7  A    between atoms: C16_30  and  C17_31 
REMARK    8  A    between atoms: C17_31  and  O5_32 
REMARK    9  A    between atoms: C18_34  and  O6_35 
REMARK   10  A    between atoms: N8_40  and  C19_41 
REMARK   11  A    between atoms: N12_48  and  C20_49 
REMARK   12  A    between atoms: C20_49  and  O7_50 
REMARK   13  A    between atoms: O7_50  and  C21_51 
REMARK   14  A    between atoms: C21_51  and  C22_53 
REMARK   15  A    between atoms: C22_53  and  O9_54 
REMARK   16  A    between atoms: O9_54  and  S1_55 
REMARK   17  A    between atoms: S1_55  and  N13_56 
ROOT
HETATM    1  C6  UNL     1      22.638  -9.552 -20.471  1.00  0.00     0.245 C 
HETATM    2  O1  UNL     1      22.606  -8.327 -20.696  1.00  0.00    -0.268 OA
HETATM    3  N1  UNL     1      22.045 -10.468 -21.356  1.00  0.00    -0.321 N 
ATOM      4  H1  UNL     1      22.103 -11.458 -21.117  1.00  0.00     0.169 HD
ENDROOT
BRANCH   1   5
HETATM    5  C5  UNL     1      23.319 -10.007 -19.246  1.00  0.00     0.077 C 
HETATM    6  C4  UNL     1      22.884  -9.802 -18.029  1.00  0.00     0.038 C 
BRANCH   6   7
HETATM    7  C3  UNL     1      23.694 -10.327 -16.922  1.00  0.00     0.070 A 
HETATM    8  C2  UNL     1      23.199 -10.969 -15.807  1.00  0.00     0.074 A 
HETATM    9  C1  UNL     1      21.774 -11.246 -15.518  1.00  0.00     0.073 C 
HETATM   10  N8  UNL     1      24.220 -11.320 -14.992  1.00  0.00    -0.070 N 
HETATM   11  N7  UNL     1      25.324 -10.904 -15.590  1.00  0.00     0.000 NA
HETATM   12  N6  UNL     1      25.025 -10.308 -16.748  1.00  0.00    -0.281 N 
ATOM     13  H6  UNL     1      25.700  -9.902 -17.396  1.00  0.00     0.184 HD
BRANCH  10  14
HETATM   14  C19 UNL     1      24.094 -11.999 -13.751  1.00  0.00     0.738 A 
HETATM   15  N9  UNL     1      23.644 -13.241 -13.553  1.00  0.00    -0.113 N 
HETATM   16  N10 UNL     1      23.667 -13.537 -12.274  1.00  0.00    -0.213 N 
ATOM     17  H9  UNL     1      23.328 -13.870 -14.290  1.00  0.00     0.207 HD
HETATM   18  N11 UNL     1      24.132 -12.480 -11.663  1.00  0.00    -0.209 N 
ATOM     19  H10 UNL     1      23.379 -14.416 -11.843  1.00  0.00     0.210 HD
HETATM   20  N12 UNL     1      24.405 -11.524 -12.507  1.00  0.00    -0.081 N 
ATOM     21  H11 UNL     1      24.265 -12.410 -10.655  1.00  0.00     0.210 HD
BRANCH  20  22
HETATM   22  C20 UNL     1      24.912 -10.203 -12.236  1.00  0.00     0.348 C 
BRANCH  22  23
HETATM   23  O7  UNL     1      26.281 -10.231 -12.008  1.00  0.00    -0.297 OA
BRANCH  23  24
HETATM   24  C21 UNL     1      27.243 -10.420 -12.965  1.00  0.00     0.285 C 
HETATM   25  O8  UNL     1      27.741  -9.452 -13.584  1.00  0.00    -0.263 OA
BRANCH  24  26
HETATM   26  C22 UNL     1      27.725 -11.800 -13.294  1.00  0.00     0.302 C 
BRANCH  26  27
HETATM   27  O9  UNL     1      28.452 -12.327 -12.210  1.00  0.00    -0.250 OA
BRANCH  27  28
HETATM   28  S1  UNL     1      27.578 -13.571 -11.503  1.00  0.00     0.356 S 
HETATM   29  O10 UNL     1      26.759 -12.985 -10.397  1.00  0.00    -0.176 OA
HETATM   30  O11 UNL     1      26.690 -14.159 -12.575  1.00  0.00    -0.176 OA
BRANCH  28  31
HETATM   31  N13 UNL     1      28.629 -14.818 -10.934  1.00  0.00    -0.306 N 
ATOM     32 2H13 UNL     1      28.410 -15.813 -10.990  1.00  0.00     0.171 HD
ATOM     33 1H13 UNL     1      29.484 -14.422 -10.542  1.00  0.00     0.171 HD
ENDBRANCH  28  31
ENDBRANCH  27  28
ENDBRANCH  26  27
ENDBRANCH  24  26
ENDBRANCH  23  24
ENDBRANCH  22  23
ENDBRANCH  20  22
ENDBRANCH  10  14
ENDBRANCH   6   7
ENDBRANCH   1   5
BRANCH   3  34
HETATM   34  C7  UNL     1      21.377 -10.127 -22.546  1.00  0.00     0.070 A 
HETATM   35  C8  UNL     1      21.899 -10.088 -23.805  1.00  0.00     0.052 A 
HETATM   36  C9  UNL     1      21.162  -9.742 -24.949  1.00  0.00     0.069 A 
HETATM   37  C15 UNL     1      19.837  -9.425 -24.790  1.00  0.00     0.092 A 
HETATM   38  C16 UNL     1      19.254  -9.447 -23.550  1.00  0.00     0.035 A 
HETATM   39  C18 UNL     1      20.021  -9.795 -22.444  1.00  0.00     0.103 A 
BRANCH  36  40
HETATM   40  C10 UNL     1      21.819  -9.733 -26.243  1.00  0.00     0.272 C 
HETATM   41  O2  UNL     1      21.182  -9.782 -27.315  1.00  0.00    -0.267 OA
HETATM   42  N2  UNL     1      23.238  -9.665 -26.296  1.00  0.00    -0.155 N 
ATOM     43  H2  UNL     1      23.787 -10.494 -26.067  1.00  0.00     0.187 HD
BRANCH  42  44
HETATM   44  C11 UNL     1      23.847  -8.569 -26.630  1.00  0.00     0.689 A 
HETATM   45  N3  UNL     1      23.152  -7.419 -26.671  1.00  0.00    -0.178 N 
HETATM   46  C12 UNL     1      23.760  -6.254 -27.017  1.00  0.00     0.137 A 
ATOM     47  H3  UNL     1      22.159  -7.421 -26.440  1.00  0.00     0.185 HD
HETATM   48  N4  UNL     1      23.044  -5.033 -27.065  1.00  0.00    -0.082 NA
HETATM   49  C13 UNL     1      25.095  -6.247 -27.328  1.00  0.00     0.120 A 
HETATM   50  C14 UNL     1      25.792  -7.440 -27.280  1.00  0.00     0.262 A 
HETATM   51  O3  UNL     1      27.013  -7.449 -27.561  1.00  0.00    -0.268 OA
HETATM   52  N5  UNL     1      25.152  -8.564 -26.933  1.00  0.00    -0.156 N 
ATOM     53  H5  UNL     1      25.673  -9.440 -26.899  1.00  0.00     0.187 HD
ENDBRANCH  42  44
ENDBRANCH  36  40
BRANCH  37  54
HETATM   54  O4  UNL     1      19.079  -9.082 -25.883  1.00  0.00    -0.359 OA
ATOM     55  H4  UNL     1      19.488  -8.990 -26.735  1.00  0.00     0.217 HD
ENDBRANCH  37  54
BRANCH  38  56
HETATM   56  C17 UNL     1      17.833  -9.111 -23.346  1.00  0.00     0.208 C 
BRANCH  56  57
HETATM   57  O5  UNL     1      17.600  -7.813 -23.739  1.00  0.00    -0.396 OA
ATOM     58  H5  UNL     1      18.158  -7.223 -23.246  1.00  0.00     0.209 HD
ENDBRANCH  56  57
ENDBRANCH  38  56
BRANCH  39  59
HETATM   59  O6  UNL     1      19.407  -9.803 -21.233  1.00  0.00    -0.358 OA
ATOM     60  H6  UNL     1      19.824 -10.219 -20.488  1.00  0.00     0.217 HD
ENDBRANCH  39  59
ENDBRANCH   3  34
TORSDOF 17
ENDMDL
MODEL 4
REMARK VINA RESULT: -9.897785585      0.744      1.183
REMARK  17 active torsions:
REMARK  status: ('A' for Active; 'I' for Inactive)
REMARK    1  A    between atoms: C3_3  and  C4_4 
REMARK    2  A    between atoms: C5_5  and  C6_6 
REMARK       I    between atoms: C6_6  and  N1_8 
REMARK    3  A    between atoms: N1_8  and  C7_10 
REMARK    4  A    between atoms: C9_12  and  C10_13 
REMARK       I    between atoms: C10_13  and  N2_15 
REMARK    5  A    between atoms: N2_15  and  C11_17 
REMARK    6  A    between atoms: C15_27  and  O4_28 
REMARK    7  A    between atoms: C16_30  and  C17_31 
REMARK    8  A    between atoms: C17_31  and  O5_32 
REMARK    9  A    between atoms: C18_34  and  O6_35 
REMARK   10  A    between atoms: N8_40  and  C19_41 
REMARK   11  A    between atoms: N12_48  and  C20_49 
REMARK   12  A    between atoms: C20_49  and  O7_50 
REMARK   13  A    between atoms: O7_50  and  C21_51 
REMARK   14  A    between atoms: C21_51  and  C22_53 
REMARK   15  A    between atoms: C22_53  and  O9_54 
REMARK   16  A    between atoms: O9_54  and  S1_55 
REMARK   17  A    between atoms: S1_55  and  N13_56 
ROOT
HETATM    1  C6  UNL     1      22.608 -10.072 -18.879  1.00  0.00     0.245 C 
HETATM    2  O1  UNL     1      22.921  -8.870 -18.993  1.00  0.00    -0.268 OA
HETATM    3  N1  UNL     1      22.103 -10.796 -19.971  1.00  0.00    -0.321 N 
ATOM      4  H1  UNL     1      21.865 -11.776 -19.815  1.00  0.00     0.169 HD
ENDROOT
BRANCH   1   5
HETATM    5  C5  UNL     1      22.788 -10.705 -17.561  1.00  0.00     0.077 C 
HETATM    6  C4  UNL     1      23.014 -10.058 -16.445  1.00  0.00     0.038 C 
BRANCH   6   7
HETATM    7  C3  UNL     1      23.169 -10.854 -15.220  1.00  0.00     0.070 A 
HETATM    8  C2  UNL     1      24.152 -10.672 -14.271  1.00  0.00     0.074 A 
HETATM    9  C1  UNL     1      25.225  -9.652 -14.308  1.00  0.00     0.073 C 
HETATM   10  N8  UNL     1      23.998 -11.576 -13.277  1.00  0.00    -0.070 N 
HETATM   11  N7  UNL     1      22.942 -12.302 -13.602  1.00  0.00     0.000 NA
HETATM   12  N6  UNL     1      22.434 -11.881 -14.765  1.00  0.00    -0.281 N 
ATOM     13  H6  UNL     1      21.618 -12.277 -15.232  1.00  0.00     0.184 HD
BRANCH  10  14
HETATM   14  C19 UNL     1      24.824 -11.691 -12.127  1.00  0.00     0.738 A 
HETATM   15  N9  UNL     1      24.680 -11.053 -10.962  1.00  0.00    -0.113 N 
HETATM   16  N10 UNL     1      25.630 -11.405 -10.127  1.00  0.00    -0.213 N 
ATOM     17  H9  UNL     1      23.937 -10.387 -10.751  1.00  0.00     0.207 HD
HETATM   18  N11 UNL     1      26.376 -12.267 -10.766  1.00  0.00    -0.209 N 
ATOM     19  H10 UNL     1      25.760 -11.072  -9.172  1.00  0.00     0.210 HD
HETATM   20  N12 UNL     1      25.934 -12.475 -11.974  1.00  0.00    -0.081 N 
ATOM     21  H11 UNL     1      27.199 -12.720 -10.369  1.00  0.00     0.210 HD
BRANCH  20  22
HETATM   22  C20 UNL     1      26.482 -13.330 -12.997  1.00  0.00     0.348 C 
BRANCH  22  23
HETATM   23  O7  UNL     1      27.195 -12.594 -13.933  1.00  0.00    -0.297 OA
BRANCH  23  24
HETATM   24  C21 UNL     1      26.986 -12.614 -15.287  1.00  0.00     0.285 C 
HETATM   25  O8  UNL     1      25.912 -13.038 -15.772  1.00  0.00    -0.263 OA
BRANCH  24  26
HETATM   26  C22 UNL     1      28.046 -12.123 -16.226  1.00  0.00     0.302 C 
BRANCH  26  27
HETATM   27  O9  UNL     1      27.508 -11.958 -17.516  1.00  0.00    -0.250 OA
BRANCH  27  28
HETATM   28  S1  UNL     1      28.728 -12.128 -18.654  1.00  0.00     0.356 S 
HETATM   29  O10 UNL     1      28.930 -10.800 -19.312  1.00  0.00    -0.176 OA
HETATM   30  O11 UNL     1      29.974 -12.557 -17.915  1.00  0.00    -0.176 OA
BRANCH  28  31
HETATM   31  N13 UNL     1      28.333 -13.359 -19.801  1.00  0.00    -0.306 N 
ATOM     32 2H13 UNL     1      28.904 -14.191 -19.958  1.00  0.00     0.171 HD
ATOM     33 1H13 UNL     1      27.465 -13.138 -20.288  1.00  0.00     0.171 HD
ENDBRANCH  28  31
ENDBRANCH  27  28
ENDBRANCH  26  27
ENDBRANCH  24  26
ENDBRANCH  23  24
ENDBRANCH  22  23
ENDBRANCH  20  22
ENDBRANCH  10  14
ENDBRANCH   6   7
ENDBRANCH   1   5
BRANCH   3  34
HETATM   34  C7  UNL     1      21.900 -10.278 -21.263  1.00  0.00     0.070 A 
HETATM   35  C8  UNL     1      22.834 -10.105 -22.240  1.00  0.00     0.052 A 
HETATM   36  C9  UNL     1      22.550  -9.584 -23.512  1.00  0.00     0.069 A 
HETATM   37  C15 UNL     1      21.255  -9.229 -23.789  1.00  0.00     0.092 A 
HETATM   38  C16 UNL     1      20.270  -9.379 -22.848  1.00  0.00     0.035 A 
HETATM   39  C18 UNL     1      20.595  -9.899 -21.600  1.00  0.00     0.103 A 
BRANCH  36  40
HETATM   40  C10 UNL     1      23.624  -9.442 -24.479  1.00  0.00     0.272 C 
HETATM   41  O2  UNL     1      23.840 -10.295 -25.365  1.00  0.00    -0.267 OA
HETATM   42  N2  UNL     1      24.459  -8.294 -24.420  1.00  0.00    -0.155 N 
ATOM     43  H2  UNL     1      25.164  -8.226 -23.686  1.00  0.00     0.187 HD
BRANCH  42  44
HETATM   44  C11 UNL     1      24.341  -7.331 -25.281  1.00  0.00     0.689 A 
HETATM   45  N3  UNL     1      25.182  -7.282 -26.329  1.00  0.00    -0.178 N 
HETATM   46  C12 UNL     1      25.087  -6.286 -27.248  1.00  0.00     0.137 A 
ATOM     47  H3  UNL     1      25.899  -8.000 -26.434  1.00  0.00     0.185 HD
HETATM   48  N4  UNL     1      25.963  -6.220 -28.358  1.00  0.00    -0.082 NA
HETATM   49  C13 UNL     1      24.125  -5.320 -27.111  1.00  0.00     0.120 A 
HETATM   50  C14 UNL     1      23.270  -5.388 -26.026  1.00  0.00     0.262 A 
HETATM   51  O3  UNL     1      22.385  -4.511 -25.887  1.00  0.00    -0.268 OA
HETATM   52  N5  UNL     1      23.400  -6.387 -25.145  1.00  0.00    -0.156 N 
ATOM     53  H5  UNL     1      22.765  -6.431 -24.347  1.00  0.00     0.187 HD
ENDBRANCH  42  44
ENDBRANCH  36  40
BRANCH  37  54
HETATM   54  O4  UNL     1      20.933  -8.716 -25.022  1.00  0.00    -0.359 OA
ATOM     55  H4  UNL     1      20.511  -7.867 -25.087  1.00  0.00     0.217 HD
ENDBRANCH  37  54
BRANCH  38  56
HETATM   56  C17 UNL     1      18.868  -9.006 -23.113  1.00  0.00     0.208 C 
BRANCH  56  57
HETATM   57  O5  UNL     1      18.813  -7.724 -23.608  1.00  0.00    -0.396 OA
ATOM     58  H5  UNL     1      17.908  -7.445 -23.680  1.00  0.00     0.209 HD
ENDBRANCH  56  57
ENDBRANCH  38  56
BRANCH  39  59
HETATM   59  O6  UNL     1      19.592 -10.031 -20.696  1.00  0.00    -0.358 OA
ATOM     60  H6  UNL     1      18.760  -9.594 -20.838  1.00  0.00     0.217 HD
ENDBRANCH  39  59
ENDBRANCH   3  34
TORSDOF 17
ENDMDL
MODEL 5
REMARK VINA RESULT: -9.743228430      3.299      5.371
REMARK  17 active torsions:
REMARK  status: ('A' for Active; 'I' for Inactive)
REMARK    1  A    between atoms: C3_3  and  C4_4 
REMARK    2  A    between atoms: C5_5  and  C6_6 
REMARK       I    between atoms: C6_6  and  N1_8 
REMARK    3  A    between atoms: N1_8  and  C7_10 
REMARK    4  A    between atoms: C9_12  and  C10_13 
REMARK       I    between atoms: C10_13  and  N2_15 
REMARK    5  A    between atoms: N2_15  and  C11_17 
REMARK    6  A    between atoms: C15_27  and  O4_28 
REMARK    7  A    between atoms: C16_30  and  C17_31 
REMARK    8  A    between atoms: C17_31  and  O5_32 
REMARK    9  A    between atoms: C18_34  and  O6_35 
REMARK   10  A    between atoms: N8_40  and  C19_41 
REMARK   11  A    between atoms: N12_48  and  C20_49 
REMARK   12  A    between atoms: C20_49  and  O7_50 
REMARK   13  A    between atoms: O7_50  and  C21_51 
REMARK   14  A    between atoms: C21_51  and  C22_53 
REMARK   15  A    between atoms: C22_53  and  O9_54 
REMARK   16  A    between atoms: O9_54  and  S1_55 
REMARK   17  A    between atoms: S1_55  and  N13_56 
ROOT
HETATM    1  C6  UNL     1      22.640  -9.464 -21.024  1.00  0.00     0.245 C 
HETATM    2  O1  UNL     1      22.076  -8.370 -21.223  1.00  0.00    -0.268 OA
HETATM    3  N1  UNL     1      22.892 -10.352 -22.082  1.00  0.00    -0.321 N 
ATOM      4  H1  UNL     1      23.355 -11.233 -21.856  1.00  0.00     0.169 HD
ENDROOT
BRANCH   1   5
HETATM    5  C5  UNL     1      23.032  -9.792 -19.642  1.00  0.00     0.077 C 
HETATM    6  C4  UNL     1      22.602  -9.168 -18.574  1.00  0.00     0.038 C 
BRANCH   6   7
HETATM    7  C3  UNL     1      23.102  -9.631 -17.272  1.00  0.00     0.070 A 
HETATM    8  C2  UNL     1      23.815  -8.865 -16.375  1.00  0.00     0.074 A 
HETATM    9  C1  UNL     1      24.210  -7.449 -16.554  1.00  0.00     0.073 C 
HETATM   10  N8  UNL     1      24.115  -9.604 -15.283  1.00  0.00    -0.070 N 
HETATM   11  N7  UNL     1      23.596 -10.801 -15.497  1.00  0.00     0.000 NA
HETATM   12  N6  UNL     1      22.986 -10.833 -16.686  1.00  0.00    -0.281 N 
ATOM     13  H6  UNL     1      22.508 -11.641 -17.085  1.00  0.00     0.184 HD
BRANCH  10  14
HETATM   14  C19 UNL     1      24.840  -9.150 -14.149  1.00  0.00     0.738 A 
HETATM   15  N9  UNL     1      24.343  -8.582 -13.047  1.00  0.00    -0.113 N 
HETATM   16  N10 UNL     1      25.309  -8.290 -12.208  1.00  0.00    -0.213 N 
ATOM     17  H9  UNL     1      23.353  -8.401 -12.881  1.00  0.00     0.207 HD
HETATM   18  N11 UNL     1      26.419  -8.674 -12.781  1.00  0.00    -0.209 N 
ATOM     19  H10 UNL     1      25.213  -7.851 -11.291  1.00  0.00     0.210 HD
HETATM   20  N12 UNL     1      26.192  -9.198 -13.952  1.00  0.00    -0.081 N 
ATOM     21  H11 UNL     1      27.345  -8.576 -12.365  1.00  0.00     0.210 HD
BRANCH  20  22
HETATM   22  C20 UNL     1      27.142  -9.719 -14.903  1.00  0.00     0.348 C 
BRANCH  22  23
HETATM   23  O7  UNL     1      27.796 -10.833 -14.395  1.00  0.00    -0.297 OA
BRANCH  23  24
HETATM   24  C21 UNL     1      27.196 -12.007 -14.024  1.00  0.00     0.285 C 
HETATM   25  O8  UNL     1      26.823 -12.843 -14.878  1.00  0.00    -0.263 OA
BRANCH  24  26
HETATM   26  C22 UNL     1      26.971 -12.320 -12.576  1.00  0.00     0.302 C 
BRANCH  26  27
HETATM   27  O9  UNL     1      25.711 -11.844 -12.170  1.00  0.00    -0.250 OA
BRANCH  27  28
HETATM   28  S1  UNL     1      24.619 -13.116 -12.136  1.00  0.00     0.356 S 
HETATM   29  O10 UNL     1      25.359 -14.344 -11.711  1.00  0.00    -0.176 OA
HETATM   30  O11 UNL     1      23.548 -12.760 -11.132  1.00  0.00    -0.176 OA
BRANCH  28  31
HETATM   31  N13 UNL     1      23.862 -13.322 -13.676  1.00  0.00    -0.306 N 
ATOM     32 2H13 UNL     1      23.108 -12.727 -14.021  1.00  0.00     0.171 HD
ATOM     33 1H13 UNL     1      24.272 -14.108 -14.180  1.00  0.00     0.171 HD
ENDBRANCH  28  31
ENDBRANCH  27  28
ENDBRANCH  26  27
ENDBRANCH  24  26
ENDBRANCH  23  24
ENDBRANCH  22  23
ENDBRANCH  20  22
ENDBRANCH  10  14
ENDBRANCH   6   7
ENDBRANCH   1   5
BRANCH   3  34
HETATM   34  C7  UNL     1      22.556 -10.124 -23.429  1.00  0.00     0.070 A 
HETATM   35  C8  UNL     1      21.396 -10.461 -24.059  1.00  0.00     0.052 A 
HETATM   36  C9  UNL     1      21.132 -10.192 -25.412  1.00  0.00     0.069 A 
HETATM   37  C15 UNL     1      22.099  -9.550 -26.142  1.00  0.00     0.092 A 
HETATM   38  C16 UNL     1      23.287  -9.185 -25.564  1.00  0.00     0.035 A 
HETATM   39  C18 UNL     1      23.507  -9.471 -24.221  1.00  0.00     0.103 A 
BRANCH  36  40
HETATM   40  C10 UNL     1      19.860 -10.596 -25.982  1.00  0.00     0.272 C 
HETATM   41  O2  UNL     1      19.525 -11.794 -26.085  1.00  0.00    -0.267 OA
HETATM   42  N2  UNL     1      18.961  -9.595 -26.441  1.00  0.00    -0.155 N 
ATOM     43  H2  UNL     1      19.156  -9.112 -27.318  1.00  0.00     0.187 HD
BRANCH  42  44
HETATM   44  C11 UNL     1      17.897  -9.285 -25.767  1.00  0.00     0.689 A 
HETATM   45  N3  UNL     1      16.758  -9.963 -25.992  1.00  0.00    -0.178 N 
HETATM   46  C12 UNL     1      15.626  -9.663 -25.303  1.00  0.00     0.137 A 
ATOM     47  H3  UNL     1      16.743 -10.709 -26.687  1.00  0.00     0.185 HD
HETATM   48  N4  UNL     1      14.417 -10.366 -25.526  1.00  0.00    -0.082 NA
HETATM   49  C13 UNL     1      15.641  -8.661 -24.368  1.00  0.00     0.120 A 
HETATM   50  C14 UNL     1      16.822  -7.977 -24.150  1.00  0.00     0.262 A 
HETATM   51  O3  UNL     1      16.852  -7.058 -23.298  1.00  0.00    -0.268 OA
HETATM   52  N5  UNL     1      17.914  -8.306 -24.852  1.00  0.00    -0.156 N 
ATOM     53  H5  UNL     1      18.782  -7.797 -24.686  1.00  0.00     0.187 HD
ENDBRANCH  42  44
ENDBRANCH  36  40
BRANCH  37  54
HETATM   54  O4  UNL     1      21.882  -9.266 -27.468  1.00  0.00    -0.359 OA
ATOM     55  H4  UNL     1      22.603  -9.300 -28.085  1.00  0.00     0.217 HD
ENDBRANCH  37  54
BRANCH  38  56
HETATM   56  C17 UNL     1      24.348  -8.494 -26.321  1.00  0.00     0.208 C 
BRANCH  56  57
HETATM   57  O5  UNL     1      24.448  -7.189 -25.897  1.00  0.00    -0.396 OA
ATOM     58  H5  UNL     1      24.693  -6.632 -26.626  1.00  0.00     0.209 HD
ENDBRANCH  56  57
ENDBRANCH  38  56
BRANCH  39  59
HETATM   59  O6  UNL     1      24.697  -9.093 -23.687  1.00  0.00    -0.358 OA
ATOM     60  H6  UNL     1      25.464  -9.008 -24.242  1.00  0.00     0.217 HD
ENDBRANCH  39  59
ENDBRANCH   3  34
TORSDOF 17
ENDMDL
