MODEL 1
REMARK VINA RESULT: -6.401244476      0.000      0.000
REMARK  15 active torsions:
REMARK  status: ('A' for Active; 'I' for Inactive)
REMARK    1  A    between atoms: C2_2  and  C3_3 
REMARK    2  A    between atoms: C3_3  and  N1_4 
REMARK    3  A    between atoms: C3_3  and  C4_8 
REMARK       I    between atoms: C4_8  and  N2_10 
REMARK    4  A    between atoms: N2_10  and  C5_12 
REMARK    5  A    between atoms: C5_12  and  N3_13 
REMARK    6  A    between atoms: C5_12  and  C6_17 
REMARK    7  A    between atoms: C10_28  and  C11_29 
REMARK    8  A    between atoms: C11_29  and  O3_31 
REMARK    9  A    between atoms: C13_33  and  C14_34 
REMARK   10  A    between atoms: C14_34  and  O4_35 
REMARK   11  A    between atoms: O4_35  and  C15_36 
REMARK   12  A    between atoms: C16_40  and  C17_41 
REMARK   13  A    between atoms: C17_41  and  C18_42 
REMARK   14  A    between atoms: C18_42  and  N8_43 
REMARK   15  A    between atoms: S3_49  and  N11_50 
ROOT
HETATM    1  C6  UNL     1      22.133  -9.819 -24.687  1.00  0.00     0.157 C 
HETATM    2  N4  UNL     1      22.988  -8.723 -25.096  1.00  0.00    -0.296 N 
HETATM    3  C7  UNL     1      23.580  -7.794 -24.207  1.00  0.00     0.174 C 
HETATM    4  N5  UNL     1      23.662  -7.829 -22.875  1.00  0.00    -0.277 N 
ATOM      5  H5  UNL     1      24.114  -7.086 -22.341  1.00  0.00     0.189 HD
HETATM    6  N6  UNL     1      23.105  -8.915 -22.273  1.00  0.00    -0.274 N 
ATOM      7  H6  UNL     1      22.181  -8.562 -22.022  1.00  0.00     0.189 HD
HETATM    8  C8  UNL     1      23.056 -10.025 -21.868  1.00  0.00     0.218 C 
HETATM    9  N7  UNL     1      24.088 -11.035 -21.918  1.00  0.00    -0.331 N 
ATOM     10  H7  UNL     1      24.943 -10.877 -21.385  1.00  0.00     0.168 HD
HETATM   11  C9  UNL     1      23.972 -12.293 -22.705  1.00  0.00     0.074 C 
HETATM   12  C10 UNL     1      25.078 -13.173 -22.604  1.00  0.00     0.081 C 
HETATM   13  C13 UNL     1      24.829 -14.482 -22.754  1.00  0.00     0.032 C 
HETATM   14  S1  UNL     1      23.070 -14.983 -23.011  1.00  0.00    -0.056 SA
HETATM   15  S2  UNL     1      22.294 -13.566 -24.368  1.00  0.00    -0.048 SA
HETATM   16  C16 UNL     1      23.330 -12.028 -24.085  1.00  0.00     0.176 C 
HETATM   17  N9  UNL     1      22.334 -11.002 -24.066  1.00  0.00    -0.236 N 
HETATM   18  N10 UNL     1      21.231 -11.382 -23.097  1.00  0.00    -0.232 N 
ATOM     19  H10 UNL     1      20.475 -12.021 -23.343  1.00  0.00     0.199 HD
HETATM   20  S3  UNL     1      21.356 -10.684 -21.630  1.00  0.00     0.185 S 
HETATM   21  O6  UNL     1      21.348 -11.693 -20.600  1.00  0.00    -0.219 OA
HETATM   22  S4  UNL     1      24.406  -6.385 -25.056  1.00  0.00    -0.018 SA
HETATM   23  S5  UNL     1      24.889  -7.622 -26.669  1.00  0.00    -0.064 SA
HETATM   24  C19 UNL     1      23.209  -8.377 -26.494  1.00  0.00     0.162 C 
HETATM   25  C20 UNL     1      23.167  -9.288 -27.585  1.00  0.00     0.045 C 
ENDROOT
BRANCH   1  26
HETATM   26  C5  UNL     1      20.996 -10.043 -25.723  1.00  0.00     0.354 C 
BRANCH  26  27
HETATM   27  N2  UNL     1      19.760  -9.426 -25.321  1.00  0.00    -0.326 N 
HETATM   28  C4  UNL     1      18.485  -9.625 -25.890  1.00  0.00     0.250 C 
HETATM   29  O1  UNL     1      18.375 -10.425 -26.851  1.00  0.00    -0.271 OA
ATOM     30  H2  UNL     1      19.812  -8.774 -24.538  1.00  0.00     0.165 HD
BRANCH  28  31
HETATM   31  C3  UNL     1      17.262  -8.943 -25.420  1.00  0.00     0.274 C 
BRANCH  31  32
HETATM   32  C2  UNL     1      16.045  -9.663 -25.974  1.00  0.00     0.038 C 
HETATM   33  C1  UNL     1      14.904  -9.629 -24.984  1.00  0.00     0.007 C 
ENDBRANCH  31  32
BRANCH  31  34
HETATM   34  N1  UNL     1      17.230  -9.037 -23.976  1.00  0.00    -0.067 N 
ATOM     35  H13 UNL     1      18.161  -9.015 -23.561  1.00  0.00     0.275 HD
ATOM     36  H12 UNL     1      16.862  -8.193 -23.536  1.00  0.00     0.275 HD
ATOM     37  H11 UNL     1      16.706  -9.873 -23.719  1.00  0.00     0.275 HD
ENDBRANCH  31  34
ENDBRANCH  28  31
ENDBRANCH  26  27
BRANCH  26  38
HETATM   38  N3  UNL     1      20.677 -11.488 -25.559  1.00  0.00    -0.051 N 
ATOM     39  H33 UNL     1      19.684 -11.707 -25.477  1.00  0.00     0.277 HD
ATOM     40  H32 UNL     1      20.831 -12.064 -26.387  1.00  0.00     0.277 HD
ATOM     41  H31 UNL     1      21.245 -11.734 -24.749  1.00  0.00     0.277 HD
ENDBRANCH  26  38
ENDBRANCH   1  26
BRANCH  16  42
HETATM   42  C17 UNL     1      24.321 -12.135 -25.120  1.00  0.00     0.041 C 
BRANCH  42  43
HETATM   43  C18 UNL     1      24.322 -13.143 -26.146  1.00  0.00     0.080 C 
BRANCH  43  44
HETATM   44  N8  UNL     1      25.352 -13.927 -26.264  1.00  0.00    -0.408 N 
ATOM     45  H82 UNL     1      25.291 -14.744 -26.873  1.00  0.00     0.155 HD
ATOM     46  H81 UNL     1      26.203 -13.713 -25.746  1.00  0.00     0.155 HD
ENDBRANCH  43  44
ENDBRANCH  42  43
ENDBRANCH  16  42
BRANCH  20  47
HETATM   47  N11 UNL     1      20.261  -9.397 -21.474  1.00  0.00    -0.337 N 
ATOM     48 2H11 UNL     1      20.364  -8.494 -21.938  1.00  0.00     0.167 HD
ATOM     49 1H11 UNL     1      19.498  -9.668 -20.854  1.00  0.00     0.167 HD
ENDBRANCH  20  47
BRANCH  12  50
HETATM   50  C11 UNL     1      26.441 -12.786 -22.358  1.00  0.00     0.296 C 
HETATM   51  O2  UNL     1      27.367 -13.087 -23.196  1.00  0.00    -0.259 OA
BRANCH  50  52
HETATM   52  O3  UNL     1      26.934 -12.086 -21.267  1.00  0.00    -0.322 OA
HETATM   53  C12 UNL     1      27.945 -12.647 -20.470  1.00  0.00     0.213 C 
ENDBRANCH  50  52
ENDBRANCH  12  50
BRANCH  13  54
HETATM   54  C14 UNL     1      25.763 -15.586 -22.700  1.00  0.00     0.225 C 
BRANCH  54  55
HETATM   55  O4  UNL     1      26.086 -16.049 -24.034  1.00  0.00    -0.323 OA
BRANCH  55  56
HETATM   56  C15 UNL     1      27.377 -16.507 -24.215  1.00  0.00     0.398 C 
HETATM   57  O5  UNL     1      28.277 -16.373 -23.354  1.00  0.00    -0.276 OA
ENDBRANCH  55  56
ENDBRANCH  54  55
ENDBRANCH  13  54
TORSDOF 15
ENDMDL
MODEL 2
REMARK VINA RESULT: -6.160416578      3.503      5.924
REMARK  15 active torsions:
REMARK  status: ('A' for Active; 'I' for Inactive)
REMARK    1  A    between atoms: C2_2  and  C3_3 
REMARK    2  A    between atoms: C3_3  and  N1_4 
REMARK    3  A    between atoms: C3_3  and  C4_8 
REMARK       I    between atoms: C4_8  and  N2_10 
REMARK    4  A    between atoms: N2_10  and  C5_12 
REMARK    5  A    between atoms: C5_12  and  N3_13 
REMARK    6  A    between atoms: C5_12  and  C6_17 
REMARK    7  A    between atoms: C10_28  and  C11_29 
REMARK    8  A    between atoms: C11_29  and  O3_31 
REMARK    9  A    between atoms: C13_33  and  C14_34 
REMARK   10  A    between atoms: C14_34  and  O4_35 
REMARK   11  A    between atoms: O4_35  and  C15_36 
REMARK   12  A    between atoms: C16_40  and  C17_41 
REMARK   13  A    between atoms: C17_41  and  C18_42 
REMARK   14  A    between atoms: C18_42  and  N8_43 
REMARK   15  A    between atoms: S3_49  and  N11_50 
ROOT
HETATM    1  C6  UNL     1      22.440 -10.397 -25.796  1.00  0.00     0.157 C 
HETATM    2  N4  UNL     1      21.316  -9.913 -25.020  1.00  0.00    -0.296 N 
HETATM    3  C7  UNL     1      19.988  -9.829 -25.501  1.00  0.00     0.174 C 
HETATM    4  N5  UNL     1      19.456 -10.335 -26.617  1.00  0.00    -0.277 N 
ATOM      5  H5  UNL     1      18.474 -10.200 -26.859  1.00  0.00     0.189 HD
HETATM    6  N6  UNL     1      20.304 -11.042 -27.412  1.00  0.00    -0.274 N 
ATOM      7  H6  UNL     1      20.591 -10.335 -28.089  1.00  0.00     0.189 HD
HETATM    8  C8  UNL     1      20.907 -11.990 -27.784  1.00  0.00     0.218 C 
HETATM    9  N7  UNL     1      20.901 -13.322 -27.224  1.00  0.00    -0.331 N 
ATOM     10  H7  UNL     1      20.033 -13.857 -27.263  1.00  0.00     0.168 HD
HETATM   11  C9  UNL     1      22.090 -13.957 -26.595  1.00  0.00     0.074 C 
HETATM   12  C10 UNL     1      21.894 -15.281 -26.130  1.00  0.00     0.081 C 
HETATM   13  C13 UNL     1      22.966 -16.087 -26.119  1.00  0.00     0.032 C 
HETATM   14  S1  UNL     1      24.550 -15.393 -26.768  1.00  0.00    -0.056 SA
HETATM   15  S2  UNL     1      24.650 -13.439 -25.980  1.00  0.00    -0.048 SA
HETATM   16  C16 UNL     1      22.860 -12.946 -25.716  1.00  0.00     0.176 C 
HETATM   17  N9  UNL     1      22.844 -11.611 -26.231  1.00  0.00    -0.236 N 
HETATM   18  N10 UNL     1      23.456 -11.594 -27.618  1.00  0.00    -0.232 N 
ATOM     19  H10 UNL     1      24.463 -11.574 -27.778  1.00  0.00     0.199 HD
HETATM   20  S3  UNL     1      22.369 -11.611 -28.832  1.00  0.00     0.185 S 
HETATM   21  O6  UNL     1      22.644 -12.708 -29.727  1.00  0.00    -0.219 OA
HETATM   22  S4  UNL     1      18.844  -8.948 -24.359  1.00  0.00    -0.018 SA
HETATM   23  S5  UNL     1      19.935  -9.635 -22.715  1.00  0.00    -0.064 SA
HETATM   24  C19 UNL     1      21.469  -9.320 -23.698  1.00  0.00     0.162 C 
HETATM   25  C20 UNL     1      22.500  -9.634 -22.769  1.00  0.00     0.045 C 
ENDROOT
BRANCH   1  26
HETATM   26  C5  UNL     1      23.726  -9.590 -25.461  1.00  0.00     0.354 C 
BRANCH  26  27
HETATM   27  N2  UNL     1      23.541  -8.173 -25.624  1.00  0.00    -0.326 N 
HETATM   28  C4  UNL     1      23.388  -7.469 -26.837  1.00  0.00     0.250 C 
HETATM   29  O1  UNL     1      23.403  -8.116 -27.912  1.00  0.00    -0.271 OA
ATOM     30  H2  UNL     1      23.518  -7.617 -24.770  1.00  0.00     0.165 HD
BRANCH  28  31
HETATM   31  C3  UNL     1      23.210  -6.006 -26.918  1.00  0.00     0.274 C 
BRANCH  31  32
HETATM   32  C2  UNL     1      23.044  -5.445 -25.517  1.00  0.00     0.038 C 
HETATM   33  C1  UNL     1      21.966  -4.385 -25.486  1.00  0.00     0.007 C 
ENDBRANCH  31  32
BRANCH  31  34
HETATM   34  N1  UNL     1      24.413  -5.444 -27.496  1.00  0.00    -0.067 N 
ATOM     35  H13 UNL     1      24.649  -5.863 -28.395  1.00  0.00     0.275 HD
ATOM     36  H12 UNL     1      24.282  -4.486 -27.820  1.00  0.00     0.275 HD
ATOM     37  H11 UNL     1      25.167  -5.528 -26.814  1.00  0.00     0.275 HD
ENDBRANCH  31  34
ENDBRANCH  28  31
ENDBRANCH  26  27
BRANCH  26  38
HETATM   38  N3  UNL     1      24.627  -9.910 -26.603  1.00  0.00    -0.051 N 
ATOM     39  H33 UNL     1      24.859  -9.121 -27.207  1.00  0.00     0.277 HD
ATOM     40  H32 UNL     1      25.592 -10.121 -26.349  1.00  0.00     0.277 HD
ATOM     41  H31 UNL     1      24.121 -10.670 -27.057  1.00  0.00     0.277 HD
ENDBRANCH  26  38
ENDBRANCH   1  26
BRANCH  16  42
HETATM   42  C17 UNL     1      22.663 -13.248 -24.326  1.00  0.00     0.041 C 
BRANCH  42  43
HETATM   43  C18 UNL     1      23.702 -13.682 -23.432  1.00  0.00     0.080 C 
BRANCH  43  44
HETATM   44  N8  UNL     1      23.560 -14.802 -22.788  1.00  0.00    -0.408 N 
ATOM     45  H82 UNL     1      22.742 -15.385 -22.972  1.00  0.00     0.155 HD
ATOM     46  H81 UNL     1      24.268 -15.081 -22.110  1.00  0.00     0.155 HD
ENDBRANCH  43  44
ENDBRANCH  42  43
ENDBRANCH  16  42
BRANCH  20  47
HETATM   47  N11 UNL     1      22.197 -10.067 -29.516  1.00  0.00    -0.337 N 
ATOM     48 2H11 UNL     1      21.775  -9.884 -30.426  1.00  0.00     0.167 HD
ATOM     49 1H11 UNL     1      22.577  -9.365 -28.880  1.00  0.00     0.167 HD
ENDBRANCH  20  47
BRANCH  12  50
HETATM   50  C11 UNL     1      20.650 -15.834 -25.668  1.00  0.00     0.296 C 
HETATM   51  O2  UNL     1      20.444 -16.022 -24.414  1.00  0.00    -0.259 OA
BRANCH  50  52
HETATM   52  O3  UNL     1      19.564 -16.224 -26.438  1.00  0.00    -0.322 OA
HETATM   53  C12 UNL     1      18.450 -16.824 -25.830  1.00  0.00     0.213 C 
ENDBRANCH  50  52
ENDBRANCH  12  50
BRANCH  13  54
HETATM   54  C14 UNL     1      23.046 -17.468 -25.698  1.00  0.00     0.225 C 
BRANCH  54  55
HETATM   55  O4  UNL     1      23.459 -17.559 -24.313  1.00  0.00    -0.323 OA
BRANCH  55  56
HETATM   56  C15 UNL     1      22.777 -18.480 -23.541  1.00  0.00     0.398 C 
HETATM   57  O5  UNL     1      23.214 -18.913 -22.450  1.00  0.00    -0.276 OA
ENDBRANCH  55  56
ENDBRANCH  54  55
ENDBRANCH  13  54
TORSDOF 15
ENDMDL
MODEL 3
REMARK VINA RESULT: -6.109002427      3.384      6.243
REMARK  15 active torsions:
REMARK  status: ('A' for Active; 'I' for Inactive)
REMARK    1  A    between atoms: C2_2  and  C3_3 
REMARK    2  A    between atoms: C3_3  and  N1_4 
REMARK    3  A    between atoms: C3_3  and  C4_8 
REMARK       I    between atoms: C4_8  and  N2_10 
REMARK    4  A    between atoms: N2_10  and  C5_12 
REMARK    5  A    between atoms: C5_12  and  N3_13 
REMARK    6  A    between atoms: C5_12  and  C6_17 
REMARK    7  A    between atoms: C10_28  and  C11_29 
REMARK    8  A    between atoms: C11_29  and  O3_31 
REMARK    9  A    between atoms: C13_33  and  C14_34 
REMARK   10  A    between atoms: C14_34  and  O4_35 
REMARK   11  A    between atoms: O4_35  and  C15_36 
REMARK   12  A    between atoms: C16_40  and  C17_41 
REMARK   13  A    between atoms: C17_41  and  C18_42 
REMARK   14  A    between atoms: C18_42  and  N8_43 
REMARK   15  A    between atoms: S3_49  and  N11_50 
ROOT
HETATM    1  C6  UNL     1      21.848  -9.881 -26.067  1.00  0.00     0.157 C 
HETATM    2  N4  UNL     1      20.616  -9.524 -25.393  1.00  0.00    -0.296 N 
HETATM    3  C7  UNL     1      19.322  -9.724 -25.931  1.00  0.00     0.174 C 
HETATM    4  N5  UNL     1      18.948 -10.426 -27.003  1.00  0.00    -0.277 N 
ATOM      5  H5  UNL     1      17.973 -10.490 -27.296  1.00  0.00     0.189 HD
HETATM    6  N6  UNL     1      19.948 -11.051 -27.682  1.00  0.00    -0.274 N 
ATOM      7  H6  UNL     1      20.148 -10.378 -28.422  1.00  0.00     0.189 HD
HETATM    8  C8  UNL     1      20.722 -11.912 -27.924  1.00  0.00     0.218 C 
HETATM    9  N7  UNL     1      20.911 -13.160 -27.222  1.00  0.00    -0.331 N 
ATOM     10  H7  UNL     1      20.150 -13.839 -27.236  1.00  0.00     0.168 HD
HETATM   11  C9  UNL     1      22.153 -13.510 -26.481  1.00  0.00     0.074 C 
HETATM   12  C10 UNL     1      22.159 -14.794 -25.882  1.00  0.00     0.081 C 
HETATM   13  C13 UNL     1      23.349 -15.394 -25.741  1.00  0.00     0.032 C 
HETATM   14  S1  UNL     1      24.827 -14.503 -26.401  1.00  0.00    -0.056 SA
HETATM   15  S2  UNL     1      24.549 -12.492 -25.830  1.00  0.00    -0.048 SA
HETATM   16  C16 UNL     1      22.689 -12.295 -25.691  1.00  0.00     0.176 C 
HETATM   17  N9  UNL     1      22.475 -11.043 -26.349  1.00  0.00    -0.236 N 
HETATM   18  N10 UNL     1      23.154 -11.061 -27.706  1.00  0.00    -0.232 N 
ATOM     19  H10 UNL     1      24.151 -10.881 -27.828  1.00  0.00     0.199 HD
HETATM   20  S3  UNL     1      22.156 -11.391 -28.951  1.00  0.00     0.185 S 
HETATM   21  O6  UNL     1      22.664 -12.509 -29.709  1.00  0.00    -0.219 OA
HETATM   22  S4  UNL     1      17.982  -8.945 -24.937  1.00  0.00    -0.018 SA
HETATM   23  S5  UNL     1      19.079  -9.260 -23.187  1.00  0.00    -0.064 SA
HETATM   24  C19 UNL     1      20.590  -8.782 -24.139  1.00  0.00     0.162 C 
HETATM   25  C20 UNL     1      21.604  -8.815 -23.142  1.00  0.00     0.045 C 
ENDROOT
BRANCH   1  26
HETATM   26  C5  UNL     1      22.956  -8.832 -25.773  1.00  0.00     0.354 C 
BRANCH  26  27
HETATM   27  N2  UNL     1      23.581  -8.345 -26.974  1.00  0.00    -0.326 N 
HETATM   28  C4  UNL     1      24.756  -7.571 -27.068  1.00  0.00     0.250 C 
HETATM   29  O1  UNL     1      25.355  -7.257 -26.010  1.00  0.00    -0.271 OA
ATOM     30  H2  UNL     1      23.125  -8.587 -27.854  1.00  0.00     0.165 HD
BRANCH  28  31
HETATM   31  C3  UNL     1      25.330  -7.105 -28.347  1.00  0.00     0.274 C 
BRANCH  31  32
HETATM   32  C2  UNL     1      26.420  -8.066 -28.785  1.00  0.00     0.038 C 
HETATM   33  C1  UNL     1      27.790  -7.473 -28.544  1.00  0.00     0.007 C 
ENDBRANCH  31  32
BRANCH  31  34
HETATM   34  N1  UNL     1      24.276  -7.125 -29.339  1.00  0.00    -0.067 N 
ATOM     35  H13 UNL     1      24.577  -6.751 -30.239  1.00  0.00     0.275 HD
ATOM     36  H12 UNL     1      24.049  -8.069 -29.650  1.00  0.00     0.275 HD
ATOM     37  H11 UNL     1      23.468  -6.632 -28.960  1.00  0.00     0.275 HD
ENDBRANCH  31  34
ENDBRANCH  28  31
ENDBRANCH  26  27
BRANCH  26  38
HETATM   38  N3  UNL     1      24.046  -9.655 -25.180  1.00  0.00    -0.051 N 
ATOM     39  H33 UNL     1      24.890  -9.733 -25.748  1.00  0.00     0.277 HD
ATOM     40  H32 UNL     1      24.514  -9.242 -24.374  1.00  0.00     0.277 HD
ATOM     41  H31 UNL     1      23.563 -10.535 -24.998  1.00  0.00     0.277 HD
ENDBRANCH  26  38
ENDBRANCH   1  26
BRANCH  16  42
HETATM   42  C17 UNL     1      22.467 -12.484 -24.284  1.00  0.00     0.041 C 
BRANCH  42  43
HETATM   43  C18 UNL     1      23.512 -12.665 -23.312  1.00  0.00     0.080 C 
BRANCH  43  44
HETATM   44  N8  UNL     1      23.483 -13.706 -22.534  1.00  0.00    -0.408 N 
ATOM     45  H82 UNL     1      24.357 -14.077 -22.161  1.00  0.00     0.155 HD
ATOM     46  H81 UNL     1      22.585 -14.135 -22.310  1.00  0.00     0.155 HD
ENDBRANCH  43  44
ENDBRANCH  42  43
ENDBRANCH  16  42
BRANCH  20  47
HETATM   47  N11 UNL     1      21.764  -9.978 -29.807  1.00  0.00    -0.337 N 
ATOM     48 2H11 UNL     1      22.221  -9.077 -29.670  1.00  0.00     0.167 HD
ATOM     49 1H11 UNL     1      21.011 -10.175 -30.466  1.00  0.00     0.167 HD
ENDBRANCH  20  47
BRANCH  12  50
HETATM   50  C11 UNL     1      21.002 -15.505 -25.410  1.00  0.00     0.296 C 
HETATM   51  O2  UNL     1      20.860 -15.765 -24.160  1.00  0.00    -0.259 OA
BRANCH  50  52
HETATM   52  O3  UNL     1      19.945 -15.990 -26.166  1.00  0.00    -0.322 OA
HETATM   53  C12 UNL     1      18.751 -16.378 -25.538  1.00  0.00     0.213 C 
ENDBRANCH  50  52
ENDBRANCH  12  50
BRANCH  13  54
HETATM   54  C14 UNL     1      23.639 -16.690 -25.167  1.00  0.00     0.225 C 
BRANCH  54  55
HETATM   55  O4  UNL     1      23.884 -16.578 -23.745  1.00  0.00    -0.323 OA
BRANCH  55  56
HETATM   56  C15 UNL     1      25.204 -16.685 -23.351  1.00  0.00     0.398 C 
HETATM   57  O5  UNL     1      25.769 -15.841 -22.618  1.00  0.00    -0.276 OA
ENDBRANCH  55  56
ENDBRANCH  54  55
ENDBRANCH  13  54
TORSDOF 15
ENDMDL
MODEL 4
REMARK VINA RESULT: -6.059040731      3.351      6.132
REMARK  15 active torsions:
REMARK  status: ('A' for Active; 'I' for Inactive)
REMARK    1  A    between atoms: C2_2  and  C3_3 
REMARK    2  A    between atoms: C3_3  and  N1_4 
REMARK    3  A    between atoms: C3_3  and  C4_8 
REMARK       I    between atoms: C4_8  and  N2_10 
REMARK    4  A    between atoms: N2_10  and  C5_12 
REMARK    5  A    between atoms: C5_12  and  N3_13 
REMARK    6  A    between atoms: C5_12  and  C6_17 
REMARK    7  A    between atoms: C10_28  and  C11_29 
REMARK    8  A    between atoms: C11_29  and  O3_31 
REMARK    9  A    between atoms: C13_33  and  C14_34 
REMARK   10  A    between atoms: C14_34  and  O4_35 
REMARK   11  A    between atoms: O4_35  and  C15_36 
REMARK   12  A    between atoms: C16_40  and  C17_41 
REMARK   13  A    between atoms: C17_41  and  C18_42 
REMARK   14  A    between atoms: C18_42  and  N8_43 
REMARK   15  A    between atoms: S3_49  and  N11_50 
ROOT
HETATM    1  C6  UNL     1      22.527 -10.033 -25.412  1.00  0.00     0.157 C 
HETATM    2  N4  UNL     1      21.245  -9.666 -24.846  1.00  0.00    -0.296 N 
HETATM    3  C7  UNL     1      20.038  -9.589 -25.580  1.00  0.00     0.174 C 
HETATM    4  N5  UNL     1      19.770 -10.009 -26.819  1.00  0.00    -0.277 N 
ATOM      5  H5  UNL     1      18.850  -9.890 -27.244  1.00  0.00     0.189 HD
HETATM    6  N6  UNL     1      20.798 -10.607 -27.479  1.00  0.00    -0.274 N 
ATOM      7  H6  UNL     1      21.175  -9.830 -28.023  1.00  0.00     0.189 HD
HETATM    8  C8  UNL     1      21.516 -11.492 -27.797  1.00  0.00     0.218 C 
HETATM    9  N7  UNL     1      21.473 -12.869 -27.363  1.00  0.00    -0.331 N 
ATOM     10  H7  UNL     1      20.662 -13.431 -27.623  1.00  0.00     0.168 HD
HETATM   11  C9  UNL     1      22.545 -13.514 -26.559  1.00  0.00     0.074 C 
HETATM   12  C10 UNL     1      22.335 -14.882 -26.255  1.00  0.00     0.081 C 
HETATM   13  C13 UNL     1      23.426 -15.644 -26.092  1.00  0.00     0.032 C 
HETATM   14  S1  UNL     1      25.067 -14.832 -26.343  1.00  0.00    -0.056 SA
HETATM   15  S2  UNL     1      24.897 -12.957 -25.392  1.00  0.00    -0.048 SA
HETATM   16  C16 UNL     1      23.065 -12.560 -25.460  1.00  0.00     0.176 C 
HETATM   17  N9  UNL     1      23.077 -11.184 -25.855  1.00  0.00    -0.236 N 
HETATM   18  N10 UNL     1      23.954 -11.015 -27.081  1.00  0.00    -0.232 N 
ATOM     19  H10 UNL     1      24.970 -10.942 -27.029  1.00  0.00     0.199 HD
HETATM   20  S3  UNL     1      23.135 -10.961 -28.489  1.00  0.00     0.185 S 
HETATM   21  O6  UNL     1      23.645 -11.960 -29.396  1.00  0.00    -0.219 OA
HETATM   22  S4  UNL     1      18.640  -8.862 -24.627  1.00  0.00    -0.018 SA
HETATM   23  S5  UNL     1      19.416  -9.656 -22.857  1.00  0.00    -0.064 SA
HETATM   24  C19 UNL     1      21.096  -9.193 -23.476  1.00  0.00     0.162 C 
HETATM   25  C20 UNL     1      21.935  -9.551 -22.384  1.00  0.00     0.045 C 
ENDROOT
BRANCH   1  26
HETATM   26  C5  UNL     1      23.672  -9.212 -24.755  1.00  0.00     0.354 C 
BRANCH  26  27
HETATM   27  N2  UNL     1      24.578  -8.662 -25.727  1.00  0.00    -0.326 N 
HETATM   28  C4  UNL     1      24.631  -7.328 -26.182  1.00  0.00     0.250 C 
HETATM   29  O1  UNL     1      23.818  -6.499 -25.706  1.00  0.00    -0.271 OA
ATOM     30  H2  UNL     1      25.258  -9.307 -26.131  1.00  0.00     0.165 HD
BRANCH  28  31
HETATM   31  C3  UNL     1      25.593  -6.844 -27.193  1.00  0.00     0.274 C 
BRANCH  31  32
HETATM   32  C2  UNL     1      26.502  -7.989 -27.605  1.00  0.00     0.038 C 
HETATM   33  C1  UNL     1      27.664  -7.482 -28.429  1.00  0.00     0.007 C 
ENDBRANCH  31  32
BRANCH  31  34
HETATM   34  N1  UNL     1      24.840  -6.418 -28.354  1.00  0.00    -0.067 N 
ATOM     35  H13 UNL     1      23.838  -6.361 -28.172  1.00  0.00     0.275 HD
ATOM     36  H12 UNL     1      24.995  -5.436 -28.583  1.00  0.00     0.275 HD
ATOM     37  H11 UNL     1      25.063  -7.042 -29.129  1.00  0.00     0.275 HD
ENDBRANCH  31  34
ENDBRANCH  28  31
ENDBRANCH  26  27
BRANCH  26  38
HETATM   38  N3  UNL     1      24.514 -10.263 -24.121  1.00  0.00    -0.051 N 
ATOM     39  H33 UNL     1      24.901 -10.956 -24.762  1.00  0.00     0.277 HD
ATOM     40  H32 UNL     1      25.418  -9.944 -23.771  1.00  0.00     0.277 HD
ATOM     41  H31 UNL     1      23.881 -10.633 -23.412  1.00  0.00     0.277 HD
ENDBRANCH  26  38
ENDBRANCH   1  26
BRANCH  16  42
HETATM   42  C17 UNL     1      22.611 -12.997 -24.170  1.00  0.00     0.041 C 
BRANCH  42  43
HETATM   43  C18 UNL     1      23.469 -13.505 -23.133  1.00  0.00     0.080 C 
BRANCH  43  44
HETATM   44  N8  UNL     1      23.242 -14.687 -22.643  1.00  0.00    -0.408 N 
ATOM     45  H82 UNL     1      23.115 -15.476 -23.277  1.00  0.00     0.155 HD
ATOM     46  H81 UNL     1      23.194 -14.806 -21.632  1.00  0.00     0.155 HD
ENDBRANCH  43  44
ENDBRANCH  42  43
ENDBRANCH  16  42
BRANCH  20  47
HETATM   47  N11 UNL     1      23.017  -9.368 -29.063  1.00  0.00    -0.337 N 
ATOM     48 2H11 UNL     1      22.466  -8.635 -28.616  1.00  0.00     0.167 HD
ATOM     49 1H11 UNL     1      23.576  -9.266 -29.910  1.00  0.00     0.167 HD
ENDBRANCH  20  47
BRANCH  12  50
HETATM   50  C11 UNL     1      21.057 -15.522 -26.106  1.00  0.00     0.296 C 
HETATM   51  O2  UNL     1      20.314 -15.747 -27.131  1.00  0.00    -0.259 OA
BRANCH  50  52
HETATM   52  O3  UNL     1      20.465 -15.960 -24.931  1.00  0.00    -0.322 OA
HETATM   53  C12 UNL     1      19.897 -17.241 -24.863  1.00  0.00     0.213 C 
ENDBRANCH  50  52
ENDBRANCH  12  50
BRANCH  13  54
HETATM   54  C14 UNL     1      23.499 -17.054 -25.780  1.00  0.00     0.225 C 
BRANCH  54  55
HETATM   55  O4  UNL     1      23.510 -17.262 -24.346  1.00  0.00    -0.323 OA
BRANCH  55  56
HETATM   56  C15 UNL     1      24.730 -17.609 -23.798  1.00  0.00     0.398 C 
HETATM   57  O5  UNL     1      25.455 -16.798 -23.177  1.00  0.00    -0.276 OA
ENDBRANCH  55  56
ENDBRANCH  54  55
ENDBRANCH  13  54
TORSDOF 15
ENDMDL
MODEL 5
REMARK VINA RESULT: -6.048162823      3.144      6.019
REMARK  15 active torsions:
REMARK  status: ('A' for Active; 'I' for Inactive)
REMARK    1  A    between atoms: C2_2  and  C3_3 
REMARK    2  A    between atoms: C3_3  and  N1_4 
REMARK    3  A    between atoms: C3_3  and  C4_8 
REMARK       I    between atoms: C4_8  and  N2_10 
REMARK    4  A    between atoms: N2_10  and  C5_12 
REMARK    5  A    between atoms: C5_12  and  N3_13 
REMARK    6  A    between atoms: C5_12  and  C6_17 
REMARK    7  A    between atoms: C10_28  and  C11_29 
REMARK    8  A    between atoms: C11_29  and  O3_31 
REMARK    9  A    between atoms: C13_33  and  C14_34 
REMARK   10  A    between atoms: C14_34  and  O4_35 
REMARK   11  A    between atoms: O4_35  and  C15_36 
REMARK   12  A    between atoms: C16_40  and  C17_41 
REMARK   13  A    between atoms: C17_41  and  C18_42 
REMARK   14  A    between atoms: C18_42  and  N8_43 
REMARK   15  A    between atoms: S3_49  and  N11_50 
ROOT
HETATM    1  C6  UNL     1      22.263 -10.989 -22.923  1.00  0.00     0.157 C 
HETATM    2  N4  UNL     1      21.947  -9.599 -23.183  1.00  0.00    -0.296 N 
HETATM    3  C7  UNL     1      22.894  -8.622 -23.574  1.00  0.00     0.174 C 
HETATM    4  N5  UNL     1      24.158  -8.779 -23.973  1.00  0.00    -0.277 N 
ATOM      5  H5  UNL     1      24.748  -7.985 -24.226  1.00  0.00     0.189 HD
HETATM    6  N6  UNL     1      24.612 -10.060 -24.022  1.00  0.00    -0.274 N 
ATOM      7  H6  UNL     1      25.080 -10.149 -23.120  1.00  0.00     0.189 HD
HETATM    8  C8  UNL     1      24.786 -11.133 -24.490  1.00  0.00     0.218 C 
HETATM    9  N7  UNL     1      24.360 -11.618 -25.782  1.00  0.00    -0.331 N 
ATOM     10  H7  UNL     1      24.763 -11.189 -26.614  1.00  0.00     0.168 HD
HETATM   11  C9  UNL     1      23.365 -12.710 -25.965  1.00  0.00     0.074 C 
HETATM   12  C10 UNL     1      23.099 -13.066 -27.311  1.00  0.00     0.081 C 
HETATM   13  C13 UNL     1      22.731 -14.334 -27.543  1.00  0.00     0.032 C 
HETATM   14  S1  UNL     1      22.676 -15.476 -26.093  1.00  0.00    -0.056 SA
HETATM   15  S2  UNL     1      21.784 -14.351 -24.548  1.00  0.00    -0.048 SA
HETATM   16  C16 UNL     1      22.195 -12.569 -24.967  1.00  0.00     0.176 C 
HETATM   17  N9  UNL     1      22.588 -12.050 -23.692  1.00  0.00    -0.236 N 
HETATM   18  N10 UNL     1      23.631 -12.962 -23.073  1.00  0.00    -0.232 N 
ATOM     19  H10 UNL     1      23.391 -13.820 -22.577  1.00  0.00     0.199 HD
HETATM   20  S3  UNL     1      25.167 -12.453 -23.268  1.00  0.00     0.185 S 
HETATM   21  O6  UNL     1      25.958 -13.492 -23.881  1.00  0.00    -0.219 OA
HETATM   22  S4  UNL     1      22.221  -6.908 -23.588  1.00  0.00    -0.018 SA
HETATM   23  S5  UNL     1      20.334  -7.638 -24.106  1.00  0.00    -0.064 SA
HETATM   24  C19 UNL     1      20.631  -9.029 -22.924  1.00  0.00     0.162 C 
HETATM   25  C20 UNL     1      19.401  -9.741 -22.971  1.00  0.00     0.045 C 
ENDROOT
BRANCH   1  26
HETATM   26  C5  UNL     1      21.409 -11.534 -21.744  1.00  0.00     0.354 C 
BRANCH  26  27
HETATM   27  N2  UNL     1      21.639 -10.813 -20.522  1.00  0.00    -0.326 N 
HETATM   28  C4  UNL     1      20.856 -10.852 -19.349  1.00  0.00     0.250 C 
HETATM   29  O1  UNL     1      19.841 -11.591 -19.330  1.00  0.00    -0.271 OA
ATOM     30  H2  UNL     1      22.460 -10.207 -20.500  1.00  0.00     0.165 HD
BRANCH  28  31
HETATM   31  C3  UNL     1      21.161 -10.071 -18.134  1.00  0.00     0.274 C 
BRANCH  31  32
HETATM   32  C2  UNL     1      22.490  -9.360 -18.317  1.00  0.00     0.038 C 
HETATM   33  C1  UNL     1      22.951  -8.740 -17.017  1.00  0.00     0.007 C 
ENDBRANCH  31  32
BRANCH  31  34
HETATM   34  N1  UNL     1      20.125  -9.070 -17.979  1.00  0.00    -0.067 N 
ATOM     35  H13 UNL     1      19.797  -8.991 -17.016  1.00  0.00     0.275 HD
ATOM     36  H12 UNL     1      20.480  -8.120 -18.083  1.00  0.00     0.275 HD
ATOM     37  H11 UNL     1      19.372  -9.283 -18.633  1.00  0.00     0.275 HD
ENDBRANCH  31  34
ENDBRANCH  28  31
ENDBRANCH  26  27
BRANCH  26  38
HETATM   38  N3  UNL     1      22.051 -12.844 -21.446  1.00  0.00    -0.051 N 
ATOM     39  H33 UNL     1      22.534 -12.897 -20.549  1.00  0.00     0.277 HD
ATOM     40  H32 UNL     1      21.406 -13.610 -21.250  1.00  0.00     0.277 HD
ATOM     41  H31 UNL     1      22.643 -12.974 -22.266  1.00  0.00     0.277 HD
ENDBRANCH  26  38
ENDBRANCH   1  26
BRANCH  16  42
HETATM   42  C17 UNL     1      21.009 -12.137 -25.652  1.00  0.00     0.041 C 
BRANCH  42  43
HETATM   43  C18 UNL     1      20.798 -10.806 -26.154  1.00  0.00     0.080 C 
BRANCH  43  44
HETATM   44  N8  UNL     1      19.888 -10.606 -27.061  1.00  0.00    -0.408 N 
ATOM     45  H82 UNL     1      19.274 -11.374 -27.332  1.00  0.00     0.155 HD
ATOM     46  H81 UNL     1      19.804  -9.683 -27.487  1.00  0.00     0.155 HD
ENDBRANCH  43  44
ENDBRANCH  42  43
ENDBRANCH  16  42
BRANCH  20  47
HETATM   47  N11 UNL     1      25.762 -11.755 -21.839  1.00  0.00    -0.337 N 
ATOM     48 2H11 UNL     1      25.217 -11.150 -21.224  1.00  0.00     0.167 HD
ATOM     49 1H11 UNL     1      26.733 -12.034 -21.699  1.00  0.00     0.167 HD
ENDBRANCH  20  47
BRANCH  12  50
HETATM   50  C11 UNL     1      23.186 -12.187 -28.445  1.00  0.00     0.296 C 
HETATM   51  O2  UNL     1      24.324 -11.927 -28.984  1.00  0.00    -0.259 OA
BRANCH  50  52
HETATM   52  O3  UNL     1      22.146 -11.528 -29.084  1.00  0.00    -0.322 OA
HETATM   53  C12 UNL     1      22.366 -10.278 -29.681  1.00  0.00     0.213 C 
ENDBRANCH  50  52
ENDBRANCH  12  50
BRANCH  13  54
HETATM   54  C14 UNL     1      22.402 -14.956 -28.807  1.00  0.00     0.225 C 
BRANCH  54  55
HETATM   55  O4  UNL     1      20.997 -14.787 -29.112  1.00  0.00    -0.323 OA
BRANCH  55  56
HETATM   56  C15 UNL     1      20.700 -14.462 -30.422  1.00  0.00     0.398 C 
HETATM   57  O5  UNL     1      20.348 -15.311 -31.273  1.00  0.00    -0.276 OA
ENDBRANCH  55  56
ENDBRANCH  54  55
ENDBRANCH  13  54
TORSDOF 15
ENDMDL
