MODEL 1
REMARK VINA RESULT: -7.217210346      0.000      0.000
REMARK  4 active torsions:
REMARK  status: ('A' for Active; 'I' for Inactive)
REMARK       I    between atoms: N1_10  and  C10_11 
REMARK    1  A    between atoms: C10_11  and  C11_13 
REMARK    2  A    between atoms: C11_13  and  C12_14 
REMARK    3  A    between atoms: C12_14  and  C13_15 
REMARK    4  A    between atoms: C19_21  and  C20_22 
ROOT
HETATM    1  C1  UNL     1     -19.389   2.034  12.947  1.00  0.00     0.015 C 
HETATM    2  C2  UNL     1     -18.011   2.464  13.273  1.00  0.00    -0.043 C 
HETATM    3  C3  UNL     1     -17.962   3.965  13.442  1.00  0.00     0.015 C 
HETATM    4  C4  UNL     1     -17.494   1.831  14.576  1.00  0.00     0.015 C 
HETATM    5  C5  UNL     1     -16.152   1.255  14.260  1.00  0.00     0.008 C 
HETATM    6  C6  UNL     1     -15.724   2.249  13.159  1.00  0.00     0.012 C 
HETATM    7  C7  UNL     1     -16.963   2.036  12.289  1.00  0.00     0.001 C 
HETATM    8  C8  UNL     1     -16.949   0.521  12.190  1.00  0.00     0.029 C 
HETATM    9  C9  UNL     1     -16.077   0.043  11.073  1.00  0.00     0.132 C 
HETATM   10  N1  UNL     1     -15.220  -0.957  11.658  1.00  0.00    -0.350 N 
HETATM   11  C10 UNL     1     -14.716  -2.161  11.098  1.00  0.00     0.219 C 
HETATM   12  O1  UNL     1     -15.051  -2.420   9.919  1.00  0.00    -0.273 OA
HETATM   13  C18 UNL     1     -14.926  -0.515  13.003  1.00  0.00     0.147 C 
HETATM   14  C19 UNL     1     -16.284   0.016  13.454  1.00  0.00     0.073 C 
ENDROOT
BRANCH  11  15
HETATM   15  C11 UNL     1     -13.851  -3.065  11.844  1.00  0.00     0.103 C 
BRANCH  15  16
HETATM   16  C12 UNL     1     -13.928  -4.504  11.495  1.00  0.00     0.014 C 
BRANCH  16  17
HETATM   17  C13 UNL     1     -12.731  -5.091  10.823  1.00  0.00    -0.014 C 
HETATM   18  C14 UNL     1     -12.989  -6.584  10.687  1.00  0.00     0.004 C 
HETATM   19  C15 UNL     1     -12.072  -7.270  11.659  1.00  0.00     0.000 C 
HETATM   20  C16 UNL     1     -10.949  -6.302  11.955  1.00  0.00     0.000 C 
HETATM   21  C17 UNL     1     -11.480  -4.940  11.659  1.00  0.00     0.004 C 
ENDBRANCH  16  17
ENDBRANCH  15  16
ENDBRANCH  11  15
BRANCH  14  22
HETATM   22  C20 UNL     1     -17.036  -1.085  14.057  1.00  0.00     0.184 C 
HETATM   23  O2  UNL     1     -16.475  -1.940  14.762  1.00  0.00    -0.647 OA
HETATM   24  O3  UNL     1     -18.403  -1.190  13.840  1.00  0.00    -0.647 OA
ENDBRANCH  14  22
TORSDOF 4
ENDMDL
MODEL 2
REMARK VINA RESULT: -7.115148483      0.740      1.013
REMARK  4 active torsions:
REMARK  status: ('A' for Active; 'I' for Inactive)
REMARK       I    between atoms: N1_10  and  C10_11 
REMARK    1  A    between atoms: C10_11  and  C11_13 
REMARK    2  A    between atoms: C11_13  and  C12_14 
REMARK    3  A    between atoms: C12_14  and  C13_15 
REMARK    4  A    between atoms: C19_21  and  C20_22 
ROOT
HETATM    1  C1  UNL     1     -19.546   1.873  13.493  1.00  0.00     0.015 C 
HETATM    2  C2  UNL     1     -18.170   2.396  13.652  1.00  0.00    -0.043 C 
HETATM    3  C3  UNL     1     -18.206   3.885  13.906  1.00  0.00     0.015 C 
HETATM    4  C4  UNL     1     -17.430   1.741  14.830  1.00  0.00     0.015 C 
HETATM    5  C5  UNL     1     -16.107   1.290  14.298  1.00  0.00     0.008 C 
HETATM    6  C6  UNL     1     -15.913   2.371  13.212  1.00  0.00     0.012 C 
HETATM    7  C7  UNL     1     -17.244   2.104  12.509  1.00  0.00     0.001 C 
HETATM    8  C8  UNL     1     -17.135   0.602  12.316  1.00  0.00     0.029 C 
HETATM    9  C9  UNL     1     -16.398   0.254  11.062  1.00  0.00     0.132 C 
HETATM   10  N1  UNL     1     -15.397  -0.702  11.460  1.00  0.00    -0.350 N 
HETATM   11  C10 UNL     1     -14.892  -1.832  10.763  1.00  0.00     0.219 C 
HETATM   12  O1  UNL     1     -15.370  -2.056   9.627  1.00  0.00    -0.273 OA
HETATM   13  C18 UNL     1     -14.948  -0.309  12.777  1.00  0.00     0.147 C 
HETATM   14  C19 UNL     1     -16.263   0.088  13.442  1.00  0.00     0.073 C 
ENDROOT
BRANCH  11  15
HETATM   15  C11 UNL     1     -13.866  -2.700  11.325  1.00  0.00     0.103 C 
BRANCH  15  16
HETATM   16  C12 UNL     1     -14.246  -4.113  11.567  1.00  0.00     0.014 C 
BRANCH  16  17
HETATM   17  C13 UNL     1     -13.820  -5.103  10.533  1.00  0.00    -0.014 C 
HETATM   18  C14 UNL     1     -14.983  -6.063  10.338  1.00  0.00     0.004 C 
HETATM   19  C15 UNL     1     -14.567  -7.374  10.942  1.00  0.00     0.000 C 
HETATM   20  C16 UNL     1     -13.057  -7.366  10.998  1.00  0.00     0.000 C 
HETATM   21  C17 UNL     1     -12.643  -5.934  10.992  1.00  0.00     0.004 C 
ENDBRANCH  16  17
ENDBRANCH  15  16
ENDBRANCH  11  15
BRANCH  14  22
HETATM   22  C20 UNL     1     -16.840  -1.099  14.073  1.00  0.00     0.184 C 
HETATM   23  O2  UNL     1     -16.135  -1.900  14.710  1.00  0.00    -0.647 OA
HETATM   24  O3  UNL     1     -18.200  -1.351  13.960  1.00  0.00    -0.647 OA
ENDBRANCH  14  22
TORSDOF 4
ENDMDL
MODEL 3
REMARK VINA RESULT: -7.074591233      5.474      7.333
REMARK  4 active torsions:
REMARK  status: ('A' for Active; 'I' for Inactive)
REMARK       I    between atoms: N1_10  and  C10_11 
REMARK    1  A    between atoms: C10_11  and  C11_13 
REMARK    2  A    between atoms: C11_13  and  C12_14 
REMARK    3  A    between atoms: C12_14  and  C13_15 
REMARK    4  A    between atoms: C19_21  and  C20_22 
ROOT
HETATM    1  C1  UNL     1     -18.077  -4.330   6.116  1.00  0.00     0.015 C 
HETATM    2  C2  UNL     1     -17.263  -5.566   6.146  1.00  0.00    -0.043 C 
HETATM    3  C3  UNL     1     -17.973  -6.673   5.404  1.00  0.00     0.015 C 
HETATM    4  C4  UNL     1     -15.885  -5.374   5.490  1.00  0.00     0.015 C 
HETATM    5  C5  UNL     1     -14.879  -5.901   6.462  1.00  0.00     0.008 C 
HETATM    6  C6  UNL     1     -15.748  -6.989   7.130  1.00  0.00     0.012 C 
HETATM    7  C7  UNL     1     -16.885  -6.042   7.517  1.00  0.00     0.001 C 
HETATM    8  C8  UNL     1     -16.089  -4.963   8.228  1.00  0.00     0.029 C 
HETATM    9  C9  UNL     1     -15.867  -5.292   9.669  1.00  0.00     0.132 C 
HETATM   10  N1  UNL     1     -14.454  -5.118   9.888  1.00  0.00    -0.350 N 
HETATM   11  C10 UNL     1     -13.765  -4.631  11.031  1.00  0.00     0.219 C 
HETATM   12  O1  UNL     1     -14.466  -4.294  12.013  1.00  0.00    -0.273 OA
HETATM   13  C18 UNL     1     -13.791  -5.548   8.677  1.00  0.00     0.147 C 
HETATM   14  C19 UNL     1     -14.709  -4.969   7.604  1.00  0.00     0.073 C 
ENDROOT
BRANCH  11  15
HETATM   15  C11 UNL     1     -12.313  -4.521  11.078  1.00  0.00     0.103 C 
BRANCH  15  16
HETATM   16  C12 UNL     1     -11.625  -5.221  12.191  1.00  0.00     0.014 C 
BRANCH  16  17
HETATM   17  C13 UNL     1     -10.597  -6.233  11.805  1.00  0.00    -0.014 C 
HETATM   18  C14 UNL     1     -11.278  -7.216  10.866  1.00  0.00     0.004 C 
HETATM   19  C15 UNL     1     -11.434  -8.502  11.626  1.00  0.00     0.000 C 
HETATM   20  C16 UNL     1     -10.421  -8.470  12.746  1.00  0.00     0.000 C 
HETATM   21  C17 UNL     1     -10.114  -7.032  12.995  1.00  0.00     0.004 C 
ENDBRANCH  16  17
ENDBRANCH  15  16
ENDBRANCH  11  15
BRANCH  14  22
HETATM   22  C20 UNL     1     -14.254  -3.614   7.287  1.00  0.00     0.184 C 
HETATM   23  O2  UNL     1     -13.326  -3.415   6.485  1.00  0.00    -0.647 OA
HETATM   24  O3  UNL     1     -14.860  -2.522   7.890  1.00  0.00    -0.647 OA
ENDBRANCH  14  22
TORSDOF 4
ENDMDL
MODEL 4
REMARK VINA RESULT: -7.061268780      6.253      8.067
REMARK  4 active torsions:
REMARK  status: ('A' for Active; 'I' for Inactive)
REMARK       I    between atoms: N1_10  and  C10_11 
REMARK    1  A    between atoms: C10_11  and  C11_13 
REMARK    2  A    between atoms: C11_13  and  C12_14 
REMARK    3  A    between atoms: C12_14  and  C13_15 
REMARK    4  A    between atoms: C19_21  and  C20_22 
ROOT
HETATM    1  C1  UNL     1     -18.322  -5.593   5.536  1.00  0.00     0.015 C 
HETATM    2  C2  UNL     1     -17.000  -6.083   5.086  1.00  0.00    -0.043 C 
HETATM    3  C3  UNL     1     -17.107  -6.665   3.696  1.00  0.00     0.015 C 
HETATM    4  C4  UNL     1     -15.946  -4.963   5.042  1.00  0.00     0.015 C 
HETATM    5  C5  UNL     1     -14.753  -5.478   5.779  1.00  0.00     0.008 C 
HETATM    6  C6  UNL     1     -14.917  -6.982   5.467  1.00  0.00     0.012 C 
HETATM    7  C7  UNL     1     -16.348  -7.079   5.999  1.00  0.00     0.001 C 
HETATM    8  C8  UNL     1     -16.154  -6.458   7.371  1.00  0.00     0.029 C 
HETATM    9  C9  UNL     1     -15.706  -7.467   8.380  1.00  0.00     0.132 C 
HETATM   10  N1  UNL     1     -14.558  -6.880   9.024  1.00  0.00    -0.350 N 
HETATM   11  C10 UNL     1     -14.134  -6.964  10.376  1.00  0.00     0.219 C 
HETATM   12  O1  UNL     1     -14.845  -7.644  11.151  1.00  0.00    -0.273 OA
HETATM   13  C18 UNL     1     -13.848  -6.138   8.007  1.00  0.00     0.147 C 
HETATM   14  C19 UNL     1     -14.998  -5.488   7.242  1.00  0.00     0.073 C 
ENDROOT
BRANCH  11  15
HETATM   15  C11 UNL     1     -12.931  -6.298  10.859  1.00  0.00     0.103 C 
BRANCH  15  16
HETATM   16  C12 UNL     1     -11.699  -7.120  10.938  1.00  0.00     0.014 C 
BRANCH  16  17
HETATM   17  C13 UNL     1     -10.545  -6.519  11.671  1.00  0.00    -0.014 C 
HETATM   18  C14 UNL     1     -10.039  -7.578  12.639  1.00  0.00     0.004 C 
HETATM   19  C15 UNL     1     -10.418  -7.119  14.018  1.00  0.00     0.000 C 
HETATM   20  C16 UNL     1     -10.641  -5.627  13.933  1.00  0.00     0.000 C 
HETATM   21  C17 UNL     1     -10.961  -5.329  12.507  1.00  0.00     0.004 C 
ENDBRANCH  16  17
ENDBRANCH  15  16
ENDBRANCH  11  15
BRANCH  14  22
HETATM   22  C20 UNL     1     -15.302  -4.200   7.868  1.00  0.00     0.184 C 
HETATM   23  O2  UNL     1     -16.419  -3.969   8.360  1.00  0.00    -0.647 OA
HETATM   24  O3  UNL     1     -14.333  -3.208   7.915  1.00  0.00    -0.647 OA
ENDBRANCH  14  22
TORSDOF 4
ENDMDL
MODEL 5
REMARK VINA RESULT: -6.979432072      5.208      6.798
REMARK  4 active torsions:
REMARK  status: ('A' for Active; 'I' for Inactive)
REMARK       I    between atoms: N1_10  and  C10_11 
REMARK    1  A    between atoms: C10_11  and  C11_13 
REMARK    2  A    between atoms: C11_13  and  C12_14 
REMARK    3  A    between atoms: C12_14  and  C13_15 
REMARK    4  A    between atoms: C19_21  and  C20_22 
ROOT
HETATM    1  C1  UNL     1     -17.419  -5.292   8.241  1.00  0.00     0.015 C 
HETATM    2  C2  UNL     1     -16.193  -4.601   7.785  1.00  0.00    -0.043 C 
HETATM    3  C3  UNL     1     -16.430  -3.952   6.442  1.00  0.00     0.015 C 
HETATM    4  C4  UNL     1     -15.747  -3.499   8.762  1.00  0.00     0.015 C 
HETATM    5  C5  UNL     1     -14.295  -3.734   9.027  1.00  0.00     0.008 C 
HETATM    6  C6  UNL     1     -13.908  -4.360   7.669  1.00  0.00     0.012 C 
HETATM    7  C7  UNL     1     -14.966  -5.463   7.718  1.00  0.00     0.001 C 
HETATM    8  C8  UNL     1     -14.675  -6.038   9.091  1.00  0.00     0.029 C 
HETATM    9  C9  UNL     1     -13.595  -7.072   9.045  1.00  0.00     0.132 C 
HETATM   10  N1  UNL     1     -12.659  -6.694  10.073  1.00  0.00    -0.350 N 
HETATM   11  C10 UNL     1     -11.884  -7.510  10.940  1.00  0.00     0.219 C 
HETATM   12  O1  UNL     1     -12.011  -8.749  10.814  1.00  0.00    -0.273 OA
HETATM   13  C18 UNL     1     -12.625  -5.249  10.092  1.00  0.00     0.147 C 
HETATM   14  C19 UNL     1     -14.102  -4.905   9.917  1.00  0.00     0.073 C 
ENDROOT
BRANCH  11  15
HETATM   15  C11 UNL     1     -10.977  -6.950  11.933  1.00  0.00     0.103 C 
BRANCH  15  16
HETATM   16  C12 UNL     1     -10.039  -7.893  12.589  1.00  0.00     0.014 C 
BRANCH  16  17
HETATM   17  C13 UNL     1      -9.453  -7.452  13.889  1.00  0.00    -0.014 C 
HETATM   18  C14 UNL     1      -9.988  -8.394  14.956  1.00  0.00     0.004 C 
HETATM   19  C15 UNL     1     -10.963  -7.602  15.780  1.00  0.00     0.000 C 
HETATM   20  C16 UNL     1     -10.622  -6.144  15.575  1.00  0.00     0.000 C 
HETATM   21  C17 UNL     1      -9.903  -6.060  14.272  1.00  0.00     0.004 C 
ENDBRANCH  16  17
ENDBRANCH  15  16
ENDBRANCH  11  15
BRANCH  14  22
HETATM   22  C20 UNL     1     -14.721  -4.836  11.241  1.00  0.00     0.184 C 
HETATM   23  O2  UNL     1     -15.574  -5.664  11.600  1.00  0.00    -0.647 OA
HETATM   24  O3  UNL     1     -14.360  -3.826  12.122  1.00  0.00    -0.647 OA
ENDBRANCH  14  22
TORSDOF 4
ENDMDL
