MODEL 1
REMARK VINA RESULT: -6.810265487      0.000      0.000
REMARK  6 active torsions:
REMARK  status: ('A' for Active; 'I' for Inactive)
REMARK    1  A    between atoms: C3_3  and  N1_4 
REMARK    2  A    between atoms: N1_4  and  O1_6 
REMARK    3  A    between atoms: C7_11  and  O2_12 
REMARK    4  A    between atoms: C7_11  and  C10_16 
REMARK    5  A    between atoms: O2_12  and  C8_13 
REMARK    6  A    between atoms: C21_28  and  O5_29 
ROOT
HETATM    1  C1  UNL     1      28.383  11.394  16.672  1.00  0.00     0.021 C 
HETATM    2  C2  UNL     1      28.454  11.909  15.447  1.00  0.00    -0.033 C 
HETATM    3  C3  UNL     1      29.639  12.648  15.093  1.00  0.00     0.048 C 
HETATM    4  C4  UNL     1      29.928  13.581  14.045  1.00  0.00     0.095 C 
HETATM    5  C5  UNL     1      29.994  15.026  14.569  1.00  0.00     0.021 C 
HETATM    6  C6  UNL     1      30.839  15.781  13.580  1.00  0.00     0.045 C 
HETATM    7  C7  UNL     1      30.247  15.817  12.182  1.00  0.00     0.102 C 
HETATM    8  C13 UNL     1      29.060  14.948  12.158  1.00  0.00    -0.002 C 
HETATM    9  C14 UNL     1      27.943  15.264  11.543  1.00  0.00     0.024 C 
HETATM   10  C15 UNL     1      29.045  13.616  12.837  1.00  0.00     0.066 C 
HETATM   11  O4  UNL     1      27.916  12.957  12.811  1.00  0.00    -0.343 OA
HETATM   12  C16 UNL     1      26.942  12.745  13.627  1.00  0.00     0.074 C 
HETATM   13  C17 UNL     1      26.271  13.833  14.393  1.00  0.00     0.047 C 
HETATM   14  C18 UNL     1      25.800  12.123  12.779  1.00  0.00     0.039 C 
HETATM   15  C19 UNL     1      25.007  11.118  13.544  1.00  0.00     0.006 C 
HETATM   16  C20 UNL     1      25.837   9.867  13.803  1.00  0.00     0.032 C 
HETATM   17  C21 UNL     1      27.285  10.322  13.912  1.00  0.00     0.129 C 
HETATM   18  C22 UNL     1      27.284  11.639  14.618  1.00  0.00     0.083 C 
ENDROOT
BRANCH   7  19
HETATM   19  O2  UNL     1      31.303  15.294  11.368  1.00  0.00    -0.305 OA
BRANCH  19  20
HETATM   20  C8  UNL     1      32.588  15.090  11.741  1.00  0.00     0.255 C 
HETATM   21  C9  UNL     1      33.606  16.174  11.646  1.00  0.00     0.126 C 
HETATM   22  O3  UNL     1      32.851  13.955  12.161  1.00  0.00    -0.266 OA
ENDBRANCH  19  20
ENDBRANCH   7  19
BRANCH   7  23
HETATM   23  C10 UNL     1      29.949  17.250  11.823  1.00  0.00     0.017 C 
HETATM   24  C11 UNL     1      30.614  18.250  12.710  1.00  0.00     0.013 C 
HETATM   25  C12 UNL     1      30.368  17.580  10.398  1.00  0.00     0.013 C 
ENDBRANCH   7  23
BRANCH   3  26
HETATM   26  N1  UNL     1      30.638  12.409  15.896  1.00  0.00    -0.272 N 
ATOM     27  H1  UNL     1      30.461  12.409  16.901  1.00  0.00     0.194 HD
BRANCH  26  28
HETATM   28  O1  UNL     1      31.908  12.158  15.466  1.00  0.00    -0.290 OA
ATOM     29  H1  UNL     1      32.148  11.394  14.954  1.00  0.00     0.244 HD
ENDBRANCH  26  28
ENDBRANCH   3  26
BRANCH  17  30
HETATM   30  O5  UNL     1      28.007   9.343  14.560  1.00  0.00    -0.395 OA
ATOM     31  H5  UNL     1      27.645   8.496  14.330  1.00  0.00     0.210 HD
ENDBRANCH  17  30
TORSDOF 6
ENDMDL
MODEL 2
REMARK VINA RESULT: -6.212525178      2.564      3.594
REMARK  6 active torsions:
REMARK  status: ('A' for Active; 'I' for Inactive)
REMARK    1  A    between atoms: C3_3  and  N1_4 
REMARK    2  A    between atoms: N1_4  and  O1_6 
REMARK    3  A    between atoms: C7_11  and  O2_12 
REMARK    4  A    between atoms: C7_11  and  C10_16 
REMARK    5  A    between atoms: O2_12  and  C8_13 
REMARK    6  A    between atoms: C21_28  and  O5_29 
ROOT
HETATM    1  C1  UNL     1      28.591  11.929  17.218  1.00  0.00     0.021 C 
HETATM    2  C2  UNL     1      29.323  12.117  16.123  1.00  0.00    -0.033 C 
HETATM    3  C3  UNL     1      30.756  12.042  16.248  1.00  0.00     0.048 C 
HETATM    4  C4  UNL     1      31.831  12.491  15.414  1.00  0.00     0.095 C 
HETATM    5  C5  UNL     1      32.517  13.743  15.989  1.00  0.00     0.021 C 
HETATM    6  C6  UNL     1      33.901  13.758  15.400  1.00  0.00     0.045 C 
HETATM    7  C7  UNL     1      33.912  13.872  13.886  1.00  0.00     0.102 C 
HETATM    8  C13 UNL     1      32.526  13.778  13.403  1.00  0.00    -0.002 C 
HETATM    9  C14 UNL     1      32.041  14.533  12.443  1.00  0.00     0.024 C 
HETATM   10  C15 UNL     1      31.559  12.791  13.972  1.00  0.00     0.066 C 
HETATM   11  O4  UNL     1      30.334  12.840  13.517  1.00  0.00    -0.343 OA
HETATM   12  C16 UNL     1      29.207  13.316  13.921  1.00  0.00     0.074 C 
HETATM   13  C17 UNL     1      29.051  14.702  14.444  1.00  0.00     0.047 C 
HETATM   14  C18 UNL     1      28.257  13.266  12.695  1.00  0.00     0.039 C 
HETATM   15  C19 UNL     1      26.845  12.980  13.082  1.00  0.00     0.006 C 
HETATM   16  C20 UNL     1      26.706  11.542  13.565  1.00  0.00     0.032 C 
HETATM   17  C21 UNL     1      28.036  11.167  14.204  1.00  0.00     0.129 C 
HETATM   18  C22 UNL     1      28.540  12.379  14.920  1.00  0.00     0.083 C 
ENDROOT
BRANCH   7  19
HETATM   19  O2  UNL     1      34.694  12.742  13.481  1.00  0.00    -0.305 OA
BRANCH  19  20
HETATM   20  C8  UNL     1      35.466  11.965  14.276  1.00  0.00     0.255 C 
HETATM   21  C9  UNL     1      34.969  10.667  14.812  1.00  0.00     0.126 C 
HETATM   22  O3  UNL     1      36.597  12.405  14.520  1.00  0.00    -0.266 OA
ENDBRANCH  19  20
ENDBRANCH   7  19
BRANCH   7  23
HETATM   23  C10 UNL     1      34.594  15.162  13.507  1.00  0.00     0.017 C 
HETATM   24  C11 UNL     1      35.372  15.788  14.617  1.00  0.00     0.013 C 
HETATM   25  C12 UNL     1      35.559  14.978  12.345  1.00  0.00     0.013 C 
ENDBRANCH   7  23
BRANCH   3  26
HETATM   26  N1  UNL     1      31.135  11.444  17.343  1.00  0.00    -0.272 N 
ATOM     27  H1  UNL     1      30.444  11.307  18.081  1.00  0.00     0.194 HD
BRANCH  26  28
HETATM   28  O1  UNL     1      32.403  10.992  17.556  1.00  0.00    -0.290 OA
ATOM     29  H1  UNL     1      33.156  11.564  17.649  1.00  0.00     0.244 HD
ENDBRANCH  26  28
ENDBRANCH   3  26
BRANCH  17  30
HETATM   30  O5  UNL     1      27.840  10.077  15.024  1.00  0.00    -0.395 OA
ATOM     31  H5  UNL     1      28.297  10.226  15.842  1.00  0.00     0.210 HD
ENDBRANCH  17  30
TORSDOF 6
ENDMDL
MODEL 3
REMARK VINA RESULT: -6.064787100      2.093      3.114
REMARK  6 active torsions:
REMARK  status: ('A' for Active; 'I' for Inactive)
REMARK    1  A    between atoms: C3_3  and  N1_4 
REMARK    2  A    between atoms: N1_4  and  O1_6 
REMARK    3  A    between atoms: C7_11  and  O2_12 
REMARK    4  A    between atoms: C7_11  and  C10_16 
REMARK    5  A    between atoms: O2_12  and  C8_13 
REMARK    6  A    between atoms: C21_28  and  O5_29 
ROOT
HETATM    1  C1  UNL     1      28.617  11.864  17.154  1.00  0.00     0.021 C 
HETATM    2  C2  UNL     1      29.317  12.120  16.052  1.00  0.00    -0.033 C 
HETATM    3  C3  UNL     1      30.755  12.122  16.151  1.00  0.00     0.048 C 
HETATM    4  C4  UNL     1      31.789  12.651  15.311  1.00  0.00     0.095 C 
HETATM    5  C5  UNL     1      32.414  13.924  15.907  1.00  0.00     0.021 C 
HETATM    6  C6  UNL     1      33.784  14.031  15.296  1.00  0.00     0.045 C 
HETATM    7  C7  UNL     1      33.762  14.183  13.785  1.00  0.00     0.102 C 
HETATM    8  C13 UNL     1      32.375  14.023  13.323  1.00  0.00    -0.002 C 
HETATM    9  C14 UNL     1      31.832  14.774  12.391  1.00  0.00     0.024 C 
HETATM   10  C15 UNL     1      31.474  12.970  13.883  1.00  0.00     0.066 C 
HETATM   11  O4  UNL     1      30.240  12.962  13.449  1.00  0.00    -0.343 OA
HETATM   12  C16 UNL     1      29.097  13.365  13.884  1.00  0.00     0.074 C 
HETATM   13  C17 UNL     1      28.874  14.727  14.445  1.00  0.00     0.047 C 
HETATM   14  C18 UNL     1      28.128  13.293  12.673  1.00  0.00     0.039 C 
HETATM   15  C19 UNL     1      26.742  12.918  13.076  1.00  0.00     0.006 C 
HETATM   16  C20 UNL     1      26.690  11.463  13.525  1.00  0.00     0.032 C 
HETATM   17  C21 UNL     1      28.051  11.148  14.131  1.00  0.00     0.129 C 
HETATM   18  C22 UNL     1      28.500  12.367  14.870  1.00  0.00     0.083 C 
ENDROOT
BRANCH   7  19
HETATM   19  O2  UNL     1      34.598  13.108  13.338  1.00  0.00    -0.305 OA
BRANCH  19  20
HETATM   20  C8  UNL     1      34.504  12.446  12.161  1.00  0.00     0.255 C 
HETATM   21  C9  UNL     1      34.808  13.118  10.866  1.00  0.00     0.126 C 
HETATM   22  O3  UNL     1      34.153  11.261  12.239  1.00  0.00    -0.266 OA
ENDBRANCH  19  20
ENDBRANCH   7  19
BRANCH   7  23
HETATM   23  C10 UNL     1      34.365  15.518  13.428  1.00  0.00     0.017 C 
HETATM   24  C11 UNL     1      33.941  16.635  14.323  1.00  0.00     0.013 C 
HETATM   25  C12 UNL     1      35.885  15.484  13.459  1.00  0.00     0.013 C 
ENDBRANCH   7  23
BRANCH   3  26
HETATM   26  N1  UNL     1      31.185  11.520  17.225  1.00  0.00    -0.272 N 
ATOM     27  H1  UNL     1      30.540  11.406  18.006  1.00  0.00     0.194 HD
BRANCH  26  28
HETATM   28  O1  UNL     1      32.452  11.033  17.359  1.00  0.00    -0.290 OA
ATOM     29  H1  UNL     1      32.715  10.436  18.050  1.00  0.00     0.244 HD
ENDBRANCH  26  28
ENDBRANCH   3  26
BRANCH  17  30
HETATM   30  O5  UNL     1      27.930  10.028  14.926  1.00  0.00    -0.395 OA
ATOM     31  H5  UNL     1      28.798   9.694  15.114  1.00  0.00     0.210 HD
ENDBRANCH  17  30
TORSDOF 6
ENDMDL
MODEL 4
REMARK VINA RESULT: -5.547358863      4.034      5.864
REMARK  6 active torsions:
REMARK  status: ('A' for Active; 'I' for Inactive)
REMARK    1  A    between atoms: C3_3  and  N1_4 
REMARK    2  A    between atoms: N1_4  and  O1_6 
REMARK    3  A    between atoms: C7_11  and  O2_12 
REMARK    4  A    between atoms: C7_11  and  C10_16 
REMARK    5  A    between atoms: O2_12  and  C8_13 
REMARK    6  A    between atoms: C21_28  and  O5_29 
ROOT
HETATM    1  C1  UNL     1      31.665  12.476  17.514  1.00  0.00     0.021 C 
HETATM    2  C2  UNL     1      32.088  12.457  16.253  1.00  0.00    -0.033 C 
HETATM    3  C3  UNL     1      33.323  11.772  15.965  1.00  0.00     0.048 C 
HETATM    4  C4  UNL     1      34.223  11.815  14.851  1.00  0.00     0.095 C 
HETATM    5  C5  UNL     1      35.509  12.590  15.184  1.00  0.00     0.021 C 
HETATM    6  C6  UNL     1      36.551  12.086  14.225  1.00  0.00     0.045 C 
HETATM    7  C7  UNL     1      36.211  12.348  12.769  1.00  0.00     0.102 C 
HETATM    8  C13 UNL     1      34.848  12.899  12.703  1.00  0.00    -0.002 C 
HETATM    9  C14 UNL     1      34.505  13.888  11.909  1.00  0.00     0.024 C 
HETATM   10  C15 UNL     1      33.737  12.356  13.542  1.00  0.00     0.066 C 
HETATM   11  O4  UNL     1      32.584  12.966  13.454  1.00  0.00    -0.343 OA
HETATM   12  C16 UNL     1      31.928  13.825  14.155  1.00  0.00     0.074 C 
HETATM   13  C17 UNL     1      32.534  15.082  14.676  1.00  0.00     0.047 C 
HETATM   14  C18 UNL     1      30.763  14.314  13.252  1.00  0.00     0.039 C 
HETATM   15  C19 UNL     1      29.525  14.608  14.031  1.00  0.00     0.006 C 
HETATM   16  C20 UNL     1      28.908  13.319  14.559  1.00  0.00     0.032 C 
HETATM   17  C21 UNL     1      30.060  12.352  14.798  1.00  0.00     0.129 C 
HETATM   18  C22 UNL     1      31.210  13.153  15.319  1.00  0.00     0.083 C 
ENDROOT
BRANCH   7  19
HETATM   19  O2  UNL     1      36.285  11.046  12.177  1.00  0.00    -0.305 OA
BRANCH  19  20
HETATM   20  C8  UNL     1      36.833   9.937  12.728  1.00  0.00     0.255 C 
HETATM   21  C9  UNL     1      38.275   9.609  12.544  1.00  0.00     0.126 C 
HETATM   22  O3  UNL     1      36.060   9.226  13.384  1.00  0.00    -0.266 OA
ENDBRANCH  19  20
ENDBRANCH   7  19
BRANCH   7  23
HETATM   23  C10 UNL     1      37.258  13.264  12.189  1.00  0.00     0.017 C 
HETATM   24  C11 UNL     1      38.508  13.350  13.000  1.00  0.00     0.013 C 
HETATM   25  C12 UNL     1      37.673  12.841  10.787  1.00  0.00     0.013 C 
ENDBRANCH   7  23
BRANCH   3  26
HETATM   26  N1  UNL     1      33.678  10.955  16.917  1.00  0.00    -0.272 N 
ATOM     27  H1  UNL     1      33.055  10.846  17.717  1.00  0.00     0.194 HD
BRANCH  26  28
HETATM   28  O1  UNL     1      34.838  10.239  16.902  1.00  0.00    -0.290 OA
ATOM     29  H1  UNL     1      34.968   9.461  16.374  1.00  0.00     0.244 HD
ENDBRANCH  26  28
ENDBRANCH   3  26
BRANCH  17  30
HETATM   30  O5  UNL     1      29.634  11.364  15.659  1.00  0.00    -0.395 OA
ATOM     31  H5  UNL     1      28.963  10.851  15.224  1.00  0.00     0.210 HD
ENDBRANCH  17  30
TORSDOF 6
ENDMDL
MODEL 5
REMARK VINA RESULT: -5.453369024      3.250      5.830
REMARK  6 active torsions:
REMARK  status: ('A' for Active; 'I' for Inactive)
REMARK    1  A    between atoms: C3_3  and  N1_4 
REMARK    2  A    between atoms: N1_4  and  O1_6 
REMARK    3  A    between atoms: C7_11  and  O2_12 
REMARK    4  A    between atoms: C7_11  and  C10_16 
REMARK    5  A    between atoms: O2_12  and  C8_13 
REMARK    6  A    between atoms: C21_28  and  O5_29 
ROOT
HETATM    1  C1  UNL     1      28.530  14.111  14.389  1.00  0.00     0.021 C 
HETATM    2  C2  UNL     1      29.763  14.023  13.896  1.00  0.00    -0.033 C 
HETATM    3  C3  UNL     1      30.524  12.835  14.189  1.00  0.00     0.048 C 
HETATM    4  C4  UNL     1      31.922  12.532  14.121  1.00  0.00     0.095 C 
HETATM    5  C5  UNL     1      32.564  12.479  15.518  1.00  0.00     0.021 C 
HETATM    6  C6  UNL     1      33.791  11.621  15.372  1.00  0.00     0.045 C 
HETATM    7  C7  UNL     1      34.816  12.192  14.408  1.00  0.00     0.102 C 
HETATM    8  C13 UNL     1      34.233  13.375  13.758  1.00  0.00    -0.002 C 
HETATM    9  C14 UNL     1      34.903  14.483  13.536  1.00  0.00     0.024 C 
HETATM   10  C15 UNL     1      32.815  13.396  13.286  1.00  0.00     0.066 C 
HETATM   11  O4  UNL     1      32.380  14.523  12.784  1.00  0.00    -0.343 OA
HETATM   12  C16 UNL     1      31.659  15.509  13.193  1.00  0.00     0.074 C 
HETATM   13  C17 UNL     1      31.884  16.195  14.497  1.00  0.00     0.047 C 
HETATM   14  C18 UNL     1      31.836  16.636  12.139  1.00  0.00     0.039 C 
HETATM   15  C19 UNL     1      30.593  17.438  11.952  1.00  0.00     0.006 C 
HETATM   16  C20 UNL     1      29.523  16.608  11.254  1.00  0.00     0.032 C 
HETATM   17  C21 UNL     1      29.752  15.163  11.673  1.00  0.00     0.129 C 
HETATM   18  C22 UNL     1      30.174  15.179  13.107  1.00  0.00     0.083 C 
ENDROOT
BRANCH   7  19
HETATM   19  O2  UNL     1      35.019  11.121  13.478  1.00  0.00    -0.305 OA
BRANCH  19  20
HETATM   20  C8  UNL     1      35.425  11.233  12.192  1.00  0.00     0.255 C 
HETATM   21  C9  UNL     1      34.480  11.024  11.058  1.00  0.00     0.126 C 
HETATM   22  O3  UNL     1      36.619  11.516  12.029  1.00  0.00    -0.266 OA
ENDBRANCH  19  20
ENDBRANCH   7  19
BRANCH   7  23
HETATM   23  C10 UNL     1      36.081  12.488  15.172  1.00  0.00     0.017 C 
HETATM   24  C11 UNL     1      35.855  13.180  16.476  1.00  0.00     0.013 C 
HETATM   25  C12 UNL     1      36.873  11.226  15.478  1.00  0.00     0.013 C 
ENDBRANCH   7  23
BRANCH   3  26
HETATM   26  N1  UNL     1      29.775  11.847  14.596  1.00  0.00    -0.272 N 
ATOM     27  H1  UNL     1      29.275  11.300  13.895  1.00  0.00     0.194 HD
BRANCH  26  28
HETATM   28  O1  UNL     1      29.626  11.506  15.907  1.00  0.00    -0.290 OA
ATOM     29  H1  UNL     1      29.830  12.089  16.628  1.00  0.00     0.244 HD
ENDBRANCH  26  28
ENDBRANCH   3  26
BRANCH  17  30
HETATM   30  O5  UNL     1      28.596  14.448  11.440  1.00  0.00    -0.395 OA
ATOM     31  H5  UNL     1      27.915  14.778  12.013  1.00  0.00     0.210 HD
ENDBRANCH  17  30
TORSDOF 6
ENDMDL
