MODEL 1
REMARK VINA RESULT: -9.034150169      0.000      0.000
REMARK  10 active torsions:
REMARK  status: ('A' for Active; 'I' for Inactive)
REMARK    1  A    between atoms: C2_2  and  C4_4 
REMARK    2  A    between atoms: C4_4  and  N1_5 
REMARK    3  A    between atoms: C4_4  and  C23_33 
REMARK       I    between atoms: N1_5  and  C5_7 
REMARK    4  A    between atoms: C5_7  and  C6_9 
REMARK    5  A    between atoms: C6_9  and  C7_10 
REMARK    6  A    between atoms: C6_9  and  S1_25 
REMARK       I    between atoms: C7_10  and  N2_12 
REMARK    7  A    between atoms: C8_14  and  C9_15 
REMARK    8  A    between atoms: S1_25  and  C17_27 
REMARK    9  A    between atoms: C23_33  and  C24_35 
REMARK   10  A    between atoms: C24_35  and  C25_38 
ROOT
HETATM    1  C6  UNL     1     -87.762 -13.564  10.751  1.00  0.00     0.268 C 
ENDROOT
BRANCH   1   2
HETATM    2  C5  UNL     1     -88.950 -13.804  11.651  1.00  0.00     0.244 C 
HETATM    3  N1  UNL     1     -89.529 -15.097  11.747  1.00  0.00    -0.348 N 
ATOM      4  H1  UNL     1     -89.126 -15.854  11.196  1.00  0.00     0.163 HD
HETATM    5  O1  UNL     1     -89.383 -12.829  12.289  1.00  0.00    -0.272 OA
BRANCH   3   6
HETATM    6  C4  UNL     1     -90.668 -15.385  12.593  1.00  0.00     0.164 C 
BRANCH   6   7
HETATM    7  C2  UNL     1     -90.464 -16.651  13.387  1.00  0.00     0.008 C 
HETATM    8  C1  UNL     1     -90.682 -16.355  14.878  1.00  0.00     0.012 C 
HETATM    9  C3  UNL     1     -89.062 -17.200  13.264  1.00  0.00     0.012 C 
ENDBRANCH   6   7
BRANCH   6  10
HETATM   10  C23 UNL     1     -91.920 -15.318  11.837  1.00  0.00     0.230 C 
HETATM   11  O4  UNL     1     -92.640 -14.335  12.041  1.00  0.00    -0.288 OA
BRANCH  10  12
HETATM   12  C24 UNL     1     -92.381 -16.325  10.860  1.00  0.00     0.381 C 
HETATM   13  F1  UNL     1     -92.112 -17.638  11.281  1.00  0.00    -0.187 F 
HETATM   14  F2  UNL     1     -93.756 -16.193  10.615  1.00  0.00    -0.187 F 
BRANCH  12  15
HETATM   15  C25 UNL     1     -91.729 -16.219   9.534  1.00  0.00     0.311 C 
HETATM   16  N4  UNL     1     -90.559 -16.990   9.319  1.00  0.00    -0.056 NA
HETATM   17  O5  UNL     1     -92.178 -15.491   8.650  1.00  0.00    -0.270 OA
ENDBRANCH  12  15
ENDBRANCH  10  12
ENDBRANCH   6  10
ENDBRANCH   3   6
ENDBRANCH   1   2
BRANCH   1  18
HETATM   18  C7  UNL     1     -86.592 -13.127  11.567  1.00  0.00     0.247 C 
HETATM   19  O2  UNL     1     -86.299 -11.886  11.717  1.00  0.00    -0.271 OA
HETATM   20  N2  UNL     1     -85.763 -14.031  12.201  1.00  0.00    -0.335 N 
HETATM   21  C8  UNL     1     -85.758 -14.476  13.341  1.00  0.00     0.104 C 
ATOM     22  H2  UNL     1     -85.016 -14.396  11.609  1.00  0.00     0.168 HD
BRANCH  21  23
HETATM   23  C9  UNL     1     -86.648 -14.191  14.432  1.00  0.00     0.007 A 
HETATM   24  C10 UNL     1     -87.366 -13.063  14.717  1.00  0.00     0.102 A 
HETATM   25  N3  UNL     1     -88.083 -13.246  15.870  1.00  0.00    -0.364 N 
HETATM   26  C11 UNL     1     -87.856 -14.474  16.359  1.00  0.00     0.043 A 
ATOM     27  H3  UNL     1     -88.698 -12.551  16.294  1.00  0.00     0.165 HD
HETATM   28  C12 UNL     1     -88.336 -15.136  17.492  1.00  0.00     0.030 A 
HETATM   29  C16 UNL     1     -86.979 -15.065  15.491  1.00  0.00     0.004 A 
HETATM   30  C13 UNL     1     -87.909 -16.420  17.731  1.00  0.00     0.002 A 
HETATM   31  C14 UNL     1     -87.029 -17.009  16.855  1.00  0.00     0.001 A 
HETATM   32  C15 UNL     1     -86.562 -16.348  15.743  1.00  0.00     0.014 A 
ENDBRANCH  21  23
ENDBRANCH   1  18
BRANCH   1  33
HETATM   33  S1  UNL     1     -87.475 -14.986   9.744  1.00  0.00     0.072 S 
HETATM   34  O3  UNL     1     -86.259 -15.780  10.128  1.00  0.00    -0.251 OA
BRANCH  33  35
HETATM   35  C17 UNL     1     -87.479 -14.617   8.030  1.00  0.00     0.032 A 
HETATM   36  C18 UNL     1     -86.284 -14.283   7.389  1.00  0.00     0.021 A 
HETATM   37  C19 UNL     1     -86.297 -13.979   6.047  1.00  0.00     0.001 A 
HETATM   38  C20 UNL     1     -87.448 -13.992   5.305  1.00  0.00     0.000 A 
HETATM   39  C21 UNL     1     -88.612 -14.319   5.936  1.00  0.00     0.001 A 
HETATM   40  C22 UNL     1     -88.632 -14.632   7.299  1.00  0.00     0.021 A 
ENDBRANCH  33  35
ENDBRANCH   1  33
TORSDOF 10
ENDMDL
MODEL 2
REMARK VINA RESULT: -8.912671598      2.555      5.617
REMARK  10 active torsions:
REMARK  status: ('A' for Active; 'I' for Inactive)
REMARK    1  A    between atoms: C2_2  and  C4_4 
REMARK    2  A    between atoms: C4_4  and  N1_5 
REMARK    3  A    between atoms: C4_4  and  C23_33 
REMARK       I    between atoms: N1_5  and  C5_7 
REMARK    4  A    between atoms: C5_7  and  C6_9 
REMARK    5  A    between atoms: C6_9  and  C7_10 
REMARK    6  A    between atoms: C6_9  and  S1_25 
REMARK       I    between atoms: C7_10  and  N2_12 
REMARK    7  A    between atoms: C8_14  and  C9_15 
REMARK    8  A    between atoms: S1_25  and  C17_27 
REMARK    9  A    between atoms: C23_33  and  C24_35 
REMARK   10  A    between atoms: C24_35  and  C25_38 
ROOT
HETATM    1  C6  UNL     1     -87.808 -14.548  12.085  1.00  0.00     0.268 C 
ENDROOT
BRANCH   1   2
HETATM    2  C5  UNL     1     -87.142 -14.801  13.416  1.00  0.00     0.244 C 
HETATM    3  N1  UNL     1     -86.781 -16.120  13.799  1.00  0.00    -0.348 N 
ATOM      4  H1  UNL     1     -86.982 -16.887  13.158  1.00  0.00     0.163 HD
HETATM    5  O1  UNL     1     -86.932 -13.813  14.141  1.00  0.00    -0.272 OA
BRANCH   3   6
HETATM    6  C4  UNL     1     -86.140 -16.421  15.062  1.00  0.00     0.164 C 
BRANCH   6   7
HETATM    7  C2  UNL     1     -84.877 -17.223  14.867  1.00  0.00     0.008 C 
HETATM    8  C1  UNL     1     -83.731 -16.275  14.481  1.00  0.00     0.012 C 
HETATM    9  C3  UNL     1     -84.990 -18.230  13.746  1.00  0.00     0.012 C 
ENDBRANCH   6   7
BRANCH   6  10
HETATM   10  C23 UNL     1     -87.094 -16.984  16.019  1.00  0.00     0.230 C 
HETATM   11  O4  UNL     1     -86.839 -16.825  17.217  1.00  0.00    -0.288 OA
BRANCH  10  12
HETATM   12  C24 UNL     1     -88.325 -17.720  15.664  1.00  0.00     0.381 C 
HETATM   13  F1  UNL     1     -88.188 -18.441  14.467  1.00  0.00    -0.187 F 
HETATM   14  F2  UNL     1     -88.697 -18.601  16.690  1.00  0.00    -0.187 F 
BRANCH  12  15
HETATM   15  C25 UNL     1     -89.502 -16.849  15.440  1.00  0.00     0.311 C 
HETATM   16  N4  UNL     1     -89.402 -15.497  15.854  1.00  0.00    -0.056 NA
HETATM   17  O5  UNL     1     -90.531 -17.276  14.918  1.00  0.00    -0.270 OA
ENDBRANCH  12  15
ENDBRANCH  10  12
ENDBRANCH   6  10
ENDBRANCH   3   6
ENDBRANCH   1   2
BRANCH   1  18
HETATM   18  C7  UNL     1     -88.974 -13.637  12.272  1.00  0.00     0.247 C 
HETATM   19  O2  UNL     1     -89.027 -12.483  11.710  1.00  0.00    -0.271 OA
HETATM   20  N2  UNL     1     -90.056 -13.983  13.057  1.00  0.00    -0.335 N 
HETATM   21  C8  UNL     1     -91.134 -14.493  12.785  1.00  0.00     0.104 C 
ATOM     22  H2  UNL     1     -89.934 -13.774  14.049  1.00  0.00     0.168 HD
BRANCH  21  23
HETATM   23  C9  UNL     1     -91.645 -14.915  11.510  1.00  0.00     0.007 A 
HETATM   24  C10 UNL     1     -92.565 -14.328  10.687  1.00  0.00     0.102 A 
HETATM   25  N3  UNL     1     -92.743 -15.094   9.565  1.00  0.00    -0.364 N 
HETATM   26  C11 UNL     1     -91.959 -16.180   9.625  1.00  0.00     0.043 A 
ATOM     27  H3  UNL     1     -93.378 -14.871   8.799  1.00  0.00     0.165 HD
HETATM   28  C12 UNL     1     -91.772 -17.252   8.748  1.00  0.00     0.030 A 
HETATM   29  C16 UNL     1     -91.280 -16.086  10.809  1.00  0.00     0.004 A 
HETATM   30  C13 UNL     1     -90.877 -18.235   9.095  1.00  0.00     0.002 A 
HETATM   31  C14 UNL     1     -90.199 -18.135  10.286  1.00  0.00     0.001 A 
HETATM   32  C15 UNL     1     -90.389 -17.076  11.143  1.00  0.00     0.014 A 
ENDBRANCH  21  23
ENDBRANCH   1  18
BRANCH   1  33
HETATM   33  S1  UNL     1     -86.612 -13.992  10.911  1.00  0.00     0.072 S 
HETATM   34  O3  UNL     1     -86.067 -12.620  11.187  1.00  0.00    -0.251 OA
BRANCH  33  35
HETATM   35  C17 UNL     1     -87.168 -14.135   9.255  1.00  0.00     0.032 A 
HETATM   36  C18 UNL     1     -88.254 -14.961   8.955  1.00  0.00     0.021 A 
HETATM   37  C19 UNL     1     -88.676 -15.080   7.651  1.00  0.00     0.001 A 
HETATM   38  C20 UNL     1     -88.066 -14.414   6.622  1.00  0.00     0.000 A 
HETATM   39  C21 UNL     1     -87.006 -13.609   6.919  1.00  0.00     0.001 A 
HETATM   40  C22 UNL     1     -86.553 -13.467   8.234  1.00  0.00     0.021 A 
ENDBRANCH  33  35
ENDBRANCH   1  33
TORSDOF 10
ENDMDL
MODEL 3
REMARK VINA RESULT: -8.861039118      2.986      6.143
REMARK  10 active torsions:
REMARK  status: ('A' for Active; 'I' for Inactive)
REMARK    1  A    between atoms: C2_2  and  C4_4 
REMARK    2  A    between atoms: C4_4  and  N1_5 
REMARK    3  A    between atoms: C4_4  and  C23_33 
REMARK       I    between atoms: N1_5  and  C5_7 
REMARK    4  A    between atoms: C5_7  and  C6_9 
REMARK    5  A    between atoms: C6_9  and  C7_10 
REMARK    6  A    between atoms: C6_9  and  S1_25 
REMARK       I    between atoms: C7_10  and  N2_12 
REMARK    7  A    between atoms: C8_14  and  C9_15 
REMARK    8  A    between atoms: S1_25  and  C17_27 
REMARK    9  A    between atoms: C23_33  and  C24_35 
REMARK   10  A    between atoms: C24_35  and  C25_38 
ROOT
HETATM    1  C6  UNL     1     -88.134 -14.589  12.423  1.00  0.00     0.268 C 
ENDROOT
BRANCH   1   2
HETATM    2  C5  UNL     1     -87.702 -14.617  13.869  1.00  0.00     0.244 C 
HETATM    3  N1  UNL     1     -86.399 -15.058  14.220  1.00  0.00    -0.348 N 
ATOM      4  H1  UNL     1     -85.767 -15.355  13.477  1.00  0.00     0.163 HD
HETATM    5  O1  UNL     1     -88.531 -14.241  14.715  1.00  0.00    -0.272 OA
BRANCH   3   6
HETATM    6  C4  UNL     1     -85.930 -15.106  15.589  1.00  0.00     0.164 C 
BRANCH   6   7
HETATM    7  C2  UNL     1     -84.568 -14.474  15.732  1.00  0.00     0.008 C 
HETATM    8  C1  UNL     1     -84.377 -14.005  17.183  1.00  0.00     0.012 C 
HETATM    9  C3  UNL     1     -84.396 -13.249  14.865  1.00  0.00     0.012 C 
ENDBRANCH   6   7
BRANCH   6  10
HETATM   10  C23 UNL     1     -86.053 -16.455  16.145  1.00  0.00     0.230 C 
HETATM   11  O4  UNL     1     -85.122 -17.235  15.921  1.00  0.00    -0.288 OA
BRANCH  10  12
HETATM   12  C24 UNL     1     -87.193 -16.948  16.944  1.00  0.00     0.381 C 
HETATM   13  F1  UNL     1     -86.779 -17.721  18.041  1.00  0.00    -0.187 F 
HETATM   14  F2  UNL     1     -87.982 -15.883  17.404  1.00  0.00    -0.187 F 
BRANCH  12  15
HETATM   15  C25 UNL     1     -88.115 -17.831  16.194  1.00  0.00     0.311 C 
HETATM   16  N4  UNL     1     -88.871 -18.770  16.940  1.00  0.00    -0.056 NA
HETATM   17  O5  UNL     1     -88.226 -17.760  14.971  1.00  0.00    -0.270 OA
ENDBRANCH  12  15
ENDBRANCH  10  12
ENDBRANCH   6  10
ENDBRANCH   3   6
ENDBRANCH   1   2
BRANCH   1  18
HETATM   18  C7  UNL     1     -89.228 -13.591  12.244  1.00  0.00     0.247 C 
HETATM   19  O2  UNL     1     -89.045 -12.497  11.597  1.00  0.00    -0.271 OA
HETATM   20  N2  UNL     1     -90.492 -13.788  12.764  1.00  0.00    -0.335 N 
HETATM   21  C8  UNL     1     -91.514 -14.252  12.276  1.00  0.00     0.104 C 
ATOM     22  H2  UNL     1     -90.593 -13.491  13.735  1.00  0.00     0.168 HD
BRANCH  21  23
HETATM   23  C9  UNL     1     -91.738 -14.762  10.951  1.00  0.00     0.007 A 
HETATM   24  C10 UNL     1     -92.356 -14.189   9.875  1.00  0.00     0.102 A 
HETATM   25  N3  UNL     1     -92.337 -15.054   8.812  1.00  0.00    -0.364 N 
HETATM   26  C11 UNL     1     -91.719 -16.191   9.160  1.00  0.00     0.043 A 
ATOM     27  H3  UNL     1     -92.735 -14.860   7.893  1.00  0.00     0.165 HD
HETATM   28  C12 UNL     1     -91.444 -17.364   8.452  1.00  0.00     0.030 A 
HETATM   29  C16 UNL     1     -91.347 -16.030  10.466  1.00  0.00     0.004 A 
HETATM   30  C13 UNL     1     -90.779 -18.378   9.096  1.00  0.00     0.002 A 
HETATM   31  C14 UNL     1     -90.407 -18.210  10.408  1.00  0.00     0.001 A 
HETATM   32  C15 UNL     1     -90.682 -17.052  11.098  1.00  0.00     0.014 A 
ENDBRANCH  21  23
ENDBRANCH   1  18
BRANCH   1  33
HETATM   33  S1  UNL     1     -86.729 -14.346  11.381  1.00  0.00     0.072 S 
HETATM   34  O3  UNL     1     -85.933 -13.112  11.695  1.00  0.00    -0.251 OA
BRANCH  33  35
HETATM   35  C17 UNL     1     -87.126 -14.431   9.675  1.00  0.00     0.032 A 
HETATM   36  C18 UNL     1     -86.515 -13.555   8.775  1.00  0.00     0.021 A 
HETATM   37  C19 UNL     1     -86.842 -13.617   7.440  1.00  0.00     0.001 A 
HETATM   38  C20 UNL     1     -87.754 -14.514   6.952  1.00  0.00     0.000 A 
HETATM   39  C21 UNL     1     -88.349 -15.367   7.834  1.00  0.00     0.001 A 
HETATM   40  C22 UNL     1     -88.037 -15.329   9.197  1.00  0.00     0.021 A 
ENDBRANCH  33  35
ENDBRANCH   1  33
TORSDOF 10
ENDMDL
MODEL 4
REMARK VINA RESULT: -8.833910499      1.270      1.562
REMARK  10 active torsions:
REMARK  status: ('A' for Active; 'I' for Inactive)
REMARK    1  A    between atoms: C2_2  and  C4_4 
REMARK    2  A    between atoms: C4_4  and  N1_5 
REMARK    3  A    between atoms: C4_4  and  C23_33 
REMARK       I    between atoms: N1_5  and  C5_7 
REMARK    4  A    between atoms: C5_7  and  C6_9 
REMARK    5  A    between atoms: C6_9  and  C7_10 
REMARK    6  A    between atoms: C6_9  and  S1_25 
REMARK       I    between atoms: C7_10  and  N2_12 
REMARK    7  A    between atoms: C8_14  and  C9_15 
REMARK    8  A    between atoms: S1_25  and  C17_27 
REMARK    9  A    between atoms: C23_33  and  C24_35 
REMARK   10  A    between atoms: C24_35  and  C25_38 
ROOT
HETATM    1  C6  UNL     1     -88.717 -13.366  11.224  1.00  0.00     0.268 C 
ENDROOT
BRANCH   1   2
HETATM    2  C5  UNL     1     -89.837 -14.035  11.983  1.00  0.00     0.244 C 
HETATM    3  N1  UNL     1     -90.221 -15.366  11.672  1.00  0.00    -0.348 N 
ATOM      4  H1  UNL     1     -89.725 -15.856  10.928  1.00  0.00     0.163 HD
HETATM    5  O1  UNL     1     -90.393 -13.370  12.875  1.00  0.00    -0.272 OA
BRANCH   3   6
HETATM    6  C4  UNL     1     -91.287 -16.057  12.367  1.00  0.00     0.164 C 
BRANCH   6   7
HETATM    7  C2  UNL     1     -90.752 -16.944  13.463  1.00  0.00     0.008 C 
HETATM    8  C1  UNL     1     -90.915 -16.234  14.815  1.00  0.00     0.012 C 
HETATM    9  C3  UNL     1     -89.277 -17.237  13.312  1.00  0.00     0.012 C 
ENDBRANCH   6   7
BRANCH   6  10
HETATM   10  C23 UNL     1     -92.197 -16.710  11.424  1.00  0.00     0.230 C 
HETATM   11  O4  UNL     1     -93.369 -16.318  11.422  1.00  0.00    -0.288 OA
BRANCH  10  12
HETATM   12  C24 UNL     1     -91.825 -17.789  10.486  1.00  0.00     0.381 C 
HETATM   13  F1  UNL     1     -90.520 -18.260  10.708  1.00  0.00    -0.187 F 
HETATM   14  F2  UNL     1     -92.722 -18.862  10.574  1.00  0.00    -0.187 F 
BRANCH  12  15
HETATM   15  C25 UNL     1     -91.834 -17.377   9.063  1.00  0.00     0.311 C 
HETATM   16  N4  UNL     1     -91.772 -15.988   8.785  1.00  0.00    -0.056 NA
HETATM   17  O5  UNL     1     -91.893 -18.203   8.153  1.00  0.00    -0.270 OA
ENDBRANCH  12  15
ENDBRANCH  10  12
ENDBRANCH   6  10
ENDBRANCH   3   6
ENDBRANCH   1   2
BRANCH   1  18
HETATM   18  C7  UNL     1     -87.935 -12.492  12.145  1.00  0.00     0.247 C 
HETATM   19  O2  UNL     1     -88.407 -11.383  12.588  1.00  0.00    -0.271 OA
HETATM   20  N2  UNL     1     -86.665 -12.827  12.570  1.00  0.00    -0.335 N 
HETATM   21  C8  UNL     1     -86.262 -13.399  13.575  1.00  0.00     0.104 C 
ATOM     22  H2  UNL     1     -85.924 -12.546  11.927  1.00  0.00     0.168 HD
BRANCH  21  23
HETATM   23  C9  UNL     1     -87.011 -13.927  14.682  1.00  0.00     0.007 A 
HETATM   24  C10 UNL     1     -87.970 -13.342  15.460  1.00  0.00     0.102 A 
HETATM   25  N3  UNL     1     -88.410 -14.233  16.405  1.00  0.00    -0.364 N 
HETATM   26  C11 UNL     1     -87.761 -15.398  16.270  1.00  0.00     0.043 A 
ATOM     27  H3  UNL     1     -89.124 -14.037  17.106  1.00  0.00     0.165 HD
HETATM   28  C12 UNL     1     -87.842 -16.603  16.973  1.00  0.00     0.030 A 
HETATM   29  C16 UNL     1     -86.901 -15.228  15.220  1.00  0.00     0.004 A 
HETATM   30  C13 UNL     1     -87.029 -17.642  16.589  1.00  0.00     0.002 A 
HETATM   31  C14 UNL     1     -86.167 -17.465  15.534  1.00  0.00     0.001 A 
HETATM   32  C15 UNL     1     -86.095 -16.275  14.848  1.00  0.00     0.014 A 
ENDBRANCH  21  23
ENDBRANCH   1  18
BRANCH   1  33
HETATM   33  S1  UNL     1     -87.765 -14.581  10.366  1.00  0.00     0.072 S 
HETATM   34  O3  UNL     1     -86.423 -14.861  10.980  1.00  0.00    -0.251 OA
BRANCH  33  35
HETATM   35  C17 UNL     1     -87.622 -14.245   8.651  1.00  0.00     0.032 A 
HETATM   36  C18 UNL     1     -88.556 -14.775   7.759  1.00  0.00     0.021 A 
HETATM   37  C19 UNL     1     -88.430 -14.520   6.413  1.00  0.00     0.001 A 
HETATM   38  C20 UNL     1     -87.411 -13.758   5.905  1.00  0.00     0.000 A 
HETATM   39  C21 UNL     1     -86.500 -13.243   6.781  1.00  0.00     0.001 A 
HETATM   40  C22 UNL     1     -86.602 -13.484   8.154  1.00  0.00     0.021 A 
ENDBRANCH  33  35
ENDBRANCH   1  33
TORSDOF 10
ENDMDL
MODEL 5
REMARK VINA RESULT: -8.815629830      2.960      5.484
REMARK  10 active torsions:
REMARK  status: ('A' for Active; 'I' for Inactive)
REMARK    1  A    between atoms: C2_2  and  C4_4 
REMARK    2  A    between atoms: C4_4  and  N1_5 
REMARK    3  A    between atoms: C4_4  and  C23_33 
REMARK       I    between atoms: N1_5  and  C5_7 
REMARK    4  A    between atoms: C5_7  and  C6_9 
REMARK    5  A    between atoms: C6_9  and  C7_10 
REMARK    6  A    between atoms: C6_9  and  S1_25 
REMARK       I    between atoms: C7_10  and  N2_12 
REMARK    7  A    between atoms: C8_14  and  C9_15 
REMARK    8  A    between atoms: S1_25  and  C17_27 
REMARK    9  A    between atoms: C23_33  and  C24_35 
REMARK   10  A    between atoms: C24_35  and  C25_38 
ROOT
HETATM    1  C6  UNL     1     -89.194 -16.392  13.082  1.00  0.00     0.268 C 
ENDROOT
BRANCH   1   2
HETATM    2  C5  UNL     1     -90.456 -16.962  12.483  1.00  0.00     0.244 C 
HETATM    3  N1  UNL     1     -90.578 -17.116  11.076  1.00  0.00    -0.348 N 
ATOM      4  H1  UNL     1     -89.797 -16.833  10.485  1.00  0.00     0.163 HD
HETATM    5  O1  UNL     1     -91.363 -17.281  13.271  1.00  0.00    -0.272 OA
BRANCH   3   6
HETATM    6  C4  UNL     1     -91.765 -17.656  10.447  1.00  0.00     0.164 C 
BRANCH   6   7
HETATM    7  C2  UNL     1     -91.497 -18.074   9.023  1.00  0.00     0.008 C 
HETATM    8  C1  UNL     1     -92.533 -19.126   8.600  1.00  0.00     0.012 C 
HETATM    9  C3  UNL     1     -90.142 -18.718   8.846  1.00  0.00     0.012 C 
ENDBRANCH   6   7
BRANCH   6  10
HETATM   10  C23 UNL     1     -92.913 -16.767  10.630  1.00  0.00     0.230 C 
HETATM   11  O4  UNL     1     -93.905 -17.248  11.189  1.00  0.00    -0.288 OA
BRANCH  10  12
HETATM   12  C24 UNL     1     -92.975 -15.354  10.204  1.00  0.00     0.381 C 
HETATM   13  F1  UNL     1     -91.780 -14.927   9.601  1.00  0.00    -0.187 F 
HETATM   14  F2  UNL     1     -94.039 -15.145   9.314  1.00  0.00    -0.187 F 
BRANCH  12  15
HETATM   15  C25 UNL     1     -93.193 -14.400  11.315  1.00  0.00     0.311 C 
HETATM   16  N4  UNL     1     -94.389 -13.639  11.298  1.00  0.00    -0.056 NA
HETATM   17  O5  UNL     1     -92.371 -14.266  12.222  1.00  0.00    -0.270 OA
ENDBRANCH  12  15
ENDBRANCH  10  12
ENDBRANCH   6  10
ENDBRANCH   3   6
ENDBRANCH   1   2
BRANCH   1  18
HETATM   18  C7  UNL     1     -88.462 -15.597  12.053  1.00  0.00     0.247 C 
HETATM   19  O2  UNL     1     -89.078 -14.829  11.230  1.00  0.00    -0.271 OA
HETATM   20  N2  UNL     1     -87.088 -15.647  11.930  1.00  0.00    -0.335 N 
HETATM   21  C8  UNL     1     -86.200 -14.940  12.387  1.00  0.00     0.104 C 
ATOM     22  H2  UNL     1     -86.750 -16.416  11.351  1.00  0.00     0.168 HD
BRANCH  21  23
HETATM   23  C9  UNL     1     -86.303 -13.783  13.233  1.00  0.00     0.007 A 
HETATM   24  C10 UNL     1     -87.054 -12.649  13.093  1.00  0.00     0.102 A 
HETATM   25  N3  UNL     1     -86.830 -11.809  14.152  1.00  0.00    -0.364 N 
HETATM   26  C11 UNL     1     -85.945 -12.361  14.994  1.00  0.00     0.043 A 
ATOM     27  H3  UNL     1     -87.272 -10.899  14.281  1.00  0.00     0.165 HD
HETATM   28  C12 UNL     1     -85.393 -11.918  16.199  1.00  0.00     0.030 A 
HETATM   29  C16 UNL     1     -85.612 -13.569  14.446  1.00  0.00     0.004 A 
HETATM   30  C13 UNL     1     -84.491 -12.728  16.844  1.00  0.00     0.002 A 
HETATM   31  C14 UNL     1     -84.160 -13.941  16.288  1.00  0.00     0.001 A 
HETATM   32  C15 UNL     1     -84.709 -14.369  15.102  1.00  0.00     0.014 A 
ENDBRANCH  21  23
ENDBRANCH   1  18
BRANCH   1  33
HETATM   33  S1  UNL     1     -89.577 -15.513  14.565  1.00  0.00     0.072 S 
HETATM   34  O3  UNL     1     -89.844 -14.049  14.364  1.00  0.00    -0.251 OA
BRANCH  33  35
HETATM   35  C17 UNL     1     -88.397 -15.777  15.835  1.00  0.00     0.032 A 
HETATM   36  C18 UNL     1     -88.281 -14.855  16.878  1.00  0.00     0.021 A 
HETATM   37  C19 UNL     1     -87.343 -15.060  17.863  1.00  0.00     0.001 A 
HETATM   38  C20 UNL     1     -86.507 -16.146  17.862  1.00  0.00     0.000 A 
HETATM   39  C21 UNL     1     -86.624 -17.043  16.842  1.00  0.00     0.001 A 
HETATM   40  C22 UNL     1     -87.568 -16.862  15.826  1.00  0.00     0.021 A 
ENDBRANCH  33  35
ENDBRANCH   1  33
TORSDOF 10
ENDMDL
