MODEL 1
REMARK VINA RESULT: -8.538391339      0.000      0.000
REMARK  6 active torsions:
REMARK  status: ('A' for Active; 'I' for Inactive)
REMARK    1  A    between atoms: C2_2  and  C3_3 
REMARK    2  A    between atoms: C3_3  and  C4_4 
REMARK    3  A    between atoms: C4_4  and  C5_5 
REMARK    4  A    between atoms: C10_11  and  C11_12 
REMARK    5  A    between atoms: C15_19  and  N1_20 
REMARK    6  A    between atoms: N4_29  and  C18_30 
ROOT
HETATM    1  C1  UNL     1     -88.264 -18.785  10.985  1.00  0.00     0.024 C 
HETATM    2  C2  UNL     1     -88.343 -17.334  11.482  1.00  0.00     0.023 C 
HETATM    3  C9  UNL     1     -86.957 -16.974  11.949  1.00  0.00     0.037 C 
HETATM    4  C10 UNL     1     -86.090 -16.173  11.080  1.00  0.00     0.145 C 
HETATM    5  C12 UNL     1     -86.411 -16.140   9.646  1.00  0.00     0.041 A 
HETATM    6  C13 UNL     1     -87.769 -16.268   9.298  1.00  0.00     0.052 A 
HETATM    7  C14 UNL     1     -87.844 -16.193   7.955  1.00  0.00     0.068 A 
HETATM    8  C15 UNL     1     -88.901 -16.252   7.085  1.00  0.00     0.114 A 
HETATM    9  N2  UNL     1     -88.646 -16.140   5.773  1.00  0.00    -0.338 N 
ATOM     10  H2  UNL     1     -89.423 -16.182   5.115  1.00  0.00     0.168 HD
HETATM   11  C16 UNL     1     -87.399 -15.975   5.299  1.00  0.00     0.183 A 
HETATM   12  N3  UNL     1     -86.376 -15.920   6.166  1.00  0.00    -0.338 N 
ATOM     13  H3  UNL     1     -85.433 -15.795   5.798  1.00  0.00     0.168 HD
HETATM   14  C17 UNL     1     -86.535 -16.022   7.482  1.00  0.00     0.124 A 
HETATM   15  N4  UNL     1     -85.691 -15.995   8.543  1.00  0.00    -0.330 N 
HETATM   16  C24 UNL     1     -88.746 -16.454  10.377  1.00  0.00     0.171 C 
HETATM   17  O1  UNL     1     -89.821 -15.855  10.267  1.00  0.00    -0.291 OA
ENDROOT
BRANCH   2  18
HETATM   18  C3  UNL     1     -89.242 -17.247  12.686  1.00  0.00     0.022 C 
BRANCH  18  19
HETATM   19  C4  UNL     1     -88.703 -17.798  13.951  1.00  0.00     0.040 C 
BRANCH  19  20
HETATM   20  C5  UNL     1     -89.515 -18.999  14.410  1.00  0.00    -0.051 A 
HETATM   21  C6  UNL     1     -89.041 -20.251  14.410  1.00  0.00     0.014 A 
HETATM   22  C7  UNL     1     -89.876 -21.243  14.848  1.00  0.00     0.050 A 
HETATM   23  S1  UNL     1     -91.299 -20.392  15.248  1.00  0.00    -0.113 SA
HETATM   24  C8  UNL     1     -90.796 -18.812  14.850  1.00  0.00     0.056 A 
ENDBRANCH  19  20
ENDBRANCH  18  19
ENDBRANCH   2  18
BRANCH   4  25
HETATM   25  C11 UNL     1     -86.026 -14.762  11.690  1.00  0.00     0.396 C 
HETATM   26  F1  UNL     1     -86.435 -14.835  13.034  1.00  0.00    -0.170 F 
HETATM   27  F2  UNL     1     -84.762 -14.248  11.722  1.00  0.00    -0.170 F 
HETATM   28  F3  UNL     1     -86.926 -13.899  11.102  1.00  0.00    -0.170 F 
ENDBRANCH   4  25
BRANCH  15  29
HETATM   29  C18 UNL     1     -84.234 -15.848   8.381  1.00  0.00     0.091 C 
HETATM   30  C19 UNL     1     -83.440 -16.802   9.182  1.00  0.00     0.026 C 
HETATM   31  C20 UNL     1     -82.439 -16.229  10.110  1.00  0.00     0.002 C 
HETATM   32  C21 UNL     1     -81.784 -14.965   9.691  1.00  0.00     0.000 C 
HETATM   33  C22 UNL     1     -82.378 -14.282   8.505  1.00  0.00     0.002 C 
HETATM   34  C23 UNL     1     -83.892 -14.395   8.642  1.00  0.00     0.026 C 
ENDBRANCH  15  29
BRANCH   8  35
HETATM   35  N1  UNL     1     -90.111 -16.415   7.459  1.00  0.00    -0.385 N 
ATOM     36  H12 UNL     1     -90.752 -15.624   7.394  1.00  0.00     0.157 HD
ATOM     37  H11 UNL     1     -90.474 -17.299   7.816  1.00  0.00     0.157 HD
ENDBRANCH   8  35
TORSDOF 6
ENDMDL
MODEL 2
REMARK VINA RESULT: -8.348589156      0.988      1.607
REMARK  6 active torsions:
REMARK  status: ('A' for Active; 'I' for Inactive)
REMARK    1  A    between atoms: C2_2  and  C3_3 
REMARK    2  A    between atoms: C3_3  and  C4_4 
REMARK    3  A    between atoms: C4_4  and  C5_5 
REMARK    4  A    between atoms: C10_11  and  C11_12 
REMARK    5  A    between atoms: C15_19  and  N1_20 
REMARK    6  A    between atoms: N4_29  and  C18_30 
ROOT
HETATM    1  C1  UNL     1     -87.986 -18.801  11.241  1.00  0.00     0.024 C 
HETATM    2  C2  UNL     1     -88.094 -17.356  11.749  1.00  0.00     0.023 C 
HETATM    3  C9  UNL     1     -86.683 -16.885  11.978  1.00  0.00     0.037 C 
HETATM    4  C10 UNL     1     -86.039 -16.026  10.979  1.00  0.00     0.145 C 
HETATM    5  C12 UNL     1     -86.598 -16.032   9.620  1.00  0.00     0.041 A 
HETATM    6  C13 UNL     1     -87.982 -16.268   9.505  1.00  0.00     0.052 A 
HETATM    7  C14 UNL     1     -88.287 -16.212   8.194  1.00  0.00     0.068 A 
HETATM    8  C15 UNL     1     -89.467 -16.361   7.514  1.00  0.00     0.114 A 
HETATM    9  N2  UNL     1     -89.446 -16.242   6.178  1.00  0.00    -0.338 N 
ATOM     10  H2  UNL     1     -90.317 -16.350   5.660  1.00  0.00     0.168 HD
HETATM   11  C16 UNL     1     -88.313 -15.984   5.502  1.00  0.00     0.183 A 
HETATM   12  N3  UNL     1     -87.167 -15.842   6.185  1.00  0.00    -0.338 N 
ATOM     13  H3  UNL     1     -86.312 -15.646   5.664  1.00  0.00     0.168 HD
HETATM   14  C17 UNL     1     -87.093 -15.943   7.508  1.00  0.00     0.124 A 
HETATM   15  N4  UNL     1     -86.088 -15.841   8.412  1.00  0.00    -0.330 N 
HETATM   16  C24 UNL     1     -88.745 -16.520  10.731  1.00  0.00     0.171 C 
HETATM   17  O1  UNL     1     -89.867 -16.008  10.807  1.00  0.00    -0.291 OA
ENDROOT
BRANCH   2  18
HETATM   18  C3  UNL     1     -88.782 -17.329  13.088  1.00  0.00     0.022 C 
BRANCH  18  19
HETATM   19  C4  UNL     1     -88.235 -18.230  14.127  1.00  0.00     0.040 C 
BRANCH  19  20
HETATM   20  C5  UNL     1     -89.240 -19.313  14.492  1.00  0.00    -0.051 A 
HETATM   21  C6  UNL     1     -88.989 -20.621  14.368  1.00  0.00     0.014 A 
HETATM   22  C7  UNL     1     -89.980 -21.492  14.732  1.00  0.00     0.050 A 
HETATM   23  S1  UNL     1     -91.233 -20.452  15.237  1.00  0.00    -0.113 SA
HETATM   24  C8  UNL     1     -90.468 -18.950  14.974  1.00  0.00     0.056 A 
ENDBRANCH  19  20
ENDBRANCH  18  19
ENDBRANCH   2  18
BRANCH   4  25
HETATM   25  C11 UNL     1     -85.985 -14.609  11.576  1.00  0.00     0.396 C 
HETATM   26  F1  UNL     1     -84.991 -13.877  10.904  1.00  0.00    -0.170 F 
HETATM   27  F2  UNL     1     -87.141 -13.906  11.393  1.00  0.00    -0.170 F 
HETATM   28  F3  UNL     1     -85.581 -14.614  12.894  1.00  0.00    -0.170 F 
ENDBRANCH   4  25
BRANCH  15  29
HETATM   29  C18 UNL     1     -84.695 -15.582   8.007  1.00  0.00     0.091 C 
HETATM   30  C19 UNL     1     -84.560 -14.991   6.660  1.00  0.00     0.026 C 
HETATM   31  C20 UNL     1     -83.706 -15.716   5.693  1.00  0.00     0.002 C 
HETATM   32  C21 UNL     1     -82.541 -16.450   6.246  1.00  0.00     0.000 C 
HETATM   33  C22 UNL     1     -82.496 -16.583   7.732  1.00  0.00     0.002 C 
HETATM   34  C23 UNL     1     -83.921 -16.871   8.192  1.00  0.00     0.026 C 
ENDBRANCH  15  29
BRANCH   8  35
HETATM   35  N1  UNL     1     -90.580 -16.615   8.085  1.00  0.00    -0.385 N 
ATOM     36  H12 UNL     1     -91.442 -16.470   7.559  1.00  0.00     0.157 HD
ATOM     37  H11 UNL     1     -90.654 -16.960   9.042  1.00  0.00     0.157 HD
ENDBRANCH   8  35
TORSDOF 6
ENDMDL
MODEL 3
REMARK VINA RESULT: -8.313329808      4.018      7.838
REMARK  6 active torsions:
REMARK  status: ('A' for Active; 'I' for Inactive)
REMARK    1  A    between atoms: C2_2  and  C3_3 
REMARK    2  A    between atoms: C3_3  and  C4_4 
REMARK    3  A    between atoms: C4_4  and  C5_5 
REMARK    4  A    between atoms: C10_11  and  C11_12 
REMARK    5  A    between atoms: C15_19  and  N1_20 
REMARK    6  A    between atoms: N4_29  and  C18_30 
ROOT
HETATM    1  C1  UNL     1     -84.085 -17.688  12.222  1.00  0.00     0.024 C 
HETATM    2  C2  UNL     1     -85.270 -17.030  11.500  1.00  0.00     0.023 C 
HETATM    3  C9  UNL     1     -86.366 -18.062  11.465  1.00  0.00     0.037 C 
HETATM    4  C10 UNL     1     -87.467 -17.977  12.429  1.00  0.00     0.145 C 
HETATM    5  C12 UNL     1     -87.237 -17.195  13.652  1.00  0.00     0.041 A 
HETATM    6  C13 UNL     1     -86.355 -16.101  13.548  1.00  0.00     0.052 A 
HETATM    7  C14 UNL     1     -86.303 -15.517  14.761  1.00  0.00     0.068 A 
HETATM    8  C15 UNL     1     -85.617 -14.427  15.232  1.00  0.00     0.114 A 
HETATM    9  N2  UNL     1     -85.781 -14.085  16.517  1.00  0.00    -0.338 N 
ATOM     10  H2  UNL     1     -85.278 -13.276  16.881  1.00  0.00     0.168 HD
HETATM   11  C16 UNL     1     -86.588 -14.775  17.343  1.00  0.00     0.183 A 
HETATM   12  N3  UNL     1     -87.251 -15.839  16.865  1.00  0.00    -0.338 N 
ATOM     13  H3  UNL     1     -87.860 -16.357  17.498  1.00  0.00     0.168 HD
HETATM   14  C17 UNL     1     -87.149 -16.251  15.605  1.00  0.00     0.124 A 
HETATM   15  N4  UNL     1     -87.699 -17.264  14.892  1.00  0.00    -0.330 N 
HETATM   16  C24 UNL     1     -85.715 -15.849  12.253  1.00  0.00     0.171 C 
HETATM   17  O1  UNL     1     -85.605 -14.669  11.905  1.00  0.00    -0.291 OA
ENDROOT
BRANCH   2  18
HETATM   18  C3  UNL     1     -84.906 -16.735  10.070  1.00  0.00     0.022 C 
BRANCH  18  19
HETATM   19  C4  UNL     1     -85.482 -17.635   9.045  1.00  0.00     0.040 C 
BRANCH  19  20
HETATM   20  C5  UNL     1     -86.161 -16.838   7.941  1.00  0.00    -0.051 A 
HETATM   21  C6  UNL     1     -87.488 -16.793   7.777  1.00  0.00     0.014 A 
HETATM   22  C7  UNL     1     -87.971 -16.037   6.743  1.00  0.00     0.050 A 
HETATM   23  S1  UNL     1     -86.552 -15.414   6.033  1.00  0.00    -0.113 SA
HETATM   24  C8  UNL     1     -85.393 -16.125   7.062  1.00  0.00     0.056 A 
ENDBRANCH  19  20
ENDBRANCH  18  19
ENDBRANCH   2  18
BRANCH   4  25
HETATM   25  C11 UNL     1     -88.703 -17.490  11.655  1.00  0.00     0.396 C 
HETATM   26  F1  UNL     1     -88.916 -18.349  10.563  1.00  0.00    -0.170 F 
HETATM   27  F2  UNL     1     -89.852 -17.545  12.390  1.00  0.00    -0.170 F 
HETATM   28  F3  UNL     1     -88.507 -16.249  11.087  1.00  0.00    -0.170 F 
ENDBRANCH   4  25
BRANCH  15  29
HETATM   29  C18 UNL     1     -88.625 -18.237  15.500  1.00  0.00     0.091 C 
HETATM   30  C19 UNL     1     -88.543 -19.591  14.915  1.00  0.00     0.026 C 
HETATM   31  C20 UNL     1     -89.796 -20.166  14.377  1.00  0.00     0.002 C 
HETATM   32  C21 UNL     1     -91.056 -19.783  15.060  1.00  0.00     0.000 C 
HETATM   33  C22 UNL     1     -90.952 -18.673  16.053  1.00  0.00     0.002 C 
HETATM   34  C23 UNL     1     -90.013 -17.632  15.454  1.00  0.00     0.026 C 
ENDBRANCH  15  29
BRANCH   8  35
HETATM   35  N1  UNL     1     -84.828 -13.729  14.511  1.00  0.00    -0.385 N 
ATOM     36  H12 UNL     1     -84.779 -13.926  13.511  1.00  0.00     0.157 HD
ATOM     37  H11 UNL     1     -84.246 -12.978  14.882  1.00  0.00     0.157 HD
ENDBRANCH   8  35
TORSDOF 6
ENDMDL
MODEL 4
REMARK VINA RESULT: -8.173069984      1.305      1.734
REMARK  6 active torsions:
REMARK  status: ('A' for Active; 'I' for Inactive)
REMARK    1  A    between atoms: C2_2  and  C3_3 
REMARK    2  A    between atoms: C3_3  and  C4_4 
REMARK    3  A    between atoms: C4_4  and  C5_5 
REMARK    4  A    between atoms: C10_11  and  C11_12 
REMARK    5  A    between atoms: C15_19  and  N1_20 
REMARK    6  A    between atoms: N4_29  and  C18_30 
ROOT
HETATM    1  C1  UNL     1     -88.301 -18.726  11.076  1.00  0.00     0.024 C 
HETATM    2  C2  UNL     1     -88.331 -17.262  11.540  1.00  0.00     0.023 C 
HETATM    3  C9  UNL     1     -86.923 -16.924  11.952  1.00  0.00     0.037 C 
HETATM    4  C10 UNL     1     -86.068 -16.163  11.036  1.00  0.00     0.145 C 
HETATM    5  C12 UNL     1     -86.436 -16.157   9.613  1.00  0.00     0.041 A 
HETATM    6  C13 UNL     1     -87.808 -16.261   9.313  1.00  0.00     0.052 A 
HETATM    7  C14 UNL     1     -87.927 -16.215   7.972  1.00  0.00     0.068 A 
HETATM    8  C15 UNL     1     -89.014 -16.270   7.139  1.00  0.00     0.114 A 
HETATM    9  N2  UNL     1     -88.801 -16.195   5.818  1.00  0.00    -0.338 N 
ATOM     10  H2  UNL     1     -89.600 -16.234   5.186  1.00  0.00     0.168 HD
HETATM   11  C16 UNL     1     -87.567 -16.069   5.299  1.00  0.00     0.183 A 
HETATM   12  N3  UNL     1     -86.515 -16.018   6.130  1.00  0.00    -0.338 N 
ATOM     13  H3  UNL     1     -85.582 -15.923   5.727  1.00  0.00     0.168 HD
HETATM   14  C17 UNL     1     -86.630 -16.085   7.452  1.00  0.00     0.124 A 
HETATM   15  N4  UNL     1     -85.751 -16.054   8.483  1.00  0.00    -0.330 N 
HETATM   16  C24 UNL     1     -88.752 -16.399  10.428  1.00  0.00     0.171 C 
HETATM   17  O1  UNL     1     -89.816 -15.779  10.340  1.00  0.00    -0.291 OA
ENDROOT
BRANCH   2  18
HETATM   18  C3  UNL     1     -89.187 -17.127  12.771  1.00  0.00     0.022 C 
BRANCH  18  19
HETATM   19  C4  UNL     1     -88.904 -15.965  13.645  1.00  0.00     0.040 C 
BRANCH  19  20
HETATM   20  C5  UNL     1     -88.447 -16.420  15.022  1.00  0.00    -0.051 A 
HETATM   21  C6  UNL     1     -87.542 -15.758  15.752  1.00  0.00     0.014 A 
HETATM   22  C7  UNL     1     -87.218 -16.275  16.978  1.00  0.00     0.050 A 
HETATM   23  S1  UNL     1     -88.192 -17.672  17.070  1.00  0.00    -0.113 SA
HETATM   24  C8  UNL     1     -88.977 -17.560  15.560  1.00  0.00     0.056 A 
ENDBRANCH  19  20
ENDBRANCH  18  19
ENDBRANCH   2  18
BRANCH   4  25
HETATM   25  C11 UNL     1     -85.952 -14.740  11.610  1.00  0.00     0.396 C 
HETATM   26  F1  UNL     1     -85.876 -14.827  13.011  1.00  0.00    -0.170 F 
HETATM   27  F2  UNL     1     -84.812 -14.097  11.222  1.00  0.00    -0.170 F 
HETATM   28  F3  UNL     1     -87.083 -13.989  11.369  1.00  0.00    -0.170 F 
ENDBRANCH   4  25
BRANCH  15  29
HETATM   29  C18 UNL     1     -84.297 -15.944   8.269  1.00  0.00     0.091 C 
HETATM   30  C19 UNL     1     -83.493 -16.832   9.134  1.00  0.00     0.026 C 
HETATM   31  C20 UNL     1     -82.460 -16.190   9.977  1.00  0.00     0.002 C 
HETATM   32  C21 UNL     1     -81.801 -14.980   9.425  1.00  0.00     0.000 C 
HETATM   33  C22 UNL     1     -82.420 -14.401   8.197  1.00  0.00     0.002 C 
HETATM   34  C23 UNL     1     -83.931 -14.479   8.385  1.00  0.00     0.026 C 
ENDBRANCH  15  29
BRANCH   8  35
HETATM   35  N1  UNL     1     -90.213 -16.397   7.557  1.00  0.00    -0.385 N 
ATOM     36  H12 UNL     1     -90.751 -17.209   7.256  1.00  0.00     0.157 HD
ATOM     37  H11 UNL     1     -90.662 -15.729   8.184  1.00  0.00     0.157 HD
ENDBRANCH   8  35
TORSDOF 6
ENDMDL
MODEL 5
REMARK VINA RESULT: -8.107139664      1.843      2.416
REMARK  6 active torsions:
REMARK  status: ('A' for Active; 'I' for Inactive)
REMARK    1  A    between atoms: C2_2  and  C3_3 
REMARK    2  A    between atoms: C3_3  and  C4_4 
REMARK    3  A    between atoms: C4_4  and  C5_5 
REMARK    4  A    between atoms: C10_11  and  C11_12 
REMARK    5  A    between atoms: C15_19  and  N1_20 
REMARK    6  A    between atoms: N4_29  and  C18_30 
ROOT
HETATM    1  C1  UNL     1     -88.063 -18.785  11.509  1.00  0.00     0.024 C 
HETATM    2  C2  UNL     1     -88.197 -17.330  11.985  1.00  0.00     0.023 C 
HETATM    3  C9  UNL     1     -86.795 -16.833  12.216  1.00  0.00     0.037 C 
HETATM    4  C10 UNL     1     -86.155 -15.987  11.205  1.00  0.00     0.145 C 
HETATM    5  C12 UNL     1     -86.700 -16.031   9.841  1.00  0.00     0.041 A 
HETATM    6  C13 UNL     1     -88.079 -16.290   9.718  1.00  0.00     0.052 A 
HETATM    7  C14 UNL     1     -88.372 -16.267   8.403  1.00  0.00     0.068 A 
HETATM    8  C15 UNL     1     -89.544 -16.449   7.715  1.00  0.00     0.114 A 
HETATM    9  N2  UNL     1     -89.511 -16.358   6.378  1.00  0.00    -0.338 N 
ATOM     10  H2  UNL     1     -90.375 -16.491   5.854  1.00  0.00     0.168 HD
HETATM   11  C16 UNL     1     -88.376 -16.098   5.707  1.00  0.00     0.183 A 
HETATM   12  N3  UNL     1     -87.238 -15.924   6.397  1.00  0.00    -0.338 N 
ATOM     13  H3  UNL     1     -86.381 -15.727   5.880  1.00  0.00     0.168 HD
HETATM   14  C17 UNL     1     -87.176 -15.995   7.723  1.00  0.00     0.124 A 
HETATM   15  N4  UNL     1     -86.181 -15.859   8.634  1.00  0.00    -0.330 N 
HETATM   16  C24 UNL     1     -88.851 -16.527  10.942  1.00  0.00     0.171 C 
HETATM   17  O1  UNL     1     -89.981 -16.030  10.996  1.00  0.00    -0.291 OA
ENDROOT
BRANCH   2  18
HETATM   18  C3  UNL     1     -88.899 -17.284  13.316  1.00  0.00     0.022 C 
BRANCH  18  19
HETATM   19  C4  UNL     1     -88.657 -16.082  14.146  1.00  0.00     0.040 C 
BRANCH  19  20
HETATM   20  C5  UNL     1     -88.140 -16.468  15.524  1.00  0.00    -0.051 A 
HETATM   21  C6  UNL     1     -88.514 -17.582  16.164  1.00  0.00     0.014 A 
HETATM   22  C7  UNL     1     -87.974 -17.811  17.401  1.00  0.00     0.050 A 
HETATM   23  S1  UNL     1     -86.959 -16.461  17.629  1.00  0.00    -0.113 SA
HETATM   24  C8  UNL     1     -87.247 -15.648  16.157  1.00  0.00     0.056 A 
ENDBRANCH  19  20
ENDBRANCH  18  19
ENDBRANCH   2  18
BRANCH   4  25
HETATM   25  C11 UNL     1     -86.128 -14.557  11.771  1.00  0.00     0.396 C 
HETATM   26  F1  UNL     1     -85.058 -13.861  11.181  1.00  0.00    -0.170 F 
HETATM   27  F2  UNL     1     -87.245 -13.836  11.461  1.00  0.00    -0.170 F 
HETATM   28  F3  UNL     1     -85.852 -14.536  13.121  1.00  0.00    -0.170 F 
ENDBRANCH   4  25
BRANCH  15  29
HETATM   29  C18 UNL     1     -84.788 -15.588   8.237  1.00  0.00     0.091 C 
HETATM   30  C19 UNL     1     -84.656 -14.902   6.935  1.00  0.00     0.026 C 
HETATM   31  C20 UNL     1     -83.819 -15.565   5.910  1.00  0.00     0.002 C 
HETATM   32  C21 UNL     1     -82.659 -16.351   6.399  1.00  0.00     0.000 C 
HETATM   33  C22 UNL     1     -82.604 -16.592   7.870  1.00  0.00     0.002 C 
HETATM   34  C23 UNL     1     -84.029 -16.895   8.322  1.00  0.00     0.026 C 
ENDBRANCH  15  29
BRANCH   8  35
HETATM   35  N1  UNL     1     -90.658 -16.706   8.282  1.00  0.00    -0.385 N 
ATOM     36  H12 UNL     1     -91.131 -17.581   8.052  1.00  0.00     0.157 HD
ATOM     37  H11 UNL     1     -91.100 -16.085   8.959  1.00  0.00     0.157 HD
ENDBRANCH   8  35
TORSDOF 6
ENDMDL
