MODEL 1
REMARK VINA RESULT: -8.428146620      0.000      0.000
REMARK  6 active torsions:
REMARK  status: ('A' for Active; 'I' for Inactive)
REMARK    1  A    between atoms: C3_5  and  N2_6 
REMARK    2  A    between atoms: N2_6  and  C4_8 
REMARK    3  A    between atoms: C7_12  and  C8_13 
REMARK    4  A    between atoms: C9_16  and  C10_17 
REMARK    5  A    between atoms: C11_21  and  N4_22 
REMARK       I    between atoms: N4_22  and  C12_24 
REMARK    6  A    between atoms: C12_24  and  C13_26 
ROOT
HETATM    1  C8  UNL     1     -87.263 -16.216   9.863  1.00  0.00     0.096 A 
HETATM    2  N3  UNL     1     -87.609 -16.097   8.620  1.00  0.00    -0.343 N 
ATOM      3  H3  UNL     1     -88.599 -16.036   8.382  1.00  0.00     0.166 HD
HETATM    4  C9  UNL     1     -86.719 -16.053   7.663  1.00  0.00     0.151 A 
HETATM    5  C11 UNL     1     -85.408 -16.135   7.986  1.00  0.00     0.110 A 
HETATM    6  S2  UNL     1     -85.584 -16.278   9.765  1.00  0.00    -0.051 SA
ENDROOT
BRANCH   5   7
HETATM    7  N4  UNL     1     -84.158 -16.132   7.361  1.00  0.00    -0.319 N 
HETATM    8  C12 UNL     1     -83.562 -15.793   6.184  1.00  0.00     0.231 C 
HETATM    9  O1  UNL     1     -84.039 -15.308   5.160  1.00  0.00    -0.272 OA
ATOM     10  H4  UNL     1     -83.458 -16.511   7.999  1.00  0.00     0.169 HD
BRANCH   8  11
HETATM   11  C13 UNL     1     -82.054 -16.029   6.052  1.00  0.00     0.042 C 
HETATM   12  C14 UNL     1     -81.513 -16.632   7.305  1.00  0.00     0.024 C 
HETATM   13  C15 UNL     1     -79.998 -16.694   7.214  1.00  0.00    -0.013 C 
HETATM   14  C16 UNL     1     -79.472 -15.308   6.992  1.00  0.00     0.009 C 
HETATM   15  C20 UNL     1     -79.661 -17.642   6.091  1.00  0.00     0.009 C 
HETATM   16  C17 UNL     1     -79.945 -14.798   5.656  1.00  0.00    -0.013 C 
HETATM   17  C18 UNL     1     -79.608 -15.758   4.533  1.00  0.00     0.009 C 
HETATM   18  C22 UNL     1     -81.455 -14.689   5.701  1.00  0.00     0.024 C 
HETATM   19  C19 UNL     1     -80.244 -17.092   4.816  1.00  0.00    -0.013 C 
HETATM   20  C21 UNL     1     -81.753 -16.954   4.902  1.00  0.00     0.024 C 
ENDBRANCH   8  11
ENDBRANCH   5   7
BRANCH   4  21
HETATM   21  C10 UNL     1     -87.220 -15.914   6.228  1.00  0.00     0.435 C 
HETATM   22  F1  UNL     1     -88.646 -16.062   6.241  1.00  0.00    -0.165 F 
HETATM   23  F2  UNL     1     -87.055 -14.638   5.813  1.00  0.00    -0.165 F 
HETATM   24  F3  UNL     1     -86.818 -16.933   5.431  1.00  0.00    -0.165 F 
ENDBRANCH   4  21
BRANCH   1  25
HETATM   25  C7  UNL     1     -88.085 -16.284  11.089  1.00  0.00     0.064 A 
HETATM   26  C2  UNL     1     -88.403 -15.291  11.971  1.00  0.00     0.027 A 
HETATM   27  C1  UNL     1     -87.872 -13.886  11.727  1.00  0.00     0.070 C 
HETATM   28  N1  UNL     1     -89.153 -15.604  12.990  1.00  0.00    -0.339 N 
HETATM   29  C3  UNL     1     -89.568 -16.865  13.119  1.00  0.00     0.145 A 
ATOM     30  H1  UNL     1     -89.417 -14.897  13.676  1.00  0.00     0.168 HD
HETATM   31  S1  UNL     1     -88.877 -17.635  11.756  1.00  0.00    -0.050 SA
BRANCH  29  32
HETATM   32  N2  UNL     1     -90.324 -17.385  14.062  1.00  0.00    -0.367 N 
ATOM     33  H2  UNL     1     -91.235 -16.957  14.225  1.00  0.00     0.162 HD
BRANCH  32  34
HETATM   34  C4  UNL     1     -89.970 -18.499  14.871  1.00  0.00     0.075 C 
HETATM   35  C5  UNL     1     -89.454 -18.021  16.227  1.00  0.00     0.032 C 
HETATM   36  C6  UNL     1     -91.056 -19.531  15.049  1.00  0.00     0.032 C 
ENDBRANCH  32  34
ENDBRANCH  29  32
ENDBRANCH   1  25
TORSDOF 6
ENDMDL
MODEL 2
REMARK VINA RESULT: -8.384696962      0.160      1.293
REMARK  6 active torsions:
REMARK  status: ('A' for Active; 'I' for Inactive)
REMARK    1  A    between atoms: C3_5  and  N2_6 
REMARK    2  A    between atoms: N2_6  and  C4_8 
REMARK    3  A    between atoms: C7_12  and  C8_13 
REMARK    4  A    between atoms: C9_16  and  C10_17 
REMARK    5  A    between atoms: C11_21  and  N4_22 
REMARK       I    between atoms: N4_22  and  C12_24 
REMARK    6  A    between atoms: C12_24  and  C13_26 
ROOT
HETATM    1  C8  UNL     1     -87.238 -16.264   9.832  1.00  0.00     0.096 A 
HETATM    2  N3  UNL     1     -87.583 -16.128   8.590  1.00  0.00    -0.343 N 
ATOM      3  H3  UNL     1     -88.573 -16.075   8.352  1.00  0.00     0.166 HD
HETATM    4  C9  UNL     1     -86.692 -16.056   7.636  1.00  0.00     0.151 A 
HETATM    5  C11 UNL     1     -85.381 -16.128   7.961  1.00  0.00     0.110 A 
HETATM    6  S2  UNL     1     -85.558 -16.304   9.736  1.00  0.00    -0.051 SA
ENDROOT
BRANCH   5   7
HETATM    7  N4  UNL     1     -84.130 -16.099   7.338  1.00  0.00    -0.319 N 
HETATM    8  C12 UNL     1     -83.549 -15.822   6.138  1.00  0.00     0.231 C 
HETATM    9  O1  UNL     1     -84.049 -15.454   5.076  1.00  0.00    -0.272 OA
ATOM     10  H4  UNL     1     -83.412 -16.379   8.006  1.00  0.00     0.169 HD
BRANCH   8  11
HETATM   11  C13 UNL     1     -82.029 -15.974   6.027  1.00  0.00     0.042 C 
HETATM   12  C14 UNL     1     -81.385 -14.637   5.869  1.00  0.00     0.024 C 
HETATM   13  C15 UNL     1     -79.904 -14.827   5.587  1.00  0.00    -0.013 C 
HETATM   14  C16 UNL     1     -79.752 -15.666   4.355  1.00  0.00     0.009 C 
HETATM   15  C20 UNL     1     -79.299 -15.462   6.814  1.00  0.00     0.009 C 
HETATM   16  C17 UNL     1     -80.303 -17.044   4.612  1.00  0.00    -0.013 C 
HETATM   17  C18 UNL     1     -79.696 -17.674   5.849  1.00  0.00     0.009 C 
HETATM   18  C22 UNL     1     -81.791 -16.916   4.872  1.00  0.00     0.024 C 
HETATM   19  C19 UNL     1     -79.969 -16.792   7.038  1.00  0.00    -0.013 C 
HETATM   20  C21 UNL     1     -81.463 -16.640   7.254  1.00  0.00     0.024 C 
ENDBRANCH   8  11
ENDBRANCH   5   7
BRANCH   4  21
HETATM   21  C10 UNL     1     -87.192 -15.898   6.203  1.00  0.00     0.435 C 
HETATM   22  F1  UNL     1     -88.622 -15.994   6.220  1.00  0.00    -0.165 F 
HETATM   23  F2  UNL     1     -86.982 -14.628   5.788  1.00  0.00    -0.165 F 
HETATM   24  F3  UNL     1     -86.829 -16.930   5.404  1.00  0.00    -0.165 F 
ENDBRANCH   4  21
BRANCH   1  25
HETATM   25  C7  UNL     1     -88.061 -16.363  11.055  1.00  0.00     0.064 A 
HETATM   26  C2  UNL     1     -88.437 -15.380  11.925  1.00  0.00     0.027 A 
HETATM   27  C1  UNL     1     -87.982 -13.951  11.667  1.00  0.00     0.070 C 
HETATM   28  N1  UNL     1     -89.174 -15.723  12.943  1.00  0.00    -0.339 N 
HETATM   29  C3  UNL     1     -89.522 -17.002  13.084  1.00  0.00     0.145 A 
ATOM     30  H1  UNL     1     -89.480 -15.024  13.621  1.00  0.00     0.168 HD
HETATM   31  S1  UNL     1     -88.783 -17.748  11.733  1.00  0.00    -0.050 SA
BRANCH  29  32
HETATM   32  N2  UNL     1     -90.253 -17.553  14.029  1.00  0.00    -0.367 N 
ATOM     33  H2  UNL     1     -91.153 -17.122  14.239  1.00  0.00     0.162 HD
BRANCH  32  34
HETATM   34  C4  UNL     1     -89.886 -18.701  14.782  1.00  0.00     0.075 C 
HETATM   35  C5  UNL     1     -89.136 -18.285  16.045  1.00  0.00     0.032 C 
HETATM   36  C6  UNL     1     -91.024 -19.633  15.120  1.00  0.00     0.032 C 
ENDBRANCH  32  34
ENDBRANCH  29  32
ENDBRANCH   1  25
TORSDOF 6
ENDMDL
MODEL 3
REMARK VINA RESULT: -8.287948763      0.335      1.321
REMARK  6 active torsions:
REMARK  status: ('A' for Active; 'I' for Inactive)
REMARK    1  A    between atoms: C3_5  and  N2_6 
REMARK    2  A    between atoms: N2_6  and  C4_8 
REMARK    3  A    between atoms: C7_12  and  C8_13 
REMARK    4  A    between atoms: C9_16  and  C10_17 
REMARK    5  A    between atoms: C11_21  and  N4_22 
REMARK       I    between atoms: N4_22  and  C12_24 
REMARK    6  A    between atoms: C12_24  and  C13_26 
ROOT
HETATM    1  C8  UNL     1     -87.182 -16.314   9.779  1.00  0.00     0.096 A 
HETATM    2  N3  UNL     1     -87.518 -16.135   8.540  1.00  0.00    -0.343 N 
ATOM      3  H3  UNL     1     -88.506 -16.068   8.298  1.00  0.00     0.166 HD
HETATM    4  C9  UNL     1     -86.621 -16.038   7.594  1.00  0.00     0.151 A 
HETATM    5  C11 UNL     1     -85.312 -16.129   7.925  1.00  0.00     0.110 A 
HETATM    6  S2  UNL     1     -85.502 -16.362   9.692  1.00  0.00    -0.051 SA
ENDROOT
BRANCH   5   7
HETATM    7  N4  UNL     1     -84.057 -16.088   7.311  1.00  0.00    -0.319 N 
HETATM    8  C12 UNL     1     -83.471 -15.820   6.111  1.00  0.00     0.231 C 
HETATM    9  O1  UNL     1     -83.970 -15.479   5.040  1.00  0.00    -0.272 OA
ATOM     10  H4  UNL     1     -83.339 -16.343   7.989  1.00  0.00     0.169 HD
BRANCH   8  11
HETATM   11  C13 UNL     1     -81.948 -15.946   6.014  1.00  0.00     0.042 C 
HETATM   12  C14 UNL     1     -81.576 -16.920   4.947  1.00  0.00     0.024 C 
HETATM   13  C15 UNL     1     -80.076 -17.157   4.989  1.00  0.00    -0.013 C 
HETATM   14  C16 UNL     1     -79.706 -17.658   6.352  1.00  0.00     0.009 C 
HETATM   15  C20 UNL     1     -79.412 -15.850   4.639  1.00  0.00     0.009 C 
HETATM   16  C17 UNL     1     -79.983 -16.587   7.375  1.00  0.00    -0.013 C 
HETATM   17  C18 UNL     1     -79.319 -15.275   7.013  1.00  0.00     0.009 C 
HETATM   18  C22 UNL     1     -81.477 -16.331   7.395  1.00  0.00     0.024 C 
HETATM   19  C19 UNL     1     -79.814 -14.824   5.665  1.00  0.00    -0.013 C 
HETATM   20  C21 UNL     1     -81.317 -14.616   5.694  1.00  0.00     0.024 C 
ENDBRANCH   8  11
ENDBRANCH   5   7
BRANCH   4  21
HETATM   21  C10 UNL     1     -87.111 -15.830   6.165  1.00  0.00     0.435 C 
HETATM   22  F1  UNL     1     -88.543 -15.868   6.178  1.00  0.00    -0.165 F 
HETATM   23  F2  UNL     1     -86.848 -14.561   5.777  1.00  0.00    -0.165 F 
HETATM   24  F3  UNL     1     -86.788 -16.859   5.344  1.00  0.00    -0.165 F 
ENDBRANCH   4  21
BRANCH   1  25
HETATM   25  C7  UNL     1     -88.013 -16.449  10.993  1.00  0.00     0.064 A 
HETATM   26  C2  UNL     1     -88.423 -15.485  11.870  1.00  0.00     0.027 A 
HETATM   27  C1  UNL     1     -88.003 -14.041  11.632  1.00  0.00     0.070 C 
HETATM   28  N1  UNL     1     -89.160 -15.858  12.877  1.00  0.00    -0.339 N 
HETATM   29  C3  UNL     1     -89.476 -17.147  13.001  1.00  0.00     0.145 A 
ATOM     30  H1  UNL     1     -89.491 -15.174  13.559  1.00  0.00     0.168 HD
HETATM   31  S1  UNL     1     -88.705 -17.859  11.649  1.00  0.00    -0.050 SA
BRANCH  29  32
HETATM   32  N2  UNL     1     -90.201 -17.727  13.933  1.00  0.00    -0.367 N 
ATOM     33  H2  UNL     1     -91.073 -17.272  14.202  1.00  0.00     0.162 HD
BRANCH  32  34
HETATM   34  C4  UNL     1     -89.864 -18.939  14.596  1.00  0.00     0.075 C 
HETATM   35  C5  UNL     1     -88.608 -18.744  15.442  1.00  0.00     0.032 C 
HETATM   36  C6  UNL     1     -90.972 -19.546  15.419  1.00  0.00     0.032 C 
ENDBRANCH  32  34
ENDBRANCH  29  32
ENDBRANCH   1  25
TORSDOF 6
ENDMDL
MODEL 4
REMARK VINA RESULT: -8.257002336      0.949      1.842
REMARK  6 active torsions:
REMARK  status: ('A' for Active; 'I' for Inactive)
REMARK    1  A    between atoms: C3_5  and  N2_6 
REMARK    2  A    between atoms: N2_6  and  C4_8 
REMARK    3  A    between atoms: C7_12  and  C8_13 
REMARK    4  A    between atoms: C9_16  and  C10_17 
REMARK    5  A    between atoms: C11_21  and  N4_22 
REMARK       I    between atoms: N4_22  and  C12_24 
REMARK    6  A    between atoms: C12_24  and  C13_26 
ROOT
HETATM    1  C8  UNL     1     -87.346 -16.087  10.023  1.00  0.00     0.096 A 
HETATM    2  N3  UNL     1     -87.663 -16.106   8.767  1.00  0.00    -0.343 N 
ATOM      3  H3  UNL     1     -88.641 -16.215   8.502  1.00  0.00     0.166 HD
HETATM    4  C9  UNL     1     -86.757 -15.990   7.831  1.00  0.00     0.151 A 
HETATM    5  C11 UNL     1     -85.460 -15.848   8.191  1.00  0.00     0.110 A 
HETATM    6  S2  UNL     1     -85.675 -15.897   9.971  1.00  0.00    -0.051 SA
ENDROOT
BRANCH   5   7
HETATM    7  N4  UNL     1     -84.205 -15.694   7.598  1.00  0.00    -0.319 N 
HETATM    8  C12 UNL     1     -83.099 -14.900   7.645  1.00  0.00     0.231 C 
HETATM    9  O1  UNL     1     -82.851 -13.921   8.348  1.00  0.00    -0.272 OA
ATOM     10  H4  UNL     1     -84.071 -16.420   6.894  1.00  0.00     0.169 HD
BRANCH   8  11
HETATM   11  C13 UNL     1     -81.943 -15.225   6.695  1.00  0.00     0.042 C 
HETATM   12  C14 UNL     1     -82.395 -15.124   5.277  1.00  0.00     0.024 C 
HETATM   13  C15 UNL     1     -81.285 -15.619   4.364  1.00  0.00    -0.013 C 
HETATM   14  C16 UNL     1     -80.946 -17.029   4.739  1.00  0.00     0.009 C 
HETATM   15  C20 UNL     1     -80.126 -14.668   4.523  1.00  0.00     0.009 C 
HETATM   16  C17 UNL     1     -80.375 -17.056   6.134  1.00  0.00    -0.013 C 
HETATM   17  C18 UNL     1     -79.215 -16.094   6.288  1.00  0.00     0.009 C 
HETATM   18  C22 UNL     1     -81.455 -16.597   7.093  1.00  0.00     0.024 C 
HETATM   19  C19 UNL     1     -79.680 -14.701   5.961  1.00  0.00    -0.013 C 
HETATM   20  C21 UNL     1     -80.791 -14.277   6.904  1.00  0.00     0.024 C 
ENDBRANCH   8  11
ENDBRANCH   5   7
BRANCH   4  21
HETATM   21  C10 UNL     1     -87.223 -16.026   6.379  1.00  0.00     0.435 C 
HETATM   22  F1  UNL     1     -86.746 -14.839   5.732  1.00  0.00    -0.165 F 
HETATM   23  F2  UNL     1     -86.572 -17.010   5.718  1.00  0.00    -0.165 F 
HETATM   24  F3  UNL     1     -88.568 -15.916   6.257  1.00  0.00    -0.165 F 
ENDBRANCH   4  21
BRANCH   1  25
HETATM   25  C7  UNL     1     -88.190 -16.199  11.231  1.00  0.00     0.064 A 
HETATM   26  C2  UNL     1     -88.583 -15.224  12.103  1.00  0.00     0.027 A 
HETATM   27  C1  UNL     1     -88.126 -13.792  11.866  1.00  0.00     0.070 C 
HETATM   28  N1  UNL     1     -89.337 -15.577  13.106  1.00  0.00    -0.339 N 
HETATM   29  C3  UNL     1     -89.685 -16.858  13.229  1.00  0.00     0.145 A 
ATOM     30  H1  UNL     1     -89.656 -14.885  13.784  1.00  0.00     0.168 HD
HETATM   31  S1  UNL     1     -88.921 -17.591  11.884  1.00  0.00    -0.050 SA
BRANCH  29  32
HETATM   32  N2  UNL     1     -90.431 -17.418  14.156  1.00  0.00    -0.367 N 
ATOM     33  H2  UNL     1     -91.368 -17.041  14.298  1.00  0.00     0.162 HD
BRANCH  32  34
HETATM   34  C4  UNL     1     -90.035 -18.509  14.976  1.00  0.00     0.075 C 
HETATM   35  C5  UNL     1     -89.631 -18.007  16.361  1.00  0.00     0.032 C 
HETATM   36  C6  UNL     1     -91.044 -19.625  15.088  1.00  0.00     0.032 C 
ENDBRANCH  32  34
ENDBRANCH  29  32
ENDBRANCH   1  25
TORSDOF 6
ENDMDL
MODEL 5
REMARK VINA RESULT: -8.216055033      0.963      1.516
REMARK  6 active torsions:
REMARK  status: ('A' for Active; 'I' for Inactive)
REMARK    1  A    between atoms: C3_5  and  N2_6 
REMARK    2  A    between atoms: N2_6  and  C4_8 
REMARK    3  A    between atoms: C7_12  and  C8_13 
REMARK    4  A    between atoms: C9_16  and  C10_17 
REMARK    5  A    between atoms: C11_21  and  N4_22 
REMARK       I    between atoms: N4_22  and  C12_24 
REMARK    6  A    between atoms: C12_24  and  C13_26 
ROOT
HETATM    1  C8  UNL     1     -87.378 -16.092  10.124  1.00  0.00     0.096 A 
HETATM    2  N3  UNL     1     -87.697 -16.105   8.868  1.00  0.00    -0.343 N 
ATOM      3  H3  UNL     1     -88.677 -16.196   8.605  1.00  0.00     0.166 HD
HETATM    4  C9  UNL     1     -86.791 -16.003   7.931  1.00  0.00     0.151 A 
HETATM    5  C11 UNL     1     -85.491 -15.883   8.290  1.00  0.00     0.110 A 
HETATM    6  S2  UNL     1     -85.704 -15.930  10.069  1.00  0.00    -0.051 SA
ENDROOT
BRANCH   5   7
HETATM    7  N4  UNL     1     -84.234 -15.750   7.695  1.00  0.00    -0.319 N 
HETATM    8  C12 UNL     1     -83.132 -14.950   7.712  1.00  0.00     0.231 C 
HETATM    9  O1  UNL     1     -82.889 -13.942   8.373  1.00  0.00    -0.272 OA
ATOM     10  H4  UNL     1     -84.095 -16.504   7.022  1.00  0.00     0.169 HD
BRANCH   8  11
HETATM   11  C13 UNL     1     -81.971 -15.311   6.780  1.00  0.00     0.042 C 
HETATM   12  C14 UNL     1     -80.848 -14.344   6.952  1.00  0.00     0.024 C 
HETATM   13  C15 UNL     1     -79.788 -14.618   5.900  1.00  0.00    -0.013 C 
HETATM   14  C16 UNL     1     -80.415 -14.506   4.543  1.00  0.00     0.009 C 
HETATM   15  C20 UNL     1     -79.230 -15.990   6.182  1.00  0.00     0.009 C 
HETATM   16  C17 UNL     1     -81.451 -15.586   4.376  1.00  0.00    -0.013 C 
HETATM   17  C18 UNL     1     -80.886 -16.961   4.667  1.00  0.00     0.009 C 
HETATM   18  C22 UNL     1     -82.553 -15.343   5.388  1.00  0.00     0.024 C 
HETATM   19  C19 UNL     1     -80.352 -16.990   6.074  1.00  0.00    -0.013 C 
HETATM   20  C21 UNL     1     -81.461 -16.699   7.069  1.00  0.00     0.024 C 
ENDBRANCH   8  11
ENDBRANCH   5   7
BRANCH   4  21
HETATM   21  C10 UNL     1     -87.259 -16.029   6.480  1.00  0.00     0.435 C 
HETATM   22  F1  UNL     1     -86.826 -14.815   5.852  1.00  0.00    -0.165 F 
HETATM   23  F2  UNL     1     -86.577 -16.978   5.800  1.00  0.00    -0.165 F 
HETATM   24  F3  UNL     1     -88.608 -15.965   6.362  1.00  0.00    -0.165 F 
ENDBRANCH   4  21
BRANCH   1  25
HETATM   25  C7  UNL     1     -88.222 -16.191  11.333  1.00  0.00     0.064 A 
HETATM   26  C2  UNL     1     -88.592 -15.211  12.210  1.00  0.00     0.027 A 
HETATM   27  C1  UNL     1     -88.104 -13.788  11.979  1.00  0.00     0.070 C 
HETATM   28  N1  UNL     1     -89.352 -15.552  13.213  1.00  0.00    -0.339 N 
HETATM   29  C3  UNL     1     -89.728 -16.826  13.331  1.00  0.00     0.145 A 
ATOM     30  H1  UNL     1     -89.654 -14.856  13.894  1.00  0.00     0.168 HD
HETATM   31  S1  UNL     1     -88.983 -17.569  11.981  1.00  0.00    -0.050 SA
BRANCH  29  32
HETATM   32  N2  UNL     1     -90.484 -17.374  14.257  1.00  0.00    -0.367 N 
ATOM     33  H2  UNL     1     -91.412 -16.976  14.402  1.00  0.00     0.162 HD
BRANCH  32  34
HETATM   34  C4  UNL     1     -90.110 -18.477  15.071  1.00  0.00     0.075 C 
HETATM   35  C5  UNL     1     -89.822 -18.006  16.495  1.00  0.00     0.032 C 
HETATM   36  C6  UNL     1     -91.087 -19.626  15.079  1.00  0.00     0.032 C 
ENDBRANCH  32  34
ENDBRANCH  29  32
ENDBRANCH   1  25
TORSDOF 6
ENDMDL
