MODEL 1
REMARK VINA RESULT: -7.018296536      0.000      0.000
REMARK  8 active torsions:
REMARK  status: ('A' for Active; 'I' for Inactive)
REMARK    1  A    between atoms: C2_2  and  C3_3 
REMARK    2  A    between atoms: C7_7  and  O1_8 
REMARK    3  A    between atoms: O1_8  and  C8_9 
REMARK    4  A    between atoms: C10_12  and  O3_13 
REMARK    5  A    between atoms: O3_13  and  C11_14 
REMARK    6  A    between atoms: C13_17  and  C14_18 
REMARK    7  A    between atoms: C18_22  and  O5_23 
REMARK    8  A    between atoms: C20_26  and  O6_27 
ROOT
HETATM    1  C3  UNL     1     -86.635 -12.505  14.383  1.00  0.00     0.146 C 
HETATM    2  C4  UNL     1     -86.394 -12.580  12.906  1.00  0.00     0.011 C 
HETATM    3  C5  UNL     1     -87.484 -13.162  12.405  1.00  0.00    -0.042 C 
HETATM    4  C6  UNL     1     -87.979 -13.564  11.085  1.00  0.00     0.072 C 
HETATM    5  C7  UNL     1     -89.426 -13.299  10.821  1.00  0.00     0.174 C 
HETATM    6  C10 UNL     1     -90.144 -12.597  12.032  1.00  0.00     0.135 C 
HETATM    7  C13 UNL     1     -91.586 -12.675  11.685  1.00  0.00     0.026 C 
HETATM    8  C16 UNL     1     -92.564 -12.743  12.820  1.00  0.00     0.010 C 
HETATM    9  C17 UNL     1     -92.744 -14.146  13.390  1.00  0.00     0.032 C 
HETATM   10  C18 UNL     1     -91.834 -14.249  14.559  1.00  0.00     0.121 C 
HETATM   11  C19 UNL     1     -90.580 -13.406  14.440  1.00  0.00     0.076 C 
HETATM   12  C20 UNL     1     -89.825 -13.536  13.178  1.00  0.00     0.129 C 
HETATM   13  C21 UNL     1     -88.358 -13.474  13.562  1.00  0.00     0.115 C 
HETATM   14  C22 UNL     1     -87.913 -14.764  14.246  1.00  0.00     0.055 C 
HETATM   15  O7  UNL     1     -88.041 -12.420  14.418  1.00  0.00    -0.364 OA
ENDROOT
BRANCH   5  16
HETATM   16  O1  UNL     1     -90.044 -14.444  10.400  1.00  0.00    -0.313 OA
BRANCH  16  17
HETATM   17  C8  UNL     1     -90.604 -14.649   9.183  1.00  0.00     0.255 C 
HETATM   18  C9  UNL     1     -91.540 -15.812   8.929  1.00  0.00     0.126 C 
HETATM   19  O2  UNL     1     -90.374 -13.892   8.233  1.00  0.00    -0.266 OA
ENDBRANCH  16  17
ENDBRANCH   5  16
BRANCH   6  20
HETATM   20  O3  UNL     1     -89.491 -11.467  12.114  1.00  0.00    -0.304 OA
BRANCH  20  21
HETATM   21  C11 UNL     1     -89.496 -10.207  12.530  1.00  0.00     0.255 C 
HETATM   22  C12 UNL     1     -88.669  -9.093  11.964  1.00  0.00     0.126 C 
HETATM   23  O4  UNL     1     -90.281 -10.051  13.463  1.00  0.00    -0.266 OA
ENDBRANCH  20  21
ENDBRANCH   6  20
BRANCH   7  24
HETATM   24  C14 UNL     1     -91.994 -11.643  10.650  1.00  0.00     0.003 C 
HETATM   25  C15 UNL     1     -93.133 -12.109   9.775  1.00  0.00     0.005 C 
ENDBRANCH   7  24
BRANCH  12  26
HETATM   26  O6  UNL     1     -89.970 -14.871  12.657  1.00  0.00    -0.383 OA
ATOM     27  H6  UNL     1     -90.836 -14.911  12.269  1.00  0.00     0.210 HD
ENDBRANCH  12  26
BRANCH   1  28
HETATM   28  C2  UNL     1     -85.945 -11.300  14.921  1.00  0.00     0.031 C 
HETATM   29  C1  UNL     1     -87.022 -10.296  15.341  1.00  0.00     0.008 C 
ENDBRANCH   1  28
BRANCH  10  30
HETATM   30  O5  UNL     1     -92.533 -13.741  15.672  1.00  0.00    -0.395 OA
ATOM     31  H5  UNL     1     -93.335 -14.244  15.750  1.00  0.00     0.210 HD
ENDBRANCH  10  30
TORSDOF 8
ENDMDL
MODEL 2
REMARK VINA RESULT: -6.944403569      1.839      5.488
REMARK  8 active torsions:
REMARK  status: ('A' for Active; 'I' for Inactive)
REMARK    1  A    between atoms: C2_2  and  C3_3 
REMARK    2  A    between atoms: C7_7  and  O1_8 
REMARK    3  A    between atoms: O1_8  and  C8_9 
REMARK    4  A    between atoms: C10_12  and  O3_13 
REMARK    5  A    between atoms: O3_13  and  C11_14 
REMARK    6  A    between atoms: C13_17  and  C14_18 
REMARK    7  A    between atoms: C18_22  and  O5_23 
REMARK    8  A    between atoms: C20_26  and  O6_27 
ROOT
HETATM    1  C3  UNL     1     -91.009 -13.542   9.454  1.00  0.00     0.146 C 
HETATM    2  C4  UNL     1     -90.926 -14.747  10.341  1.00  0.00     0.011 C 
HETATM    3  C5  UNL     1     -89.943 -14.477  11.201  1.00  0.00    -0.042 C 
HETATM    4  C6  UNL     1     -89.292 -15.142  12.333  1.00  0.00     0.072 C 
HETATM    5  C7  UNL     1     -88.974 -14.274  13.507  1.00  0.00     0.174 C 
HETATM    6  C10 UNL     1     -89.440 -12.785  13.301  1.00  0.00     0.135 C 
HETATM    7  C13 UNL     1     -88.802 -12.053  14.426  1.00  0.00     0.026 C 
HETATM    8  C16 UNL     1     -88.452 -10.613  14.201  1.00  0.00     0.010 C 
HETATM    9  C17 UNL     1     -87.129 -10.411  13.471  1.00  0.00     0.032 C 
HETATM   10  C18 UNL     1     -87.458 -10.249  12.031  1.00  0.00     0.121 C 
HETATM   11  C19 UNL     1     -88.699 -11.002  11.595  1.00  0.00     0.076 C 
HETATM   12  C20 UNL     1     -88.773 -12.422  11.990  1.00  0.00     0.129 C 
HETATM   13  C21 UNL     1     -89.409 -13.148  10.819  1.00  0.00     0.115 C 
HETATM   14  C22 UNL     1     -88.432 -13.271   9.652  1.00  0.00     0.055 C 
HETATM   15  O7  UNL     1     -90.562 -12.535  10.332  1.00  0.00    -0.364 OA
ENDROOT
BRANCH   5  16
HETATM   16  O1  UNL     1     -87.655 -14.400  13.841  1.00  0.00    -0.313 OA
BRANCH  16  17
HETATM   17  C8  UNL     1     -87.135 -15.290  14.721  1.00  0.00     0.255 C 
HETATM   18  C9  UNL     1     -87.992 -15.945  15.784  1.00  0.00     0.126 C 
HETATM   19  O2  UNL     1     -85.939 -15.603  14.689  1.00  0.00    -0.266 OA
ENDBRANCH  16  17
ENDBRANCH   5  16
BRANCH   6  20
HETATM   20  O3  UNL     1     -90.735 -12.921  13.184  1.00  0.00    -0.304 OA
BRANCH  20  21
HETATM   21  C11 UNL     1     -91.916 -12.319  13.125  1.00  0.00     0.255 C 
HETATM   22  C12 UNL     1     -93.234 -12.993  12.895  1.00  0.00     0.126 C 
HETATM   23  O4  UNL     1     -91.804 -11.106  13.286  1.00  0.00    -0.266 OA
ENDBRANCH  20  21
ENDBRANCH   6  20
BRANCH   7  24
HETATM   24  C14 UNL     1     -89.529 -12.258  15.743  1.00  0.00     0.003 C 
HETATM   25  C15 UNL     1     -88.605 -12.207  16.936  1.00  0.00     0.005 C 
ENDBRANCH   7  24
BRANCH  12  26
HETATM   26  O6  UNL     1     -87.449 -12.984  12.043  1.00  0.00    -0.383 OA
ATOM     27  H6  UNL     1     -86.874 -12.345  11.637  1.00  0.00     0.210 HD
ENDBRANCH  12  26
BRANCH   1  28
HETATM   28  C2  UNL     1     -92.420 -13.372   9.009  1.00  0.00     0.031 C 
HETATM   29  C1  UNL     1     -92.900 -12.002   9.498  1.00  0.00     0.008 C 
ENDBRANCH   1  28
BRANCH  10  30
HETATM   30  O5  UNL     1     -87.745  -8.885  11.825  1.00  0.00    -0.395 OA
ATOM     31  H5  UNL     1     -87.058  -8.538  11.267  1.00  0.00     0.210 HD
ENDBRANCH  10  30
TORSDOF 8
ENDMDL
MODEL 3
REMARK VINA RESULT: -6.887991405      1.917      6.069
REMARK  8 active torsions:
REMARK  status: ('A' for Active; 'I' for Inactive)
REMARK    1  A    between atoms: C2_2  and  C3_3 
REMARK    2  A    between atoms: C7_7  and  O1_8 
REMARK    3  A    between atoms: O1_8  and  C8_9 
REMARK    4  A    between atoms: C10_12  and  O3_13 
REMARK    5  A    between atoms: O3_13  and  C11_14 
REMARK    6  A    between atoms: C13_17  and  C14_18 
REMARK    7  A    between atoms: C18_22  and  O5_23 
REMARK    8  A    between atoms: C20_26  and  O6_27 
ROOT
HETATM    1  C3  UNL     1     -90.816 -13.068  11.424  1.00  0.00     0.146 C 
HETATM    2  C4  UNL     1     -91.464 -12.465  12.634  1.00  0.00     0.011 C 
HETATM    3  C5  UNL     1     -90.569 -12.605  13.612  1.00  0.00    -0.042 C 
HETATM    4  C6  UNL     1     -90.473 -12.273  15.037  1.00  0.00     0.072 C 
HETATM    5  C7  UNL     1     -89.154 -11.741  15.496  1.00  0.00     0.174 C 
HETATM    6  C10 UNL     1     -88.112 -11.612  14.324  1.00  0.00     0.135 C 
HETATM    7  C13 UNL     1     -86.826 -11.341  15.018  1.00  0.00     0.026 C 
HETATM    8  C16 UNL     1     -85.571 -11.817  14.352  1.00  0.00     0.010 C 
HETATM    9  C17 UNL     1     -85.263 -13.289  14.604  1.00  0.00     0.032 C 
HETATM   10  C18 UNL     1     -85.810 -14.042  13.447  1.00  0.00     0.121 C 
HETATM   11  C19 UNL     1     -87.032 -13.402  12.817  1.00  0.00     0.076 C 
HETATM   12  C20 UNL     1     -88.113 -13.012  13.743  1.00  0.00     0.129 C 
HETATM   13  C21 UNL     1     -89.411 -13.316  13.019  1.00  0.00     0.115 C 
HETATM   14  C22 UNL     1     -89.670 -14.820  12.964  1.00  0.00     0.055 C 
HETATM   15  O7  UNL     1     -89.456 -12.839  11.711  1.00  0.00    -0.364 OA
ENDROOT
BRANCH   5  16
HETATM   16  O1  UNL     1     -88.700 -12.466  16.562  1.00  0.00    -0.313 OA
BRANCH  16  17
HETATM   17  C8  UNL     1     -88.946 -12.205  17.869  1.00  0.00     0.255 C 
HETATM   18  C9  UNL     1     -88.207 -11.110  18.609  1.00  0.00     0.126 C 
HETATM   19  O2  UNL     1     -89.784 -12.851  18.508  1.00  0.00    -0.266 OA
ENDBRANCH  16  17
ENDBRANCH   5  16
BRANCH   6  20
HETATM   20  O3  UNL     1     -88.694 -10.744  13.539  1.00  0.00    -0.304 OA
BRANCH  20  21
HETATM   21  C11 UNL     1     -88.555  -9.861  12.558  1.00  0.00     0.255 C 
HETATM   22  C12 UNL     1     -87.386  -9.761  11.626  1.00  0.00     0.126 C 
HETATM   23  O4  UNL     1     -89.526  -9.110  12.497  1.00  0.00    -0.266 OA
ENDBRANCH  20  21
ENDBRANCH   6  20
BRANCH   7  24
HETATM   24  C14 UNL     1     -86.707  -9.901  15.484  1.00  0.00     0.003 C 
HETATM   25  C15 UNL     1     -85.512  -9.672  16.377  1.00  0.00     0.005 C 
ENDBRANCH   7  24
BRANCH  12  26
HETATM   26  O6  UNL     1     -88.144 -13.913  14.865  1.00  0.00    -0.383 OA
ATOM     27  H6  UNL     1     -89.047 -13.936  15.162  1.00  0.00     0.210 HD
ENDBRANCH  12  26
BRANCH   1  28
HETATM   28  C2  UNL     1     -91.306 -12.354  10.212  1.00  0.00     0.031 C 
HETATM   29  C1  UNL     1     -92.834 -12.450  10.202  1.00  0.00     0.008 C 
ENDBRANCH   1  28
BRANCH  10  30
HETATM   30  O5  UNL     1     -84.818 -14.038  12.446  1.00  0.00    -0.395 OA
ATOM     31  H5  UNL     1     -85.201 -14.437  11.674  1.00  0.00     0.210 HD
ENDBRANCH  10  30
TORSDOF 8
ENDMDL
MODEL 4
REMARK VINA RESULT: -6.866320731      1.834      2.646
REMARK  8 active torsions:
REMARK  status: ('A' for Active; 'I' for Inactive)
REMARK    1  A    between atoms: C2_2  and  C3_3 
REMARK    2  A    between atoms: C7_7  and  O1_8 
REMARK    3  A    between atoms: O1_8  and  C8_9 
REMARK    4  A    between atoms: C10_12  and  O3_13 
REMARK    5  A    between atoms: O3_13  and  C11_14 
REMARK    6  A    between atoms: C13_17  and  C14_18 
REMARK    7  A    between atoms: C18_22  and  O5_23 
REMARK    8  A    between atoms: C20_26  and  O6_27 
ROOT
HETATM    1  C3  UNL     1     -89.879 -12.887  15.231  1.00  0.00     0.146 C 
HETATM    2  C4  UNL     1     -89.004 -13.785  14.410  1.00  0.00     0.011 C 
HETATM    3  C5  UNL     1     -89.778 -14.202  13.408  1.00  0.00    -0.042 C 
HETATM    4  C6  UNL     1     -89.644 -15.071  12.235  1.00  0.00     0.072 C 
HETATM    5  C7  UNL     1     -90.294 -14.583  10.981  1.00  0.00     0.174 C 
HETATM    6  C10 UNL     1     -90.988 -13.182  11.166  1.00  0.00     0.135 C 
HETATM    7  C13 UNL     1     -91.786 -13.013   9.924  1.00  0.00     0.026 C 
HETATM    8  C16 UNL     1     -93.041 -12.199  10.017  1.00  0.00     0.010 C 
HETATM    9  C17 UNL     1     -94.240 -12.980  10.543  1.00  0.00     0.032 C 
HETATM   10  C18 UNL     1     -94.312 -12.715  12.003  1.00  0.00     0.121 C 
HETATM   11  C19 UNL     1     -92.966 -12.457  12.650  1.00  0.00     0.076 C 
HETATM   12  C20 UNL     1     -91.900 -13.433  12.349  1.00  0.00     0.129 C 
HETATM   13  C21 UNL     1     -91.115 -13.602  13.636  1.00  0.00     0.115 C 
HETATM   14  C22 UNL     1     -91.905 -14.412  14.661  1.00  0.00     0.055 C 
HETATM   15  O7  UNL     1     -90.759 -12.399  14.244  1.00  0.00    -0.364 OA
ENDROOT
BRANCH   5  16
HETATM   16  O1  UNL     1     -91.120 -15.546  10.474  1.00  0.00    -0.313 OA
BRANCH  16  17
HETATM   17  C8  UNL     1     -91.280 -15.854   9.164  1.00  0.00     0.255 C 
HETATM   18  C9  UNL     1     -92.650 -16.125   8.577  1.00  0.00     0.126 C 
HETATM   19  O2  UNL     1     -90.314 -15.923   8.397  1.00  0.00    -0.266 OA
ENDBRANCH  16  17
ENDBRANCH   5  16
BRANCH   6  20
HETATM   20  O3  UNL     1     -89.973 -12.416  11.469  1.00  0.00    -0.304 OA
BRANCH  20  21
HETATM   21  C11 UNL     1     -89.384 -11.237  11.318  1.00  0.00     0.255 C 
HETATM   22  C12 UNL     1     -87.999 -11.007  10.795  1.00  0.00     0.126 C 
HETATM   23  O4  UNL     1     -90.127 -10.322  11.668  1.00  0.00    -0.266 OA
ENDBRANCH  20  21
ENDBRANCH   6  20
BRANCH   7  24
HETATM   24  C14 UNL     1     -90.935 -12.605   8.735  1.00  0.00     0.003 C 
HETATM   25  C15 UNL     1     -91.759 -12.218   7.531  1.00  0.00     0.005 C 
ENDBRANCH   7  24
BRANCH  12  26
HETATM   26  O6  UNL     1     -92.476 -14.737  12.144  1.00  0.00    -0.383 OA
ATOM     27  H6  UNL     1     -93.416 -14.606  12.093  1.00  0.00     0.210 HD
ENDBRANCH  12  26
BRANCH   1  28
HETATM   28  C2  UNL     1     -89.032 -11.835  15.858  1.00  0.00     0.031 C 
HETATM   29  C1  UNL     1     -88.138 -11.245  14.763  1.00  0.00     0.008 C 
ENDBRANCH   1  28
BRANCH  10  30
HETATM   30  O5  UNL     1     -95.052 -11.527  12.171  1.00  0.00    -0.395 OA
ATOM     31  H5  UNL     1     -94.964 -11.271  13.081  1.00  0.00     0.210 HD
ENDBRANCH  10  30
TORSDOF 8
ENDMDL
MODEL 5
REMARK VINA RESULT: -6.815930894      1.981      5.429
REMARK  8 active torsions:
REMARK  status: ('A' for Active; 'I' for Inactive)
REMARK    1  A    between atoms: C2_2  and  C3_3 
REMARK    2  A    between atoms: C7_7  and  O1_8 
REMARK    3  A    between atoms: O1_8  and  C8_9 
REMARK    4  A    between atoms: C10_12  and  O3_13 
REMARK    5  A    between atoms: O3_13  and  C11_14 
REMARK    6  A    between atoms: C13_17  and  C14_18 
REMARK    7  A    between atoms: C18_22  and  O5_23 
REMARK    8  A    between atoms: C20_26  and  O6_27 
ROOT
HETATM    1  C3  UNL     1     -90.137 -13.082   9.774  1.00  0.00     0.146 C 
HETATM    2  C4  UNL     1     -90.483 -14.356  10.483  1.00  0.00     0.011 C 
HETATM    3  C5  UNL     1     -89.677 -14.391  11.545  1.00  0.00    -0.042 C 
HETATM    4  C6  UNL     1     -89.428 -15.288  12.676  1.00  0.00     0.072 C 
HETATM    5  C7  UNL     1     -89.211 -14.628  13.999  1.00  0.00     0.174 C 
HETATM    6  C10 UNL     1     -89.325 -13.060  13.919  1.00  0.00     0.135 C 
HETATM    7  C13 UNL     1     -88.818 -12.598  15.236  1.00  0.00     0.026 C 
HETATM    8  C16 UNL     1     -88.157 -11.253  15.286  1.00  0.00     0.010 C 
HETATM    9  C17 UNL     1     -86.693 -11.274  14.860  1.00  0.00     0.032 C 
HETATM   10  C18 UNL     1     -86.664 -10.906  13.421  1.00  0.00     0.121 C 
HETATM   11  C19 UNL     1     -87.902 -11.324  12.653  1.00  0.00     0.076 C 
HETATM   12  C20 UNL     1     -88.333 -12.726  12.824  1.00  0.00     0.129 C 
HETATM   13  C21 UNL     1     -88.827 -13.179  11.463  1.00  0.00     0.115 C 
HETATM   14  C22 UNL     1     -87.662 -13.398  10.499  1.00  0.00     0.055 C 
HETATM   15  O7  UNL     1     -89.706 -12.286  10.853  1.00  0.00    -0.364 OA
ENDROOT
BRANCH   5  16
HETATM   16  O1  UNL     1     -88.046 -15.069  14.560  1.00  0.00    -0.313 OA
BRANCH  16  17
HETATM   17  C8  UNL     1     -87.891 -16.191  15.305  1.00  0.00     0.255 C 
HETATM   18  C9  UNL     1     -88.326 -16.244  16.755  1.00  0.00     0.126 C 
HETATM   19  O2  UNL     1     -87.391 -17.216  14.828  1.00  0.00    -0.266 OA
ENDBRANCH  16  17
ENDBRANCH   5  16
BRANCH   6  20
HETATM   20  O3  UNL     1     -90.565 -12.899  13.537  1.00  0.00    -0.304 OA
BRANCH  20  21
HETATM   21  C11 UNL     1     -91.555 -12.047  13.298  1.00  0.00     0.255 C 
HETATM   22  C12 UNL     1     -92.878 -12.389  12.686  1.00  0.00     0.126 C 
HETATM   23  O4  UNL     1     -91.252 -10.908  13.646  1.00  0.00    -0.266 OA
ENDBRANCH  20  21
ENDBRANCH   6  20
BRANCH   7  24
HETATM   24  C14 UNL     1     -89.839 -12.766  16.347  1.00  0.00     0.003 C 
HETATM   25  C15 UNL     1     -89.237 -12.615  17.723  1.00  0.00     0.005 C 
ENDBRANCH   7  24
BRANCH  12  26
HETATM   26  O6  UNL     1     -87.185 -13.565  13.051  1.00  0.00    -0.383 OA
ATOM     27  H6  UNL     1     -87.306 -14.333  12.506  1.00  0.00     0.210 HD
ENDBRANCH  12  26
BRANCH   1  28
HETATM   28  C2  UNL     1     -91.358 -12.566   9.094  1.00  0.00     0.031 C 
HETATM   29  C1  UNL     1     -92.451 -13.631   9.230  1.00  0.00     0.008 C 
ENDBRANCH   1  28
BRANCH  10  30
HETATM   30  O5  UNL     1     -86.631  -9.499  13.356  1.00  0.00    -0.395 OA
ATOM     31  H5  UNL     1     -86.856  -9.256  12.465  1.00  0.00     0.210 HD
ENDBRANCH  10  30
TORSDOF 8
ENDMDL
