MODEL 1
REMARK VINA RESULT: -9.701601569      0.000      0.000
REMARK  4 active torsions:
REMARK  status: ('A' for Active; 'I' for Inactive)
REMARK    1  A    between atoms: N1_1  and  C1_4 
REMARK    2  A    between atoms: N3_7  and  C2_8 
REMARK    3  A    between atoms: N4_11  and  C5_12 
REMARK    4  A    between atoms: C5_12  and  C6_13 
ROOT
HETATM    1  C2  UNL     1     -85.640 -11.625   8.644  1.00  0.00     0.113 C 
HETATM    2  C3  UNL     1     -85.920 -12.981   9.246  1.00  0.00     0.057 C 
HETATM    3  C4  UNL     1     -85.167 -13.039  10.531  1.00  0.00     0.274 C 
HETATM    4  N4  UNL     1     -85.400 -11.953  11.471  1.00  0.00     0.088 N 
HETATM    5  C18 UNL     1     -85.381 -10.682  10.845  1.00  0.00     0.274 C 
HETATM    6  C19 UNL     1     -86.290 -10.648   9.601  1.00  0.00     0.057 C 
ENDROOT
BRANCH   4   7
HETATM    7  C5  UNL     1     -86.442 -12.241  12.380  1.00  0.00     0.277 C 
BRANCH   7   8
HETATM    8  C6  UNL     1     -87.843 -12.011  12.066  1.00  0.00     0.017 C 
HETATM    9  C7  UNL     1     -88.849 -11.580  13.050  1.00  0.00     0.009 C 
HETATM   10  C8  UNL     1     -90.095 -11.551  12.099  1.00  0.00     0.038 C 
HETATM   11  C9  UNL     1     -90.022 -13.039  11.700  1.00  0.00     0.065 C 
HETATM   12  C10 UNL     1     -88.527 -13.261  11.455  1.00  0.00     0.044 C 
HETATM   13  C11 UNL     1     -90.877 -13.367  10.534  1.00  0.00     0.048 C 
HETATM   14  O2  UNL     1     -90.432 -13.775  12.779  1.00  0.00    -0.350 OA
HETATM   15  C12 UNL     1     -91.585 -14.655  10.951  1.00  0.00     0.050 C 
HETATM   16  C13 UNL     1     -91.531 -14.529  12.456  1.00  0.00     0.266 C 
HETATM   17  C17 UNL     1     -93.044 -14.559  10.639  1.00  0.00     0.024 C 
HETATM   18  O1  UNL     1     -92.726 -13.954  12.868  1.00  0.00    -0.355 OA
HETATM   19  C14 UNL     1     -93.710 -14.302  11.977  1.00  0.00     0.129 C 
HETATM   20  C15 UNL     1     -94.132 -15.754  12.012  1.00  0.00     0.033 C 
HETATM   21  C16 UNL     1     -93.789 -15.863  10.554  1.00  0.00     0.010 C 
ENDBRANCH   7   8
ENDBRANCH   4   7
BRANCH   1  22
HETATM   22  N3  UNL     1     -86.042 -11.465   7.292  1.00  0.00    -0.267 N 
HETATM   23  N2  UNL     1     -85.186 -11.246   6.311  1.00  0.00    -0.279 N 
HETATM   24  C1  UNL     1     -85.804 -11.141   5.148  1.00  0.00     0.154 A 
ATOM     25  H2  UNL     1     -84.176 -11.168   6.435  1.00  0.00     0.189 HD
HETATM   26  C21 UNL     1     -87.152 -11.302   5.378  1.00  0.00     0.187 A 
HETATM   27  C20 UNL     1     -87.260 -11.502   6.737  1.00  0.00     0.176 A 
HETATM   28  O3  UNL     1     -88.346 -11.343   4.864  1.00  0.00    -0.216 OA
HETATM   29  N5  UNL     1     -88.575 -11.662   6.984  1.00  0.00    -0.259 N 
HETATM   30  N6  UNL     1     -89.204 -11.559   5.815  1.00  0.00     0.029 NA
ATOM     31  H5  UNL     1     -89.005 -11.831   7.893  1.00  0.00     0.186 HD
BRANCH  24  32
HETATM   32  N1  UNL     1     -85.262 -10.925   3.972  1.00  0.00    -0.382 N 
ATOM     33  H12 UNL     1     -84.594 -10.182   3.765  1.00  0.00     0.157 HD
ATOM     34  H11 UNL     1     -85.418 -11.448   3.111  1.00  0.00     0.157 HD
ENDBRANCH  24  32
ENDBRANCH   1  22
TORSDOF 4
ENDMDL
MODEL 2
REMARK VINA RESULT: -9.543099206      5.921      8.608
REMARK  4 active torsions:
REMARK  status: ('A' for Active; 'I' for Inactive)
REMARK    1  A    between atoms: N1_1  and  C1_4 
REMARK    2  A    between atoms: N3_7  and  C2_8 
REMARK    3  A    between atoms: N4_11  and  C5_12 
REMARK    4  A    between atoms: C5_12  and  C6_13 
ROOT
HETATM    1  C2  UNL     1     -87.068 -16.255  17.093  1.00  0.00     0.113 C 
HETATM    2  C3  UNL     1     -88.314 -15.515  17.518  1.00  0.00     0.057 C 
HETATM    3  C4  UNL     1     -87.866 -14.193  18.040  1.00  0.00     0.274 C 
HETATM    4  N4  UNL     1     -87.018 -13.400  17.161  1.00  0.00     0.088 N 
HETATM    5  C18 UNL     1     -85.987 -14.169  16.566  1.00  0.00     0.274 C 
HETATM    6  C19 UNL     1     -86.537 -15.455  15.922  1.00  0.00     0.057 C 
ENDROOT
BRANCH   4   7
HETATM    7  C5  UNL     1     -87.763 -12.522  16.343  1.00  0.00     0.277 C 
BRANCH   7   8
HETATM    8  C6  UNL     1     -88.114 -12.839  14.968  1.00  0.00     0.017 C 
HETATM    9  C7  UNL     1     -88.099 -11.863  13.866  1.00  0.00     0.009 C 
HETATM   10  C8  UNL     1     -88.585 -12.813  12.718  1.00  0.00     0.038 C 
HETATM   11  C9  UNL     1     -89.929 -13.182  13.378  1.00  0.00     0.065 C 
HETATM   12  C10 UNL     1     -89.544 -13.424  14.840  1.00  0.00     0.044 C 
HETATM   13  C11 UNL     1     -90.591 -14.340  12.731  1.00  0.00     0.048 C 
HETATM   14  O2  UNL     1     -90.747 -12.087  13.286  1.00  0.00    -0.350 OA
HETATM   15  C12 UNL     1     -92.047 -13.896  12.590  1.00  0.00     0.050 C 
HETATM   16  C13 UNL     1     -91.881 -12.395  12.580  1.00  0.00     0.266 C 
HETATM   17  C17 UNL     1     -92.543 -14.209  11.215  1.00  0.00     0.024 C 
HETATM   18  O1  UNL     1     -91.820 -11.993  11.251  1.00  0.00    -0.355 OA
HETATM   19  C14 UNL     1     -92.547 -12.875  10.493  1.00  0.00     0.129 C 
HETATM   20  C15 UNL     1     -94.046 -12.810  10.681  1.00  0.00     0.033 C 
HETATM   21  C16 UNL     1     -94.038 -14.267  11.050  1.00  0.00     0.010 C 
ENDBRANCH   7   8
ENDBRANCH   4   7
BRANCH   1  22
HETATM   22  N3  UNL     1     -87.245 -17.637  16.819  1.00  0.00    -0.267 N 
HETATM   23  N2  UNL     1     -87.693 -18.085  15.660  1.00  0.00    -0.279 N 
HETATM   24  C1  UNL     1     -87.761 -19.404  15.650  1.00  0.00     0.154 A 
ATOM     25  H2  UNL     1     -87.953 -17.489  14.874  1.00  0.00     0.189 HD
HETATM   26  C21 UNL     1     -87.330 -19.853  16.878  1.00  0.00     0.187 A 
HETATM   27  C20 UNL     1     -87.016 -18.712  17.584  1.00  0.00     0.176 A 
HETATM   28  O3  UNL     1     -87.098 -20.880  17.641  1.00  0.00    -0.216 OA
HETATM   29  N5  UNL     1     -86.591 -19.129  18.792  1.00  0.00    -0.259 N 
HETATM   30  N6  UNL     1     -86.656 -20.458  18.787  1.00  0.00     0.029 NA
ATOM     31  H5  UNL     1     -86.278 -18.538  19.562  1.00  0.00     0.186 HD
BRANCH  24  32
HETATM   32  N1  UNL     1     -88.161 -20.175  14.665  1.00  0.00    -0.382 N 
ATOM     33  H12 UNL     1     -87.773 -20.167  13.722  1.00  0.00     0.157 HD
ATOM     34  H11 UNL     1     -88.898 -20.880  14.689  1.00  0.00     0.157 HD
ENDBRANCH  24  32
ENDBRANCH   1  22
TORSDOF 4
ENDMDL
MODEL 3
REMARK VINA RESULT: -9.445177292      1.028      1.824
REMARK  4 active torsions:
REMARK  status: ('A' for Active; 'I' for Inactive)
REMARK    1  A    between atoms: N1_1  and  C1_4 
REMARK    2  A    between atoms: N3_7  and  C2_8 
REMARK    3  A    between atoms: N4_11  and  C5_12 
REMARK    4  A    between atoms: C5_12  and  C6_13 
ROOT
HETATM    1  C2  UNL     1     -85.318 -11.529   9.058  1.00  0.00     0.113 C 
HETATM    2  C3  UNL     1     -85.590 -12.893   9.646  1.00  0.00     0.057 C 
HETATM    3  C4  UNL     1     -84.988 -12.896  11.009  1.00  0.00     0.274 C 
HETATM    4  N4  UNL     1     -85.387 -11.816  11.899  1.00  0.00     0.088 N 
HETATM    5  C18 UNL     1     -85.366 -10.552  11.259  1.00  0.00     0.274 C 
HETATM    6  C19 UNL     1     -86.127 -10.581   9.919  1.00  0.00     0.057 C 
ENDROOT
BRANCH   4   7
HETATM    7  C5  UNL     1     -86.509 -12.155  12.687  1.00  0.00     0.277 C 
BRANCH   7   8
HETATM    8  C6  UNL     1     -87.876 -11.952  12.234  1.00  0.00     0.017 C 
HETATM    9  C7  UNL     1     -88.959 -11.433  13.086  1.00  0.00     0.009 C 
HETATM   10  C8  UNL     1     -90.118 -11.487  12.032  1.00  0.00     0.038 C 
HETATM   11  C9  UNL     1     -90.025 -13.005  11.775  1.00  0.00     0.065 C 
HETATM   12  C10 UNL     1     -88.517 -13.250  11.680  1.00  0.00     0.044 C 
HETATM   13  C11 UNL     1     -90.780 -13.435  10.573  1.00  0.00     0.048 C 
HETATM   14  O2  UNL     1     -90.533 -13.642  12.876  1.00  0.00    -0.350 OA
HETATM   15  C12 UNL     1     -91.533 -14.680  11.040  1.00  0.00     0.050 C 
HETATM   16  C13 UNL     1     -91.606 -14.420  12.527  1.00  0.00     0.266 C 
HETATM   17  C17 UNL     1     -92.959 -14.610  10.596  1.00  0.00     0.024 C 
HETATM   18  O1  UNL     1     -92.827 -13.809  12.782  1.00  0.00    -0.355 OA
HETATM   19  C14 UNL     1     -93.734 -14.234  11.844  1.00  0.00     0.129 C 
HETATM   20  C15 UNL     1     -94.171 -15.676  11.971  1.00  0.00     0.033 C 
HETATM   21  C16 UNL     1     -93.705 -15.915  10.563  1.00  0.00     0.010 C 
ENDBRANCH   7   8
ENDBRANCH   4   7
BRANCH   1  22
HETATM   22  N3  UNL     1     -85.570 -11.405   7.667  1.00  0.00    -0.267 N 
HETATM   23  N2  UNL     1     -86.786 -11.295   7.166  1.00  0.00    -0.279 N 
HETATM   24  C1  UNL     1     -86.756 -11.184   5.850  1.00  0.00     0.154 A 
ATOM     25  H2  UNL     1     -87.641 -11.295   7.724  1.00  0.00     0.189 HD
HETATM   26  C21 UNL     1     -85.436 -11.223   5.459  1.00  0.00     0.187 A 
HETATM   27  C20 UNL     1     -84.723 -11.363   6.630  1.00  0.00     0.176 A 
HETATM   28  O3  UNL     1     -84.592 -11.185   4.471  1.00  0.00    -0.216 OA
HETATM   29  N5  UNL     1     -83.426 -11.403   6.270  1.00  0.00    -0.259 N 
HETATM   30  N6  UNL     1     -83.388 -11.291   4.944  1.00  0.00     0.029 NA
ATOM     31  H5  UNL     1     -82.625 -11.501   6.895  1.00  0.00     0.186 HD
BRANCH  24  32
HETATM   32  N1  UNL     1     -87.778 -11.058   5.035  1.00  0.00    -0.382 N 
ATOM     33  H12 UNL     1     -88.706 -11.449   5.198  1.00  0.00     0.157 HD
ATOM     34  H11 UNL     1     -87.803 -10.566   4.142  1.00  0.00     0.157 HD
ENDBRANCH  24  32
ENDBRANCH   1  22
TORSDOF 4
ENDMDL
MODEL 4
REMARK VINA RESULT: -9.424794657      5.675      9.630
REMARK  4 active torsions:
REMARK  status: ('A' for Active; 'I' for Inactive)
REMARK    1  A    between atoms: N1_1  and  C1_4 
REMARK    2  A    between atoms: N3_7  and  C2_8 
REMARK    3  A    between atoms: N4_11  and  C5_12 
REMARK    4  A    between atoms: C5_12  and  C6_13 
ROOT
HETATM    1  C2  UNL     1     -88.059 -16.487  16.447  1.00  0.00     0.113 C 
HETATM    2  C3  UNL     1     -89.215 -15.516  16.414  1.00  0.00     0.057 C 
HETATM    3  C4  UNL     1     -88.706 -14.268  15.780  1.00  0.00     0.274 C 
HETATM    4  N4  UNL     1     -88.064 -14.414  14.481  1.00  0.00     0.088 N 
HETATM    5  C18 UNL     1     -87.150 -15.496  14.448  1.00  0.00     0.274 C 
HETATM    6  C19 UNL     1     -87.784 -16.792  14.989  1.00  0.00     0.057 C 
ENDROOT
BRANCH   4   7
HETATM    7  C5  UNL     1     -88.974 -14.266  13.411  1.00  0.00     0.277 C 
BRANCH   7   8
HETATM    8  C6  UNL     1     -88.926 -13.141  12.491  1.00  0.00     0.017 C 
HETATM    9  C7  UNL     1     -90.110 -12.563  11.833  1.00  0.00     0.009 C 
HETATM   10  C8  UNL     1     -89.381 -11.455  10.996  1.00  0.00     0.038 C 
HETATM   11  C9  UNL     1     -88.479 -12.424  10.206  1.00  0.00     0.065 C 
HETATM   12  C10 UNL     1     -87.999 -13.406  11.277  1.00  0.00     0.044 C 
HETATM   13  C11 UNL     1     -87.380 -11.733   9.488  1.00  0.00     0.048 C 
HETATM   14  O2  UNL     1     -89.269 -13.075   9.296  1.00  0.00    -0.350 OA
HETATM   15  C12 UNL     1     -87.396 -12.368   8.098  1.00  0.00     0.050 C 
HETATM   16  C13 UNL     1     -88.831 -12.833   8.020  1.00  0.00     0.266 C 
HETATM   17  C17 UNL     1     -87.310 -11.304   7.051  1.00  0.00     0.024 C 
HETATM   18  O1  UNL     1     -89.556 -11.839   7.375  1.00  0.00    -0.355 OA
HETATM   19  C14 UNL     1     -88.720 -11.181   6.508  1.00  0.00     0.129 C 
HETATM   20  C15 UNL     1     -88.291 -11.973   5.294  1.00  0.00     0.033 C 
HETATM   21  C16 UNL     1     -86.858 -11.754   5.689  1.00  0.00     0.010 C 
ENDBRANCH   7   8
ENDBRANCH   4   7
BRANCH   1  22
HETATM   22  N3  UNL     1     -88.253 -17.639  17.253  1.00  0.00    -0.267 N 
HETATM   23  N2  UNL     1     -89.166 -17.701  18.204  1.00  0.00    -0.279 N 
HETATM   24  C1  UNL     1     -89.155 -18.879  18.804  1.00  0.00     0.154 A 
ATOM     25  H2  UNL     1     -89.799 -16.938  18.446  1.00  0.00     0.189 HD
HETATM   26  C21 UNL     1     -88.173 -19.639  18.209  1.00  0.00     0.187 A 
HETATM   27  C20 UNL     1     -87.629 -18.824  17.240  1.00  0.00     0.176 A 
HETATM   28  O3  UNL     1     -87.552 -20.781  18.176  1.00  0.00    -0.216 OA
HETATM   29  N5  UNL     1     -86.664 -19.550  16.644  1.00  0.00    -0.259 N 
HETATM   30  N6  UNL     1     -86.648 -20.739  17.243  1.00  0.00     0.029 NA
ATOM     31  H5  UNL     1     -86.061 -19.247  15.879  1.00  0.00     0.186 HD
BRANCH  24  32
HETATM   32  N1  UNL     1     -89.925 -19.281  19.789  1.00  0.00    -0.382 N 
ATOM     33  H12 UNL     1     -90.675 -18.730  20.206  1.00  0.00     0.157 HD
ATOM     34  H11 UNL     1     -89.894 -20.178  20.273  1.00  0.00     0.157 HD
ENDBRANCH  24  32
ENDBRANCH   1  22
TORSDOF 4
ENDMDL
MODEL 5
REMARK VINA RESULT: -9.373922831      5.787      8.973
REMARK  4 active torsions:
REMARK  status: ('A' for Active; 'I' for Inactive)
REMARK    1  A    between atoms: N1_1  and  C1_4 
REMARK    2  A    between atoms: N3_7  and  C2_8 
REMARK    3  A    between atoms: N4_11  and  C5_12 
REMARK    4  A    between atoms: C5_12  and  C6_13 
ROOT
HETATM    1  C2  UNL     1     -87.278 -16.429  17.220  1.00  0.00     0.113 C 
HETATM    2  C3  UNL     1     -87.872 -15.143  17.742  1.00  0.00     0.057 C 
HETATM    3  C4  UNL     1     -86.856 -14.078  17.508  1.00  0.00     0.274 C 
HETATM    4  N4  UNL     1     -86.353 -13.948  16.148  1.00  0.00     0.088 N 
HETATM    5  C18 UNL     1     -86.026 -15.199  15.570  1.00  0.00     0.274 C 
HETATM    6  C19 UNL     1     -87.175 -16.214  15.724  1.00  0.00     0.057 C 
ENDROOT
BRANCH   4   7
HETATM    7  C5  UNL     1     -87.102 -13.026  15.383  1.00  0.00     0.277 C 
BRANCH   7   8
HETATM    8  C6  UNL     1     -87.648 -13.352  14.076  1.00  0.00     0.017 C 
HETATM    9  C7  UNL     1     -87.658 -12.426  12.931  1.00  0.00     0.009 C 
HETATM   10  C8  UNL     1     -88.379 -13.357  11.896  1.00  0.00     0.038 C 
HETATM   11  C9  UNL     1     -89.667 -13.543  12.724  1.00  0.00     0.065 C 
HETATM   12  C10 UNL     1     -89.138 -13.773  14.143  1.00  0.00     0.044 C 
HETATM   13  C11 UNL     1     -90.525 -14.642  12.218  1.00  0.00     0.048 C 
HETATM   14  O2  UNL     1     -90.365 -12.366  12.672  1.00  0.00    -0.350 OA
HETATM   15  C12 UNL     1     -91.929 -14.039  12.223  1.00  0.00     0.050 C 
HETATM   16  C13 UNL     1     -91.602 -12.568  12.117  1.00  0.00     0.266 C 
HETATM   17  C17 UNL     1     -92.619 -14.344  10.931  1.00  0.00     0.024 C 
HETATM   18  O1  UNL     1     -91.657 -12.226  10.771  1.00  0.00    -0.355 OA
HETATM   19  C14 UNL     1     -92.562 -13.047  10.147  1.00  0.00     0.129 C 
HETATM   20  C15 UNL     1     -94.012 -12.803  10.503  1.00  0.00     0.033 C 
HETATM   21  C16 UNL     1     -94.119 -14.236  10.942  1.00  0.00     0.010 C 
ENDBRANCH   7   8
ENDBRANCH   4   7
BRANCH   1  22
HETATM   22  N3  UNL     1     -87.968 -17.613  17.588  1.00  0.00    -0.267 N 
HETATM   23  N2  UNL     1     -89.157 -17.599  18.162  1.00  0.00    -0.279 N 
HETATM   24  C1  UNL     1     -89.590 -18.825  18.398  1.00  0.00     0.154 A 
ATOM     25  H2  UNL     1     -89.675 -16.751  18.394  1.00  0.00     0.189 HD
HETATM   26  C21 UNL     1     -88.627 -19.700  17.951  1.00  0.00     0.187 A 
HETATM   27  C20 UNL     1     -87.623 -18.899  17.450  1.00  0.00     0.176 A 
HETATM   28  O3  UNL     1     -88.268 -20.942  17.804  1.00  0.00    -0.216 OA
HETATM   29  N5  UNL     1     -86.667 -19.737  17.005  1.00  0.00    -0.259 N 
HETATM   30  N6  UNL     1     -87.098 -20.975  17.239  1.00  0.00     0.029 NA
ATOM     31  H5  UNL     1     -85.782 -19.474  16.572  1.00  0.00     0.186 HD
BRANCH  24  32
HETATM   32  N1  UNL     1     -90.727 -19.177  18.955  1.00  0.00    -0.382 N 
ATOM     33  H12 UNL     1     -91.511 -19.603  18.462  1.00  0.00     0.157 HD
ATOM     34  H11 UNL     1     -90.992 -19.081  19.935  1.00  0.00     0.157 HD
ENDBRANCH  24  32
ENDBRANCH   1  22
TORSDOF 4
ENDMDL
