MODEL 1
REMARK VINA RESULT: -8.778273247      0.000      0.000
REMARK  5 active torsions:
REMARK  status: ('A' for Active; 'I' for Inactive)
REMARK    1  A    between atoms: C7_8  and  N1_9 
REMARK       I    between atoms: N1_9  and  C8_11 
REMARK    2  A    between atoms: C8_11  and  O2_13 
REMARK    3  A    between atoms: O2_13  and  C9_14 
REMARK    4  A    between atoms: C9_14  and  C10_15 
REMARK    5  A    between atoms: C12_20  and  C13_21 
ROOT
HETATM    1  C1  UNL     1    -107.995 -14.762  82.939  1.00  0.00     0.010 C 
HETATM    2  C2  UNL     1    -109.398 -15.257  83.138  1.00  0.00    -0.014 C 
HETATM    3  C3  UNL     1    -110.350 -14.789  82.091  1.00  0.00     0.009 C 
HETATM    4  C4  UNL     1    -111.641 -14.248  82.643  1.00  0.00     0.042 C 
HETATM    5  C5  UNL     1    -112.204 -15.226  83.674  1.00  0.00    -0.021 A 
HETATM    6  C6  UNL     1    -111.294 -15.545  84.624  1.00  0.00    -0.007 A 
HETATM    7  S1  UNL     1    -112.124 -16.609  85.617  1.00  0.00    -0.075 SA
HETATM    8  C7  UNL     1    -113.692 -16.642  84.778  1.00  0.00     0.100 A 
HETATM    9  C19 UNL     1    -113.441 -15.794  83.756  1.00  0.00     0.086 A 
HETATM   10  C20 UNL     1    -114.472 -15.475  82.739  1.00  0.00     0.103 C 
HETATM   11  N3  UNL     1    -115.254 -15.196  81.919  1.00  0.00    -0.191 NA
HETATM   12  C21 UNL     1    -109.932 -14.904  84.513  1.00  0.00     0.051 C 
ENDROOT
BRANCH   8  13
HETATM   13  N1  UNL     1    -114.772 -17.422  85.240  1.00  0.00    -0.295 N 
HETATM   14  C8  UNL     1    -116.157 -17.340  85.172  1.00  0.00     0.365 C 
HETATM   15  O1  UNL     1    -116.859 -16.482  84.642  1.00  0.00    -0.238 OA
ATOM     16  H1  UNL     1    -114.459 -18.250  85.747  1.00  0.00     0.172 HD
BRANCH  14  17
HETATM   17  O2  UNL     1    -116.935 -18.375  85.792  1.00  0.00    -0.299 OA
BRANCH  17  18
HETATM   18  C9  UNL     1    -116.864 -18.498  87.189  1.00  0.00     0.229 C 
BRANCH  18  19
HETATM   19  C10 UNL     1    -117.669 -17.408  87.809  1.00  0.00     0.035 A 
HETATM   20  S2  UNL     1    -119.386 -17.189  87.769  1.00  0.00    -0.085 SA
HETATM   21  C11 UNL     1    -119.483 -15.717  88.620  1.00  0.00     0.139 A 
HETATM   22  N2  UNL     1    -118.219 -15.468  88.889  1.00  0.00    -0.358 N 
HETATM   23  C12 UNL     1    -117.284 -16.287  88.503  1.00  0.00     0.058 A 
ATOM     24  H2  UNL     1    -117.970 -14.625  89.406  1.00  0.00     0.166 HD
BRANCH  23  25
HETATM   25  C13 UNL     1    -115.851 -15.974  88.792  1.00  0.00    -0.003 A 
HETATM   26  C14 UNL     1    -115.127 -15.110  88.030  1.00  0.00     0.056 A 
HETATM   27  C15 UNL     1    -113.805 -14.828  88.337  1.00  0.00     0.120 A 
HETATM   28  F1  UNL     1    -113.099 -13.966  87.569  1.00  0.00    -0.206 F 
HETATM   29  C16 UNL     1    -113.192 -15.426  89.430  1.00  0.00     0.084 A 
HETATM   30  C17 UNL     1    -113.914 -16.301  90.205  1.00  0.00     0.120 A 
HETATM   31  F2  UNL     1    -113.319 -16.886  91.271  1.00  0.00    -0.206 F 
HETATM   32  C18 UNL     1    -115.228 -16.565  89.881  1.00  0.00     0.056 A 
ENDBRANCH  23  25
ENDBRANCH  18  19
ENDBRANCH  17  18
ENDBRANCH  14  17
ENDBRANCH   8  13
TORSDOF 5
ENDMDL
MODEL 2
REMARK VINA RESULT: -8.777929439      0.052      1.495
REMARK  5 active torsions:
REMARK  status: ('A' for Active; 'I' for Inactive)
REMARK    1  A    between atoms: C7_8  and  N1_9 
REMARK       I    between atoms: N1_9  and  C8_11 
REMARK    2  A    between atoms: C8_11  and  O2_13 
REMARK    3  A    between atoms: O2_13  and  C9_14 
REMARK    4  A    between atoms: C9_14  and  C10_15 
REMARK    5  A    between atoms: C12_20  and  C13_21 
ROOT
HETATM    1  C1  UNL     1    -108.017 -14.755  82.932  1.00  0.00     0.010 C 
HETATM    2  C2  UNL     1    -109.419 -15.252  83.137  1.00  0.00    -0.014 C 
HETATM    3  C3  UNL     1    -110.378 -14.779  82.098  1.00  0.00     0.009 C 
HETATM    4  C4  UNL     1    -111.666 -14.242  82.661  1.00  0.00     0.042 C 
HETATM    5  C5  UNL     1    -112.222 -15.226  83.691  1.00  0.00    -0.021 A 
HETATM    6  C6  UNL     1    -111.306 -15.549  84.633  1.00  0.00    -0.007 A 
HETATM    7  S1  UNL     1    -112.129 -16.620  85.626  1.00  0.00    -0.075 SA
HETATM    8  C7  UNL     1    -113.702 -16.649  84.796  1.00  0.00     0.100 A 
HETATM    9  C19 UNL     1    -113.458 -15.795  83.777  1.00  0.00     0.086 A 
HETATM   10  C20 UNL     1    -114.495 -15.471  82.768  1.00  0.00     0.103 C 
HETATM   11  N3  UNL     1    -115.282 -15.188  81.954  1.00  0.00    -0.191 NA
HETATM   12  C21 UNL     1    -109.944 -14.907  84.517  1.00  0.00     0.051 C 
ENDROOT
BRANCH   8  13
HETATM   13  N1  UNL     1    -114.778 -17.432  85.260  1.00  0.00    -0.295 N 
HETATM   14  C8  UNL     1    -116.164 -17.354  85.196  1.00  0.00     0.365 C 
HETATM   15  O1  UNL     1    -116.870 -16.498  84.668  1.00  0.00    -0.238 OA
ATOM     16  H1  UNL     1    -114.462 -18.259  85.766  1.00  0.00     0.172 HD
BRANCH  14  17
HETATM   17  O2  UNL     1    -116.937 -18.391  85.818  1.00  0.00    -0.299 OA
BRANCH  17  18
HETATM   18  C9  UNL     1    -116.860 -18.517  87.214  1.00  0.00     0.229 C 
BRANCH  18  19
HETATM   19  C10 UNL     1    -117.674 -17.438  87.841  1.00  0.00     0.035 A 
HETATM   20  S2  UNL     1    -119.388 -17.207  87.762  1.00  0.00    -0.085 SA
HETATM   21  C11 UNL     1    -119.498 -15.756  88.647  1.00  0.00     0.139 A 
HETATM   22  N2  UNL     1    -118.240 -15.522  88.955  1.00  0.00    -0.358 N 
HETATM   23  C12 UNL     1    -117.300 -16.337  88.572  1.00  0.00     0.058 A 
ATOM     24  H2  UNL     1    -117.999 -14.693  89.499  1.00  0.00     0.166 HD
BRANCH  23  25
HETATM   25  C13 UNL     1    -115.873 -16.041  88.905  1.00  0.00    -0.003 A 
HETATM   26  C14 UNL     1    -115.233 -16.627  89.953  1.00  0.00     0.056 A 
HETATM   27  C15 UNL     1    -113.903 -16.344  90.223  1.00  0.00     0.120 A 
HETATM   28  F1  UNL     1    -113.282 -16.937  91.268  1.00  0.00    -0.206 F 
HETATM   29  C16 UNL     1    -113.197 -15.451  89.427  1.00  0.00     0.084 A 
HETATM   30  C17 UNL     1    -113.834 -14.852  88.367  1.00  0.00     0.120 A 
HETATM   31  F2  UNL     1    -113.148 -13.982  87.590  1.00  0.00    -0.206 F 
HETATM   32  C18 UNL     1    -115.158 -15.151  88.118  1.00  0.00     0.056 A 
ENDBRANCH  23  25
ENDBRANCH  18  19
ENDBRANCH  17  18
ENDBRANCH  14  17
ENDBRANCH   8  13
TORSDOF 5
ENDMDL
MODEL 3
REMARK VINA RESULT: -8.623711531      3.331      5.331
REMARK  5 active torsions:
REMARK  status: ('A' for Active; 'I' for Inactive)
REMARK    1  A    between atoms: C7_8  and  N1_9 
REMARK       I    between atoms: N1_9  and  C8_11 
REMARK    2  A    between atoms: C8_11  and  O2_13 
REMARK    3  A    between atoms: O2_13  and  C9_14 
REMARK    4  A    between atoms: C9_14  and  C10_15 
REMARK    5  A    between atoms: C12_20  and  C13_21 
ROOT
HETATM    1  C1  UNL     1    -108.995 -12.595  90.601  1.00  0.00     0.010 C 
HETATM    2  C2  UNL     1    -110.339 -13.241  90.423  1.00  0.00    -0.014 C 
HETATM    3  C3  UNL     1    -110.355 -14.690  90.777  1.00  0.00     0.009 C 
HETATM    4  C4  UNL     1    -111.034 -15.557  89.751  1.00  0.00     0.042 C 
HETATM    5  C5  UNL     1    -112.381 -14.942  89.374  1.00  0.00    -0.021 A 
HETATM    6  C6  UNL     1    -112.264 -13.645  89.002  1.00  0.00    -0.007 A 
HETATM    7  S1  UNL     1    -113.838 -13.197  88.647  1.00  0.00    -0.075 SA
HETATM    8  C7  UNL     1    -114.672 -14.731  88.989  1.00  0.00     0.100 A 
HETATM    9  C19 UNL     1    -113.626 -15.499  89.367  1.00  0.00     0.086 A 
HETATM   10  C20 UNL     1    -113.805 -16.916  89.765  1.00  0.00     0.103 C 
HETATM   11  N3  UNL     1    -113.902 -18.034  90.085  1.00  0.00    -0.191 NA
HETATM   12  C21 UNL     1    -110.876 -13.050  89.018  1.00  0.00     0.051 C 
ENDROOT
BRANCH   8  13
HETATM   13  N1  UNL     1    -116.066 -14.876  88.838  1.00  0.00    -0.295 N 
HETATM   14  C8  UNL     1    -117.079 -15.520  89.535  1.00  0.00     0.365 C 
HETATM   15  O1  UNL     1    -117.009 -16.193  90.562  1.00  0.00    -0.238 OA
ATOM     16  H1  UNL     1    -116.416 -14.387  88.014  1.00  0.00     0.172 HD
BRANCH  14  17
HETATM   17  O2  UNL     1    -118.422 -15.425  89.036  1.00  0.00    -0.299 OA
BRANCH  17  18
HETATM   18  C9  UNL     1    -118.625 -15.631  87.662  1.00  0.00     0.229 C 
BRANCH  18  19
HETATM   19  C10 UNL     1    -118.559 -17.093  87.381  1.00  0.00     0.035 A 
HETATM   20  S2  UNL     1    -119.590 -18.347  87.982  1.00  0.00    -0.085 SA
HETATM   21  C11 UNL     1    -118.817 -19.687  87.270  1.00  0.00     0.139 A 
HETATM   22  N2  UNL     1    -117.824 -19.120  86.617  1.00  0.00    -0.358 N 
HETATM   23  C12 UNL     1    -117.661 -17.829  86.647  1.00  0.00     0.058 A 
ATOM     24  H2  UNL     1    -117.175 -19.699  86.083  1.00  0.00     0.166 HD
BRANCH  23  25
HETATM   25  C13 UNL     1    -116.511 -17.205  85.925  1.00  0.00    -0.003 A 
HETATM   26  C14 UNL     1    -116.672 -16.498  84.774  1.00  0.00     0.056 A 
HETATM   27  C15 UNL     1    -115.586 -15.916  84.138  1.00  0.00     0.120 A 
HETATM   28  F1  UNL     1    -115.763 -15.215  82.994  1.00  0.00    -0.206 F 
HETATM   29  C16 UNL     1    -114.308 -16.046  84.666  1.00  0.00     0.084 A 
HETATM   30  C17 UNL     1    -114.134 -16.758  85.828  1.00  0.00     0.120 A 
HETATM   31  F2  UNL     1    -112.890 -16.887  86.345  1.00  0.00    -0.206 F 
HETATM   32  C18 UNL     1    -115.230 -17.328  86.442  1.00  0.00     0.056 A 
ENDBRANCH  23  25
ENDBRANCH  18  19
ENDBRANCH  17  18
ENDBRANCH  14  17
ENDBRANCH   8  13
TORSDOF 5
ENDMDL
MODEL 4
REMARK VINA RESULT: -8.605108869      3.358      5.487
REMARK  5 active torsions:
REMARK  status: ('A' for Active; 'I' for Inactive)
REMARK    1  A    between atoms: C7_8  and  N1_9 
REMARK       I    between atoms: N1_9  and  C8_11 
REMARK    2  A    between atoms: C8_11  and  O2_13 
REMARK    3  A    between atoms: O2_13  and  C9_14 
REMARK    4  A    between atoms: C9_14  and  C10_15 
REMARK    5  A    between atoms: C12_20  and  C13_21 
ROOT
HETATM    1  C1  UNL     1    -109.003 -12.604  90.577  1.00  0.00     0.010 C 
HETATM    2  C2  UNL     1    -110.346 -13.250  90.399  1.00  0.00    -0.014 C 
HETATM    3  C3  UNL     1    -110.360 -14.702  90.739  1.00  0.00     0.009 C 
HETATM    4  C4  UNL     1    -111.042 -15.559  89.708  1.00  0.00     0.042 C 
HETATM    5  C5  UNL     1    -112.392 -14.942  89.344  1.00  0.00    -0.021 A 
HETATM    6  C6  UNL     1    -112.278 -13.642  88.984  1.00  0.00    -0.007 A 
HETATM    7  S1  UNL     1    -113.855 -13.191  88.641  1.00  0.00    -0.075 SA
HETATM    8  C7  UNL     1    -114.685 -14.729  88.973  1.00  0.00     0.100 A 
HETATM    9  C19 UNL     1    -113.636 -15.500  89.337  1.00  0.00     0.086 A 
HETATM   10  C20 UNL     1    -113.812 -16.921  89.723  1.00  0.00     0.103 C 
HETATM   11  N3  UNL     1    -113.906 -18.043  90.032  1.00  0.00    -0.191 NA
HETATM   12  C21 UNL     1    -110.891 -13.045  88.999  1.00  0.00     0.051 C 
ENDROOT
BRANCH   8  13
HETATM   13  N1  UNL     1    -116.079 -14.874  88.826  1.00  0.00    -0.295 N 
HETATM   14  C8  UNL     1    -117.089 -15.522  89.526  1.00  0.00     0.365 C 
HETATM   15  O1  UNL     1    -117.015 -16.199  90.549  1.00  0.00    -0.238 OA
ATOM     16  H1  UNL     1    -116.433 -14.383  88.006  1.00  0.00     0.172 HD
BRANCH  14  17
HETATM   17  O2  UNL     1    -118.434 -15.425  89.033  1.00  0.00    -0.299 OA
BRANCH  17  18
HETATM   18  C9  UNL     1    -118.645 -15.636  87.661  1.00  0.00     0.229 C 
BRANCH  18  19
HETATM   19  C10 UNL     1    -118.567 -17.097  87.382  1.00  0.00     0.035 A 
HETATM   20  S2  UNL     1    -119.598 -18.356  87.972  1.00  0.00    -0.085 SA
HETATM   21  C11 UNL     1    -118.810 -19.693  87.270  1.00  0.00     0.139 A 
HETATM   22  N2  UNL     1    -117.812 -19.121  86.628  1.00  0.00    -0.358 N 
HETATM   23  C12 UNL     1    -117.657 -17.829  86.659  1.00  0.00     0.058 A 
ATOM     24  H2  UNL     1    -117.155 -19.696  86.102  1.00  0.00     0.166 HD
BRANCH  23  25
HETATM   25  C13 UNL     1    -116.502 -17.199  85.949  1.00  0.00    -0.003 A 
HETATM   26  C14 UNL     1    -115.223 -17.312  86.396  1.00  0.00     0.056 A 
HETATM   27  C15 UNL     1    -114.173 -16.731  85.703  1.00  0.00     0.120 A 
HETATM   28  F1  UNL     1    -112.905 -16.854  86.162  1.00  0.00    -0.206 F 
HETATM   29  C16 UNL     1    -114.408 -16.017  84.536  1.00  0.00     0.084 A 
HETATM   30  C17 UNL     1    -115.697 -15.895  84.075  1.00  0.00     0.120 A 
HETATM   31  F2  UNL     1    -115.930 -15.200  82.938  1.00  0.00    -0.206 F 
HETATM   32  C18 UNL     1    -116.725 -16.484  84.782  1.00  0.00     0.056 A 
ENDBRANCH  23  25
ENDBRANCH  18  19
ENDBRANCH  17  18
ENDBRANCH  14  17
ENDBRANCH   8  13
TORSDOF 5
ENDMDL
MODEL 5
REMARK VINA RESULT: -8.505636343      3.292      4.966
REMARK  5 active torsions:
REMARK  status: ('A' for Active; 'I' for Inactive)
REMARK    1  A    between atoms: C7_8  and  N1_9 
REMARK       I    between atoms: N1_9  and  C8_11 
REMARK    2  A    between atoms: C8_11  and  O2_13 
REMARK    3  A    between atoms: O2_13  and  C9_14 
REMARK    4  A    between atoms: C9_14  and  C10_15 
REMARK    5  A    between atoms: C12_20  and  C13_21 
ROOT
HETATM    1  C1  UNL     1    -108.402 -16.181  88.727  1.00  0.00     0.010 C 
HETATM    2  C2  UNL     1    -109.844 -15.767  88.660  1.00  0.00    -0.014 C 
HETATM    3  C3  UNL     1    -110.036 -14.308  88.422  1.00  0.00     0.009 C 
HETATM    4  C4  UNL     1    -111.042 -13.671  89.342  1.00  0.00     0.042 C 
HETATM    5  C5  UNL     1    -112.313 -14.519  89.373  1.00  0.00    -0.021 A 
HETATM    6  C6  UNL     1    -112.054 -15.816  89.662  1.00  0.00    -0.007 A 
HETATM    7  S1  UNL     1    -113.568 -16.533  89.635  1.00  0.00    -0.075 SA
HETATM    8  C7  UNL     1    -114.565 -15.113  89.240  1.00  0.00     0.100 A 
HETATM    9  C19 UNL     1    -113.611 -14.160  89.156  1.00  0.00     0.086 A 
HETATM   10  C20 UNL     1    -113.945 -12.750  88.837  1.00  0.00     0.103 C 
HETATM   11  N3  UNL     1    -114.164 -11.631  88.590  1.00  0.00    -0.191 NA
HETATM   12  C21 UNL     1    -110.610 -16.191  89.899  1.00  0.00     0.051 C 
ENDROOT
BRANCH   8  13
HETATM   13  N1  UNL     1    -115.965 -15.197  89.099  1.00  0.00    -0.295 N 
HETATM   14  C8  UNL     1    -116.989 -15.881  89.742  1.00  0.00     0.365 C 
HETATM   15  O1  UNL     1    -116.926 -16.662  90.689  1.00  0.00    -0.238 OA
ATOM     16  H1  UNL     1    -116.311 -14.612  88.339  1.00  0.00     0.172 HD
BRANCH  14  17
HETATM   17  O2  UNL     1    -118.335 -15.690  89.281  1.00  0.00    -0.299 OA
BRANCH  17  18
HETATM   18  C9  UNL     1    -118.574 -15.793  87.902  1.00  0.00     0.229 C 
BRANCH  18  19
HETATM   19  C10 UNL     1    -118.543 -17.231  87.514  1.00  0.00     0.035 A 
HETATM   20  S2  UNL     1    -119.558 -18.515  88.080  1.00  0.00    -0.085 SA
HETATM   21  C11 UNL     1    -118.842 -19.808  87.234  1.00  0.00     0.139 A 
HETATM   22  N2  UNL     1    -117.877 -19.206  86.571  1.00  0.00    -0.358 N 
HETATM   23  C12 UNL     1    -117.695 -17.922  86.683  1.00  0.00     0.058 A 
ATOM     24  H2  UNL     1    -117.266 -19.751  85.963  1.00  0.00     0.166 HD
BRANCH  23  25
HETATM   25  C13 UNL     1    -116.576 -17.259  85.946  1.00  0.00    -0.003 A 
HETATM   26  C14 UNL     1    -116.780 -16.534  84.813  1.00  0.00     0.056 A 
HETATM   27  C15 UNL     1    -115.722 -15.917  84.164  1.00  0.00     0.120 A 
HETATM   28  F1  UNL     1    -115.943 -15.198  83.038  1.00  0.00    -0.206 F 
HETATM   29  C16 UNL     1    -114.430 -16.029  84.659  1.00  0.00     0.084 A 
HETATM   30  C17 UNL     1    -114.212 -16.760  85.802  1.00  0.00     0.120 A 
HETATM   31  F2  UNL     1    -112.954 -16.871  86.286  1.00  0.00    -0.206 F 
HETATM   32  C18 UNL     1    -115.281 -17.364  86.430  1.00  0.00     0.056 A 
ENDBRANCH  23  25
ENDBRANCH  18  19
ENDBRANCH  17  18
ENDBRANCH  14  17
ENDBRANCH   8  13
TORSDOF 5
ENDMDL
