MODEL 1
REMARK VINA RESULT: -7.367683621      0.000      0.000
REMARK  6 active torsions:
REMARK  status: ('A' for Active; 'I' for Inactive)
REMARK    1  A    between atoms: O1_1  and  C1_3 
REMARK    2  A    between atoms: C2_4  and  N1_5 
REMARK    3  A    between atoms: N2_10  and  C7_11 
REMARK    4  A    between atoms: C7_11  and  C8_12 
REMARK    5  A    between atoms: N3_21  and  N4_22 
REMARK    6  A    between atoms: N4_22  and  C15_24 
ROOT
HETATM    1  C1  UNL     1    -112.842 -16.325  87.221  1.00  0.00     0.209 A 
HETATM    2  C2  UNL     1    -114.227 -16.230  87.386  1.00  0.00     0.162 A 
HETATM    3  N2  UNL     1    -114.715 -16.201  86.138  1.00  0.00    -0.300 N 
HETATM    4  C14 UNL     1    -113.670 -16.274  85.253  1.00  0.00     0.204 A 
HETATM    5  S1  UNL     1    -113.781 -16.272  83.621  1.00  0.00    -0.038 SA
HETATM    6  N3  UNL     1    -112.515 -16.352  85.921  1.00  0.00    -0.204 N 
ENDROOT
BRANCH   6   7
HETATM    7  N4  UNL     1    -111.235 -16.442  85.398  1.00  0.00    -0.296 N 
ATOM      8  H4  UNL     1    -110.868 -17.382  85.251  1.00  0.00     0.187 HD
BRANCH   7   9
HETATM    9  C15 UNL     1    -110.466 -15.473  85.082  1.00  0.00     0.022 C 
HETATM   10  C16 UNL     1    -110.404 -14.297  85.981  1.00  0.00     0.056 C 
HETATM   11  C17 UNL     1    -109.064 -13.604  85.923  1.00  0.00     0.006 C 
HETATM   12  C18 UNL     1    -108.682 -13.450  84.467  1.00  0.00     0.002 C 
HETATM   13  C19 UNL     1    -108.356 -14.837  83.946  1.00  0.00     0.026 C 
HETATM   14  C20 UNL     1    -109.676 -15.572  83.836  1.00  0.00     0.129 C 
HETATM   15 CL2  UNL     1    -110.593 -14.726  82.541  1.00  0.00    -0.119 Cl
ENDBRANCH   7   9
ENDBRANCH   6   7
BRANCH   1  16
HETATM   16  O1  UNL     1    -111.913 -16.386  88.250  1.00  0.00    -0.342 OA
ATOM     17  H1  UNL     1    -111.165 -15.810  88.349  1.00  0.00     0.219 HD
ENDBRANCH   1  16
BRANCH   2  18
HETATM   18  N1  UNL     1    -114.907 -16.184  88.629  1.00  0.00    -0.363 N 
HETATM   19  C3  UNL     1    -115.300 -14.904  89.239  1.00  0.00     0.124 C 
HETATM   20  C4  UNL     1    -115.791 -15.212  90.620  1.00  0.00     0.021 C 
HETATM   21  C5  UNL     1    -116.084 -16.686  90.643  1.00  0.00     0.021 C 
HETATM   22  C6  UNL     1    -115.325 -17.269  89.451  1.00  0.00     0.124 C 
ENDBRANCH   2  18
BRANCH   3  23
HETATM   23  C7  UNL     1    -116.061 -16.133  85.673  1.00  0.00     0.173 C 
BRANCH  23  24
HETATM   24  C8  UNL     1    -116.878 -17.303  86.110  1.00  0.00    -0.018 A 
HETATM   25  C9  UNL     1    -116.604 -18.605  85.749  1.00  0.00     0.010 A 
HETATM   26  C10 UNL     1    -117.400 -19.664  86.183  1.00  0.00     0.001 A 
HETATM   27  C11 UNL     1    -118.488 -19.399  86.995  1.00  0.00     0.002 A 
HETATM   28  C12 UNL     1    -118.754 -18.096  87.352  1.00  0.00     0.024 A 
HETATM   29  C13 UNL     1    -117.961 -17.044  86.918  1.00  0.00     0.042 A 
HETATM   30 CL1  UNL     1    -118.337 -15.421  87.393  1.00  0.00    -0.084 Cl
ENDBRANCH  23  24
ENDBRANCH   3  23
TORSDOF 6
ENDMDL
MODEL 2
REMARK VINA RESULT: -7.354321353      3.210      5.831
REMARK  6 active torsions:
REMARK  status: ('A' for Active; 'I' for Inactive)
REMARK    1  A    between atoms: O1_1  and  C1_3 
REMARK    2  A    between atoms: C2_4  and  N1_5 
REMARK    3  A    between atoms: N2_10  and  C7_11 
REMARK    4  A    between atoms: C7_11  and  C8_12 
REMARK    5  A    between atoms: N3_21  and  N4_22 
REMARK    6  A    between atoms: N4_22  and  C15_24 
ROOT
HETATM    1  C1  UNL     1    -115.534 -14.806  88.925  1.00  0.00     0.209 A 
HETATM    2  C2  UNL     1    -115.776 -15.716  87.892  1.00  0.00     0.162 A 
HETATM    3  N2  UNL     1    -114.566 -15.963  87.370  1.00  0.00    -0.300 N 
HETATM    4  C14 UNL     1    -113.631 -15.232  88.056  1.00  0.00     0.204 A 
HETATM    5  S1  UNL     1    -112.020 -15.212  87.773  1.00  0.00    -0.038 SA
HETATM    6  N3  UNL     1    -114.228 -14.519  89.016  1.00  0.00    -0.204 N 
ENDROOT
BRANCH   6   7
HETATM    7  N4  UNL     1    -113.637 -13.658  89.927  1.00  0.00    -0.296 N 
ATOM      8  H4  UNL     1    -113.675 -12.663  89.704  1.00  0.00     0.187 HD
BRANCH   7   9
HETATM    9  C15 UNL     1    -113.051 -13.977  91.015  1.00  0.00     0.022 C 
HETATM   10  C16 UNL     1    -111.685 -13.461  91.260  1.00  0.00     0.056 C 
HETATM   11  C17 UNL     1    -111.392 -13.294  92.732  1.00  0.00     0.006 C 
HETATM   12  C18 UNL     1    -111.854 -14.548  93.443  1.00  0.00     0.002 C 
HETATM   13  C19 UNL     1    -113.371 -14.543  93.408  1.00  0.00     0.026 C 
HETATM   14  C20 UNL     1    -113.764 -14.845  91.977  1.00  0.00     0.129 C 
HETATM   15 CL2  UNL     1    -113.236 -16.538  91.678  1.00  0.00    -0.119 Cl
ENDBRANCH   7   9
ENDBRANCH   6   7
BRANCH   1  16
HETATM   16  O1  UNL     1    -116.501 -14.261  89.757  1.00  0.00    -0.342 OA
ATOM     17  H1  UNL     1    -117.311 -13.858  89.468  1.00  0.00     0.219 HD
ENDBRANCH   1  16
BRANCH   2  18
HETATM   18  N1  UNL     1    -117.045 -16.232  87.530  1.00  0.00    -0.363 N 
HETATM   19  C3  UNL     1    -118.023 -15.413  86.796  1.00  0.00     0.124 C 
HETATM   20  C4  UNL     1    -119.307 -16.184  86.773  1.00  0.00     0.021 C 
HETATM   21  C5  UNL     1    -118.950 -17.606  87.105  1.00  0.00     0.021 C 
HETATM   22  C6  UNL     1    -117.572 -17.534  87.763  1.00  0.00     0.124 C 
ENDBRANCH   2  18
BRANCH   3  23
HETATM   23  C7  UNL     1    -114.178 -16.829  86.305  1.00  0.00     0.173 C 
BRANCH  23  24
HETATM   24  C8  UNL     1    -114.432 -16.233  84.960  1.00  0.00    -0.018 A 
HETATM   25  C9  UNL     1    -115.693 -16.005  84.452  1.00  0.00     0.010 A 
HETATM   26  C10 UNL     1    -115.878 -15.447  83.187  1.00  0.00     0.001 A 
HETATM   27  C11 UNL     1    -114.769 -15.116  82.430  1.00  0.00     0.002 A 
HETATM   28  C12 UNL     1    -113.514 -15.347  82.945  1.00  0.00     0.024 A 
HETATM   29  C13 UNL     1    -113.332 -15.903  84.203  1.00  0.00     0.042 A 
HETATM   30 CL1  UNL     1    -111.732 -16.175  84.809  1.00  0.00    -0.084 Cl
ENDBRANCH  23  24
ENDBRANCH   3  23
TORSDOF 6
ENDMDL
MODEL 3
REMARK VINA RESULT: -7.344841657      3.155      6.072
REMARK  6 active torsions:
REMARK  status: ('A' for Active; 'I' for Inactive)
REMARK    1  A    between atoms: O1_1  and  C1_3 
REMARK    2  A    between atoms: C2_4  and  N1_5 
REMARK    3  A    between atoms: N2_10  and  C7_11 
REMARK    4  A    between atoms: C7_11  and  C8_12 
REMARK    5  A    between atoms: N3_21  and  N4_22 
REMARK    6  A    between atoms: N4_22  and  C15_24 
ROOT
HETATM    1  C1  UNL     1    -114.958 -14.756  88.663  1.00  0.00     0.209 A 
HETATM    2  C2  UNL     1    -115.024 -15.635  87.578  1.00  0.00     0.162 A 
HETATM    3  N2  UNL     1    -113.751 -15.788  87.190  1.00  0.00    -0.300 N 
HETATM    4  C14 UNL     1    -112.946 -15.034  88.003  1.00  0.00     0.204 A 
HETATM    5  S1  UNL     1    -111.317 -14.907  87.907  1.00  0.00    -0.038 SA
HETATM    6  N3  UNL     1    -113.690 -14.397  88.913  1.00  0.00    -0.204 N 
ENDROOT
BRANCH   6   7
HETATM    7  N4  UNL     1    -113.260 -13.541  89.914  1.00  0.00    -0.296 N 
ATOM      8  H4  UNL     1    -113.350 -12.542  89.730  1.00  0.00     0.187 HD
BRANCH   7   9
HETATM    9  C15 UNL     1    -112.764 -13.871  91.044  1.00  0.00     0.022 C 
HETATM   10  C16 UNL     1    -111.453 -13.302  91.433  1.00  0.00     0.056 C 
HETATM   11  C17 UNL     1    -111.309 -13.172  92.931  1.00  0.00     0.006 C 
HETATM   12  C18 UNL     1    -111.775 -14.469  93.557  1.00  0.00     0.002 C 
HETATM   13  C19 UNL     1    -113.280 -14.532  93.377  1.00  0.00     0.026 C 
HETATM   14  C20 UNL     1    -113.521 -14.802  91.907  1.00  0.00     0.129 C 
HETATM   15 CL2  UNL     1    -112.887 -16.459  91.610  1.00  0.00    -0.119 Cl
ENDBRANCH   7   9
ENDBRANCH   6   7
BRANCH   1  16
HETATM   16  O1  UNL     1    -116.044 -14.303  89.398  1.00  0.00    -0.342 OA
ATOM     17  H1  UNL     1    -116.367 -13.410  89.407  1.00  0.00     0.219 HD
ENDBRANCH   1  16
BRANCH   2  18
HETATM   18  N1  UNL     1    -116.210 -16.208  87.056  1.00  0.00    -0.363 N 
HETATM   19  C3  UNL     1    -116.396 -17.667  87.004  1.00  0.00     0.124 C 
HETATM   20  C4  UNL     1    -117.640 -17.921  86.210  1.00  0.00     0.021 C 
HETATM   21  C5  UNL     1    -118.391 -16.619  86.179  1.00  0.00     0.021 C 
HETATM   22  C6  UNL     1    -117.362 -15.549  86.541  1.00  0.00     0.124 C 
ENDBRANCH   2  18
BRANCH   3  23
HETATM   23  C7  UNL     1    -113.192 -16.585  86.147  1.00  0.00     0.173 C 
BRANCH  23  24
HETATM   24  C8  UNL     1    -113.400 -15.987  84.795  1.00  0.00    -0.018 A 
HETATM   25  C9  UNL     1    -114.637 -15.851  84.202  1.00  0.00     0.010 A 
HETATM   26  C10 UNL     1    -114.779 -15.287  82.934  1.00  0.00     0.001 A 
HETATM   27  C11 UNL     1    -113.651 -14.856  82.261  1.00  0.00     0.002 A 
HETATM   28  C12 UNL     1    -112.419 -14.995  82.861  1.00  0.00     0.024 A 
HETATM   29  C13 UNL     1    -112.281 -15.557  84.122  1.00  0.00     0.042 A 
HETATM   30 CL1  UNL     1    -110.710 -15.711  84.835  1.00  0.00    -0.084 Cl
ENDBRANCH  23  24
ENDBRANCH   3  23
TORSDOF 6
ENDMDL
MODEL 4
REMARK VINA RESULT: -7.341736108      1.659      2.321
REMARK  6 active torsions:
REMARK  status: ('A' for Active; 'I' for Inactive)
REMARK    1  A    between atoms: O1_1  and  C1_3 
REMARK    2  A    between atoms: C2_4  and  N1_5 
REMARK    3  A    between atoms: N2_10  and  C7_11 
REMARK    4  A    between atoms: C7_11  and  C8_12 
REMARK    5  A    between atoms: N3_21  and  N4_22 
REMARK    6  A    between atoms: N4_22  and  C15_24 
ROOT
HETATM    1  C1  UNL     1    -112.965 -15.110  86.480  1.00  0.00     0.209 A 
HETATM    2  C2  UNL     1    -114.039 -15.978  86.699  1.00  0.00     0.162 A 
HETATM    3  N2  UNL     1    -114.449 -16.323  85.471  1.00  0.00    -0.300 N 
HETATM    4  C14 UNL     1    -113.659 -15.691  84.546  1.00  0.00     0.204 A 
HETATM    5  S1  UNL     1    -113.788 -15.810  82.920  1.00  0.00    -0.038 SA
HETATM    6  N3  UNL     1    -112.743 -14.943  85.168  1.00  0.00    -0.204 N 
ENDROOT
BRANCH   6   7
HETATM    7  N4  UNL     1    -111.759 -14.153  84.596  1.00  0.00    -0.296 N 
ATOM      8  H4  UNL     1    -112.052 -13.240  84.248  1.00  0.00     0.187 HD
BRANCH   7   9
HETATM    9  C15 UNL     1    -110.524 -14.447  84.457  1.00  0.00     0.022 C 
HETATM   10  C16 UNL     1    -110.151 -15.475  83.458  1.00  0.00     0.056 C 
HETATM   11  C17 UNL     1    -108.767 -15.250  82.897  1.00  0.00     0.006 C 
HETATM   12  C18 UNL     1    -107.836 -14.962  84.056  1.00  0.00     0.002 C 
HETATM   13  C19 UNL     1    -108.202 -13.589  84.587  1.00  0.00     0.026 C 
HETATM   14  C20 UNL     1    -109.529 -13.748  85.298  1.00  0.00     0.129 C 
HETATM   15 CL2  UNL     1    -109.192 -14.790  86.724  1.00  0.00    -0.119 Cl
ENDBRANCH   7   9
ENDBRANCH   6   7
BRANCH   1  16
HETATM   16  O1  UNL     1    -112.215 -14.494  87.471  1.00  0.00    -0.342 OA
ATOM     17  H1  UNL     1    -112.569 -14.004  88.204  1.00  0.00     0.219 HD
ENDBRANCH   1  16
BRANCH   2  18
HETATM   18  N1  UNL     1    -114.532 -16.372  87.967  1.00  0.00    -0.363 N 
HETATM   19  C3  UNL     1    -114.129 -17.646  88.584  1.00  0.00     0.124 C 
HETATM   20  C4  UNL     1    -114.991 -17.838  89.794  1.00  0.00     0.021 C 
HETATM   21  C5  UNL     1    -115.576 -16.490  90.111  1.00  0.00     0.021 C 
HETATM   22  C6  UNL     1    -115.422 -15.670  88.830  1.00  0.00     0.124 C 
ENDBRANCH   2  18
BRANCH   3  23
HETATM   23  C7  UNL     1    -115.494 -17.203  85.059  1.00  0.00     0.173 C 
BRANCH  23  24
HETATM   24  C8  UNL     1    -116.775 -16.949  85.781  1.00  0.00    -0.018 A 
HETATM   25  C9  UNL     1    -117.456 -15.751  85.730  1.00  0.00     0.010 A 
HETATM   26  C10 UNL     1    -118.651 -15.563  86.426  1.00  0.00     0.001 A 
HETATM   27  C11 UNL     1    -119.159 -16.603  87.181  1.00  0.00     0.002 A 
HETATM   28  C12 UNL     1    -118.473 -17.796  87.226  1.00  0.00     0.024 A 
HETATM   29  C13 UNL     1    -117.285 -17.981  86.534  1.00  0.00     0.042 A 
HETATM   30 CL1  UNL     1    -116.457 -19.500  86.622  1.00  0.00    -0.084 Cl
ENDBRANCH  23  24
ENDBRANCH   3  23
TORSDOF 6
ENDMDL
MODEL 5
REMARK VINA RESULT: -7.122642601      3.194      5.826
REMARK  6 active torsions:
REMARK  status: ('A' for Active; 'I' for Inactive)
REMARK    1  A    between atoms: O1_1  and  C1_3 
REMARK    2  A    between atoms: C2_4  and  N1_5 
REMARK    3  A    between atoms: N2_10  and  C7_11 
REMARK    4  A    between atoms: C7_11  and  C8_12 
REMARK    5  A    between atoms: N3_21  and  N4_22 
REMARK    6  A    between atoms: N4_22  and  C15_24 
ROOT
HETATM    1  C1  UNL     1    -115.245 -14.573  88.946  1.00  0.00     0.209 A 
HETATM    2  C2  UNL     1    -115.565 -15.463  87.916  1.00  0.00     0.162 A 
HETATM    3  N2  UNL     1    -114.382 -15.808  87.389  1.00  0.00    -0.300 N 
HETATM    4  C14 UNL     1    -113.387 -15.154  88.069  1.00  0.00     0.204 A 
HETATM    5  S1  UNL     1    -111.781 -15.265  87.778  1.00  0.00    -0.038 SA
HETATM    6  N3  UNL     1    -113.919 -14.392  89.029  1.00  0.00    -0.204 N 
ENDROOT
BRANCH   6   7
HETATM    7  N4  UNL     1    -113.257 -13.579  89.934  1.00  0.00    -0.296 N 
ATOM      8  H4  UNL     1    -113.155 -12.597  89.677  1.00  0.00     0.187 HD
BRANCH   7   9
HETATM    9  C15 UNL     1    -112.759 -13.928  91.058  1.00  0.00     0.022 C 
HETATM   10  C16 UNL     1    -111.449 -13.363  91.456  1.00  0.00     0.056 C 
HETATM   11  C17 UNL     1    -111.303 -13.261  92.956  1.00  0.00     0.006 C 
HETATM   12  C18 UNL     1    -111.766 -14.570  93.558  1.00  0.00     0.002 C 
HETATM   13  C19 UNL     1    -113.271 -14.632  93.379  1.00  0.00     0.026 C 
HETATM   14  C20 UNL     1    -113.513 -14.876  91.904  1.00  0.00     0.129 C 
HETATM   15 CL2  UNL     1    -112.876 -16.526  91.576  1.00  0.00    -0.119 Cl
ENDBRANCH   7   9
ENDBRANCH   6   7
BRANCH   1  16
HETATM   16  O1  UNL     1    -116.161 -13.948  89.780  1.00  0.00    -0.342 OA
ATOM     17  H1  UNL     1    -116.080 -13.066  90.122  1.00  0.00     0.219 HD
ENDBRANCH   1  16
BRANCH   2  18
HETATM   18  N1  UNL     1    -116.873 -15.876  87.562  1.00  0.00    -0.363 N 
HETATM   19  C3  UNL     1    -117.401 -17.185  87.976  1.00  0.00     0.124 C 
HETATM   20  C4  UNL     1    -118.702 -17.378  87.259  1.00  0.00     0.021 C 
HETATM   21  C5  UNL     1    -119.124 -16.016  86.781  1.00  0.00     0.021 C 
HETATM   22  C6  UNL     1    -117.857 -15.163  86.818  1.00  0.00     0.124 C 
ENDBRANCH   2  18
BRANCH   3  23
HETATM   23  C7  UNL     1    -114.070 -16.706  86.325  1.00  0.00     0.173 C 
BRANCH  23  24
HETATM   24  C8  UNL     1    -113.881 -16.005  85.022  1.00  0.00    -0.018 A 
HETATM   25  C9  UNL     1    -112.724 -15.343  84.670  1.00  0.00     0.010 A 
HETATM   26  C10 UNL     1    -112.597 -14.701  83.439  1.00  0.00     0.001 A 
HETATM   27  C11 UNL     1    -113.659 -14.731  82.553  1.00  0.00     0.002 A 
HETATM   28  C12 UNL     1    -114.811 -15.395  82.911  1.00  0.00     0.024 A 
HETATM   29  C13 UNL     1    -114.934 -16.033  84.137  1.00  0.00     0.042 A 
HETATM   30 CL1  UNL     1    -116.404 -16.854  84.543  1.00  0.00    -0.084 Cl
ENDBRANCH  23  24
ENDBRANCH   3  23
TORSDOF 6
ENDMDL
