MODEL 1
REMARK VINA RESULT: -3.499383282      0.000      0.000
REMARK  0 active torsions:
REMARK  status: ('A' for Active; 'I' for Inactive)
ROOT
HETATM    1  N1  UNL     1     -20.593   2.035  92.548  1.00  0.00    -0.385 N 
ATOM      2  H11 UNL     1     -20.459   1.632  91.620  1.00  0.00     0.157 HD
ATOM      3  H12 UNL     1     -21.028   1.314  93.125  1.00  0.00     0.157 HD
HETATM    4  C1  UNL     1     -20.280   3.226  92.944  1.00  0.00     0.111 A 
HETATM    5  C2  UNL     1     -20.470   3.800  94.264  1.00  0.00     0.132 A 
HETATM    6  N2  UNL     1     -20.030   5.002  94.253  1.00  0.00    -0.380 N 
ATOM      7  H2  UNL     1     -20.050   5.620  95.064  1.00  0.00     0.160 HD
HETATM    8  C3  UNL     1     -19.513   5.378  92.988  1.00  0.00     0.244 A 
HETATM    9  N3  UNL     1     -19.675   4.228  92.143  1.00  0.00    -0.360 N 
ATOM     10  H3  UNL     1     -19.409   4.148  91.161  1.00  0.00     0.162 HD
ENDROOT
TORSDOF 0
ENDMDL
MODEL 2
REMARK VINA RESULT: -3.481595456      6.568      7.884
REMARK  0 active torsions:
REMARK  status: ('A' for Active; 'I' for Inactive)
ROOT
HETATM    1  N1  UNL     1     -18.647  -1.211  90.716  1.00  0.00    -0.385 N 
ATOM      2  H11 UNL     1     -17.988  -0.432  90.699  1.00  0.00     0.157 HD
ATOM      3  H12 UNL     1     -19.516  -0.874  90.300  1.00  0.00     0.157 HD
HETATM    4  C1  UNL     1     -18.444  -2.406  91.169  1.00  0.00     0.111 A 
HETATM    5  C2  UNL     1     -19.381  -3.515  91.192  1.00  0.00     0.132 A 
HETATM    6  N2  UNL     1     -18.801  -4.527  91.721  1.00  0.00    -0.380 N 
ATOM      7  H2  UNL     1     -19.250  -5.433  91.852  1.00  0.00     0.160 HD
HETATM    8  C3  UNL     1     -17.466  -4.247  92.104  1.00  0.00     0.244 A 
HETATM    9  N3  UNL     1     -17.237  -2.874  91.746  1.00  0.00    -0.360 N 
ATOM     10  H3  UNL     1     -16.377  -2.342  91.881  1.00  0.00     0.162 HD
ENDROOT
TORSDOF 0
ENDMDL
MODEL 3
REMARK VINA RESULT: -3.474477205     10.489     11.211
REMARK  0 active torsions:
REMARK  status: ('A' for Active; 'I' for Inactive)
ROOT
HETATM    1  N1  UNL     1     -24.132  -6.547  97.980  1.00  0.00    -0.385 N 
ATOM      2  H11 UNL     1     -23.296  -6.731  98.536  1.00  0.00     0.157 HD
ATOM      3  H12 UNL     1     -24.935  -6.741  98.578  1.00  0.00     0.157 HD
HETATM    4  C1  UNL     1     -24.190  -6.143  96.752  1.00  0.00     0.111 A 
HETATM    5  C2  UNL     1     -25.378  -5.881  95.961  1.00  0.00     0.132 A 
HETATM    6  N2  UNL     1     -25.015  -5.499  94.794  1.00  0.00    -0.380 N 
ATOM      7  H2  UNL     1     -25.668  -5.253  94.050  1.00  0.00     0.160 HD
HETATM    8  C3  UNL     1     -23.606  -5.455  94.653  1.00  0.00     0.244 A 
HETATM    9  N3  UNL     1     -23.073  -5.872  95.920  1.00  0.00    -0.360 N 
ATOM     10  H3  UNL     1     -22.089  -5.957  96.172  1.00  0.00     0.162 HD
ENDROOT
TORSDOF 0
ENDMDL
MODEL 4
REMARK VINA RESULT: -3.350092283      6.468      7.585
REMARK  0 active torsions:
REMARK  status: ('A' for Active; 'I' for Inactive)
ROOT
HETATM    1  N1  UNL     1     -18.616  -1.273  90.729  1.00  0.00    -0.385 N 
ATOM      2  H11 UNL     1     -18.965  -0.317  90.807  1.00  0.00     0.157 HD
ATOM      3  H12 UNL     1     -17.816  -1.246  90.095  1.00  0.00     0.157 HD
HETATM    4  C1  UNL     1     -19.078  -2.332  91.313  1.00  0.00     0.111 A 
HETATM    5  C2  UNL     1     -18.581  -3.691  91.203  1.00  0.00     0.132 A 
HETATM    6  N2  UNL     1     -19.308  -4.451  91.933  1.00  0.00    -0.380 N 
ATOM      7  H2  UNL     1     -19.162  -5.456  92.026  1.00  0.00     0.160 HD
HETATM    8  C3  UNL     1     -20.339  -3.739  92.596  1.00  0.00     0.244 A 
HETATM    9  N3  UNL     1     -20.188  -2.369  92.194  1.00  0.00    -0.360 N 
ATOM     10  H3  UNL     1     -20.765  -1.579  92.484  1.00  0.00     0.162 HD
ENDROOT
TORSDOF 0
ENDMDL
MODEL 5
REMARK VINA RESULT: -3.332378826      3.868      5.069
REMARK  0 active torsions:
REMARK  status: ('A' for Active; 'I' for Inactive)
ROOT
HETATM    1  N1  UNL     1     -20.673   0.910  93.682  1.00  0.00    -0.385 N 
ATOM      2  H11 UNL     1     -20.190   0.535  92.865  1.00  0.00     0.157 HD
ATOM      3  H12 UNL     1     -20.123   1.705  94.012  1.00  0.00     0.157 HD
HETATM    4  C1  UNL     1     -21.772   0.484  94.214  1.00  0.00     0.111 A 
HETATM    5  C2  UNL     1     -22.460   1.019  95.375  1.00  0.00     0.132 A 
HETATM    6  N2  UNL     1     -23.511   0.318  95.585  1.00  0.00    -0.380 N 
ATOM      7  H2  UNL     1     -24.166   0.494  96.346  1.00  0.00     0.160 HD
HETATM    8  C3  UNL     1     -23.661  -0.728  94.640  1.00  0.00     0.244 A 
HETATM    9  N3  UNL     1     -22.536  -0.620  93.755  1.00  0.00    -0.360 N 
ATOM     10  H3  UNL     1     -22.327  -1.217  92.955  1.00  0.00     0.162 HD
ENDROOT
TORSDOF 0
ENDMDL
