MODEL 1
REMARK VINA RESULT: -5.571568208      0.000      0.000
REMARK  9 active torsions:
REMARK  status: ('A' for Active; 'I' for Inactive)
REMARK    1  A    between atoms: O1_2  and  C2_3 
REMARK    2  A    between atoms: C2_3  and  C3_4 
REMARK       I    between atoms: N1_6  and  C5_7 
REMARK    3  A    between atoms: C5_7  and  O3_9 
REMARK    4  A    between atoms: O3_9  and  C6_10 
REMARK    5  A    between atoms: C6_10  and  C7_11 
REMARK    6  A    between atoms: C7_11  and  N2_12 
REMARK    7  A    between atoms: C7_11  and  N3_16 
REMARK    8  A    between atoms: N3_16  and  C8_19 
REMARK    9  A    between atoms: C9_20  and  O4_21 
ROOT
HETATM    1  C7  UNL     1      60.290  -3.035  24.836  1.00  0.00     0.415 C 
ENDROOT
BRANCH   1   2
HETATM    2  C6  UNL     1      60.566  -4.502  24.833  1.00  0.00     0.126 C 
HETATM    3  C15 UNL     1      59.594  -5.073  25.910  1.00  0.00     0.043 C 
HETATM    4  C16 UNL     1      59.565  -6.533  25.525  1.00  0.00     0.003 C 
HETATM    5  C17 UNL     1      59.906  -6.615  24.054  1.00  0.00     0.003 C 
HETATM    6  C18 UNL     1      59.936  -5.196  23.637  1.00  0.00     0.043 C 
BRANCH   2   7
HETATM    7  O3  UNL     1      61.775  -4.981  25.200  1.00  0.00    -0.289 OA
BRANCH   7   8
HETATM    8  C5  UNL     1      62.803  -4.580  25.963  1.00  0.00     0.364 C 
HETATM    9  N1  UNL     1      63.914  -3.855  25.399  1.00  0.00    -0.318 N 
HETATM   10  C4  UNL     1      64.078  -3.495  24.036  1.00  0.00     0.146 C 
HETATM   11  C19 UNL     1      65.028  -3.399  26.241  1.00  0.00     0.202 C 
HETATM   12  C3  UNL     1      64.631  -2.127  23.880  1.00  0.00     0.090 C 
HETATM   13  S1  UNL     1      65.103  -1.680  25.573  1.00  0.00    -0.141 SA
HETATM   14  O2  UNL     1      62.744  -4.867  27.169  1.00  0.00    -0.238 OA
BRANCH  12  15
HETATM   15  C2  UNL     1      63.750  -1.152  23.199  1.00  0.00     0.183 C 
BRANCH  15  16
HETATM   16  O1  UNL     1      63.117  -1.583  22.062  1.00  0.00    -0.395 OA
HETATM   17  C1  UNL     1      64.082  -1.495  21.028  1.00  0.00     0.201 C 
ENDBRANCH  15  16
ENDBRANCH  12  15
ENDBRANCH   7   8
ENDBRANCH   2   7
ENDBRANCH   1   2
BRANCH   1  18
HETATM   18  N2  UNL     1      60.510  -2.504  23.496  1.00  0.00    -0.047 N 
ATOM     19  H23 UNL     1      61.396  -2.006  23.418  1.00  0.00     0.276 HD
ATOM     20  H22 UNL     1      60.696  -3.238  22.814  1.00  0.00     0.276 HD
ATOM     21  H21 UNL     1      59.715  -1.921  23.232  1.00  0.00     0.276 HD
ENDBRANCH   1  18
BRANCH   1  22
HETATM   22  N3  UNL     1      59.026  -2.670  25.358  1.00  0.00    -0.036 N 
ATOM     23  H32 UNL     1      58.659  -3.406  25.962  1.00  0.00     0.280 HD
ATOM     24  H31 UNL     1      59.121  -1.920  26.044  1.00  0.00     0.280 HD
BRANCH  22  25
HETATM   25  C8  UNL     1      58.058  -2.312  24.338  1.00  0.00     0.224 C 
HETATM   26  C9  UNL     1      57.633  -0.891  24.315  1.00  0.00     0.149 C 
HETATM   27  C10 UNL     1      56.174  -0.900  23.823  1.00  0.00     0.034 C 
HETATM   28  C11 UNL     1      55.764  -2.349  23.754  1.00  0.00     0.013 C 
HETATM   29  C12 UNL     1      56.746  -3.004  24.720  1.00  0.00    -0.017 C 
HETATM   30  C13 UNL     1      56.764  -4.478  24.493  1.00  0.00     0.017 C 
HETATM   31  C14 UNL     1      56.419  -2.608  26.127  1.00  0.00     0.017 C 
BRANCH  26  32
HETATM   32  O4  UNL     1      58.358  -0.220  23.321  1.00  0.00    -0.393 OA
ATOM     33  H4  UNL     1      59.048  -0.793  23.007  1.00  0.00     0.210 HD
ENDBRANCH  26  32
ENDBRANCH  22  25
ENDBRANCH   1  22
TORSDOF 9
ENDMDL
MODEL 2
REMARK VINA RESULT: -5.516396821      2.408      3.592
REMARK  9 active torsions:
REMARK  status: ('A' for Active; 'I' for Inactive)
REMARK    1  A    between atoms: O1_2  and  C2_3 
REMARK    2  A    between atoms: C2_3  and  C3_4 
REMARK       I    between atoms: N1_6  and  C5_7 
REMARK    3  A    between atoms: C5_7  and  O3_9 
REMARK    4  A    between atoms: O3_9  and  C6_10 
REMARK    5  A    between atoms: C6_10  and  C7_11 
REMARK    6  A    between atoms: C7_11  and  N2_12 
REMARK    7  A    between atoms: C7_11  and  N3_16 
REMARK    8  A    between atoms: N3_16  and  C8_19 
REMARK    9  A    between atoms: C9_20  and  O4_21 
ROOT
HETATM    1  C7  UNL     1      60.255  -4.352  24.584  1.00  0.00     0.415 C 
ENDROOT
BRANCH   1   2
HETATM    2  C6  UNL     1      61.733  -4.176  24.684  1.00  0.00     0.126 C 
HETATM    3  C15 UNL     1      61.907  -2.982  25.672  1.00  0.00     0.043 C 
HETATM    4  C16 UNL     1      63.344  -3.169  26.098  1.00  0.00     0.003 C 
HETATM    5  C17 UNL     1      63.679  -4.631  25.915  1.00  0.00     0.003 C 
HETATM    6  C18 UNL     1      62.373  -5.234  25.567  1.00  0.00     0.043 C 
BRANCH   2   7
HETATM    7  O3  UNL     1      62.464  -3.813  23.606  1.00  0.00    -0.289 OA
BRANCH   7   8
HETATM    8  C5  UNL     1      62.570  -2.744  22.803  1.00  0.00     0.364 C 
HETATM    9  N1  UNL     1      63.829  -2.062  22.630  1.00  0.00    -0.318 N 
HETATM   10  C4  UNL     1      65.058  -2.394  23.256  1.00  0.00     0.146 C 
HETATM   11  C19 UNL     1      63.948  -0.905  21.733  1.00  0.00     0.202 C 
HETATM   12  C3  UNL     1      66.211  -2.272  22.330  1.00  0.00     0.090 C 
HETATM   13  S1  UNL     1      65.487  -1.460  20.879  1.00  0.00    -0.141 SA
HETATM   14  O2  UNL     1      61.535  -2.379  22.225  1.00  0.00    -0.238 OA
BRANCH  12  15
HETATM   15  C2  UNL     1      66.941  -3.527  22.043  1.00  0.00     0.183 C 
BRANCH  15  16
HETATM   16  O1  UNL     1      66.906  -4.495  23.014  1.00  0.00    -0.395 OA
HETATM   17  C1  UNL     1      67.648  -5.585  22.496  1.00  0.00     0.201 C 
ENDBRANCH  15  16
ENDBRANCH  12  15
ENDBRANCH   7   8
ENDBRANCH   2   7
ENDBRANCH   1   2
BRANCH   1  18
HETATM   18  N2  UNL     1      59.839  -5.424  25.479  1.00  0.00    -0.047 N 
ATOM     19  H23 UNL     1      59.086  -5.988  25.085  1.00  0.00     0.276 HD
ATOM     20  H22 UNL     1      60.542  -6.159  25.558  1.00  0.00     0.276 HD
ATOM     21  H21 UNL     1      59.591  -5.027  26.385  1.00  0.00     0.276 HD
ENDBRANCH   1  18
BRANCH   1  22
HETATM   22  N3  UNL     1      59.501  -3.169  24.775  1.00  0.00    -0.036 N 
ATOM     23  H32 UNL     1      59.965  -2.550  25.439  1.00  0.00     0.280 HD
ATOM     24  H31 UNL     1      59.535  -2.581  23.942  1.00  0.00     0.280 HD
BRANCH  22  25
HETATM   25  C8  UNL     1      58.127  -3.415  25.174  1.00  0.00     0.224 C 
HETATM   26  C9  UNL     1      57.202  -3.839  24.094  1.00  0.00     0.149 C 
HETATM   27  C10 UNL     1      55.823  -3.275  24.481  1.00  0.00     0.034 C 
HETATM   28  C11 UNL     1      56.053  -2.395  25.684  1.00  0.00     0.013 C 
HETATM   29  C12 UNL     1      57.534  -2.055  25.552  1.00  0.00    -0.017 C 
HETATM   30  C13 UNL     1      58.044  -1.524  26.849  1.00  0.00     0.017 C 
HETATM   31  C14 UNL     1      57.743  -1.132  24.391  1.00  0.00     0.017 C 
BRANCH  26  32
HETATM   32  O4  UNL     1      57.064  -5.233  24.142  1.00  0.00    -0.393 OA
ATOM     33  H4  UNL     1      57.834  -5.602  24.556  1.00  0.00     0.210 HD
ENDBRANCH  26  32
ENDBRANCH  22  25
ENDBRANCH   1  22
TORSDOF 9
ENDMDL
MODEL 3
REMARK VINA RESULT: -5.447258681      2.372      3.873
REMARK  9 active torsions:
REMARK  status: ('A' for Active; 'I' for Inactive)
REMARK    1  A    between atoms: O1_2  and  C2_3 
REMARK    2  A    between atoms: C2_3  and  C3_4 
REMARK       I    between atoms: N1_6  and  C5_7 
REMARK    3  A    between atoms: C5_7  and  O3_9 
REMARK    4  A    between atoms: O3_9  and  C6_10 
REMARK    5  A    between atoms: C6_10  and  C7_11 
REMARK    6  A    between atoms: C7_11  and  N2_12 
REMARK    7  A    between atoms: C7_11  and  N3_16 
REMARK    8  A    between atoms: N3_16  and  C8_19 
REMARK    9  A    between atoms: C9_20  and  O4_21 
ROOT
HETATM    1  C7  UNL     1      60.780  -3.893  24.552  1.00  0.00     0.415 C 
ENDROOT
BRANCH   1   2
HETATM    2  C6  UNL     1      62.211  -3.482  24.455  1.00  0.00     0.126 C 
HETATM    3  C15 UNL     1      62.583  -3.060  25.910  1.00  0.00     0.043 C 
HETATM    4  C16 UNL     1      64.091  -3.131  25.852  1.00  0.00     0.003 C 
HETATM    5  C17 UNL     1      64.452  -4.112  24.760  1.00  0.00     0.003 C 
HETATM    6  C18 UNL     1      63.141  -4.681  24.373  1.00  0.00     0.043 C 
BRANCH   2   7
HETATM    7  O3  UNL     1      62.579  -2.420  23.705  1.00  0.00    -0.289 OA
BRANCH   7   8
HETATM    8  C5  UNL     1      62.878  -2.178  22.421  1.00  0.00     0.364 C 
HETATM    9  N1  UNL     1      64.094  -1.496  22.052  1.00  0.00    -0.318 N 
HETATM   10  C4  UNL     1      65.083  -1.001  22.942  1.00  0.00     0.146 C 
HETATM   11  C19 UNL     1      64.430  -1.252  20.644  1.00  0.00     0.202 C 
HETATM   12  C3  UNL     1      66.459  -1.242  22.441  1.00  0.00     0.090 C 
HETATM   13  S1  UNL     1      66.183  -1.821  20.745  1.00  0.00    -0.141 SA
HETATM   14  O2  UNL     1      62.057  -2.568  21.576  1.00  0.00    -0.238 OA
BRANCH  12  15
HETATM   15  C2  UNL     1      67.301  -2.129  23.275  1.00  0.00     0.183 C 
BRANCH  15  16
HETATM   16  O1  UNL     1      67.247  -1.933  24.630  1.00  0.00    -0.395 OA
HETATM   17  C1  UNL     1      68.297  -1.032  24.931  1.00  0.00     0.201 C 
ENDBRANCH  15  16
ENDBRANCH  12  15
ENDBRANCH   7   8
ENDBRANCH   2   7
ENDBRANCH   1   2
BRANCH   1  18
HETATM   18  N2  UNL     1      60.661  -4.995  25.499  1.00  0.00    -0.047 N 
ATOM     19  H23 UNL     1      61.460  -5.050  26.131  1.00  0.00     0.276 HD
ATOM     20  H22 UNL     1      59.936  -4.828  26.198  1.00  0.00     0.276 HD
ATOM     21  H21 UNL     1      60.512  -5.864  24.987  1.00  0.00     0.276 HD
ENDBRANCH   1  18
BRANCH   1  22
HETATM   22  N3  UNL     1      59.877  -2.840  24.835  1.00  0.00    -0.036 N 
ATOM     23  H32 UNL     1      60.275  -2.200  25.522  1.00  0.00     0.280 HD
ATOM     24  H31 UNL     1      59.798  -2.208  24.039  1.00  0.00     0.280 HD
BRANCH  22  25
HETATM   25  C8  UNL     1      58.566  -3.299  25.259  1.00  0.00     0.224 C 
HETATM   26  C9  UNL     1      57.727  -3.929  24.210  1.00  0.00     0.149 C 
HETATM   27  C10 UNL     1      56.272  -3.592  24.581  1.00  0.00     0.034 C 
HETATM   28  C11 UNL     1      56.347  -2.627  25.737  1.00  0.00     0.013 C 
HETATM   29  C12 UNL     1      57.747  -2.043  25.574  1.00  0.00    -0.017 C 
HETATM   30  C13 UNL     1      58.158  -1.368  26.838  1.00  0.00     0.017 C 
HETATM   31  C14 UNL     1      57.794  -1.158  24.367  1.00  0.00     0.017 C 
BRANCH  26  32
HETATM   32  O4  UNL     1      57.831  -5.321  24.327  1.00  0.00    -0.393 OA
ATOM     33  H4  UNL     1      58.127  -5.677  23.498  1.00  0.00     0.210 HD
ENDBRANCH  26  32
ENDBRANCH  22  25
ENDBRANCH   1  22
TORSDOF 9
ENDMDL
MODEL 4
REMARK VINA RESULT: -5.338028291      2.213      3.245
REMARK  9 active torsions:
REMARK  status: ('A' for Active; 'I' for Inactive)
REMARK    1  A    between atoms: O1_2  and  C2_3 
REMARK    2  A    between atoms: C2_3  and  C3_4 
REMARK       I    between atoms: N1_6  and  C5_7 
REMARK    3  A    between atoms: C5_7  and  O3_9 
REMARK    4  A    between atoms: O3_9  and  C6_10 
REMARK    5  A    between atoms: C6_10  and  C7_11 
REMARK    6  A    between atoms: C7_11  and  N2_12 
REMARK    7  A    between atoms: C7_11  and  N3_16 
REMARK    8  A    between atoms: N3_16  and  C8_19 
REMARK    9  A    between atoms: C9_20  and  O4_21 
ROOT
HETATM    1  C7  UNL     1      60.932  -3.713  24.900  1.00  0.00     0.415 C 
ENDROOT
BRANCH   1   2
HETATM    2  C6  UNL     1      61.867  -3.233  23.842  1.00  0.00     0.126 C 
HETATM    3  C15 UNL     1      61.579  -4.169  22.628  1.00  0.00     0.043 C 
HETATM    4  C16 UNL     1      62.163  -3.357  21.495  1.00  0.00     0.003 C 
HETATM    5  C17 UNL     1      62.136  -1.908  21.923  1.00  0.00     0.003 C 
HETATM    6  C18 UNL     1      61.381  -1.947  23.195  1.00  0.00     0.043 C 
BRANCH   2   7
HETATM    7  O3  UNL     1      63.206  -3.319  24.007  1.00  0.00    -0.289 OA
BRANCH   7   8
HETATM    8  C5  UNL     1      64.179  -2.584  24.565  1.00  0.00     0.364 C 
HETATM    9  N1  UNL     1      65.406  -2.309  23.860  1.00  0.00    -0.318 N 
HETATM   10  C4  UNL     1      65.747  -2.760  22.558  1.00  0.00     0.146 C 
HETATM   11  C19 UNL     1      66.460  -1.485  24.465  1.00  0.00     0.202 C 
HETATM   12  C3  UNL     1      66.437  -1.714  21.764  1.00  0.00     0.090 C 
HETATM   13  S1  UNL     1      66.764  -0.418  22.990  1.00  0.00    -0.141 SA
HETATM   14  O2  UNL     1      63.966  -2.160  25.711  1.00  0.00    -0.238 OA
BRANCH  12  15
HETATM   15  C2  UNL     1      65.727  -1.257  20.548  1.00  0.00     0.183 C 
BRANCH  15  16
HETATM   16  O1  UNL     1      65.019  -2.206  19.857  1.00  0.00    -0.395 OA
HETATM   17  C1  UNL     1      65.777  -2.478  18.692  1.00  0.00     0.201 C 
ENDBRANCH  15  16
ENDBRANCH  12  15
ENDBRANCH   7   8
ENDBRANCH   2   7
ENDBRANCH   1   2
BRANCH   1  18
HETATM   18  N2  UNL     1      61.704  -4.239  26.019  1.00  0.00    -0.047 N 
ATOM     19  H23 UNL     1      61.445  -5.197  26.252  1.00  0.00     0.276 HD
ATOM     20  H22 UNL     1      62.679  -4.409  25.771  1.00  0.00     0.276 HD
ATOM     21  H21 UNL     1      61.611  -3.609  26.816  1.00  0.00     0.276 HD
ENDBRANCH   1  18
BRANCH   1  22
HETATM   22  N3  UNL     1      59.964  -2.766  25.312  1.00  0.00    -0.036 N 
ATOM     23  H32 UNL     1      60.276  -2.272  26.148  1.00  0.00     0.280 HD
ATOM     24  H31 UNL     1      59.923  -1.984  24.659  1.00  0.00     0.280 HD
BRANCH  22  25
HETATM   25  C8  UNL     1      58.644  -3.336  25.515  1.00  0.00     0.224 C 
HETATM   26  C9  UNL     1      58.056  -4.043  24.351  1.00  0.00     0.149 C 
HETATM   27  C10 UNL     1      56.535  -3.834  24.461  1.00  0.00     0.034 C 
HETATM   28  C11 UNL     1      56.327  -2.860  25.592  1.00  0.00     0.013 C 
HETATM   29  C12 UNL     1      57.678  -2.156  25.660  1.00  0.00    -0.017 C 
HETATM   30  C13 UNL     1      57.807  -1.441  26.962  1.00  0.00     0.017 C 
HETATM   31  C14 UNL     1      57.856  -1.276  24.461  1.00  0.00     0.017 C 
BRANCH  26  32
HETATM   32  O4  UNL     1      58.257  -5.420  24.512  1.00  0.00    -0.393 OA
ATOM     33  H4  UNL     1      57.580  -5.886  24.035  1.00  0.00     0.210 HD
ENDBRANCH  26  32
ENDBRANCH  22  25
ENDBRANCH   1  22
TORSDOF 9
ENDMDL
MODEL 5
REMARK VINA RESULT: -5.258451617      2.259      3.471
REMARK  9 active torsions:
REMARK  status: ('A' for Active; 'I' for Inactive)
REMARK    1  A    between atoms: O1_2  and  C2_3 
REMARK    2  A    between atoms: C2_3  and  C3_4 
REMARK       I    between atoms: N1_6  and  C5_7 
REMARK    3  A    between atoms: C5_7  and  O3_9 
REMARK    4  A    between atoms: O3_9  and  C6_10 
REMARK    5  A    between atoms: C6_10  and  C7_11 
REMARK    6  A    between atoms: C7_11  and  N2_12 
REMARK    7  A    between atoms: C7_11  and  N3_16 
REMARK    8  A    between atoms: N3_16  and  C8_19 
REMARK    9  A    between atoms: C9_20  and  O4_21 
ROOT
HETATM    1  C7  UNL     1      60.696  -4.045  24.751  1.00  0.00     0.415 C 
ENDROOT
BRANCH   1   2
HETATM    2  C6  UNL     1      62.146  -3.707  24.666  1.00  0.00     0.126 C 
HETATM    3  C15 UNL     1      62.387  -3.447  23.148  1.00  0.00     0.043 C 
HETATM    4  C16 UNL     1      63.678  -2.664  23.191  1.00  0.00     0.003 C 
HETATM    5  C17 UNL     1      63.753  -1.999  24.547  1.00  0.00     0.003 C 
HETATM    6  C18 UNL     1      62.427  -2.290  25.137  1.00  0.00     0.043 C 
BRANCH   2   7
HETATM    7  O3  UNL     1      63.092  -4.615  24.993  1.00  0.00    -0.289 OA
BRANCH   7   8
HETATM    8  C5  UNL     1      63.742  -5.005  26.099  1.00  0.00     0.364 C 
HETATM    9  N1  UNL     1      65.183  -5.049  26.143  1.00  0.00    -0.318 N 
HETATM   10  C4  UNL     1      66.066  -4.719  25.082  1.00  0.00     0.146 C 
HETATM   11  C19 UNL     1      65.893  -5.454  27.363  1.00  0.00     0.202 C 
HETATM   12  C3  UNL     1      67.251  -3.961  25.554  1.00  0.00     0.090 C 
HETATM   13  S1  UNL     1      67.119  -4.075  27.359  1.00  0.00    -0.141 SA
HETATM   14  O2  UNL     1      63.041  -5.324  27.072  1.00  0.00    -0.238 OA
BRANCH  12  15
HETATM   15  C2  UNL     1      67.387  -2.585  25.025  1.00  0.00     0.183 C 
BRANCH  15  16
HETATM   16  O1  UNL     1      67.141  -1.561  25.902  1.00  0.00    -0.395 OA
HETATM   17  C1  UNL     1      67.088  -0.385  25.115  1.00  0.00     0.201 C 
ENDBRANCH  15  16
ENDBRANCH  12  15
ENDBRANCH   7   8
ENDBRANCH   2   7
ENDBRANCH   1   2
BRANCH   1  18
HETATM   18  N2  UNL     1      60.531  -5.248  25.558  1.00  0.00    -0.047 N 
ATOM     19  H23 UNL     1      60.305  -6.065  24.993  1.00  0.00     0.276 HD
ATOM     20  H22 UNL     1      61.415  -5.579  25.945  1.00  0.00     0.276 HD
ATOM     21  H21 UNL     1      59.833  -5.073  26.281  1.00  0.00     0.276 HD
ENDBRANCH   1  18
BRANCH   1  22
HETATM   22  N3  UNL     1      59.863  -2.987  25.186  1.00  0.00    -0.036 N 
ATOM     23  H32 UNL     1      60.256  -2.534  26.011  1.00  0.00     0.280 HD
ATOM     24  H31 UNL     1      59.899  -2.206  24.531  1.00  0.00     0.280 HD
BRANCH  22  25
HETATM   25  C8  UNL     1      58.489  -3.391  25.428  1.00  0.00     0.224 C 
HETATM   26  C9  UNL     1      57.768  -3.968  24.266  1.00  0.00     0.149 C 
HETATM   27  C10 UNL     1      56.292  -3.571  24.454  1.00  0.00     0.034 C 
HETATM   28  C11 UNL     1      56.258  -2.627  25.628  1.00  0.00     0.013 C 
HETATM   29  C12 UNL     1      57.691  -2.105  25.660  1.00  0.00    -0.017 C 
HETATM   30  C13 UNL     1      57.964  -1.468  26.980  1.00  0.00     0.017 C 
HETATM   31  C14 UNL     1      57.933  -1.205  24.487  1.00  0.00     0.017 C 
BRANCH  26  32
HETATM   32  O4  UNL     1      57.795  -5.365  24.368  1.00  0.00    -0.393 OA
ATOM     33  H4  UNL     1      58.052  -5.727  23.528  1.00  0.00     0.210 HD
ENDBRANCH  26  32
ENDBRANCH  22  25
ENDBRANCH   1  22
TORSDOF 9
ENDMDL
