MODEL 1
REMARK VINA RESULT: -6.382802924      0.000      0.000
REMARK  2 active torsions:
REMARK  status: ('A' for Active; 'I' for Inactive)
REMARK    1  A    between atoms: C2_2  and  N1_3 
REMARK    2  A    between atoms: N1_3  and  O1_5 
ROOT
HETATM    1  C1  UNL     1      28.627   2.812   7.802  1.00  0.00     0.070 C 
HETATM    2  C2  UNL     1      28.405   2.675   6.309  1.00  0.00     0.030 C 
HETATM    3  C3  UNL     1      27.658   3.545   5.721  1.00  0.00    -0.051 C 
HETATM    4  C4  UNL     1      27.073   4.635   6.608  1.00  0.00     0.037 C 
HETATM    5  C5  UNL     1      25.622   4.370   6.872  1.00  0.00     0.005 C 
HETATM    6  C6  UNL     1      25.086   3.716   5.590  1.00  0.00     0.005 C 
HETATM    7  C7  UNL     1      25.829   4.270   4.387  1.00  0.00    -0.003 C 
HETATM    8  C8  UNL     1      25.091   3.780   3.178  1.00  0.00     0.040 C 
HETATM    9  C9  UNL     1      25.663   2.448   2.906  1.00  0.00     0.161 C 
HETATM   10  O2  UNL     1      24.917   1.348   3.237  1.00  0.00    -0.273 OA
HETATM   11  N2  UNL     1      25.433   0.225   2.627  1.00  0.00    -0.248 N 
ATOM     12  H2  UNL     1      24.951  -0.647   2.848  1.00  0.00     0.196 HD
HETATM   13  C10 UNL     1      26.535   0.096   1.733  1.00  0.00     0.151 A 
HETATM   14  N3  UNL     1      26.734  -0.776   0.812  1.00  0.00    -0.284 N 
ATOM     15  H3  UNL     1      26.091  -1.535   0.587  1.00  0.00     0.188 HD
HETATM   16  N4  UNL     1      27.954  -0.547   0.154  1.00  0.00    -0.309 N 
ATOM     17  H4  UNL     1      28.314  -1.117  -0.612  1.00  0.00     0.186 HD
HETATM   18  C11 UNL     1      28.564   0.492   0.653  1.00  0.00     0.122 A 
HETATM   19  C12 UNL     1      27.711   0.998   1.712  1.00  0.00     0.030 A 
HETATM   20  C13 UNL     1      27.981   2.051   2.506  1.00  0.00    -0.061 C 
HETATM   21  C14 UNL     1      29.224   2.716   2.197  1.00  0.00     0.045 C 
HETATM   22  C15 UNL     1      27.053   2.442   3.595  1.00  0.00     0.055 C 
HETATM   23  C16 UNL     1      27.258   3.667   4.297  1.00  0.00     0.031 C 
ENDROOT
BRANCH   2  24
HETATM   24  N1  UNL     1      29.084   1.587   5.728  1.00  0.00    -0.274 N 
ATOM     25  H1  UNL     1      29.333   1.576   4.739  1.00  0.00     0.193 HD
BRANCH  24  26
HETATM   26  O1  UNL     1      29.397   0.535   6.570  1.00  0.00    -0.290 OA
ATOM     27  H1  UNL     1      30.287   0.507   6.900  1.00  0.00     0.244 HD
ENDBRANCH  24  26
ENDBRANCH   2  24
TORSDOF 2
ENDMDL
MODEL 2
REMARK VINA RESULT: -6.361295205      9.392     12.100
REMARK  2 active torsions:
REMARK  status: ('A' for Active; 'I' for Inactive)
REMARK    1  A    between atoms: C2_2  and  N1_3 
REMARK    2  A    between atoms: N1_3  and  O1_5 
ROOT
HETATM    1  C1  UNL     1      23.231  -3.968  -2.320  1.00  0.00     0.070 C 
HETATM    2  C2  UNL     1      22.470  -5.158  -1.768  1.00  0.00     0.030 C 
HETATM    3  C3  UNL     1      21.567  -4.943  -0.874  1.00  0.00    -0.051 C 
HETATM    4  C4  UNL     1      21.359  -3.491  -0.467  1.00  0.00     0.037 C 
HETATM    5  C5  UNL     1      21.975  -3.233   0.874  1.00  0.00     0.005 C 
HETATM    6  C6  UNL     1      21.799  -4.537   1.664  1.00  0.00     0.005 C 
HETATM    7  C7  UNL     1      20.512  -5.221   1.237  1.00  0.00    -0.003 C 
HETATM    8  C8  UNL     1      20.287  -6.336   2.214  1.00  0.00     0.040 C 
HETATM    9  C9  UNL     1      21.058  -7.469   1.669  1.00  0.00     0.161 C 
HETATM   10  O2  UNL     1      22.242  -7.794   2.277  1.00  0.00    -0.273 OA
HETATM   11  N2  UNL     1      22.655  -9.045   1.872  1.00  0.00    -0.248 N 
ATOM     12  H2  UNL     1      23.550  -9.350   2.257  1.00  0.00     0.196 HD
HETATM   13  C10 UNL     1      22.024  -9.977   0.999  1.00  0.00     0.151 A 
HETATM   14  N3  UNL     1      22.109 -11.258   0.984  1.00  0.00    -0.284 N 
ATOM     15  H3  UNL     1      22.673 -11.807   1.632  1.00  0.00     0.188 HD
HETATM   16  N4  UNL     1      21.321 -11.804  -0.044  1.00  0.00    -0.309 N 
ATOM     17  H4  UNL     1      21.238 -12.802  -0.241  1.00  0.00     0.186 HD
HETATM   18  C11 UNL     1      20.712 -10.865  -0.712  1.00  0.00     0.122 A 
HETATM   19  C12 UNL     1      21.108  -9.608  -0.105  1.00  0.00     0.030 A 
HETATM   20  C13 UNL     1      20.724  -8.382  -0.510  1.00  0.00    -0.061 C 
HETATM   21  C14 UNL     1      19.807  -8.392  -1.624  1.00  0.00     0.045 C 
HETATM   22  C15 UNL     1      21.240  -7.163   0.158  1.00  0.00     0.055 C 
HETATM   23  C16 UNL     1      20.679  -5.890  -0.156  1.00  0.00     0.031 C 
ENDROOT
BRANCH   2  24
HETATM   24  N1  UNL     1      22.846  -6.390  -2.338  1.00  0.00    -0.274 N 
ATOM     25  H1  UNL     1      22.633  -7.278  -1.884  1.00  0.00     0.193 HD
BRANCH  24  26
HETATM   26  O1  UNL     1      23.519  -6.331  -3.545  1.00  0.00    -0.290 OA
ATOM     27  H1  UNL     1      23.457  -7.098  -4.102  1.00  0.00     0.244 HD
ENDBRANCH  24  26
ENDBRANCH   2  24
TORSDOF 2
ENDMDL
MODEL 3
REMARK VINA RESULT: -6.352531479      9.819     12.030
REMARK  2 active torsions:
REMARK  status: ('A' for Active; 'I' for Inactive)
REMARK    1  A    between atoms: C2_2  and  N1_3 
REMARK    2  A    between atoms: N1_3  and  O1_5 
ROOT
HETATM    1  C1  UNL     1      19.629  -3.934   2.304  1.00  0.00     0.070 C 
HETATM    2  C2  UNL     1      20.394  -5.128   1.768  1.00  0.00     0.030 C 
HETATM    3  C3  UNL     1      21.304  -4.920   0.878  1.00  0.00    -0.051 C 
HETATM    4  C4  UNL     1      21.513  -3.472   0.460  1.00  0.00     0.037 C 
HETATM    5  C5  UNL     1      20.907  -3.226  -0.888  1.00  0.00     0.005 C 
HETATM    6  C6  UNL     1      21.089  -4.537  -1.665  1.00  0.00     0.005 C 
HETATM    7  C7  UNL     1      22.374  -5.215  -1.222  1.00  0.00    -0.003 C 
HETATM    8  C8  UNL     1      22.607  -6.340  -2.187  1.00  0.00     0.040 C 
HETATM    9  C9  UNL     1      21.833  -7.469  -1.638  1.00  0.00     0.161 C 
HETATM   10  O2  UNL     1      20.654  -7.800  -2.251  1.00  0.00    -0.273 OA
HETATM   11  N2  UNL     1      20.239  -9.047  -1.839  1.00  0.00    -0.248 N 
ATOM     12  H2  UNL     1      19.348  -9.357  -2.227  1.00  0.00     0.196 HD
HETATM   13  C10 UNL     1      20.865  -9.971  -0.953  1.00  0.00     0.151 A 
HETATM   14  N3  UNL     1      20.782 -11.252  -0.927  1.00  0.00    -0.284 N 
ATOM     15  H3  UNL     1      20.223 -11.808  -1.574  1.00  0.00     0.188 HD
HETATM   16  N4  UNL     1      21.563 -11.788   0.112  1.00  0.00    -0.309 N 
ATOM     17  H4  UNL     1      21.646 -12.784   0.318  1.00  0.00     0.186 HD
HETATM   18  C11 UNL     1      22.167 -10.843   0.775  1.00  0.00     0.122 A 
HETATM   19  C12 UNL     1      21.774  -9.591   0.155  1.00  0.00     0.030 A 
HETATM   20  C13 UNL     1      22.153  -8.362   0.551  1.00  0.00    -0.061 C 
HETATM   21  C14 UNL     1      23.063  -8.360   1.671  1.00  0.00     0.045 C 
HETATM   22  C15 UNL     1      21.640  -7.149  -0.132  1.00  0.00     0.055 C 
HETATM   23  C16 UNL     1      22.198  -5.872   0.175  1.00  0.00     0.031 C 
ENDROOT
BRANCH   2  24
HETATM   24  N1  UNL     1      20.016  -6.355   2.346  1.00  0.00    -0.274 N 
ATOM     25  H1  UNL     1      20.248  -7.248   1.910  1.00  0.00     0.193 HD
BRANCH  24  26
HETATM   26  O1  UNL     1      19.314  -6.285   3.536  1.00  0.00    -0.290 OA
ATOM     27  H1  UNL     1      19.156  -7.108   3.982  1.00  0.00     0.244 HD
ENDBRANCH  24  26
ENDBRANCH   2  24
TORSDOF 2
ENDMDL
MODEL 4
REMARK VINA RESULT: -5.940502693      2.697      3.735
REMARK  2 active torsions:
REMARK  status: ('A' for Active; 'I' for Inactive)
REMARK    1  A    between atoms: C2_2  and  N1_3 
REMARK    2  A    between atoms: N1_3  and  O1_5 
ROOT
HETATM    1  C1  UNL     1      29.385   2.772   3.969  1.00  0.00     0.070 C 
HETATM    2  C2  UNL     1      28.452   1.899   3.152  1.00  0.00     0.030 C 
HETATM    3  C3  UNL     1      27.982   2.375   2.049  1.00  0.00    -0.051 C 
HETATM    4  C4  UNL     1      28.428   3.784   1.684  1.00  0.00     0.037 C 
HETATM    5  C5  UNL     1      27.324   4.763   1.943  1.00  0.00     0.005 C 
HETATM    6  C6  UNL     1      26.024   4.005   1.639  1.00  0.00     0.005 C 
HETATM    7  C7  UNL     1      26.269   3.001   0.526  1.00  0.00    -0.003 C 
HETATM    8  C8  UNL     1      24.920   2.488   0.121  1.00  0.00     0.040 C 
HETATM    9  C9  UNL     1      24.649   1.376   1.051  1.00  0.00     0.161 C 
HETATM   10  O2  UNL     1      23.753   1.589   2.065  1.00  0.00    -0.273 OA
HETATM   11  N2  UNL     1      23.371   0.387   2.620  1.00  0.00    -0.248 N 
ATOM     12  H2  UNL     1      22.725   0.460   3.407  1.00  0.00     0.196 HD
HETATM   13  C10 UNL     1      23.739  -0.943   2.263  1.00  0.00     0.151 A 
HETATM   14  N3  UNL     1      23.077  -2.033   2.406  1.00  0.00    -0.284 N 
ATOM     15  H3  UNL     1      22.146  -2.094   2.819  1.00  0.00     0.188 HD
HETATM   16  N4  UNL     1      23.803  -3.133   1.917  1.00  0.00    -0.309 N 
ATOM     17  H4  UNL     1      23.470  -4.097   1.929  1.00  0.00     0.186 HD
HETATM   18  C11 UNL     1      24.958  -2.755   1.447  1.00  0.00     0.122 A 
HETATM   19  C12 UNL     1      25.024  -1.317   1.626  1.00  0.00     0.030 A 
HETATM   20  C13 UNL     1      26.065  -0.529   1.298  1.00  0.00    -0.061 C 
HETATM   21  C14 UNL     1      27.163  -1.232   0.680  1.00  0.00     0.045 C 
HETATM   22  C15 UNL     1      26.037   0.927   1.581  1.00  0.00     0.055 C 
HETATM   23  C16 UNL     1      27.059   1.772   1.056  1.00  0.00     0.031 C 
ENDROOT
BRANCH   2  24
HETATM   24  N1  UNL     1      28.225   0.627   3.709  1.00  0.00    -0.274 N 
ATOM     25  H1  UNL     1      27.522  -0.008   3.330  1.00  0.00     0.193 HD
BRANCH  24  26
HETATM   26  O1  UNL     1      29.006   0.283   4.799  1.00  0.00    -0.290 OA
ATOM     27  H1  UNL     1      28.881  -0.590   5.150  1.00  0.00     0.244 HD
ENDBRANCH  24  26
ENDBRANCH   2  24
TORSDOF 2
ENDMDL
MODEL 5
REMARK VINA RESULT: -5.888556697      1.816      5.806
REMARK  2 active torsions:
REMARK  status: ('A' for Active; 'I' for Inactive)
REMARK    1  A    between atoms: C2_2  and  N1_3 
REMARK    2  A    between atoms: N1_3  and  O1_5 
ROOT
HETATM    1  C1  UNL     1      26.027  -0.976   1.339  1.00  0.00     0.070 C 
HETATM    2  C2  UNL     1      26.013   0.328   2.112  1.00  0.00     0.030 C 
HETATM    3  C3  UNL     1      26.789   1.279   1.717  1.00  0.00    -0.051 C 
HETATM    4  C4  UNL     1      27.647   0.981   0.496  1.00  0.00     0.037 C 
HETATM    5  C5  UNL     1      29.066   0.727   0.905  1.00  0.00     0.005 C 
HETATM    6  C6  UNL     1      29.314   1.641   2.113  1.00  0.00     0.005 C 
HETATM    7  C7  UNL     1      28.497   2.912   1.964  1.00  0.00    -0.003 C 
HETATM    8  C8  UNL     1      28.978   3.845   3.036  1.00  0.00     0.040 C 
HETATM    9  C9  UNL     1      28.184   3.486   4.226  1.00  0.00     0.161 C 
HETATM   10  O2  UNL     1      28.799   2.769   5.217  1.00  0.00    -0.273 OA
HETATM   11  N2  UNL     1      28.043   2.808   6.369  1.00  0.00    -0.248 N 
ATOM     12  H2  UNL     1      28.418   2.269   7.150  1.00  0.00     0.196 HD
HETATM   13  C10 UNL     1      26.819   3.486   6.636  1.00  0.00     0.151 A 
HETATM   14  N3  UNL     1      26.366   3.934   7.751  1.00  0.00    -0.284 N 
ATOM     15  H3  UNL     1      26.853   3.857   8.644  1.00  0.00     0.188 HD
HETATM   16  N4  UNL     1      25.112   4.544   7.579  1.00  0.00    -0.309 N 
ATOM     17  H4  UNL     1      24.568   4.968   8.330  1.00  0.00     0.186 HD
HETATM   18  C11 UNL     1      24.738   4.495   6.331  1.00  0.00     0.122 A 
HETATM   19  C12 UNL     1      25.798   3.810   5.612  1.00  0.00     0.030 A 
HETATM   20  C13 UNL     1      25.799   3.524   4.297  1.00  0.00    -0.061 C 
HETATM   21  C14 UNL     1      24.636   4.002   3.589  1.00  0.00     0.045 C 
HETATM   22  C15 UNL     1      26.919   2.769   3.683  1.00  0.00     0.055 C 
HETATM   23  C16 UNL     1      26.997   2.642   2.264  1.00  0.00     0.031 C 
ENDROOT
BRANCH   2  24
HETATM   24  N1  UNL     1      25.106   0.345   3.189  1.00  0.00    -0.274 N 
ATOM     25  H1  UNL     1      25.423   0.322   4.158  1.00  0.00     0.193 HD
BRANCH  24  26
HETATM   26  O1  UNL     1      23.763   0.394   2.862  1.00  0.00    -0.290 OA
ATOM     27  H1  UNL     1      23.149   0.301   3.580  1.00  0.00     0.244 HD
ENDBRANCH  24  26
ENDBRANCH   2  24
TORSDOF 2
ENDMDL
