MODEL 1
REMARK VINA RESULT: -6.647688176      0.000      0.000
REMARK  4 active torsions:
REMARK  status: ('A' for Active; 'I' for Inactive)
REMARK    1  A    between atoms: N2_6  and  C3_7 
REMARK    2  A    between atoms: C3_7  and  C4_8 
REMARK    3  A    between atoms: C4_8  and  C5_9 
REMARK    4  A    between atoms: C5_9  and  C6_10 
ROOT
HETATM    1  N1  UNL     1      18.082  19.766  68.097  1.00  0.00    -0.384 N 
ATOM      2  H11 UNL     1      18.385  19.521  69.040  1.00  0.00     0.157 HD
ATOM      3  H12 UNL     1      17.130  20.101  67.954  1.00  0.00     0.157 HD
HETATM    4  C1  UNL     1      18.852  19.672  67.066  1.00  0.00     0.117 A 
HETATM    5  C2  UNL     1      18.420  20.022  65.721  1.00  0.00     0.163 A 
HETATM    6  N2  UNL     1      19.230  19.914  64.690  1.00  0.00    -0.275 N 
HETATM    7  N5  UNL     1      20.512  19.451  64.970  1.00  0.00    -0.290 N 
ATOM      8  H5  UNL     1      21.143  19.367  64.172  1.00  0.00     0.188 HD
HETATM    9  C9  UNL     1      20.991  19.121  66.096  1.00  0.00     0.199 A 
HETATM   10  N6  UNL     1      20.184  19.205  67.267  1.00  0.00    -0.337 N 
ATOM     11  H6  UNL     1      20.536  18.948  68.188  1.00  0.00     0.168 HD
ENDROOT
BRANCH   6  12
HETATM   12  C3  UNL     1      18.761  20.272  63.396  1.00  0.00     0.112 C 
BRANCH  12  13
HETATM   13  C4  UNL     1      18.349  21.623  63.028  1.00  0.00    -0.002 C 
BRANCH  13  14
HETATM   14  C5  UNL     1      17.033  21.910  62.442  1.00  0.00     0.087 C 
BRANCH  14  15
HETATM   15  C6  UNL     1      15.798  21.690  63.186  1.00  0.00     0.029 A 
HETATM   16  C7  UNL     1      15.618  22.242  64.470  1.00  0.00     0.114 A 
HETATM   17  N3  UNL     1      14.392  21.925  64.887  1.00  0.00    -0.360 N 
HETATM   18  C8  UNL     1      13.759  21.189  63.931  1.00  0.00     0.180 A 
ATOM     19  H3  UNL     1      13.989  22.194  65.784  1.00  0.00     0.166 HD
HETATM   20  N4  UNL     1      14.641  21.085  62.957  1.00  0.00    -0.354 N 
ATOM     21  H4  UNL     1      14.449  20.578  62.093  1.00  0.00     0.166 HD
ENDBRANCH  14  15
ENDBRANCH  13  14
ENDBRANCH  12  13
ENDBRANCH   6  12
TORSDOF 4
ENDMDL
MODEL 2
REMARK VINA RESULT: -6.567538148      4.331      6.492
REMARK  4 active torsions:
REMARK  status: ('A' for Active; 'I' for Inactive)
REMARK    1  A    between atoms: N2_6  and  C3_7 
REMARK    2  A    between atoms: C3_7  and  C4_8 
REMARK    3  A    between atoms: C4_8  and  C5_9 
REMARK    4  A    between atoms: C5_9  and  C6_10 
ROOT
HETATM    1  N1  UNL     1      16.726  21.143  61.668  1.00  0.00    -0.384 N 
ATOM      2  H11 UNL     1      16.242  20.588  60.963  1.00  0.00     0.157 HD
ATOM      3  H12 UNL     1      17.701  21.399  61.514  1.00  0.00     0.157 HD
HETATM    4  C1  UNL     1      16.162  21.540  62.758  1.00  0.00     0.117 A 
HETATM    5  C2  UNL     1      16.853  22.332  63.765  1.00  0.00     0.163 A 
HETATM    6  N2  UNL     1      16.248  22.721  64.867  1.00  0.00    -0.275 N 
HETATM    7  N5  UNL     1      14.919  22.330  65.002  1.00  0.00    -0.290 N 
ATOM      8  H5  UNL     1      14.448  22.631  65.855  1.00  0.00     0.188 HD
HETATM    9  C9  UNL     1      14.225  21.646  64.192  1.00  0.00     0.199 A 
HETATM   10  N6  UNL     1      14.799  21.182  62.974  1.00  0.00    -0.337 N 
ATOM     11  H6  UNL     1      14.270  20.630  62.300  1.00  0.00     0.168 HD
ENDROOT
BRANCH   6  12
HETATM   12  C3  UNL     1      16.966  23.496  65.819  1.00  0.00     0.112 C 
BRANCH  12  13
HETATM   13  C4  UNL     1      16.329  24.386  66.785  1.00  0.00    -0.002 C 
BRANCH  13  14
HETATM   14  C5  UNL     1      16.143  25.820  66.528  1.00  0.00     0.087 C 
BRANCH  14  15
HETATM   15  C6  UNL     1      17.096  26.815  67.007  1.00  0.00     0.029 A 
HETATM   16  C7  UNL     1      18.040  27.393  66.135  1.00  0.00     0.114 A 
HETATM   17  N3  UNL     1      18.740  28.295  66.824  1.00  0.00    -0.360 N 
HETATM   18  C8  UNL     1      18.295  28.334  68.111  1.00  0.00     0.180 A 
ATOM     19  H3  UNL     1      19.493  28.869  66.445  1.00  0.00     0.166 HD
HETATM   20  N4  UNL     1      17.328  27.439  68.153  1.00  0.00    -0.354 N 
ATOM     21  H4  UNL     1      16.800  27.241  69.003  1.00  0.00     0.166 HD
ENDBRANCH  14  15
ENDBRANCH  13  14
ENDBRANCH  12  13
ENDBRANCH   6  12
TORSDOF 4
ENDMDL
MODEL 3
REMARK VINA RESULT: -6.565778928      2.578      3.599
REMARK  4 active torsions:
REMARK  status: ('A' for Active; 'I' for Inactive)
REMARK    1  A    between atoms: N2_6  and  C3_7 
REMARK    2  A    between atoms: C3_7  and  C4_8 
REMARK    3  A    between atoms: C4_8  and  C5_9 
REMARK    4  A    between atoms: C5_9  and  C6_10 
ROOT
HETATM    1  N1  UNL     1      19.730  18.477  66.909  1.00  0.00    -0.384 N 
ATOM      2  H11 UNL     1      20.637  18.011  66.894  1.00  0.00     0.157 HD
ATOM      3  H12 UNL     1      19.202  18.505  67.781  1.00  0.00     0.157 HD
HETATM    4  C1  UNL     1      19.211  19.039  65.870  1.00  0.00     0.117 A 
HETATM    5  C2  UNL     1      17.917  19.705  65.892  1.00  0.00     0.163 A 
HETATM    6  N2  UNL     1      17.416  20.268  64.814  1.00  0.00    -0.275 N 
HETATM    7  N5  UNL     1      18.199  20.187  63.666  1.00  0.00    -0.290 N 
ATOM      8  H5  UNL     1      17.813  20.623  62.828  1.00  0.00     0.188 HD
HETATM    9  C9  UNL     1      19.333  19.637  63.536  1.00  0.00     0.199 A 
HETATM   10  N6  UNL     1      19.950  19.001  64.651  1.00  0.00    -0.337 N 
ATOM     11  H6  UNL     1      20.861  18.549  64.583  1.00  0.00     0.168 HD
ENDROOT
BRANCH   6  12
HETATM   12  C3  UNL     1      16.149  20.908  64.888  1.00  0.00     0.112 C 
BRANCH  12  13
HETATM   13  C4  UNL     1      15.968  22.356  64.828  1.00  0.00    -0.002 C 
BRANCH  13  14
HETATM   14  C5  UNL     1      16.762  23.281  65.649  1.00  0.00     0.087 C 
BRANCH  14  15
HETATM   15  C6  UNL     1      16.132  24.277  66.507  1.00  0.00     0.029 A 
HETATM   16  C7  UNL     1      14.731  24.422  66.542  1.00  0.00     0.114 A 
HETATM   17  N3  UNL     1      14.436  25.362  67.441  1.00  0.00    -0.360 N 
HETATM   18  C8  UNL     1      15.583  25.840  67.999  1.00  0.00     0.180 A 
ATOM     19  H3  UNL     1      13.494  25.675  67.676  1.00  0.00     0.166 HD
HETATM   20  N4  UNL     1      16.546  25.161  67.405  1.00  0.00    -0.354 N 
ATOM     21  H4  UNL     1      17.532  25.305  67.620  1.00  0.00     0.166 HD
ENDBRANCH  14  15
ENDBRANCH  13  14
ENDBRANCH  12  13
ENDBRANCH   6  12
TORSDOF 4
ENDMDL
MODEL 4
REMARK VINA RESULT: -6.533481767      1.881      2.919
REMARK  4 active torsions:
REMARK  status: ('A' for Active; 'I' for Inactive)
REMARK    1  A    between atoms: N2_6  and  C3_7 
REMARK    2  A    between atoms: C3_7  and  C4_8 
REMARK    3  A    between atoms: C4_8  and  C5_9 
REMARK    4  A    between atoms: C5_9  and  C6_10 
ROOT
HETATM    1  N1  UNL     1      20.897  19.003  66.982  1.00  0.00    -0.384 N 
ATOM      2  H11 UNL     1      21.902  18.889  66.852  1.00  0.00     0.157 HD
ATOM      3  H12 UNL     1      20.513  18.976  67.927  1.00  0.00     0.157 HD
HETATM    4  C1  UNL     1      20.077  19.181  66.002  1.00  0.00     0.117 A 
HETATM    5  C2  UNL     1      18.643  19.343  66.188  1.00  0.00     0.163 A 
HETATM    6  N2  UNL     1      17.834  19.522  65.166  1.00  0.00    -0.275 N 
HETATM    7  N5  UNL     1      18.435  19.547  63.911  1.00  0.00    -0.290 N 
ATOM      8  H5  UNL     1      17.810  19.686  63.116  1.00  0.00     0.188 HD
HETATM    9  C9  UNL     1      19.665  19.418  63.636  1.00  0.00     0.199 A 
HETATM   10  N6  UNL     1      20.613  19.219  64.681  1.00  0.00    -0.337 N 
ATOM     11  H6  UNL     1      21.610  19.112  64.497  1.00  0.00     0.168 HD
ENDROOT
BRANCH   6  12
HETATM   12  C3  UNL     1      16.440  19.678  65.400  1.00  0.00     0.112 C 
BRANCH  12  13
HETATM   13  C4  UNL     1      15.523  20.302  64.450  1.00  0.00    -0.002 C 
BRANCH  13  14
HETATM   14  C5  UNL     1      15.672  21.698  64.017  1.00  0.00     0.087 C 
BRANCH  14  15
HETATM   15  C6  UNL     1      16.252  22.713  64.889  1.00  0.00     0.029 A 
HETATM   16  C7  UNL     1      17.612  23.066  64.787  1.00  0.00     0.114 A 
HETATM   17  N3  UNL     1      17.851  24.044  65.662  1.00  0.00    -0.360 N 
HETATM   18  C8  UNL     1      16.706  24.348  66.334  1.00  0.00     0.180 A 
ATOM     19  H3  UNL     1      18.754  24.495  65.806  1.00  0.00     0.166 HD
HETATM   20  N4  UNL     1      15.802  23.529  65.833  1.00  0.00    -0.354 N 
ATOM     21  H4  UNL     1      14.832  23.523  66.147  1.00  0.00     0.166 HD
ENDBRANCH  14  15
ENDBRANCH  13  14
ENDBRANCH  12  13
ENDBRANCH   6  12
TORSDOF 4
ENDMDL
MODEL 5
REMARK VINA RESULT: -6.488246844      1.397      5.065
REMARK  4 active torsions:
REMARK  status: ('A' for Active; 'I' for Inactive)
REMARK    1  A    between atoms: N2_6  and  C3_7 
REMARK    2  A    between atoms: C3_7  and  C4_8 
REMARK    3  A    between atoms: C4_8  and  C5_9 
REMARK    4  A    between atoms: C5_9  and  C6_10 
ROOT
HETATM    1  N1  UNL     1      14.094  21.248  62.794  1.00  0.00    -0.384 N 
ATOM      2  H11 UNL     1      13.149  21.237  63.179  1.00  0.00     0.157 HD
ATOM      3  H12 UNL     1      14.258  20.842  61.873  1.00  0.00     0.157 HD
HETATM    4  C1  UNL     1      15.102  21.753  63.421  1.00  0.00     0.117 A 
HETATM    5  C2  UNL     1      16.450  21.768  62.872  1.00  0.00     0.163 A 
HETATM    6  N2  UNL     1      17.457  22.291  63.538  1.00  0.00    -0.275 N 
HETATM    7  N5  UNL     1      17.149  22.824  64.786  1.00  0.00    -0.290 N 
ATOM      8  H5  UNL     1      17.928  23.230  65.305  1.00  0.00     0.188 HD
HETATM    9  C9  UNL     1      16.018  22.864  65.356  1.00  0.00     0.199 A 
HETATM   10  N6  UNL     1      14.872  22.320  64.708  1.00  0.00    -0.337 N 
ATOM     11  H6  UNL     1      13.947  22.335  65.138  1.00  0.00     0.168 HD
ENDROOT
BRANCH   6  12
HETATM   12  C3  UNL     1      18.754  22.284  62.956  1.00  0.00     0.112 C 
BRANCH  12  13
HETATM   13  C4  UNL     1      19.755  21.254  63.220  1.00  0.00    -0.002 C 
BRANCH  13  14
HETATM   14  C5  UNL     1      19.394  19.916  63.710  1.00  0.00     0.087 C 
BRANCH  14  15
HETATM   15  C6  UNL     1      19.218  19.643  65.131  1.00  0.00     0.029 A 
HETATM   16  C7  UNL     1      20.272  19.115  65.903  1.00  0.00     0.114 A 
HETATM   17  N3  UNL     1      19.849  19.016  67.164  1.00  0.00    -0.360 N 
HETATM   18  C8  UNL     1      18.563  19.456  67.253  1.00  0.00     0.180 A 
ATOM     19  H3  UNL     1      20.405  18.664  67.944  1.00  0.00     0.166 HD
HETATM   20  N4  UNL     1      18.250  19.810  66.022  1.00  0.00    -0.354 N 
ATOM     21  H4  UNL     1      17.334  20.183  65.774  1.00  0.00     0.166 HD
ENDBRANCH  14  15
ENDBRANCH  13  14
ENDBRANCH  12  13
ENDBRANCH   6  12
TORSDOF 4
ENDMDL
