MODEL 1
REMARK VINA RESULT: -9.726086013      0.000      0.000
REMARK  9 active torsions:
REMARK  status: ('A' for Active; 'I' for Inactive)
REMARK    1  A    between atoms: N1_1  and  C1_4 
REMARK    2  A    between atoms: C2_7  and  O1_8 
REMARK    3  A    between atoms: C3_10  and  C4_11 
REMARK    4  A    between atoms: N3_12  and  N4_14 
REMARK    5  A    between atoms: N4_14  and  C5_16 
REMARK    6  A    between atoms: C6_17  and  N5_18 
REMARK    7  A    between atoms: C8_22  and  S1_23 
REMARK    8  A    between atoms: C10_28  and  S2_29 
REMARK    9  A    between atoms: S2_29  and  N6_30 
ROOT
HETATM    1  C5  UNL     1     -51.971  16.138  16.497  1.00  0.00     0.104 A 
HETATM    2  C6  UNL     1     -51.535  15.957  17.791  1.00  0.00     0.134 A 
HETATM    3  C7  UNL     1     -50.146  15.921  18.013  1.00  0.00     0.065 A 
HETATM    4  C8  UNL     1     -49.229  16.056  17.015  1.00  0.00     0.084 A 
HETATM    5  C9  UNL     1     -49.704  16.235  15.734  1.00  0.00     0.054 A 
HETATM    6  C10 UNL     1     -51.075  16.280  15.450  1.00  0.00     0.111 A 
ENDROOT
BRANCH   1   7
HETATM    7  N4  UNL     1     -53.347  16.169  16.191  1.00  0.00    -0.297 N 
ATOM      8  H4  UNL     1     -53.614  16.631  15.322  1.00  0.00     0.187 HD
BRANCH   7   9
HETATM    9  N3  UNL     1     -54.377  15.633  16.954  1.00  0.00    -0.310 N 
HETATM   10  C4  UNL     1     -54.697  14.389  16.886  1.00  0.00     0.128 C 
ATOM     11  H3  UNL     1     -54.893  16.243  17.587  1.00  0.00     0.186 HD
BRANCH  10  12
HETATM   12  C3  UNL     1     -55.771  13.806  17.673  1.00  0.00     0.100 A 
HETATM   13  C2  UNL     1     -57.080  14.186  17.448  1.00  0.00     0.172 A 
HETATM   14  N2  UNL     1     -58.058  13.629  18.192  1.00  0.00    -0.170 N 
HETATM   15  C1  UNL     1     -57.814  12.717  19.149  1.00  0.00     0.680 A 
ATOM     16  H2  UNL     1     -59.023  13.912  18.022  1.00  0.00     0.186 HD
HETATM   17  N7  UNL     1     -56.532  12.362  19.350  1.00  0.00    -0.155 N 
HETATM   18  C11 UNL     1     -55.517  12.874  18.648  1.00  0.00     0.275 A 
ATOM     19  H7  UNL     1     -56.326  11.672  20.073  1.00  0.00     0.187 HD
HETATM   20  O9  UNL     1     -54.303  12.533  18.848  1.00  0.00    -0.267 OA
BRANCH  13  21
HETATM   21  O1  UNL     1     -57.337  15.132  16.456  1.00  0.00    -0.345 OA
ATOM     22  H1  UNL     1     -57.383  16.064  16.637  1.00  0.00     0.219 HD
ENDBRANCH  13  21
BRANCH  15  23
HETATM   23  N1  UNL     1     -58.785  12.193  19.856  1.00  0.00    -0.234 N 
ATOM     24  H12 UNL     1     -59.283  11.361  19.541  1.00  0.00     0.174 HD
ATOM     25  H11 UNL     1     -59.074  12.601  20.745  1.00  0.00     0.174 HD
ENDBRANCH  15  23
ENDBRANCH  10  12
ENDBRANCH   7   9
ENDBRANCH   1   7
BRANCH   2  26
HETATM   26  N5  UNL     1     -52.423  15.790  18.859  1.00  0.00    -0.113 N 
HETATM   27  O2  UNL     1     -52.434  14.703  19.467  1.00  0.00    -0.532 OA
HETATM   28  O3  UNL     1     -53.267  16.768  19.254  1.00  0.00    -0.532 OA
ENDBRANCH   2  26
BRANCH   6  29
HETATM   29  S2  UNL     1     -51.571  16.521  13.800  1.00  0.00     0.259 S 
HETATM   30  O7  UNL     1     -52.241  15.273  13.257  1.00  0.00    -0.201 OA
HETATM   31  O8  UNL     1     -52.494  17.702  13.712  1.00  0.00    -0.201 OA
BRANCH  29  32
HETATM   32  N6  UNL     1     -50.178  16.871  12.852  1.00  0.00    -0.324 N 
ATOM     33  H62 UNL     1     -49.266  16.430  12.969  1.00  0.00     0.169 HD
ATOM     34  H61 UNL     1     -50.422  17.585  12.166  1.00  0.00     0.169 HD
ENDBRANCH  29  32
ENDBRANCH   6  29
BRANCH   4  35
HETATM   35  S1  UNL     1     -47.505  16.008  17.311  1.00  0.00     0.137 S 
HETATM   36  O4  UNL     1     -46.836  16.355  15.992  1.00  0.00    -0.591 OA
HETATM   37  O5  UNL     1     -47.093  14.620  17.648  1.00  0.00    -0.591 OA
HETATM   38  O6  UNL     1     -47.010  17.131  18.422  1.00  0.00    -0.591 OA
ENDBRANCH   4  35
TORSDOF 9
ENDMDL
MODEL 2
REMARK VINA RESULT: -9.685961176      0.061      1.499
REMARK  9 active torsions:
REMARK  status: ('A' for Active; 'I' for Inactive)
REMARK    1  A    between atoms: N1_1  and  C1_4 
REMARK    2  A    between atoms: C2_7  and  O1_8 
REMARK    3  A    between atoms: C3_10  and  C4_11 
REMARK    4  A    between atoms: N3_12  and  N4_14 
REMARK    5  A    between atoms: N4_14  and  C5_16 
REMARK    6  A    between atoms: C6_17  and  N5_18 
REMARK    7  A    between atoms: C8_22  and  S1_23 
REMARK    8  A    between atoms: C10_28  and  S2_29 
REMARK    9  A    between atoms: S2_29  and  N6_30 
ROOT
HETATM    1  C5  UNL     1     -51.983  16.156  16.474  1.00  0.00     0.104 A 
HETATM    2  C6  UNL     1     -51.548  15.961  17.765  1.00  0.00     0.134 A 
HETATM    3  C7  UNL     1     -50.160  15.903  17.986  1.00  0.00     0.065 A 
HETATM    4  C8  UNL     1     -49.242  16.031  16.988  1.00  0.00     0.084 A 
HETATM    5  C9  UNL     1     -49.715  16.224  15.708  1.00  0.00     0.054 A 
HETATM    6  C10 UNL     1     -51.086  16.291  15.426  1.00  0.00     0.111 A 
ENDROOT
BRANCH   1   7
HETATM    7  N4  UNL     1     -53.359  16.209  16.169  1.00  0.00    -0.297 N 
ATOM      8  H4  UNL     1     -53.620  16.688  15.307  1.00  0.00     0.187 HD
BRANCH   7   9
HETATM    9  N3  UNL     1     -54.394  15.676  16.925  1.00  0.00    -0.310 N 
HETATM   10  C4  UNL     1     -54.689  14.424  16.887  1.00  0.00     0.128 C 
ATOM     11  H3  UNL     1     -54.937  16.294  17.528  1.00  0.00     0.186 HD
BRANCH  10  12
HETATM   12  C3  UNL     1     -55.769  13.843  17.668  1.00  0.00     0.100 A 
HETATM   13  C2  UNL     1     -55.490  12.906  18.644  1.00  0.00     0.172 A 
HETATM   14  N2  UNL     1     -56.510  12.381  19.355  1.00  0.00    -0.170 N 
HETATM   15  C1  UNL     1     -57.792  12.732  19.154  1.00  0.00     0.680 A 
ATOM     16  H2  UNL     1     -56.299  11.690  20.075  1.00  0.00     0.186 HD
HETATM   17  N7  UNL     1     -58.039  13.646  18.199  1.00  0.00    -0.155 N 
HETATM   18  C11 UNL     1     -57.076  14.205  17.460  1.00  0.00     0.275 A 
ATOM     19  H7  UNL     1     -59.006  13.925  18.031  1.00  0.00     0.187 HD
HETATM   20  O9  UNL     1     -57.320  15.070  16.554  1.00  0.00    -0.267 OA
BRANCH  13  21
HETATM   21  O1  UNL     1     -54.160  12.540  18.855  1.00  0.00    -0.345 OA
ATOM     22  H1  UNL     1     -53.842  11.657  18.703  1.00  0.00     0.219 HD
ENDBRANCH  13  21
BRANCH  15  23
HETATM   23  N1  UNL     1     -58.762  12.205  19.861  1.00  0.00    -0.234 N 
ATOM     24  H12 UNL     1     -58.856  12.396  20.858  1.00  0.00     0.174 HD
ATOM     25  H11 UNL     1     -59.454  11.588  19.436  1.00  0.00     0.174 HD
ENDBRANCH  15  23
ENDBRANCH  10  12
ENDBRANCH   7   9
ENDBRANCH   1   7
BRANCH   2  26
HETATM   26  N5  UNL     1     -52.437  15.801  18.834  1.00  0.00    -0.113 N 
HETATM   27  O2  UNL     1     -52.466  14.710  19.433  1.00  0.00    -0.532 OA
HETATM   28  O3  UNL     1     -53.264  16.790  19.237  1.00  0.00    -0.532 OA
ENDBRANCH   2  26
BRANCH   6  29
HETATM   29  S2  UNL     1     -51.580  16.549  13.778  1.00  0.00     0.259 S 
HETATM   30  O7  UNL     1     -52.230  15.300  13.215  1.00  0.00    -0.201 OA
HETATM   31  O8  UNL     1     -52.520  17.719  13.704  1.00  0.00    -0.201 OA
BRANCH  29  32
HETATM   32  N6  UNL     1     -50.189  16.934  12.840  1.00  0.00    -0.324 N 
ATOM     33  H62 UNL     1     -49.251  17.070  13.216  1.00  0.00     0.169 HD
ATOM     34  H61 UNL     1     -50.465  16.999  11.860  1.00  0.00     0.169 HD
ENDBRANCH  29  32
ENDBRANCH   6  29
BRANCH   4  35
HETATM   35  S1  UNL     1     -47.518  15.955  17.281  1.00  0.00     0.137 S 
HETATM   36  O4  UNL     1     -46.846  16.214  15.944  1.00  0.00    -0.591 OA
HETATM   37  O5  UNL     1     -47.140  14.577  17.691  1.00  0.00    -0.591 OA
HETATM   38  O6  UNL     1     -46.991  17.122  18.330  1.00  0.00    -0.591 OA
ENDBRANCH   4  35
TORSDOF 9
ENDMDL
MODEL 3
REMARK VINA RESULT: -8.696022155      4.084      7.480
REMARK  9 active torsions:
REMARK  status: ('A' for Active; 'I' for Inactive)
REMARK    1  A    between atoms: N1_1  and  C1_4 
REMARK    2  A    between atoms: C2_7  and  O1_8 
REMARK    3  A    between atoms: C3_10  and  C4_11 
REMARK    4  A    between atoms: N3_12  and  N4_14 
REMARK    5  A    between atoms: N4_14  and  C5_16 
REMARK    6  A    between atoms: C6_17  and  N5_18 
REMARK    7  A    between atoms: C8_22  and  S1_23 
REMARK    8  A    between atoms: C10_28  and  S2_29 
REMARK    9  A    between atoms: S2_29  and  N6_30 
ROOT
HETATM    1  C5  UNL     1     -49.788  16.068  17.935  1.00  0.00     0.104 A 
HETATM    2  C6  UNL     1     -51.143  15.843  17.840  1.00  0.00     0.134 A 
HETATM    3  C7  UNL     1     -51.761  16.096  16.601  1.00  0.00     0.065 A 
HETATM    4  C8  UNL     1     -51.084  16.547  15.510  1.00  0.00     0.084 A 
HETATM    5  C9  UNL     1     -49.729  16.761  15.644  1.00  0.00     0.054 A 
HETATM    6  C10 UNL     1     -49.057  16.527  16.851  1.00  0.00     0.111 A 
ENDROOT
BRANCH   1   7
HETATM    7  N4  UNL     1     -49.099  15.854  19.147  1.00  0.00    -0.297 N 
ATOM      8  H4  UNL     1     -48.958  16.668  19.745  1.00  0.00     0.187 HD
BRANCH   7   9
HETATM    9  N3  UNL     1     -48.592  14.646  19.608  1.00  0.00    -0.310 N 
HETATM   10  C4  UNL     1     -47.345  14.492  19.883  1.00  0.00     0.128 C 
ATOM     11  H3  UNL     1     -49.228  13.857  19.732  1.00  0.00     0.186 HD
BRANCH  10  12
HETATM   12  C3  UNL     1     -46.792  13.237  20.366  1.00  0.00     0.100 A 
HETATM   13  C2  UNL     1     -46.082  13.205  21.552  1.00  0.00     0.172 A 
HETATM   14  N2  UNL     1     -45.579  12.028  21.978  1.00  0.00    -0.170 N 
HETATM   15  C1  UNL     1     -45.738  10.880  21.297  1.00  0.00     0.680 A 
ATOM     16  H2  UNL     1     -45.056  12.008  22.853  1.00  0.00     0.186 HD
HETATM   17  N7  UNL     1     -46.432  10.936  20.146  1.00  0.00    -0.155 N 
HETATM   18  C11 UNL     1     -46.957  12.068  19.668  1.00  0.00     0.275 A 
ATOM     19  H7  UNL     1     -46.563  10.075  19.614  1.00  0.00     0.187 HD
HETATM   20  O9  UNL     1     -47.613  12.112  18.574  1.00  0.00    -0.267 OA
BRANCH  13  21
HETATM   21  O1  UNL     1     -45.916  14.395  22.260  1.00  0.00    -0.345 OA
ATOM     22  H1  UNL     1     -46.616  14.792  22.765  1.00  0.00     0.219 HD
ENDBRANCH  13  21
BRANCH  15  23
HETATM   23  N1  UNL     1     -45.237   9.750  21.736  1.00  0.00    -0.234 N 
ATOM     24  H12 UNL     1     -44.820   9.681  22.664  1.00  0.00     0.174 HD
ATOM     25  H11 UNL     1     -45.248   8.906  21.164  1.00  0.00     0.174 HD
ENDBRANCH  15  23
ENDBRANCH  10  12
ENDBRANCH   7   9
ENDBRANCH   1   7
BRANCH   2  26
HETATM   26  N5  UNL     1     -51.903  15.400  18.928  1.00  0.00    -0.113 N 
HETATM   27  O2  UNL     1     -52.908  16.054  19.264  1.00  0.00    -0.532 OA
HETATM   28  O3  UNL     1     -51.583  14.289  19.625  1.00  0.00    -0.532 OA
ENDBRANCH   2  26
BRANCH   6  29
HETATM   29  S2  UNL     1     -47.343  16.818  16.914  1.00  0.00     0.259 S 
HETATM   30  O7  UNL     1     -46.940  17.855  15.885  1.00  0.00    -0.201 OA
HETATM   31  O8  UNL     1     -46.950  17.256  18.296  1.00  0.00    -0.201 OA
BRANCH  29  32
HETATM   32  N6  UNL     1     -46.522  15.342  16.579  1.00  0.00    -0.324 N 
ATOM     33  H62 UNL     1     -45.981  14.808  17.259  1.00  0.00     0.169 HD
ATOM     34  H61 UNL     1     -46.672  15.101  15.599  1.00  0.00     0.169 HD
ENDBRANCH  29  32
ENDBRANCH   6  29
BRANCH   4  35
HETATM   35  S1  UNL     1     -51.871  16.857  13.977  1.00  0.00     0.137 S 
HETATM   36  O4  UNL     1     -52.534  15.553  13.567  1.00  0.00    -0.591 OA
HETATM   37  O5  UNL     1     -50.848  17.162  12.942  1.00  0.00    -0.591 OA
HETATM   38  O6  UNL     1     -53.063  18.001  14.085  1.00  0.00    -0.591 OA
ENDBRANCH   4  35
TORSDOF 9
ENDMDL
MODEL 4
REMARK VINA RESULT: -8.639385440      4.085      7.416
REMARK  9 active torsions:
REMARK  status: ('A' for Active; 'I' for Inactive)
REMARK    1  A    between atoms: N1_1  and  C1_4 
REMARK    2  A    between atoms: C2_7  and  O1_8 
REMARK    3  A    between atoms: C3_10  and  C4_11 
REMARK    4  A    between atoms: N3_12  and  N4_14 
REMARK    5  A    between atoms: N4_14  and  C5_16 
REMARK    6  A    between atoms: C6_17  and  N5_18 
REMARK    7  A    between atoms: C8_22  and  S1_23 
REMARK    8  A    between atoms: C10_28  and  S2_29 
REMARK    9  A    between atoms: S2_29  and  N6_30 
ROOT
HETATM    1  C5  UNL     1     -49.796  16.053  17.945  1.00  0.00     0.104 A 
HETATM    2  C6  UNL     1     -51.152  15.836  17.849  1.00  0.00     0.134 A 
HETATM    3  C7  UNL     1     -51.771  16.103  16.614  1.00  0.00     0.065 A 
HETATM    4  C8  UNL     1     -51.093  16.560  15.525  1.00  0.00     0.084 A 
HETATM    5  C9  UNL     1     -49.736  16.765  15.659  1.00  0.00     0.054 A 
HETATM    6  C10 UNL     1     -49.064  16.518  16.863  1.00  0.00     0.111 A 
ENDROOT
BRANCH   1   7
HETATM    7  N4  UNL     1     -49.106  15.824  19.153  1.00  0.00    -0.297 N 
ATOM      8  H4  UNL     1     -48.971  16.630  19.764  1.00  0.00     0.187 HD
BRANCH   7   9
HETATM    9  N3  UNL     1     -48.592  14.613  19.596  1.00  0.00    -0.310 N 
HETATM   10  C4  UNL     1     -47.352  14.473  19.907  1.00  0.00     0.128 C 
ATOM     11  H3  UNL     1     -49.216  13.810  19.677  1.00  0.00     0.186 HD
BRANCH  10  12
HETATM   12  C3  UNL     1     -46.791  13.215  20.372  1.00  0.00     0.100 A 
HETATM   13  C2  UNL     1     -46.903  12.078  19.595  1.00  0.00     0.172 A 
HETATM   14  N2  UNL     1     -46.373  10.923  20.049  1.00  0.00    -0.170 N 
HETATM   15  C1  UNL     1     -45.739  10.830  21.230  1.00  0.00     0.680 A 
ATOM     16  H2  UNL     1     -46.458  10.086  19.472  1.00  0.00     0.186 HD
HETATM   17  N7  UNL     1     -45.642  11.949  21.970  1.00  0.00    -0.155 N 
HETATM   18  C11 UNL     1     -46.143  13.124  21.579  1.00  0.00     0.275 A 
ATOM     19  H7  UNL     1     -45.165  11.898  22.870  1.00  0.00     0.187 HD
HETATM   20  O9  UNL     1     -46.048  14.181  22.287  1.00  0.00    -0.267 OA
BRANCH  13  21
HETATM   21  O1  UNL     1     -47.561  12.173  18.368  1.00  0.00    -0.345 OA
ATOM     22  H1  UNL     1     -48.365  11.703  18.182  1.00  0.00     0.219 HD
ENDBRANCH  13  21
BRANCH  15  23
HETATM   23  N1  UNL     1     -45.234   9.693  21.646  1.00  0.00    -0.234 N 
ATOM     24  H12 UNL     1     -45.088   8.912  21.006  1.00  0.00     0.174 HD
ATOM     25  H11 UNL     1     -44.972   9.553  22.621  1.00  0.00     0.174 HD
ENDBRANCH  15  23
ENDBRANCH  10  12
ENDBRANCH   7   9
ENDBRANCH   1   7
BRANCH   2  26
HETATM   26  N5  UNL     1     -51.913  15.388  18.935  1.00  0.00    -0.113 N 
HETATM   27  O2  UNL     1     -52.914  16.044  19.278  1.00  0.00    -0.532 OA
HETATM   28  O3  UNL     1     -51.598  14.269  19.621  1.00  0.00    -0.532 OA
ENDBRANCH   2  26
BRANCH   6  29
HETATM   29  S2  UNL     1     -47.348  16.798  16.927  1.00  0.00     0.259 S 
HETATM   30  O7  UNL     1     -46.941  17.840  15.903  1.00  0.00    -0.201 OA
HETATM   31  O8  UNL     1     -46.951  17.226  18.311  1.00  0.00    -0.201 OA
BRANCH  29  32
HETATM   32  N6  UNL     1     -46.536  15.320  16.581  1.00  0.00    -0.324 N 
ATOM     33  H62 UNL     1     -46.236  14.642  17.281  1.00  0.00     0.169 HD
ATOM     34  H61 UNL     1     -46.412  15.245  15.572  1.00  0.00     0.169 HD
ENDBRANCH  29  32
ENDBRANCH   6  29
BRANCH   4  35
HETATM   35  S1  UNL     1     -51.880  16.888  13.997  1.00  0.00     0.137 S 
HETATM   36  O4  UNL     1     -52.545  15.589  13.573  1.00  0.00    -0.591 OA
HETATM   37  O5  UNL     1     -50.858  17.203  12.964  1.00  0.00    -0.591 OA
HETATM   38  O6  UNL     1     -53.070  18.032  14.117  1.00  0.00    -0.591 OA
ENDBRANCH   4  35
TORSDOF 9
ENDMDL
MODEL 5
REMARK VINA RESULT: -8.321259955      7.142     10.206
REMARK  9 active torsions:
REMARK  status: ('A' for Active; 'I' for Inactive)
REMARK    1  A    between atoms: N1_1  and  C1_4 
REMARK    2  A    between atoms: C2_7  and  O1_8 
REMARK    3  A    between atoms: C3_10  and  C4_11 
REMARK    4  A    between atoms: N3_12  and  N4_14 
REMARK    5  A    between atoms: N4_14  and  C5_16 
REMARK    6  A    between atoms: C6_17  and  N5_18 
REMARK    7  A    between atoms: C8_22  and  S1_23 
REMARK    8  A    between atoms: C10_28  and  S2_29 
REMARK    9  A    between atoms: S2_29  and  N6_30 
ROOT
HETATM    1  C5  UNL     1     -45.304  12.335  22.472  1.00  0.00     0.104 A 
HETATM    2  C6  UNL     1     -44.242  12.920  23.125  1.00  0.00     0.134 A 
HETATM    3  C7  UNL     1     -43.183  12.085  23.526  1.00  0.00     0.065 A 
HETATM    4  C8  UNL     1     -43.165  10.743  23.299  1.00  0.00     0.084 A 
HETATM    5  C9  UNL     1     -44.246  10.194  22.643  1.00  0.00     0.054 A 
HETATM    6  C10 UNL     1     -45.330  10.972  22.219  1.00  0.00     0.111 A 
ENDROOT
BRANCH   1   7
HETATM    7  N4  UNL     1     -46.411  13.101  22.052  1.00  0.00    -0.297 N 
ATOM      8  H4  UNL     1     -47.237  13.078  22.649  1.00  0.00     0.187 HD
BRANCH   7   9
HETATM    9  N3  UNL     1     -46.490  13.883  20.907  1.00  0.00    -0.310 N 
HETATM   10  C4  UNL     1     -47.476  13.791  20.088  1.00  0.00     0.128 C 
ATOM     11  H3  UNL     1     -45.743  14.550  20.711  1.00  0.00     0.186 HD
BRANCH  10  12
HETATM   12  C3  UNL     1     -47.580  14.598  18.883  1.00  0.00     0.100 A 
HETATM   13  C2  UNL     1     -47.454  14.007  17.641  1.00  0.00     0.172 A 
HETATM   14  N2  UNL     1     -47.555  14.778  16.538  1.00  0.00    -0.170 N 
HETATM   15  C1  UNL     1     -47.773  16.103  16.595  1.00  0.00     0.680 A 
ATOM     16  H2  UNL     1     -47.461  14.337  15.623  1.00  0.00     0.186 HD
HETATM   17  N7  UNL     1     -47.892  16.657  17.815  1.00  0.00    -0.155 N 
HETATM   18  C11 UNL     1     -47.804  15.951  18.946  1.00  0.00     0.275 A 
ATOM     19  H7  UNL     1     -48.058  17.662  17.879  1.00  0.00     0.187 HD
HETATM   20  O9  UNL     1     -47.917  16.485  20.099  1.00  0.00    -0.267 OA
BRANCH  13  21
HETATM   21  O1  UNL     1     -47.228  12.632  17.579  1.00  0.00    -0.345 OA
ATOM     22  H1  UNL     1     -47.932  12.000  17.486  1.00  0.00     0.219 HD
ENDBRANCH  13  21
BRANCH  15  23
HETATM   23  N1  UNL     1     -47.866  16.827  15.506  1.00  0.00    -0.234 N 
ATOM     24  H12 UNL     1     -48.522  16.586  14.764  1.00  0.00     0.174 HD
ATOM     25  H11 UNL     1     -47.285  17.653  15.366  1.00  0.00     0.174 HD
ENDBRANCH  15  23
ENDBRANCH  10  12
ENDBRANCH   7   9
ENDBRANCH   1   7
BRANCH   2  26
HETATM   26  N5  UNL     1     -44.206  14.289  23.409  1.00  0.00    -0.113 N 
HETATM   27  O2  UNL     1     -43.128  14.900  23.285  1.00  0.00    -0.532 OA
HETATM   28  O3  UNL     1     -45.300  14.970  23.813  1.00  0.00    -0.532 OA
ENDBRANCH   2  26
BRANCH   6  29
HETATM   29  S2  UNL     1     -46.641  10.185  21.389  1.00  0.00     0.259 S 
HETATM   30  O7  UNL     1     -47.925  10.304  22.187  1.00  0.00    -0.201 OA
HETATM   31  O8  UNL     1     -46.808  10.777  20.019  1.00  0.00    -0.201 OA
BRANCH  29  32
HETATM   32  N6  UNL     1     -46.248   8.520  21.196  1.00  0.00    -0.324 N 
ATOM     33  H62 UNL     1     -46.165   7.848  21.959  1.00  0.00     0.169 HD
ATOM     34  H61 UNL     1     -46.117   8.329  20.203  1.00  0.00     0.169 HD
ENDBRANCH  29  32
ENDBRANCH   6  29
BRANCH   4  35
HETATM   35  S1  UNL     1     -41.838   9.721  23.807  1.00  0.00     0.137 S 
HETATM   36  O4  UNL     1     -42.087   9.396  25.270  1.00  0.00    -0.591 OA
HETATM   37  O5  UNL     1     -40.565  10.487  23.749  1.00  0.00    -0.591 OA
HETATM   38  O6  UNL     1     -41.781   8.284  22.988  1.00  0.00    -0.591 OA
ENDBRANCH   4  35
TORSDOF 9
ENDMDL
