MODEL 1
REMARK VINA RESULT: -9.090350533      0.000      0.000
REMARK  9 active torsions:
REMARK  status: ('A' for Active; 'I' for Inactive)
REMARK    1  A    between atoms: N1_2  and  C3_4 
REMARK    2  A    between atoms: C4_7  and  S1_8 
REMARK    3  A    between atoms: S1_8  and  C5_9 
REMARK    4  A    between atoms: C6_12  and  N4_13 
REMARK    5  A    between atoms: C7_18  and  N6_19 
REMARK    6  A    between atoms: N7_22  and  C10_23 
REMARK    7  A    between atoms: C10_23  and  C11_24 
REMARK    8  A    between atoms: C15_33  and  N10_34 
REMARK    9  A    between atoms: C16_37  and  N11_38 
ROOT
HETATM    1  C5  UNL     1     -54.572  15.425  17.565  1.00  0.00     0.121 A 
HETATM    2  N3  UNL     1     -54.398  14.841  16.373  1.00  0.00    -0.183 N 
ATOM      3  H3  UNL     1     -53.522  14.986  15.872  1.00  0.00     0.185 HD
HETATM    4  C6  UNL     1     -55.355  14.062  15.812  1.00  0.00     0.678 A 
HETATM    5  N5  UNL     1     -56.495  13.878  16.469  1.00  0.00    -0.175 N 
ATOM      6  H5  UNL     1     -57.208  13.290  16.037  1.00  0.00     0.186 HD
HETATM    7  C7  UNL     1     -56.768  14.429  17.685  1.00  0.00     0.146 A 
HETATM    8  C14 UNL     1     -55.790  15.212  18.243  1.00  0.00     0.125 A 
HETATM    9  N8  UNL     1     -55.967  15.818  19.489  1.00  0.00    -0.095 NA
ENDROOT
BRANCH   1  10
HETATM   10  S1  UNL     1     -53.352  16.506  18.242  1.00  0.00    -0.033 SA
BRANCH  10  11
HETATM   11  C4  UNL     1     -51.759  16.132  17.572  1.00  0.00     0.167 C 
HETATM   12  N2  UNL     1     -51.443  16.538  16.301  1.00  0.00    -0.170 N 
HETATM   13  C3  UNL     1     -50.223  16.382  15.692  1.00  0.00     0.683 C 
ATOM     14  H2  UNL     1     -52.178  16.995  15.761  1.00  0.00     0.186 HD
HETATM   15  N12 UNL     1     -49.052  16.554  16.369  1.00  0.00    -0.173 N 
HETATM   16  C16 UNL     1     -48.768  16.279  17.682  1.00  0.00     0.158 C 
ATOM     17  H12 UNL     1     -48.281  16.939  15.824  1.00  0.00     0.186 HD
HETATM   18  C15 UNL     1     -49.591  15.555  18.557  1.00  0.00     0.145 C 
HETATM   19  N9  UNL     1     -50.943  15.435  18.420  1.00  0.00    -0.320 N 
ATOM     20  H9  UNL     1     -51.397  14.747  19.019  1.00  0.00     0.169 HD
BRANCH  13  21
HETATM   21  N1  UNL     1     -50.172  16.029  14.325  1.00  0.00    -0.226 N 
HETATM   22  C1  UNL     1     -48.964  15.707  13.622  1.00  0.00     0.168 C 
HETATM   23  C2  UNL     1     -51.444  15.994  13.561  1.00  0.00     0.168 C 
ENDBRANCH  13  21
BRANCH  16  24
HETATM   24  N11 UNL     1     -47.690  16.689  18.205  1.00  0.00    -0.382 N 
ATOM     25 2H11 UNL     1     -47.003  16.024  18.562  1.00  0.00     0.157 HD
ATOM     26 1H11 UNL     1     -47.594  17.704  18.221  1.00  0.00     0.157 HD
ENDBRANCH  16  24
BRANCH  18  27
HETATM   27  N10 UNL     1     -49.025  14.975  19.554  1.00  0.00    -0.382 N 
ATOM     28 2H10 UNL     1     -48.838  13.976  19.470  1.00  0.00     0.157 HD
ATOM     29 1H10 UNL     1     -48.790  15.537  20.372  1.00  0.00     0.157 HD
ENDBRANCH  18  27
ENDBRANCH  10  11
ENDBRANCH   1  10
BRANCH   4  30
HETATM   30  N4  UNL     1     -55.157  13.508  14.640  1.00  0.00    -0.234 N 
ATOM     31  H42 UNL     1     -54.540  13.942  13.953  1.00  0.00     0.174 HD
ATOM     32  H41 UNL     1     -55.615  12.629  14.401  1.00  0.00     0.174 HD
ENDBRANCH   4  30
BRANCH   7  33
HETATM   33  N6  UNL     1     -58.034  14.223  18.279  1.00  0.00    -0.362 N 
HETATM   34  C8  UNL     1     -59.316  14.422  17.673  1.00  0.00     0.144 C 
HETATM   35  C9  UNL     1     -60.335  14.970  18.652  1.00  0.00     0.142 C 
HETATM   36  N7  UNL     1     -60.413  14.188  19.823  1.00  0.00    -0.381 N 
HETATM   37  C12 UNL     1     -59.368  13.272  20.099  1.00  0.00     0.142 C 
HETATM   38  C13 UNL     1     -58.015  13.736  19.671  1.00  0.00     0.144 C 
BRANCH  36  39
HETATM   39  C10 UNL     1     -61.189  14.682  20.892  1.00  0.00     0.170 C 
BRANCH  39  40
HETATM   40  C11 UNL     1     -60.482  15.550  21.835  1.00  0.00     0.214 C 
HETATM   41  O1  UNL     1     -60.031  16.642  21.391  1.00  0.00    -0.644 OA
HETATM   42  O2  UNL     1     -60.271  15.263  23.169  1.00  0.00    -0.644 OA
ENDBRANCH  39  40
ENDBRANCH  36  39
ENDBRANCH   7  33
TORSDOF 9
ENDMDL
MODEL 2
REMARK VINA RESULT: -9.088115950      0.928      2.601
REMARK  9 active torsions:
REMARK  status: ('A' for Active; 'I' for Inactive)
REMARK    1  A    between atoms: N1_2  and  C3_4 
REMARK    2  A    between atoms: C4_7  and  S1_8 
REMARK    3  A    between atoms: S1_8  and  C5_9 
REMARK    4  A    between atoms: C6_12  and  N4_13 
REMARK    5  A    between atoms: C7_18  and  N6_19 
REMARK    6  A    between atoms: N7_22  and  C10_23 
REMARK    7  A    between atoms: C10_23  and  C11_24 
REMARK    8  A    between atoms: C15_33  and  N10_34 
REMARK    9  A    between atoms: C16_37  and  N11_38 
ROOT
HETATM    1  C5  UNL     1     -54.559  15.281  17.561  1.00  0.00     0.121 A 
HETATM    2  N3  UNL     1     -54.364  14.756  16.345  1.00  0.00    -0.183 N 
ATOM      3  H3  UNL     1     -53.476  14.918  15.871  1.00  0.00     0.185 HD
HETATM    4  C6  UNL     1     -55.315  14.016  15.724  1.00  0.00     0.678 A 
HETATM    5  N5  UNL     1     -56.471  13.811  16.346  1.00  0.00    -0.175 N 
ATOM      6  H5  UNL     1     -57.179  13.252  15.870  1.00  0.00     0.186 HD
HETATM    7  C7  UNL     1     -56.766  14.302  17.583  1.00  0.00     0.146 A 
HETATM    8  C14 UNL     1     -55.794  15.046  18.201  1.00  0.00     0.125 A 
HETATM    9  N8  UNL     1     -55.993  15.590  19.471  1.00  0.00    -0.095 NA
ENDROOT
BRANCH   1  10
HETATM   10  S1  UNL     1     -53.346  16.315  18.318  1.00  0.00    -0.033 SA
BRANCH  10  11
HETATM   11  C4  UNL     1     -51.961  16.530  17.239  1.00  0.00     0.167 C 
HETATM   12  N2  UNL     1     -50.737  16.022  17.593  1.00  0.00    -0.170 N 
HETATM   13  C3  UNL     1     -49.606  16.051  16.818  1.00  0.00     0.683 C 
ATOM     14  H2  UNL     1     -50.662  15.585  18.512  1.00  0.00     0.186 HD
HETATM   15  N12 UNL     1     -49.648  15.840  15.471  1.00  0.00    -0.173 N 
HETATM   16  C16 UNL     1     -50.631  16.177  14.578  1.00  0.00     0.158 C 
ATOM     17  H12 UNL     1     -48.837  15.366  15.075  1.00  0.00     0.186 HD
HETATM   18  C15 UNL     1     -51.725  17.012  14.849  1.00  0.00     0.145 C 
HETATM   19  N9  UNL     1     -52.245  17.220  16.092  1.00  0.00    -0.320 N 
ATOM     20  H9  UNL     1     -52.923  17.976  16.177  1.00  0.00     0.169 HD
BRANCH  13  21
HETATM   21  N1  UNL     1     -48.357  16.312  17.426  1.00  0.00    -0.226 N 
HETATM   22  C1  UNL     1     -47.189  16.743  16.713  1.00  0.00     0.168 C 
HETATM   23  C2  UNL     1     -48.237  16.122  18.893  1.00  0.00     0.168 C 
ENDBRANCH  13  21
BRANCH  16  24
HETATM   24  N11 UNL     1     -50.605  15.726  13.395  1.00  0.00    -0.382 N 
ATOM     25 2H11 UNL     1     -51.473  15.586  12.876  1.00  0.00     0.157 HD
ATOM     26 1H11 UNL     1     -49.667  15.533  13.042  1.00  0.00     0.157 HD
ENDBRANCH  16  24
BRANCH  18  27
HETATM   27  N10 UNL     1     -52.269  17.614  13.852  1.00  0.00    -0.382 N 
ATOM     28 2H10 UNL     1     -51.664  18.186  13.263  1.00  0.00     0.157 HD
ATOM     29 1H10 UNL     1     -53.270  17.488  13.698  1.00  0.00     0.157 HD
ENDBRANCH  18  27
ENDBRANCH  10  11
ENDBRANCH   1  10
BRANCH   4  30
HETATM   30  N4  UNL     1     -55.096  13.520  14.531  1.00  0.00    -0.234 N 
ATOM     31  H42 UNL     1     -54.313  13.847  13.963  1.00  0.00     0.174 HD
ATOM     32  H41 UNL     1     -55.704  12.792  14.155  1.00  0.00     0.174 HD
ENDBRANCH   4  30
BRANCH   7  33
HETATM   33  N6  UNL     1     -58.047  14.079  18.138  1.00  0.00    -0.362 N 
HETATM   34  C8  UNL     1     -59.306  14.506  17.606  1.00  0.00     0.144 C 
HETATM   35  C9  UNL     1     -60.279  14.915  18.692  1.00  0.00     0.142 C 
HETATM   36  N7  UNL     1     -60.425  13.912  19.673  1.00  0.00    -0.381 N 
HETATM   37  C12 UNL     1     -59.461  12.876  19.734  1.00  0.00     0.142 C 
HETATM   38  C13 UNL     1     -58.073  13.308  19.394  1.00  0.00     0.144 C 
BRANCH  36  39
HETATM   39  C10 UNL     1     -61.162  14.229  20.833  1.00  0.00     0.170 C 
BRANCH  39  40
HETATM   40  C11 UNL     1     -60.496  15.134  21.772  1.00  0.00     0.214 C 
HETATM   41  O1  UNL     1     -60.115  14.648  22.873  1.00  0.00    -0.644 OA
HETATM   42  O2  UNL     1     -60.258  16.475  21.545  1.00  0.00    -0.644 OA
ENDBRANCH  39  40
ENDBRANCH  36  39
ENDBRANCH   7  33
TORSDOF 9
ENDMDL
MODEL 3
REMARK VINA RESULT: -9.014284942      1.098      1.232
REMARK  9 active torsions:
REMARK  status: ('A' for Active; 'I' for Inactive)
REMARK    1  A    between atoms: N1_2  and  C3_4 
REMARK    2  A    between atoms: C4_7  and  S1_8 
REMARK    3  A    between atoms: S1_8  and  C5_9 
REMARK    4  A    between atoms: C6_12  and  N4_13 
REMARK    5  A    between atoms: C7_18  and  N6_19 
REMARK    6  A    between atoms: N7_22  and  C10_23 
REMARK    7  A    between atoms: C10_23  and  C11_24 
REMARK    8  A    between atoms: C15_33  and  N10_34 
REMARK    9  A    between atoms: C16_37  and  N11_38 
ROOT
HETATM    1  C5  UNL     1     -54.454  15.579  17.433  1.00  0.00     0.121 A 
HETATM    2  N3  UNL     1     -54.382  14.964  16.246  1.00  0.00    -0.183 N 
ATOM      3  H3  UNL     1     -53.582  15.144  15.641  1.00  0.00     0.185 HD
HETATM    4  C6  UNL     1     -55.345  14.107  15.825  1.00  0.00     0.678 A 
HETATM    5  N5  UNL     1     -56.386  13.878  16.618  1.00  0.00    -0.175 N 
ATOM      6  H5  UNL     1     -57.104  13.231  16.291  1.00  0.00     0.186 HD
HETATM    7  C7  UNL     1     -56.551  14.456  17.842  1.00  0.00     0.146 A 
HETATM    8  C14 UNL     1     -55.568  15.317  18.256  1.00  0.00     0.125 A 
HETATM    9  N8  UNL     1     -55.637  15.955  19.496  1.00  0.00    -0.095 NA
ENDROOT
BRANCH   1  10
HETATM   10  S1  UNL     1     -53.237  16.758  17.929  1.00  0.00    -0.033 SA
BRANCH  10  11
HETATM   11  C4  UNL     1     -51.638  16.271  17.350  1.00  0.00     0.167 C 
HETATM   12  N2  UNL     1     -51.249  16.594  16.075  1.00  0.00    -0.170 N 
HETATM   13  C3  UNL     1     -50.015  16.347  15.529  1.00  0.00     0.683 C 
ATOM     14  H2  UNL     1     -51.937  17.058  15.481  1.00  0.00     0.186 HD
HETATM   15  N12 UNL     1     -48.865  16.496  16.248  1.00  0.00    -0.173 N 
HETATM   16  C16 UNL     1     -48.651  16.277  17.584  1.00  0.00     0.158 C 
ATOM     17  H12 UNL     1     -48.054  16.814  15.719  1.00  0.00     0.186 HD
HETATM   18  C15 UNL     1     -49.546  15.642  18.458  1.00  0.00     0.145 C 
HETATM   19  N9  UNL     1     -50.895  15.581  18.267  1.00  0.00    -0.320 N 
ATOM     20  H9  UNL     1     -51.408  14.947  18.879  1.00  0.00     0.169 HD
BRANCH  13  21
HETATM   21  N1  UNL     1     -49.925  15.920  14.185  1.00  0.00    -0.226 N 
HETATM   22  C1  UNL     1     -48.695  15.587  13.527  1.00  0.00     0.168 C 
HETATM   23  C2  UNL     1     -51.178  15.816  13.397  1.00  0.00     0.168 C 
ENDBRANCH  13  21
BRANCH  16  24
HETATM   24  N11 UNL     1     -47.576  16.660  18.132  1.00  0.00    -0.382 N 
ATOM     25 2H11 UNL     1     -47.601  17.296  18.930  1.00  0.00     0.157 HD
ATOM     26 1H11 UNL     1     -46.731  16.277  17.708  1.00  0.00     0.157 HD
ENDBRANCH  16  24
BRANCH  18  27
HETATM   27  N10 UNL     1     -49.052  15.087  19.507  1.00  0.00    -0.382 N 
ATOM     28 2H10 UNL     1     -49.571  14.309  19.913  1.00  0.00     0.157 HD
ATOM     29 1H10 UNL     1     -48.171  15.447  19.876  1.00  0.00     0.157 HD
ENDBRANCH  18  27
ENDBRANCH  10  11
ENDBRANCH   1  10
BRANCH   4  30
HETATM   30  N4  UNL     1     -55.249  13.524  14.655  1.00  0.00    -0.234 N 
ATOM     31  H42 UNL     1     -54.630  13.896  13.934  1.00  0.00     0.174 HD
ATOM     32  H41 UNL     1     -55.790  12.684  14.452  1.00  0.00     0.174 HD
ENDBRANCH   4  30
BRANCH   7  33
HETATM   33  N6  UNL     1     -57.723  14.194  18.588  1.00  0.00    -0.362 N 
HETATM   34  C8  UNL     1     -59.029  14.739  18.366  1.00  0.00     0.144 C 
HETATM   35  C9  UNL     1     -59.764  15.011  19.662  1.00  0.00     0.142 C 
HETATM   36  N7  UNL     1     -59.794  13.875  20.498  1.00  0.00    -0.381 N 
HETATM   37  C12 UNL     1     -58.899  12.810  20.230  1.00  0.00     0.142 C 
HETATM   38  C13 UNL     1     -57.571  13.241  19.703  1.00  0.00     0.144 C 
BRANCH  36  39
HETATM   39  C10 UNL     1     -60.290  14.037  21.808  1.00  0.00     0.170 C 
BRANCH  39  40
HETATM   40  C11 UNL     1     -59.933  12.976  22.752  1.00  0.00     0.214 C 
HETATM   41  O1  UNL     1     -60.766  12.042  22.917  1.00  0.00    -0.644 OA
HETATM   42  O2  UNL     1     -58.757  12.923  23.475  1.00  0.00    -0.644 OA
ENDBRANCH  39  40
ENDBRANCH  36  39
ENDBRANCH   7  33
TORSDOF 9
ENDMDL
MODEL 4
REMARK VINA RESULT: -8.700863435      2.555      4.272
REMARK  9 active torsions:
REMARK  status: ('A' for Active; 'I' for Inactive)
REMARK    1  A    between atoms: N1_2  and  C3_4 
REMARK    2  A    between atoms: C4_7  and  S1_8 
REMARK    3  A    between atoms: S1_8  and  C5_9 
REMARK    4  A    between atoms: C6_12  and  N4_13 
REMARK    5  A    between atoms: C7_18  and  N6_19 
REMARK    6  A    between atoms: N7_22  and  C10_23 
REMARK    7  A    between atoms: C10_23  and  C11_24 
REMARK    8  A    between atoms: C15_33  and  N10_34 
REMARK    9  A    between atoms: C16_37  and  N11_38 
ROOT
HETATM    1  C5  UNL     1     -57.477  13.966  18.420  1.00  0.00     0.121 A 
HETATM    2  N3  UNL     1     -58.150  14.320  17.318  1.00  0.00    -0.183 N 
ATOM      3  H3  UNL     1     -57.668  14.314  16.419  1.00  0.00     0.185 HD
HETATM    4  C6  UNL     1     -59.454  14.688  17.362  1.00  0.00     0.678 A 
HETATM    5  N5  UNL     1     -60.075  14.696  18.537  1.00  0.00    -0.175 N 
ATOM      6  H5  UNL     1     -61.056  14.975  18.558  1.00  0.00     0.186 HD
HETATM    7  C7  UNL     1     -59.478  14.354  19.714  1.00  0.00     0.146 A 
HETATM    8  C14 UNL     1     -58.160  13.980  19.653  1.00  0.00     0.125 A 
HETATM    9  N8  UNL     1     -57.459  13.605  20.801  1.00  0.00    -0.095 NA
ENDROOT
BRANCH   1  10
HETATM   10  S1  UNL     1     -55.758  13.574  18.358  1.00  0.00    -0.033 SA
BRANCH  10  11
HETATM   11  C4  UNL     1     -54.803  15.036  18.080  1.00  0.00     0.167 C 
HETATM   12  N2  UNL     1     -54.251  15.264  16.845  1.00  0.00    -0.170 N 
HETATM   13  C3  UNL     1     -53.558  16.388  16.475  1.00  0.00     0.683 C 
ATOM     14  H2  UNL     1     -54.366  14.534  16.142  1.00  0.00     0.186 HD
HETATM   15  N12 UNL     1     -53.938  17.635  16.876  1.00  0.00    -0.173 N 
HETATM   16  C16 UNL     1     -54.522  18.019  18.055  1.00  0.00     0.158 C 
ATOM     17  H12 UNL     1     -53.763  18.385  16.207  1.00  0.00     0.186 HD
HETATM   18  C15 UNL     1     -54.660  17.213  19.194  1.00  0.00     0.145 C 
HETATM   19  N9  UNL     1     -54.691  15.850  19.174  1.00  0.00    -0.320 N 
ATOM     20  H9  UNL     1     -54.622  15.384  20.078  1.00  0.00     0.169 HD
BRANCH  13  21
HETATM   21  N1  UNL     1     -52.412  16.258  15.658  1.00  0.00    -0.226 N 
HETATM   22  C1  UNL     1     -52.455  16.056  14.238  1.00  0.00     0.168 C 
HETATM   23  C2  UNL     1     -51.078  16.324  16.305  1.00  0.00     0.168 C 
ENDBRANCH  13  21
BRANCH  16  24
HETATM   24  N11 UNL     1     -54.998  19.186  18.185  1.00  0.00    -0.382 N 
ATOM     25 2H11 UNL     1     -55.556  19.428  19.004  1.00  0.00     0.157 HD
ATOM     26 1H11 UNL     1     -54.768  19.818  17.418  1.00  0.00     0.157 HD
ENDBRANCH  16  24
BRANCH  18  27
HETATM   27  N10 UNL     1     -54.769  17.809  20.328  1.00  0.00    -0.382 N 
ATOM     28 2H10 UNL     1     -53.955  17.796  20.943  1.00  0.00     0.157 HD
ATOM     29 1H10 UNL     1     -55.654  18.263  20.553  1.00  0.00     0.157 HD
ENDBRANCH  18  27
ENDBRANCH  10  11
ENDBRANCH   1  10
BRANCH   4  30
HETATM   30  N4  UNL     1     -60.083  15.035  16.266  1.00  0.00    -0.234 N 
ATOM     31  H42 UNL     1     -59.978  14.493  15.408  1.00  0.00     0.174 HD
ATOM     32  H41 UNL     1     -60.693  15.853  16.258  1.00  0.00     0.174 HD
ENDBRANCH   4  30
BRANCH   7  33
HETATM   33  N6  UNL     1     -60.206  14.450  20.922  1.00  0.00    -0.362 N 
HETATM   34  C8  UNL     1     -60.562  15.647  21.624  1.00  0.00     0.144 C 
HETATM   35  C9  UNL     1     -60.506  15.468  23.127  1.00  0.00     0.142 C 
HETATM   36  N7  UNL     1     -61.260  14.354  23.553  1.00  0.00    -0.381 N 
HETATM   37  C12 UNL     1     -61.650  13.391  22.591  1.00  0.00     0.142 C 
HETATM   38  C13 UNL     1     -60.654  13.171  21.501  1.00  0.00     0.144 C 
BRANCH  36  39
HETATM   39  C10 UNL     1     -61.151  13.966  24.904  1.00  0.00     0.170 C 
BRANCH  39  40
HETATM   40  C11 UNL     1     -59.794  13.668  25.366  1.00  0.00     0.214 C 
HETATM   41  O1  UNL     1     -59.371  12.491  25.201  1.00  0.00    -0.644 OA
HETATM   42  O2  UNL     1     -58.946  14.577  25.970  1.00  0.00    -0.644 OA
ENDBRANCH  39  40
ENDBRANCH  36  39
ENDBRANCH   7  33
TORSDOF 9
ENDMDL
MODEL 5
REMARK VINA RESULT: -8.656705403      1.721      3.475
REMARK  9 active torsions:
REMARK  status: ('A' for Active; 'I' for Inactive)
REMARK    1  A    between atoms: N1_2  and  C3_4 
REMARK    2  A    between atoms: C4_7  and  S1_8 
REMARK    3  A    between atoms: S1_8  and  C5_9 
REMARK    4  A    between atoms: C6_12  and  N4_13 
REMARK    5  A    between atoms: C7_18  and  N6_19 
REMARK    6  A    between atoms: N7_22  and  C10_23 
REMARK    7  A    between atoms: C10_23  and  C11_24 
REMARK    8  A    between atoms: C15_33  and  N10_34 
REMARK    9  A    between atoms: C16_37  and  N11_38 
ROOT
HETATM    1  C5  UNL     1     -53.456  15.970  17.098  1.00  0.00     0.121 A 
HETATM    2  N3  UNL     1     -52.624  15.475  18.023  1.00  0.00    -0.183 N 
ATOM      3  H3  UNL     1     -51.650  15.777  18.026  1.00  0.00     0.185 HD
HETATM    4  C6  UNL     1     -53.039  14.583  18.955  1.00  0.00     0.678 A 
HETATM    5  N5  UNL     1     -54.308  14.192  18.944  1.00  0.00    -0.175 N 
ATOM      6  H5  UNL     1     -54.609  13.520  19.650  1.00  0.00     0.186 HD
HETATM    7  C7  UNL     1     -55.232  14.635  18.044  1.00  0.00     0.146 A 
HETATM    8  C14 UNL     1     -54.800  15.541  17.110  1.00  0.00     0.125 A 
HETATM    9  N8  UNL     1     -55.668  16.063  16.148  1.00  0.00    -0.095 NA
ENDROOT
BRANCH   1  10
HETATM   10  S1  UNL     1     -52.881  17.064  15.838  1.00  0.00    -0.033 SA
BRANCH  10  11
HETATM   11  C4  UNL     1     -51.138  16.873  15.607  1.00  0.00     0.167 C 
HETATM   12  N2  UNL     1     -50.376  16.322  16.605  1.00  0.00    -0.170 N 
HETATM   13  C3  UNL     1     -49.034  16.047  16.526  1.00  0.00     0.683 C 
ATOM     14  H2  UNL     1     -50.848  16.096  17.481  1.00  0.00     0.186 HD
HETATM   15  N12 UNL     1     -48.465  15.546  15.393  1.00  0.00    -0.173 N 
HETATM   16  C16 UNL     1     -48.799  15.784  14.084  1.00  0.00     0.158 C 
ATOM     17  H12 UNL     1     -47.685  14.906  15.538  1.00  0.00     0.186 HD
HETATM   18  C15 UNL     1     -49.683  16.777  13.638  1.00  0.00     0.145 C 
HETATM   19  N9  UNL     1     -50.681  17.316  14.396  1.00  0.00    -0.320 N 
ATOM     20  H9  UNL     1     -51.138  18.144  14.016  1.00  0.00     0.169 HD
BRANCH  13  21
HETATM   21  N1  UNL     1     -48.210  16.294  17.647  1.00  0.00    -0.226 N 
HETATM   22  C1  UNL     1     -46.929  16.935  17.579  1.00  0.00     0.168 C 
HETATM   23  C2  UNL     1     -48.692  15.857  18.981  1.00  0.00     0.168 C 
ENDBRANCH  13  21
BRANCH  16  24
HETATM   24  N11 UNL     1     -48.302  15.078  13.157  1.00  0.00    -0.382 N 
ATOM     25 2H11 UNL     1     -47.376  15.292  12.785  1.00  0.00     0.157 HD
ATOM     26 1H11 UNL     1     -48.902  14.313  12.848  1.00  0.00     0.157 HD
ENDBRANCH  16  24
BRANCH  18  27
HETATM   27  N10 UNL     1     -49.538  17.197  12.433  1.00  0.00    -0.382 N 
ATOM     28 2H10 UNL     1     -50.340  17.114  11.808  1.00  0.00     0.157 HD
ATOM     29 1H10 UNL     1     -48.637  17.592  12.163  1.00  0.00     0.157 HD
ENDBRANCH  18  27
ENDBRANCH  10  11
ENDBRANCH   1  10
BRANCH   4  30
HETATM   30  N4  UNL     1     -52.197  14.112  19.843  1.00  0.00    -0.234 N 
ATOM     31  H42 UNL     1     -51.365  14.640  20.107  1.00  0.00     0.174 HD
ATOM     32  H41 UNL     1     -52.369  13.210  20.288  1.00  0.00     0.174 HD
ENDBRANCH   4  30
BRANCH   7  33
HETATM   33  N6  UNL     1     -56.547  14.116  18.077  1.00  0.00    -0.362 N 
HETATM   34  C8  UNL     1     -57.649  14.502  17.248  1.00  0.00     0.144 C 
HETATM   35  C9  UNL     1     -58.964  14.491  18.001  1.00  0.00     0.142 C 
HETATM   36  N7  UNL     1     -59.188  13.259  18.650  1.00  0.00    -0.381 N 
HETATM   37  C12 UNL     1     -58.096  12.374  18.823  1.00  0.00     0.142 C 
HETATM   38  C13 UNL     1     -56.788  13.051  19.067  1.00  0.00     0.144 C 
BRANCH  36  39
HETATM   39  C10 UNL     1     -60.285  13.171  19.532  1.00  0.00     0.170 C 
BRANCH  39  40
HETATM   40  C11 UNL     1     -59.949  13.172  20.957  1.00  0.00     0.214 C 
HETATM   41  O1  UNL     1     -60.278  12.157  21.631  1.00  0.00    -0.644 OA
HETATM   42  O2  UNL     1     -59.302  14.199  21.617  1.00  0.00    -0.644 OA
ENDBRANCH  39  40
ENDBRANCH  36  39
ENDBRANCH   7  33
TORSDOF 9
ENDMDL
