MODEL 1
REMARK VINA RESULT: -6.292705091      0.000      0.000
REMARK  3 active torsions:
REMARK  status: ('A' for Active; 'I' for Inactive)
REMARK    1  A    between atoms: C2_2  and  C3_3 
REMARK    2  A    between atoms: C3_3  and  C5_5 
REMARK    3  A    between atoms: C3_3  and  C11_11 
ROOT
HETATM    1  C3  UNL     1      33.045  21.868   0.536  1.00  0.00     0.044 C 
HETATM    2  C4  UNL     1      32.467  21.906  -0.865  1.00  0.00     0.031 C 
ENDROOT
BRANCH   1   3
HETATM    3  C2  UNL     1      32.444  22.994   1.299  1.00  0.00    -0.017 C 
HETATM    4  C1  UNL     1      31.232  23.413   1.002  1.00  0.00     0.008 C 
ENDBRANCH   1   3
BRANCH   1   5
HETATM    5  C5  UNL     1      32.799  20.593   1.222  1.00  0.00    -0.040 A 
HETATM    6  C6  UNL     1      32.670  19.425   0.514  1.00  0.00     0.008 A 
HETATM    7  C7  UNL     1      32.432  18.193   1.134  1.00  0.00     0.001 A 
HETATM    8  C8  UNL     1      32.330  18.190   2.512  1.00  0.00     0.000 A 
HETATM    9  C9  UNL     1      32.455  19.343   3.252  1.00  0.00     0.001 A 
HETATM   10  C10 UNL     1      32.688  20.540   2.617  1.00  0.00     0.008 A 
ENDBRANCH   1   5
BRANCH   1  11
HETATM   11  C11 UNL     1      34.529  22.065   0.398  1.00  0.00     0.043 A 
HETATM   12  C12 UNL     1      35.503  21.102   0.251  1.00  0.00     0.046 A 
HETATM   13  C13 UNL     1      36.731  21.722   0.161  1.00  0.00     0.109 A 
HETATM   14  N1  UNL     1      36.502  23.039   0.252  1.00  0.00    -0.312 N 
HETATM   15  N2  UNL     1      35.201  23.231   0.391  1.00  0.00    -0.304 N 
ATOM     16  H1  UNL     1      37.212  23.771   0.218  1.00  0.00     0.186 HD
ATOM     17  H2  UNL     1      34.762  24.147   0.483  1.00  0.00     0.186 HD
ENDBRANCH   1  11
TORSDOF 3
ENDMDL
MODEL 2
REMARK VINA RESULT: -6.275847668      2.303      4.311
REMARK  3 active torsions:
REMARK  status: ('A' for Active; 'I' for Inactive)
REMARK    1  A    between atoms: C2_2  and  C3_3 
REMARK    2  A    between atoms: C3_3  and  C5_5 
REMARK    3  A    between atoms: C3_3  and  C11_11 
ROOT
HETATM    1  C3  UNL     1      31.820  18.614   1.550  1.00  0.00     0.044 C 
HETATM    2  C4  UNL     1      30.648  19.187   2.323  1.00  0.00     0.031 C 
ENDROOT
BRANCH   1   3
HETATM    3  C2  UNL     1      32.622  17.794   2.496  1.00  0.00    -0.017 C 
HETATM    4  C1  UNL     1      32.114  16.689   2.999  1.00  0.00     0.008 C 
ENDBRANCH   1   3
BRANCH   1   5
HETATM    5  C5  UNL     1      31.405  17.808   0.395  1.00  0.00    -0.040 A 
HETATM    6  C6  UNL     1      30.084  17.492   0.194  1.00  0.00     0.008 A 
HETATM    7  C7  UNL     1      29.653  16.724  -0.892  1.00  0.00     0.001 A 
HETATM    8  C8  UNL     1      30.620  16.283  -1.777  1.00  0.00     0.000 A 
HETATM    9  C9  UNL     1      31.952  16.581  -1.604  1.00  0.00     0.001 A 
HETATM   10  C10 UNL     1      32.348  17.338  -0.527  1.00  0.00     0.008 A 
ENDBRANCH   1   5
BRANCH   1  11
HETATM   11  C11 UNL     1      32.628  19.783   1.059  1.00  0.00     0.043 A 
HETATM   12  C12 UNL     1      32.181  21.041   0.720  1.00  0.00     0.046 A 
HETATM   13  C13 UNL     1      33.258  21.803   0.320  1.00  0.00     0.109 A 
HETATM   14  N1  UNL     1      34.339  21.018   0.416  1.00  0.00    -0.312 N 
HETATM   15  N2  UNL     1      33.956  19.829   0.852  1.00  0.00    -0.304 N 
ATOM     16  H1  UNL     1      35.295  21.291   0.190  1.00  0.00     0.186 HD
ATOM     17  H2  UNL     1      34.589  19.045   1.011  1.00  0.00     0.186 HD
ENDBRANCH   1  11
TORSDOF 3
ENDMDL
MODEL 3
REMARK VINA RESULT: -6.058425001      6.167      8.264
REMARK  3 active torsions:
REMARK  status: ('A' for Active; 'I' for Inactive)
REMARK    1  A    between atoms: C2_2  and  C3_3 
REMARK    2  A    between atoms: C3_3  and  C5_5 
REMARK    3  A    between atoms: C3_3  and  C11_11 
ROOT
HETATM    1  C3  UNL     1      29.525  15.773  -1.969  1.00  0.00     0.044 C 
HETATM    2  C4  UNL     1      28.364  16.623  -2.449  1.00  0.00     0.031 C 
ENDROOT
BRANCH   1   3
HETATM    3  C2  UNL     1      30.304  15.361  -3.168  1.00  0.00    -0.017 C 
HETATM    4  C1  UNL     1      29.860  15.657  -4.371  1.00  0.00     0.008 C 
ENDBRANCH   1   3
BRANCH   1   5
HETATM    5  C5  UNL     1      30.389  16.474  -1.011  1.00  0.00    -0.040 A 
HETATM    6  C6  UNL     1      29.865  17.055   0.117  1.00  0.00     0.008 A 
HETATM    7  C7  UNL     1      30.657  17.733   1.049  1.00  0.00     0.001 A 
HETATM    8  C8  UNL     1      32.014  17.800   0.795  1.00  0.00     0.000 A 
HETATM    9  C9  UNL     1      32.572  17.228  -0.325  1.00  0.00     0.001 A 
HETATM   10  C10 UNL     1      31.770  16.567  -1.226  1.00  0.00     0.008 A 
ENDBRANCH   1   5
BRANCH   1  11
HETATM   11  C11 UNL     1      28.930  14.569  -1.295  1.00  0.00     0.043 A 
HETATM   12  C12 UNL     1      28.347  13.468  -1.882  1.00  0.00     0.046 A 
HETATM   13  C13 UNL     1      27.934  12.601  -0.893  1.00  0.00     0.109 A 
HETATM   14  N1  UNL     1      28.263  13.170   0.275  1.00  0.00    -0.312 N 
HETATM   15  N2  UNL     1      28.850  14.330   0.027  1.00  0.00    -0.304 N 
ATOM     16  H1  UNL     1      28.091  12.775   1.199  1.00  0.00     0.186 HD
ATOM     17  H2  UNL     1      29.197  14.963   0.747  1.00  0.00     0.186 HD
ENDBRANCH   1  11
TORSDOF 3
ENDMDL
MODEL 4
REMARK VINA RESULT: -6.010116238      6.172      8.215
REMARK  3 active torsions:
REMARK  status: ('A' for Active; 'I' for Inactive)
REMARK    1  A    between atoms: C2_2  and  C3_3 
REMARK    2  A    between atoms: C3_3  and  C5_5 
REMARK    3  A    between atoms: C3_3  and  C11_11 
ROOT
HETATM    1  C3  UNL     1      29.521  15.768  -1.973  1.00  0.00     0.044 C 
HETATM    2  C4  UNL     1      28.361  16.616  -2.457  1.00  0.00     0.031 C 
ENDROOT
BRANCH   1   3
HETATM    3  C2  UNL     1      30.303  15.356  -3.169  1.00  0.00    -0.017 C 
HETATM    4  C1  UNL     1      29.866  15.655  -4.374  1.00  0.00     0.008 C 
ENDBRANCH   1   3
BRANCH   1   5
HETATM    5  C5  UNL     1      30.383  16.472  -1.014  1.00  0.00    -0.040 A 
HETATM    6  C6  UNL     1      31.736  16.570  -1.222  1.00  0.00     0.008 A 
HETATM    7  C7  UNL     1      32.587  17.229  -0.329  1.00  0.00     0.001 A 
HETATM    8  C8  UNL     1      32.010  17.792   0.794  1.00  0.00     0.000 A 
HETATM    9  C9  UNL     1      30.657  17.712   1.033  1.00  0.00     0.001 A 
HETATM   10  C10 UNL     1      29.844  17.058   0.138  1.00  0.00     0.008 A 
ENDBRANCH   1   5
BRANCH   1  11
HETATM   11  C11 UNL     1      28.926  14.565  -1.298  1.00  0.00     0.043 A 
HETATM   12  C12 UNL     1      28.340  13.465  -1.884  1.00  0.00     0.046 A 
HETATM   13  C13 UNL     1      27.929  12.599  -0.894  1.00  0.00     0.109 A 
HETATM   14  N1  UNL     1      28.262  13.166   0.273  1.00  0.00    -0.312 N 
HETATM   15  N2  UNL     1      28.849  14.325   0.024  1.00  0.00    -0.304 N 
ATOM     16  H1  UNL     1      28.091  12.771   1.198  1.00  0.00     0.186 HD
ATOM     17  H2  UNL     1      29.199  14.958   0.744  1.00  0.00     0.186 HD
ENDBRANCH   1  11
TORSDOF 3
ENDMDL
MODEL 5
REMARK VINA RESULT: -5.913264222      2.372      4.428
REMARK  3 active torsions:
REMARK  status: ('A' for Active; 'I' for Inactive)
REMARK    1  A    between atoms: C2_2  and  C3_3 
REMARK    2  A    between atoms: C3_3  and  C5_5 
REMARK    3  A    between atoms: C3_3  and  C11_11 
ROOT
HETATM    1  C3  UNL     1      32.668  21.280   1.068  1.00  0.00     0.044 C 
HETATM    2  C4  UNL     1      32.811  21.395   2.573  1.00  0.00     0.031 C 
ENDROOT
BRANCH   1   3
HETATM    3  C2  UNL     1      31.542  22.161   0.657  1.00  0.00    -0.017 C 
HETATM    4  C1  UNL     1      31.509  23.414   1.060  1.00  0.00     0.008 C 
ENDBRANCH   1   3
BRANCH   1   5
HETATM    5  C5  UNL     1      33.894  21.645   0.347  1.00  0.00    -0.040 A 
HETATM    6  C6  UNL     1      35.066  20.962   0.558  1.00  0.00     0.008 A 
HETATM    7  C7  UNL     1      36.253  21.283  -0.108  1.00  0.00     0.001 A 
HETATM    8  C8  UNL     1      36.208  22.333  -1.006  1.00  0.00     0.000 A 
HETATM    9  C9  UNL     1      35.051  23.038  -1.242  1.00  0.00     0.001 A 
HETATM   10  C10 UNL     1      33.898  22.701  -0.573  1.00  0.00     0.008 A 
ENDBRANCH   1   5
BRANCH   1  11
HETATM   11  C11 UNL     1      32.341  19.843   0.772  1.00  0.00     0.043 A 
HETATM   12  C12 UNL     1      32.904  18.713   1.323  1.00  0.00     0.046 A 
HETATM   13  C13 UNL     1      32.309  17.602   0.766  1.00  0.00     0.109 A 
HETATM   14  N1  UNL     1      31.400  18.053  -0.109  1.00  0.00    -0.312 N 
HETATM   15  N2  UNL     1      31.427  19.376  -0.098  1.00  0.00    -0.304 N 
ATOM     16  H1  UNL     1      30.790  17.474  -0.686  1.00  0.00     0.186 HD
ATOM     17  H2  UNL     1      30.830  19.967  -0.677  1.00  0.00     0.186 HD
ENDBRANCH   1  11
TORSDOF 3
ENDMDL
