MODEL 1
REMARK VINA RESULT: -7.759723868      0.000      0.000
REMARK  5 active torsions:
REMARK  status: ('A' for Active; 'I' for Inactive)
REMARK       I    between atoms: C1_2  and  N1_3 
REMARK       I    between atoms: C1_2  and  N4_21 
REMARK    1  A    between atoms: N1_3  and  N2_5 
REMARK    2  A    between atoms: N2_5  and  C2_7 
REMARK    3  A    between atoms: C2_7  and  N3_9 
REMARK    4  A    between atoms: N3_9  and  C3_11 
REMARK    5  A    between atoms: N4_21  and  C13_23 
ROOT
HETATM    1  N2  UNL     1     -24.019 -29.930  -4.653  1.00  0.00    -0.272 N 
ATOM      2  H2  UNL     1     -25.034 -29.844  -4.604  1.00  0.00     0.189 HD
ENDROOT
BRANCH   1   3
HETATM    3  N1  UNL     1     -23.222 -29.076  -3.933  1.00  0.00    -0.249 N 
HETATM    4  C1  UNL     1     -23.009 -27.749  -4.301  1.00  0.00     0.335 C 
HETATM    5  O1  UNL     1     -23.563 -27.231  -5.337  1.00  0.00    -0.246 OA
HETATM    6  N4  UNL     1     -22.152 -26.922  -3.527  1.00  0.00    -0.337 N 
ATOM      7  H4  UNL     1     -21.690 -27.289  -2.696  1.00  0.00     0.164 HD
ATOM      8  H1  UNL     1     -22.768 -29.428  -3.090  1.00  0.00     0.192 HD
BRANCH   6   9
HETATM    9  C13 UNL     1     -21.945 -25.559  -3.932  1.00  0.00     0.087 C 
HETATM   10  C14 UNL     1     -21.735 -24.623  -2.783  1.00  0.00     0.035 C 
HETATM   11  C15 UNL     1     -21.706 -23.212  -3.320  1.00  0.00     0.076 C 
HETATM   12  S2  UNL     1     -22.098 -23.144  -5.085  1.00  0.00    -0.169 SA
HETATM   13  C16 UNL     1     -21.149 -24.440  -5.942  1.00  0.00     0.076 C 
HETATM   14  C17 UNL     1     -20.711 -25.437  -4.861  1.00  0.00     0.035 C 
ENDBRANCH   6   9
ENDBRANCH   1   3
BRANCH   1  15
HETATM   15  C2  UNL     1     -23.426 -30.940  -5.473  1.00  0.00     0.187 C 
HETATM   16  S1  UNL     1     -22.472 -30.563  -6.728  1.00  0.00    -0.040 SA
BRANCH  15  17
HETATM   17  N3  UNL     1     -23.686 -32.282  -5.145  1.00  0.00    -0.357 N 
ATOM     18  H3  UNL     1     -24.573 -32.675  -5.458  1.00  0.00     0.162 HD
BRANCH  17  19
HETATM   19  C3  UNL     1     -22.815 -33.141  -4.411  1.00  0.00     0.033 C 
HETATM   20  C4  UNL     1     -23.709 -34.184  -3.655  1.00  0.00     0.035 C 
HETATM   21  C5  UNL     1     -22.812 -35.122  -2.928  1.00  0.00    -0.012 C 
HETATM   22  C6  UNL     1     -21.990 -34.424  -1.883  1.00  0.00     0.009 C 
HETATM   23  C10 UNL     1     -21.880 -35.851  -3.840  1.00  0.00     0.009 C 
HETATM   24  C7  UNL     1     -21.140 -33.403  -2.594  1.00  0.00    -0.012 C 
HETATM   25  C8  UNL     1     -20.223 -34.019  -3.603  1.00  0.00     0.009 C 
HETATM   26  C12 UNL     1     -22.066 -32.454  -3.327  1.00  0.00     0.035 C 
HETATM   27  C9  UNL     1     -21.007 -34.831  -4.586  1.00  0.00    -0.012 C 
HETATM   28  C11 UNL     1     -21.993 -33.970  -5.352  1.00  0.00     0.035 C 
ENDBRANCH  17  19
ENDBRANCH  15  17
ENDBRANCH   1  15
TORSDOF 5
ENDMDL
MODEL 2
REMARK VINA RESULT: -7.633243871      0.096      1.515
REMARK  5 active torsions:
REMARK  status: ('A' for Active; 'I' for Inactive)
REMARK       I    between atoms: C1_2  and  N1_3 
REMARK       I    between atoms: C1_2  and  N4_21 
REMARK    1  A    between atoms: N1_3  and  N2_5 
REMARK    2  A    between atoms: N2_5  and  C2_7 
REMARK    3  A    between atoms: C2_7  and  N3_9 
REMARK    4  A    between atoms: N3_9  and  C3_11 
REMARK    5  A    between atoms: N4_21  and  C13_23 
ROOT
HETATM    1  N2  UNL     1     -24.020 -29.920  -4.551  1.00  0.00    -0.272 N 
ATOM      2  H2  UNL     1     -25.032 -29.848  -4.448  1.00  0.00     0.189 HD
ENDROOT
BRANCH   1   3
HETATM    3  N1  UNL     1     -23.199 -29.069  -3.854  1.00  0.00    -0.249 N 
HETATM    4  C1  UNL     1     -22.994 -27.742  -4.226  1.00  0.00     0.335 C 
HETATM    5  O1  UNL     1     -23.581 -27.220  -5.243  1.00  0.00    -0.246 OA
HETATM    6  N4  UNL     1     -22.111 -26.918  -3.479  1.00  0.00    -0.337 N 
ATOM      7  H4  UNL     1     -21.623 -27.289  -2.664  1.00  0.00     0.164 HD
ATOM      8  H1  UNL     1     -22.718 -29.424  -3.028  1.00  0.00     0.192 HD
BRANCH   6   9
HETATM    9  C13 UNL     1     -21.914 -25.556  -3.887  1.00  0.00     0.087 C 
HETATM   10  C14 UNL     1     -21.709 -24.615  -2.740  1.00  0.00     0.035 C 
HETATM   11  C15 UNL     1     -21.691 -23.206  -3.280  1.00  0.00     0.076 C 
HETATM   12  S2  UNL     1     -22.085 -23.144  -5.046  1.00  0.00    -0.169 SA
HETATM   13  C16 UNL     1     -21.129 -24.435  -5.900  1.00  0.00     0.076 C 
HETATM   14  C17 UNL     1     -20.682 -25.427  -4.818  1.00  0.00     0.035 C 
ENDBRANCH   6   9
ENDBRANCH   1   3
BRANCH   1  15
HETATM   15  C2  UNL     1     -23.458 -30.907  -5.419  1.00  0.00     0.187 C 
HETATM   16  S1  UNL     1     -22.494 -30.498  -6.656  1.00  0.00    -0.040 SA
BRANCH  15  17
HETATM   17  N3  UNL     1     -23.756 -32.254  -5.154  1.00  0.00    -0.357 N 
ATOM     18  H3  UNL     1     -24.621 -32.626  -5.548  1.00  0.00     0.162 HD
BRANCH  17  19
HETATM   19  C3  UNL     1     -22.954 -33.147  -4.384  1.00  0.00     0.033 C 
HETATM   20  C4  UNL     1     -21.976 -33.873  -5.370  1.00  0.00     0.035 C 
HETATM   21  C5  UNL     1     -21.095 -34.769  -4.573  1.00  0.00    -0.012 C 
HETATM   22  C6  UNL     1     -21.870 -35.845  -3.869  1.00  0.00     0.009 C 
HETATM   23  C10 UNL     1     -20.295 -34.029  -3.551  1.00  0.00     0.009 C 
HETATM   24  C7  UNL     1     -22.830 -35.160  -2.931  1.00  0.00    -0.012 C 
HETATM   25  C8  UNL     1     -22.136 -34.313  -1.911  1.00  0.00     0.009 C 
HETATM   26  C12 UNL     1     -23.722 -34.254  -3.756  1.00  0.00     0.035 C 
HETATM   27  C9  UNL     1     -21.251 -33.312  -2.587  1.00  0.00    -0.012 C 
HETATM   28  C11 UNL     1     -22.053 -32.374  -3.468  1.00  0.00     0.035 C 
ENDBRANCH  17  19
ENDBRANCH  15  17
ENDBRANCH   1  15
TORSDOF 5
ENDMDL
MODEL 3
REMARK VINA RESULT: -7.540172879      0.126      1.484
REMARK  5 active torsions:
REMARK  status: ('A' for Active; 'I' for Inactive)
REMARK       I    between atoms: C1_2  and  N1_3 
REMARK       I    between atoms: C1_2  and  N4_21 
REMARK    1  A    between atoms: N1_3  and  N2_5 
REMARK    2  A    between atoms: N2_5  and  C2_7 
REMARK    3  A    between atoms: C2_7  and  N3_9 
REMARK    4  A    between atoms: N3_9  and  C3_11 
REMARK    5  A    between atoms: N4_21  and  C13_23 
ROOT
HETATM    1  N2  UNL     1     -24.032 -29.907  -4.684  1.00  0.00    -0.272 N 
ATOM      2  H2  UNL     1     -25.044 -29.789  -4.645  1.00  0.00     0.189 HD
ENDROOT
BRANCH   1   3
HETATM    3  N1  UNL     1     -23.216 -29.063  -3.973  1.00  0.00    -0.249 N 
HETATM    4  C1  UNL     1     -22.996 -27.737  -4.341  1.00  0.00     0.335 C 
HETATM    5  O1  UNL     1     -23.563 -27.210  -5.365  1.00  0.00    -0.246 OA
HETATM    6  N4  UNL     1     -22.119 -26.920  -3.579  1.00  0.00    -0.337 N 
ATOM      7  H4  UNL     1     -21.647 -27.295  -2.756  1.00  0.00     0.164 HD
ATOM      8  H1  UNL     1     -22.750 -29.422  -3.140  1.00  0.00     0.192 HD
BRANCH   6   9
HETATM    9  C13 UNL     1     -21.906 -25.558  -3.982  1.00  0.00     0.087 C 
HETATM   10  C14 UNL     1     -21.714 -24.620  -2.831  1.00  0.00     0.035 C 
HETATM   11  C15 UNL     1     -21.677 -23.210  -3.368  1.00  0.00     0.076 C 
HETATM   12  S2  UNL     1     -22.043 -23.144  -5.140  1.00  0.00    -0.169 SA
HETATM   13  C16 UNL     1     -21.082 -24.440  -5.981  1.00  0.00     0.076 C 
HETATM   14  C17 UNL     1     -20.659 -25.437  -4.892  1.00  0.00     0.035 C 
ENDBRANCH   6   9
ENDBRANCH   1   3
BRANCH   1  15
HETATM   15  C2  UNL     1     -23.464 -30.951  -5.478  1.00  0.00     0.187 C 
HETATM   16  S1  UNL     1     -22.455 -30.630  -6.705  1.00  0.00    -0.040 SA
BRANCH  15  17
HETATM   17  N3  UNL     1     -23.798 -32.276  -5.149  1.00  0.00    -0.357 N 
ATOM     18  H3  UNL     1     -24.739 -32.592  -5.386  1.00  0.00     0.162 HD
BRANCH  17  19
HETATM   19  C3  UNL     1     -22.936 -33.217  -4.513  1.00  0.00     0.033 C 
HETATM   20  C4  UNL     1     -22.113 -32.444  -3.427  1.00  0.00     0.035 C 
HETATM   21  C5  UNL     1     -21.247 -33.422  -2.717  1.00  0.00    -0.012 C 
HETATM   22  C6  UNL     1     -20.247 -34.065  -3.635  1.00  0.00     0.009 C 
HETATM   23  C10 UNL     1     -22.030 -34.509  -2.052  1.00  0.00     0.009 C 
HETATM   24  C7  UNL     1     -21.026 -34.796  -4.698  1.00  0.00    -0.012 C 
HETATM   25  C8  UNL     1     -21.918 -35.856  -4.134  1.00  0.00     0.009 C 
HETATM   26  C12 UNL     1     -21.900 -33.786  -5.414  1.00  0.00     0.035 C 
HETATM   27  C9  UNL     1     -22.841 -35.264  -3.114  1.00  0.00    -0.012 C 
HETATM   28  C11 UNL     1     -23.742 -34.210  -3.731  1.00  0.00     0.035 C 
ENDBRANCH  17  19
ENDBRANCH  15  17
ENDBRANCH   1  15
TORSDOF 5
ENDMDL
MODEL 4
REMARK VINA RESULT: -7.233415928      5.149      7.661
REMARK  5 active torsions:
REMARK  status: ('A' for Active; 'I' for Inactive)
REMARK       I    between atoms: C1_2  and  N1_3 
REMARK       I    between atoms: C1_2  and  N4_21 
REMARK    1  A    between atoms: N1_3  and  N2_5 
REMARK    2  A    between atoms: N2_5  and  C2_7 
REMARK    3  A    between atoms: C2_7  and  N3_9 
REMARK    4  A    between atoms: N3_9  and  C3_11 
REMARK    5  A    between atoms: N4_21  and  C13_23 
ROOT
HETATM    1  N2  UNL     1     -23.294 -37.703   0.095  1.00  0.00    -0.272 N 
ATOM      2  H2  UNL     1     -23.789 -37.523   0.968  1.00  0.00     0.189 HD
ENDROOT
BRANCH   1   3
HETATM    3  N1  UNL     1     -22.313 -36.841  -0.327  1.00  0.00    -0.249 N 
HETATM    4  C1  UNL     1     -22.584 -35.694  -1.070  1.00  0.00     0.335 C 
HETATM    5  O1  UNL     1     -23.780 -35.357  -1.394  1.00  0.00    -0.246 OA
HETATM    6  N4  UNL     1     -21.522 -34.854  -1.500  1.00  0.00    -0.337 N 
ATOM      7  H4  UNL     1     -20.556 -35.081  -1.266  1.00  0.00     0.164 HD
ATOM      8  H1  UNL     1     -21.344 -37.049  -0.086  1.00  0.00     0.192 HD
BRANCH   6   9
HETATM    9  C13 UNL     1     -21.828 -33.681  -2.269  1.00  0.00     0.087 C 
HETATM   10  C14 UNL     1     -21.512 -32.403  -1.556  1.00  0.00     0.035 C 
HETATM   11  C15 UNL     1     -22.035 -31.255  -2.384  1.00  0.00     0.076 C 
HETATM   12  S2  UNL     1     -22.985 -31.821  -3.817  1.00  0.00    -0.169 SA
HETATM   13  C16 UNL     1     -22.059 -33.158  -4.635  1.00  0.00     0.076 C 
HETATM   14  C17 UNL     1     -21.044 -33.672  -3.605  1.00  0.00     0.035 C 
ENDBRANCH   6   9
ENDBRANCH   1   3
BRANCH   1  15
HETATM   15  C2  UNL     1     -23.621 -38.854  -0.687  1.00  0.00     0.187 C 
HETATM   16  S1  UNL     1     -24.783 -39.887  -0.231  1.00  0.00    -0.040 SA
BRANCH  15  17
HETATM   17  N3  UNL     1     -22.910 -39.053  -1.883  1.00  0.00    -0.357 N 
ATOM     18  H3  UNL     1     -21.931 -39.332  -1.802  1.00  0.00     0.162 HD
BRANCH  17  19
HETATM   19  C3  UNL     1     -23.437 -38.901  -3.199  1.00  0.00     0.033 C 
HETATM   20  C4  UNL     1     -22.516 -37.887  -3.962  1.00  0.00     0.035 C 
HETATM   21  C5  UNL     1     -23.022 -37.759  -5.354  1.00  0.00    -0.012 C 
HETATM   22  C6  UNL     1     -24.413 -37.195  -5.403  1.00  0.00     0.009 C 
HETATM   23  C10 UNL     1     -23.025 -39.061  -6.089  1.00  0.00     0.009 C 
HETATM   24  C7  UNL     1     -25.306 -38.151  -4.655  1.00  0.00    -0.012 C 
HETATM   25  C8  UNL     1     -25.317 -39.521  -5.255  1.00  0.00     0.009 C 
HETATM   26  C12 UNL     1     -24.781 -38.269  -3.238  1.00  0.00     0.035 C 
HETATM   27  C9  UNL     1     -23.921 -40.057  -5.340  1.00  0.00    -0.012 C 
HETATM   28  C11 UNL     1     -23.293 -40.182  -3.965  1.00  0.00     0.035 C 
ENDBRANCH  17  19
ENDBRANCH  15  17
ENDBRANCH   1  15
TORSDOF 5
ENDMDL
MODEL 5
REMARK VINA RESULT: -7.212727145      4.076      5.612
REMARK  5 active torsions:
REMARK  status: ('A' for Active; 'I' for Inactive)
REMARK       I    between atoms: C1_2  and  N1_3 
REMARK       I    between atoms: C1_2  and  N4_21 
REMARK    1  A    between atoms: N1_3  and  N2_5 
REMARK    2  A    between atoms: N2_5  and  C2_7 
REMARK    3  A    between atoms: C2_7  and  N3_9 
REMARK    4  A    between atoms: N3_9  and  C3_11 
REMARK    5  A    between atoms: N4_21  and  C13_23 
ROOT
HETATM    1  N2  UNL     1     -23.801 -30.804  -3.800  1.00  0.00    -0.272 N 
ATOM      2  H2  UNL     1     -24.740 -30.865  -3.406  1.00  0.00     0.189 HD
ENDROOT
BRANCH   1   3
HETATM    3  N1  UNL     1     -23.616 -30.283  -5.056  1.00  0.00    -0.249 N 
HETATM    4  C1  UNL     1     -23.481 -31.079  -6.192  1.00  0.00     0.335 C 
HETATM    5  O1  UNL     1     -23.539 -32.361  -6.138  1.00  0.00    -0.246 OA
HETATM    6  N4  UNL     1     -23.266 -30.481  -7.462  1.00  0.00    -0.337 N 
ATOM      7  H4  UNL     1     -23.213 -29.467  -7.554  1.00  0.00     0.164 HD
ATOM      8  H1  UNL     1     -23.577 -29.270  -5.163  1.00  0.00     0.192 HD
BRANCH   6   9
HETATM    9  C13 UNL     1     -23.124 -31.325  -8.616  1.00  0.00     0.087 C 
HETATM   10  C14 UNL     1     -24.431 -31.684  -9.254  1.00  0.00     0.035 C 
HETATM   11  C15 UNL     1     -24.166 -32.704 -10.334  1.00  0.00     0.076 C 
HETATM   12  S2  UNL     1     -22.439 -33.244 -10.358  1.00  0.00    -0.169 SA
HETATM   13  C16 UNL     1     -21.369 -31.776 -10.241  1.00  0.00     0.076 C 
HETATM   14  C17 UNL     1     -22.252 -30.643  -9.699  1.00  0.00     0.035 C 
ENDBRANCH   6   9
ENDBRANCH   1   3
BRANCH   1  15
HETATM   15  C2  UNL     1     -22.678 -31.259  -3.042  1.00  0.00     0.187 C 
HETATM   16  S1  UNL     1     -22.209 -30.508  -1.685  1.00  0.00    -0.040 SA
BRANCH  15  17
HETATM   17  N3  UNL     1     -21.997 -32.398  -3.505  1.00  0.00    -0.357 N 
ATOM     18  H3  UNL     1     -21.238 -32.249  -4.171  1.00  0.00     0.162 HD
BRANCH  17  19
HETATM   19  C3  UNL     1     -22.274 -33.744  -3.124  1.00  0.00     0.033 C 
HETATM   20  C4  UNL     1     -21.363 -34.678  -3.993  1.00  0.00     0.035 C 
HETATM   21  C5  UNL     1     -21.601 -36.083  -3.570  1.00  0.00    -0.012 C 
HETATM   22  C6  UNL     1     -23.018 -36.517  -3.815  1.00  0.00     0.009 C 
HETATM   23  C10 UNL     1     -21.292 -36.310  -2.125  1.00  0.00     0.009 C 
HETATM   24  C7  UNL     1     -23.907 -35.614  -3.000  1.00  0.00    -0.012 C 
HETATM   25  C8  UNL     1     -23.622 -35.694  -1.534  1.00  0.00     0.009 C 
HETATM   26  C12 UNL     1     -23.655 -34.187  -3.445  1.00  0.00     0.035 C 
HETATM   27  C9  UNL     1     -22.178 -35.393  -1.272  1.00  0.00    -0.012 C 
HETATM   28  C11 UNL     1     -21.818 -33.988  -1.716  1.00  0.00     0.035 C 
ENDBRANCH  17  19
ENDBRANCH  15  17
ENDBRANCH   1  15
TORSDOF 5
ENDMDL
