MODEL 1
REMARK VINA RESULT: -8.821018474      0.000      0.000
REMARK  14 active torsions:
REMARK  status: ('A' for Active; 'I' for Inactive)
REMARK    1  A    between atoms: O1_2  and  C2_3 
REMARK    2  A    between atoms: C2_3  and  O2_4 
REMARK    3  A    between atoms: C2_3  and  C3_6 
REMARK    4  A    between atoms: N2_9  and  C4_10 
REMARK    5  A    between atoms: C4_10  and  C5_11 
REMARK    6  A    between atoms: C5_11  and  O4_13 
REMARK    7  A    between atoms: O4_13  and  C6_14 
REMARK    8  A    between atoms: C6_14  and  C7_15 
REMARK    9  A    between atoms: C12_27  and  S1_28 
REMARK   10  A    between atoms: S1_28  and  S2_29 
REMARK   11  A    between atoms: S2_29  and  C13_30 
REMARK   12  A    between atoms: C15_35  and  O7_36 
REMARK   13  A    between atoms: C16_41  and  O8_42 
REMARK   14  A    between atoms: C17_47  and  O9_48 
ROOT
HETATM    1  C3  UNL     1      29.991  31.189  87.084  1.00  0.00     0.089 A 
HETATM    2  N1  UNL     1      28.892  30.482  87.279  1.00  0.00    -0.296 N 
ATOM      3  H1  UNL     1      28.229  30.649  88.037  1.00  0.00     0.187 HD
HETATM    4  N2  UNL     1      28.761  29.532  86.369  1.00  0.00    -0.282 N 
HETATM    5  C9  UNL     1      29.824  29.639  85.559  1.00  0.00     0.093 A 
HETATM    6  C10 UNL     1      30.633  30.681  85.978  1.00  0.00     0.002 A 
HETATM    7  C11 UNL     1      31.907  31.062  85.302  1.00  0.00     0.088 C 
HETATM    8  C12 UNL     1      32.226  30.080  84.247  1.00  0.00     0.265 C 
HETATM    9  N8  UNL     1      30.990  29.761  83.505  1.00  0.00    -0.029 N 
ATOM     10  H81 UNL     1      31.166  29.402  82.567  1.00  0.00     0.282 HD
ATOM     11  H82 UNL     1      30.461  30.588  83.229  1.00  0.00     0.282 HD
HETATM   12  C17 UNL     1      30.230  28.845  84.335  1.00  0.00     0.373 C 
ENDROOT
BRANCH   8  13
HETATM   13  S1  UNL     1      33.540  30.502  83.108  1.00  0.00    -0.062 SA
BRANCH  13  14
HETATM   14  S2  UNL     1      33.187  32.406  82.286  1.00  0.00    -0.058 SA
BRANCH  14  15
HETATM   15  C13 UNL     1      33.940  33.633  83.320  1.00  0.00     0.314 C 
HETATM   16  N6  UNL     1      33.134  34.669  83.841  1.00  0.00    -0.053 N 
HETATM   17  C14 UNL     1      33.952  35.618  84.548  1.00  0.00     0.294 C 
ATOM     18  H62 UNL     1      32.569  35.115  83.117  1.00  0.00     0.278 HD
ATOM     19  H61 UNL     1      32.376  34.310  84.421  1.00  0.00     0.278 HD
HETATM   20  C15 UNL     1      35.041  36.209  83.689  1.00  0.00     0.347 C 
HETATM   21  N7  UNL     1      35.919  35.110  83.311  1.00  0.00    -0.018 N 
HETATM   22  C16 UNL     1      35.141  34.197  82.534  1.00  0.00     0.363 C 
ATOM     23  H72 UNL     1      36.766  35.421  82.835  1.00  0.00     0.283 HD
ATOM     24  H71 UNL     1      36.374  34.668  84.111  1.00  0.00     0.283 HD
BRANCH  20  25
HETATM   25  O7  UNL     1      35.740  37.153  84.402  1.00  0.00    -0.368 OA
ATOM     26  H7  UNL     1      36.067  37.826  83.817  1.00  0.00     0.212 HD
ENDBRANCH  20  25
BRANCH  22  27
HETATM   27  O8  UNL     1      35.898  33.064  82.158  1.00  0.00    -0.367 OA
ATOM     28  H8  UNL     1      35.659  32.898  81.253  1.00  0.00     0.212 HD
ENDBRANCH  22  27
ENDBRANCH  14  15
ENDBRANCH  13  14
ENDBRANCH   8  13
BRANCH  12  29
HETATM   29  O9  UNL     1      31.073  27.794  84.673  1.00  0.00    -0.365 OA
ATOM     30  H9  UNL     1      30.581  27.046  84.992  1.00  0.00     0.212 HD
ENDBRANCH  12  29
BRANCH   1  31
HETATM   31  C2  UNL     1      30.518  32.356  87.877  1.00  0.00     0.309 C 
BRANCH  31  32
HETATM   32  O1  UNL     1      29.563  32.795  88.770  1.00  0.00    -0.360 OA
HETATM   33  C1  UNL     1      29.391  34.182  88.718  1.00  0.00     0.205 C 
ENDBRANCH  31  32
BRANCH  31  34
HETATM   34  O2  UNL     1      31.681  32.065  88.549  1.00  0.00    -0.366 OA
ATOM     35  H2  UNL     1      31.598  31.224  88.982  1.00  0.00     0.213 HD
ENDBRANCH  31  34
ENDBRANCH   1  31
BRANCH   4  36
HETATM   36  C4  UNL     1      27.651  28.577  86.297  1.00  0.00     0.260 C 
BRANCH  36  37
HETATM   37  C5  UNL     1      26.346  29.222  86.579  1.00  0.00     0.282 C 
HETATM   38  O3  UNL     1      25.951  29.269  87.761  1.00  0.00    -0.263 OA
BRANCH  37  39
HETATM   39  O4  UNL     1      25.575  29.761  85.592  1.00  0.00    -0.261 OA
BRANCH  39  40
HETATM   40  C6  UNL     1      24.242  29.459  85.262  1.00  0.00     0.329 C 
HETATM   41  N3  UNL     1      23.860  28.143  85.751  1.00  0.00    -0.329 N 
HETATM   42  C8  UNL     1      23.173  27.537  84.853  1.00  0.00     0.193 C 
ATOM     43  H3  UNL     1      24.101  27.761  86.666  1.00  0.00     0.165 HD
HETATM   44  N4  UNL     1      23.059  28.410  83.716  1.00  0.00    -0.295 N 
HETATM   45  N5  UNL     1      24.119  29.301  83.804  1.00  0.00    -0.068 NA
ATOM     46  H4  UNL     1      22.343  28.380  82.991  1.00  0.00     0.183 HD
BRANCH  40  47
HETATM   47  C7  UNL     1      23.258  30.486  85.664  1.00  0.00     0.253 C 
HETATM   48  O5  UNL     1      22.431  30.157  86.591  1.00  0.00    -0.643 OA
HETATM   49  O6  UNL     1      23.162  31.764  85.123  1.00  0.00    -0.643 OA
ENDBRANCH  40  47
ENDBRANCH  39  40
ENDBRANCH  37  39
ENDBRANCH  36  37
ENDBRANCH   4  36
TORSDOF 14
ENDMDL
MODEL 2
REMARK VINA RESULT: -8.715951055      3.094      3.859
REMARK  14 active torsions:
REMARK  status: ('A' for Active; 'I' for Inactive)
REMARK    1  A    between atoms: O1_2  and  C2_3 
REMARK    2  A    between atoms: C2_3  and  O2_4 
REMARK    3  A    between atoms: C2_3  and  C3_6 
REMARK    4  A    between atoms: N2_9  and  C4_10 
REMARK    5  A    between atoms: C4_10  and  C5_11 
REMARK    6  A    between atoms: C5_11  and  O4_13 
REMARK    7  A    between atoms: O4_13  and  C6_14 
REMARK    8  A    between atoms: C6_14  and  C7_15 
REMARK    9  A    between atoms: C12_27  and  S1_28 
REMARK   10  A    between atoms: S1_28  and  S2_29 
REMARK   11  A    between atoms: S2_29  and  C13_30 
REMARK   12  A    between atoms: C15_35  and  O7_36 
REMARK   13  A    between atoms: C16_41  and  O8_42 
REMARK   14  A    between atoms: C17_47  and  O9_48 
ROOT
HETATM    1  C3  UNL     1      29.965  30.864  87.127  1.00  0.00     0.089 A 
HETATM    2  N1  UNL     1      28.785  30.292  87.285  1.00  0.00    -0.296 N 
ATOM      3  H1  UNL     1      28.077  30.607  87.950  1.00  0.00     0.187 HD
HETATM    4  N2  UNL     1      28.637  29.258  86.474  1.00  0.00    -0.282 N 
HETATM    5  C9  UNL     1      29.774  29.169  85.768  1.00  0.00     0.093 A 
HETATM    6  C10 UNL     1      30.647  30.172  86.152  1.00  0.00     0.002 A 
HETATM    7  C11 UNL     1      32.008  30.351  85.572  1.00  0.00     0.088 C 
HETATM    8  C12 UNL     1      32.316  29.228  84.665  1.00  0.00     0.265 C 
HETATM    9  N8  UNL     1      31.126  28.940  83.841  1.00  0.00    -0.029 N 
ATOM     10  H81 UNL     1      31.346  28.459  82.969  1.00  0.00     0.282 HD
ATOM     11  H82 UNL     1      30.712  29.776  83.426  1.00  0.00     0.282 HD
HETATM   12  C17 UNL     1      30.202  28.203  84.684  1.00  0.00     0.373 C 
ENDROOT
BRANCH   8  13
HETATM   13  S1  UNL     1      33.764  29.388  83.626  1.00  0.00    -0.062 SA
BRANCH  13  14
HETATM   14  S2  UNL     1      35.199  27.952  84.177  1.00  0.00    -0.058 SA
BRANCH  14  15
HETATM   15  C13 UNL     1      36.417  28.716  85.214  1.00  0.00     0.314 C 
HETATM   16  N6  UNL     1      37.769  28.686  84.808  1.00  0.00    -0.053 N 
HETATM   17  C14 UNL     1      38.602  29.249  85.837  1.00  0.00     0.294 C 
ATOM     18  H62 UNL     1      38.069  27.747  84.545  1.00  0.00     0.278 HD
ATOM     19  H61 UNL     1      37.909  29.145  83.909  1.00  0.00     0.278 HD
HETATM   20  C15 UNL     1      38.456  28.544  87.161  1.00  0.00     0.347 C 
HETATM   21  N7  UNL     1      37.080  28.742  87.593  1.00  0.00    -0.018 N 
HETATM   22  C16 UNL     1      36.240  28.113  86.623  1.00  0.00     0.363 C 
ATOM     23  H72 UNL     1      36.908  28.415  88.544  1.00  0.00     0.283 HD
ATOM     24  H71 UNL     1      36.847  29.723  87.748  1.00  0.00     0.283 HD
BRANCH  20  25
HETATM   25  O7  UNL     1      39.326  29.085  88.079  1.00  0.00    -0.368 OA
ATOM     26  H7  UNL     1      38.912  29.813  88.527  1.00  0.00     0.212 HD
ENDBRANCH  20  25
BRANCH  22  27
HETATM   27  O8  UNL     1      34.872  28.294  86.929  1.00  0.00    -0.367 OA
ATOM     28  H8  UNL     1      34.798  28.092  87.854  1.00  0.00     0.212 HD
ENDBRANCH  22  27
ENDBRANCH  14  15
ENDBRANCH  13  14
ENDBRANCH   8  13
BRANCH  12  29
HETATM   29  O9  UNL     1      30.898  27.124  85.216  1.00  0.00    -0.365 OA
ATOM     30  H9  UNL     1      31.163  26.515  84.536  1.00  0.00     0.212 HD
ENDBRANCH  12  29
BRANCH   1  31
HETATM   31  C2  UNL     1      30.537  32.062  87.839  1.00  0.00     0.309 C 
BRANCH  31  32
HETATM   32  O1  UNL     1      29.581  32.636  88.650  1.00  0.00    -0.360 OA
HETATM   33  C1  UNL     1      29.620  34.033  88.602  1.00  0.00     0.205 C 
ENDBRANCH  31  32
BRANCH  31  34
HETATM   34  O2  UNL     1      31.653  31.758  88.583  1.00  0.00    -0.366 OA
ATOM     35  H2  UNL     1      32.390  32.275  88.279  1.00  0.00     0.213 HD
ENDBRANCH  31  34
ENDBRANCH   1  31
BRANCH   4  36
HETATM   36  C4  UNL     1      27.445  28.409  86.393  1.00  0.00     0.260 C 
BRANCH  36  37
HETATM   37  C5  UNL     1      26.203  29.170  86.675  1.00  0.00     0.282 C 
HETATM   38  O3  UNL     1      25.813  29.252  87.857  1.00  0.00    -0.263 OA
BRANCH  37  39
HETATM   39  O4  UNL     1      25.485  29.776  85.687  1.00  0.00    -0.261 OA
BRANCH  39  40
HETATM   40  C6  UNL     1      24.181  29.482  85.250  1.00  0.00     0.329 C 
HETATM   41  N3  UNL     1      23.789  28.131  85.622  1.00  0.00    -0.329 N 
HETATM   42  C8  UNL     1      23.173  27.581  84.641  1.00  0.00     0.193 C 
ATOM     43  H3  UNL     1      23.975  27.691  86.523  1.00  0.00     0.165 HD
HETATM   44  N4  UNL     1      23.120  28.528  83.561  1.00  0.00    -0.295 N 
HETATM   45  N5  UNL     1      24.157  29.423  83.778  1.00  0.00    -0.068 NA
ATOM     46  H4  UNL     1      22.453  28.540  82.789  1.00  0.00     0.183 HD
BRANCH  40  47
HETATM   47  C7  UNL     1      23.157  30.468  85.653  1.00  0.00     0.253 C 
HETATM   48  O5  UNL     1      23.191  31.607  85.057  1.00  0.00    -0.643 OA
HETATM   49  O6  UNL     1      22.171  30.259  86.611  1.00  0.00    -0.643 OA
ENDBRANCH  40  47
ENDBRANCH  39  40
ENDBRANCH  37  39
ENDBRANCH  36  37
ENDBRANCH   4  36
TORSDOF 14
ENDMDL
MODEL 3
REMARK VINA RESULT: -8.673887348      1.412      1.670
REMARK  14 active torsions:
REMARK  status: ('A' for Active; 'I' for Inactive)
REMARK    1  A    between atoms: O1_2  and  C2_3 
REMARK    2  A    between atoms: C2_3  and  O2_4 
REMARK    3  A    between atoms: C2_3  and  C3_6 
REMARK    4  A    between atoms: N2_9  and  C4_10 
REMARK    5  A    between atoms: C4_10  and  C5_11 
REMARK    6  A    between atoms: C5_11  and  O4_13 
REMARK    7  A    between atoms: O4_13  and  C6_14 
REMARK    8  A    between atoms: C6_14  and  C7_15 
REMARK    9  A    between atoms: C12_27  and  S1_28 
REMARK   10  A    between atoms: S1_28  and  S2_29 
REMARK   11  A    between atoms: S2_29  and  C13_30 
REMARK   12  A    between atoms: C15_35  and  O7_36 
REMARK   13  A    between atoms: C16_41  and  O8_42 
REMARK   14  A    between atoms: C17_47  and  O9_48 
ROOT
HETATM    1  C3  UNL     1      30.097  31.714  86.927  1.00  0.00     0.089 A 
HETATM    2  N1  UNL     1      29.086  30.866  86.887  1.00  0.00    -0.296 N 
ATOM      3  H1  UNL     1      28.412  30.737  87.643  1.00  0.00     0.187 HD
HETATM    4  N2  UNL     1      29.057  30.203  85.743  1.00  0.00    -0.282 N 
HETATM    5  C9  UNL     1      30.096  30.650  85.023  1.00  0.00     0.093 A 
HETATM    6  C10 UNL     1      30.785  31.613  85.740  1.00  0.00     0.002 A 
HETATM    7  C11 UNL     1      32.004  32.307  85.232  1.00  0.00     0.088 C 
HETATM    8  C12 UNL     1      32.425  31.705  83.952  1.00  0.00     0.265 C 
HETATM    9  N8  UNL     1      31.229  31.474  83.118  1.00  0.00    -0.029 N 
ATOM     10  H81 UNL     1      31.438  31.417  82.121  1.00  0.00     0.282 HD
ATOM     11  H82 UNL     1      30.608  32.283  83.072  1.00  0.00     0.282 HD
HETATM   12  C17 UNL     1      30.581  30.283  83.636  1.00  0.00     0.373 C 
ENDROOT
BRANCH   8  13
HETATM   13  S1  UNL     1      33.677  32.572  83.013  1.00  0.00    -0.062 SA
BRANCH  13  14
HETATM   14  S2  UNL     1      32.867  34.339  82.209  1.00  0.00    -0.058 SA
BRANCH  14  15
HETATM   15  C13 UNL     1      34.000  35.674  82.482  1.00  0.00     0.314 C 
HETATM   16  N6  UNL     1      35.111  35.809  81.620  1.00  0.00    -0.053 N 
HETATM   17  C14 UNL     1      35.963  36.872  82.082  1.00  0.00     0.294 C 
ATOM     18  H62 UNL     1      35.620  34.931  81.512  1.00  0.00     0.278 HD
ATOM     19  H61 UNL     1      34.829  35.939  80.649  1.00  0.00     0.278 HD
HETATM   20  C15 UNL     1      36.443  36.668  83.496  1.00  0.00     0.347 C 
HETATM   21  N7  UNL     1      35.261  36.689  84.347  1.00  0.00    -0.018 N 
HETATM   22  C16 UNL     1      34.442  35.586  83.957  1.00  0.00     0.363 C 
ATOM     23  H72 UNL     1      35.485  36.689  85.342  1.00  0.00     0.283 HD
ATOM     24  H71 UNL     1      34.768  37.582  84.323  1.00  0.00     0.283 HD
BRANCH  20  25
HETATM   25  O7  UNL     1      37.303  37.680  83.851  1.00  0.00    -0.368 OA
ATOM     26  H7  UNL     1      37.365  37.736  84.797  1.00  0.00     0.212 HD
ENDBRANCH  20  25
BRANCH  22  27
HETATM   27  O8  UNL     1      33.238  35.548  84.698  1.00  0.00    -0.367 OA
ATOM     28  H8  UNL     1      33.505  35.376  85.593  1.00  0.00     0.212 HD
ENDBRANCH  22  27
ENDBRANCH  14  15
ENDBRANCH  13  14
ENDBRANCH   8  13
BRANCH  12  29
HETATM   29  O9  UNL     1      31.540  29.279  83.687  1.00  0.00    -0.365 OA
ATOM     30  H9  UNL     1      31.869  29.072  82.820  1.00  0.00     0.212 HD
ENDBRANCH  12  29
BRANCH   1  31
HETATM   31  C2  UNL     1      30.494  32.661  88.030  1.00  0.00     0.309 C 
BRANCH  31  32
HETATM   32  O1  UNL     1      29.530  32.673  89.016  1.00  0.00    -0.360 OA
HETATM   33  C1  UNL     1      29.129  33.973  89.344  1.00  0.00     0.205 C 
ENDBRANCH  31  32
BRANCH  31  34
HETATM   34  O2  UNL     1      31.716  32.357  88.581  1.00  0.00    -0.366 OA
ATOM     35  H2  UNL     1      32.169  33.158  88.816  1.00  0.00     0.213 HD
ENDBRANCH  31  34
ENDBRANCH   1  31
BRANCH   4  36
HETATM   36  C4  UNL     1      28.061  29.192  85.375  1.00  0.00     0.260 C 
BRANCH  36  37
HETATM   37  C5  UNL     1      26.739  29.468  85.987  1.00  0.00     0.282 C 
HETATM   38  O3  UNL     1      26.587  29.235  87.203  1.00  0.00    -0.263 OA
BRANCH  37  39
HETATM   39  O4  UNL     1      25.696  29.967  85.263  1.00  0.00    -0.261 OA
BRANCH  39  40
HETATM   40  C6  UNL     1      24.375  29.490  85.193  1.00  0.00     0.329 C 
HETATM   41  N3  UNL     1      24.245  28.192  85.839  1.00  0.00    -0.329 N 
HETATM   42  C8  UNL     1      23.502  27.431  85.121  1.00  0.00     0.193 C 
ATOM     43  H3  UNL     1      24.677  27.928  86.724  1.00  0.00     0.165 HD
HETATM   44  N4  UNL     1      23.097  28.174  83.959  1.00  0.00    -0.295 N 
HETATM   45  N5  UNL     1      24.037  29.180  83.794  1.00  0.00    -0.068 NA
ATOM     46  H4  UNL     1      22.281  27.996  83.372  1.00  0.00     0.183 HD
BRANCH  40  47
HETATM   47  C7  UNL     1      23.349  30.436  85.680  1.00  0.00     0.253 C 
HETATM   48  O5  UNL     1      23.337  31.600  85.134  1.00  0.00    -0.643 OA
HETATM   49  O6  UNL     1      22.408  30.165  86.667  1.00  0.00    -0.643 OA
ENDBRANCH  40  47
ENDBRANCH  39  40
ENDBRANCH  37  39
ENDBRANCH  36  37
ENDBRANCH   4  36
TORSDOF 14
ENDMDL
MODEL 4
REMARK VINA RESULT: -8.552395659      3.669      4.571
REMARK  14 active torsions:
REMARK  status: ('A' for Active; 'I' for Inactive)
REMARK    1  A    between atoms: O1_2  and  C2_3 
REMARK    2  A    between atoms: C2_3  and  O2_4 
REMARK    3  A    between atoms: C2_3  and  C3_6 
REMARK    4  A    between atoms: N2_9  and  C4_10 
REMARK    5  A    between atoms: C4_10  and  C5_11 
REMARK    6  A    between atoms: C5_11  and  O4_13 
REMARK    7  A    between atoms: O4_13  and  C6_14 
REMARK    8  A    between atoms: C6_14  and  C7_15 
REMARK    9  A    between atoms: C12_27  and  S1_28 
REMARK   10  A    between atoms: S1_28  and  S2_29 
REMARK   11  A    between atoms: S2_29  and  C13_30 
REMARK   12  A    between atoms: C15_35  and  O7_36 
REMARK   13  A    between atoms: C16_41  and  O8_42 
REMARK   14  A    between atoms: C17_47  and  O9_48 
ROOT
HETATM    1  C3  UNL     1      30.194  30.625  87.716  1.00  0.00     0.089 A 
HETATM    2  N1  UNL     1      29.097  30.636  86.982  1.00  0.00    -0.296 N 
ATOM      3  H1  UNL     1      28.457  31.428  86.917  1.00  0.00     0.187 HD
HETATM    4  N2  UNL     1      28.931  29.490  86.344  1.00  0.00    -0.282 N 
HETATM    5  C9  UNL     1      29.970  28.715  86.686  1.00  0.00     0.093 A 
HETATM    6  C10 UNL     1      30.799  29.399  87.559  1.00  0.00     0.002 A 
HETATM    7  C11 UNL     1      32.042  28.818  88.145  1.00  0.00     0.088 C 
HETATM    8  C12 UNL     1      32.150  27.394  87.775  1.00  0.00     0.265 C 
HETATM    9  N8  UNL     1      31.791  27.243  86.351  1.00  0.00    -0.029 N 
ATOM     10  H81 UNL     1      32.179  26.402  85.924  1.00  0.00     0.282 HD
ATOM     11  H82 UNL     1      32.254  27.921  85.745  1.00  0.00     0.282 HD
HETATM   12  C17 UNL     1      30.342  27.306  86.277  1.00  0.00     0.373 C 
ENDROOT
BRANCH   8  13
HETATM   13  S1  UNL     1      33.708  26.578  88.109  1.00  0.00    -0.062 SA
BRANCH  13  14
HETATM   14  S2  UNL     1      34.690  26.150  86.299  1.00  0.00    -0.058 SA
BRANCH  14  15
HETATM   15  C13 UNL     1      36.291  26.912  86.313  1.00  0.00     0.314 C 
HETATM   16  N6  UNL     1      37.303  26.351  87.122  1.00  0.00    -0.053 N 
HETATM   17  C14 UNL     1      38.477  27.180  87.083  1.00  0.00     0.294 C 
ATOM     18  H62 UNL     1      36.982  26.186  88.077  1.00  0.00     0.278 HD
ATOM     19  H61 UNL     1      37.508  25.386  86.865  1.00  0.00     0.278 HD
HETATM   20  C15 UNL     1      38.209  28.598  87.520  1.00  0.00     0.347 C 
HETATM   21  N7  UNL     1      37.275  29.164  86.558  1.00  0.00    -0.018 N 
HETATM   22  C16 UNL     1      36.069  28.402  86.644  1.00  0.00     0.363 C 
ATOM     23  H72 UNL     1      37.126  30.165  86.686  1.00  0.00     0.283 HD
ATOM     24  H71 UNL     1      37.654  29.208  85.611  1.00  0.00     0.283 HD
BRANCH  20  25
HETATM   25  O7  UNL     1      39.382  29.317  87.525  1.00  0.00    -0.368 OA
ATOM     26  H7  UNL     1      39.192  30.247  87.494  1.00  0.00     0.212 HD
ENDBRANCH  20  25
BRANCH  22  27
HETATM   27  O8  UNL     1      35.109  28.846  85.706  1.00  0.00    -0.367 OA
ATOM     28  H8  UNL     1      34.625  29.530  86.155  1.00  0.00     0.212 HD
ENDBRANCH  22  27
ENDBRANCH  14  15
ENDBRANCH  13  14
ENDBRANCH   8  13
BRANCH  12  29
HETATM   29  O9  UNL     1      29.841  26.372  87.175  1.00  0.00    -0.365 OA
ATOM     30  H9  UNL     1      28.963  26.098  86.934  1.00  0.00     0.212 HD
ENDBRANCH  12  29
BRANCH   1  31
HETATM   31  C2  UNL     1      30.758  31.714  88.591  1.00  0.00     0.309 C 
BRANCH  31  32
HETATM   32  O1  UNL     1      31.830  32.319  87.968  1.00  0.00    -0.360 OA
HETATM   33  C1  UNL     1      31.448  33.463  87.259  1.00  0.00     0.205 C 
ENDBRANCH  31  32
BRANCH  31  34
HETATM   34  O2  UNL     1      29.824  32.664  88.930  1.00  0.00    -0.366 OA
ATOM     35  H2  UNL     1      29.030  32.238  89.231  1.00  0.00     0.213 HD
ENDBRANCH  31  34
ENDBRANCH   1  31
BRANCH   4  36
HETATM   36  C4  UNL     1      27.818  29.176  85.443  1.00  0.00     0.260 C 
BRANCH  36  37
HETATM   37  C5  UNL     1      26.506  29.517  86.044  1.00  0.00     0.282 C 
HETATM   38  O3  UNL     1      26.345  29.326  87.266  1.00  0.00    -0.263 OA
BRANCH  37  39
HETATM   39  O4  UNL     1      25.482  30.030  85.304  1.00  0.00    -0.261 OA
BRANCH  39  40
HETATM   40  C6  UNL     1      24.159  29.564  85.203  1.00  0.00     0.329 C 
HETATM   41  N3  UNL     1      23.997  28.280  85.868  1.00  0.00    -0.329 N 
HETATM   42  C8  UNL     1      23.269  27.513  85.142  1.00  0.00     0.193 C 
ATOM     43  H3  UNL     1      24.400  28.028  86.770  1.00  0.00     0.165 HD
HETATM   44  N4  UNL     1      22.905  28.238  83.955  1.00  0.00    -0.295 N 
HETATM   45  N5  UNL     1      23.859  29.232  83.800  1.00  0.00    -0.068 NA
ATOM     46  H4  UNL     1      22.106  28.057  83.348  1.00  0.00     0.183 HD
BRANCH  40  47
HETATM   47  C7  UNL     1      23.128  30.528  85.642  1.00  0.00     0.253 C 
HETATM   48  O5  UNL     1      23.172  31.697  85.108  1.00  0.00    -0.643 OA
HETATM   49  O6  UNL     1      22.128  30.269  86.573  1.00  0.00    -0.643 OA
ENDBRANCH  40  47
ENDBRANCH  39  40
ENDBRANCH  37  39
ENDBRANCH  36  37
ENDBRANCH   4  36
TORSDOF 14
ENDMDL
MODEL 5
REMARK VINA RESULT: -8.547862201      1.180      1.447
REMARK  14 active torsions:
REMARK  status: ('A' for Active; 'I' for Inactive)
REMARK    1  A    between atoms: O1_2  and  C2_3 
REMARK    2  A    between atoms: C2_3  and  O2_4 
REMARK    3  A    between atoms: C2_3  and  C3_6 
REMARK    4  A    between atoms: N2_9  and  C4_10 
REMARK    5  A    between atoms: C4_10  and  C5_11 
REMARK    6  A    between atoms: C5_11  and  O4_13 
REMARK    7  A    between atoms: O4_13  and  C6_14 
REMARK    8  A    between atoms: C6_14  and  C7_15 
REMARK    9  A    between atoms: C12_27  and  S1_28 
REMARK   10  A    between atoms: S1_28  and  S2_29 
REMARK   11  A    between atoms: S2_29  and  C13_30 
REMARK   12  A    between atoms: C15_35  and  O7_36 
REMARK   13  A    between atoms: C16_41  and  O8_42 
REMARK   14  A    between atoms: C17_47  and  O9_48 
ROOT
HETATM    1  C3  UNL     1      29.859  31.369  87.092  1.00  0.00     0.089 A 
HETATM    2  N1  UNL     1      28.895  30.523  87.407  1.00  0.00    -0.296 N 
ATOM      3  H1  UNL     1      28.445  30.477  88.322  1.00  0.00     0.187 HD
HETATM    4  N2  UNL     1      28.586  29.741  86.386  1.00  0.00    -0.282 N 
HETATM    5  C9  UNL     1      29.389  30.107  85.377  1.00  0.00     0.093 A 
HETATM    6  C10 UNL     1      30.216  31.140  85.783  1.00  0.00     0.002 A 
HETATM    7  C11 UNL     1      31.241  31.773  84.905  1.00  0.00     0.088 C 
HETATM    8  C12 UNL     1      31.330  31.037  83.629  1.00  0.00     0.265 C 
HETATM    9  N8  UNL     1      29.964  30.720  83.166  1.00  0.00    -0.029 N 
ATOM     10  H81 UNL     1      29.908  30.556  82.161  1.00  0.00     0.282 HD
ATOM     11  H82 UNL     1      29.332  31.520  83.201  1.00  0.00     0.282 HD
HETATM   12  C17 UNL     1      29.506  29.593  83.957  1.00  0.00     0.373 C 
ENDROOT
BRANCH   8  13
HETATM   13  S1  UNL     1      32.270  31.796  82.309  1.00  0.00    -0.062 SA
BRANCH  13  14
HETATM   14  S2  UNL     1      34.006  32.687  83.094  1.00  0.00    -0.058 SA
BRANCH  14  15
HETATM   15  C13 UNL     1      34.067  34.385  82.587  1.00  0.00     0.314 C 
HETATM   16  N6  UNL     1      34.288  34.679  81.224  1.00  0.00    -0.053 N 
HETATM   17  C14 UNL     1      34.421  36.100  81.045  1.00  0.00     0.294 C 
ATOM     18  H62 UNL     1      35.088  34.170  80.847  1.00  0.00     0.278 HD
ATOM     19  H61 UNL     1      33.564  34.285  80.625  1.00  0.00     0.278 HD
HETATM   20  C15 UNL     1      35.530  36.695  81.876  1.00  0.00     0.347 C 
HETATM   21  N7  UNL     1      35.165  36.489  83.270  1.00  0.00    -0.018 N 
HETATM   22  C16 UNL     1      35.111  35.078  83.487  1.00  0.00     0.363 C 
ATOM     23  H72 UNL     1      35.785  36.971  83.922  1.00  0.00     0.283 HD
ATOM     24  H71 UNL     1      34.302  36.968  83.533  1.00  0.00     0.283 HD
BRANCH  20  25
HETATM   25  O7  UNL     1      35.647  38.039  81.608  1.00  0.00    -0.368 OA
ATOM     26  H7  UNL     1      36.551  38.311  81.706  1.00  0.00     0.212 HD
ENDBRANCH  20  25
BRANCH  22  27
HETATM   27  O8  UNL     1      34.714  34.773  84.810  1.00  0.00    -0.367 OA
ATOM     28  H8  UNL     1      35.522  34.742  85.308  1.00  0.00     0.212 HD
ENDBRANCH  22  27
ENDBRANCH  14  15
ENDBRANCH  13  14
ENDBRANCH   8  13
BRANCH  12  29
HETATM   29  O9  UNL     1      30.471  28.598  83.859  1.00  0.00    -0.365 OA
ATOM     30  H9  UNL     1      30.245  27.963  83.188  1.00  0.00     0.212 HD
ENDBRANCH  12  29
BRANCH   1  31
HETATM   31  C2  UNL     1      30.504  32.427  87.948  1.00  0.00     0.309 C 
BRANCH  31  32
HETATM   32  O1  UNL     1      29.655  32.796  88.971  1.00  0.00    -0.360 OA
HETATM   33  C1  UNL     1      29.477  34.182  89.032  1.00  0.00     0.205 C 
ENDBRANCH  31  32
BRANCH  31  34
HETATM   34  O2  UNL     1      31.712  32.029  88.470  1.00  0.00    -0.366 OA
ATOM     35  H2  UNL     1      32.415  32.302  87.893  1.00  0.00     0.213 HD
ENDBRANCH  31  34
ENDBRANCH   1  31
BRANCH   4  36
HETATM   36  C4  UNL     1      27.556  28.698  86.399  1.00  0.00     0.260 C 
BRANCH  36  37
HETATM   37  C5  UNL     1      26.200  29.261  86.606  1.00  0.00     0.282 C 
HETATM   38  O3  UNL     1      25.722  29.251  87.758  1.00  0.00    -0.263 OA
BRANCH  37  39
HETATM   39  O4  UNL     1      25.470  29.786  85.581  1.00  0.00    -0.261 OA
BRANCH  39  40
HETATM   40  C6  UNL     1      24.148  29.485  85.207  1.00  0.00     0.329 C 
HETATM   41  N3  UNL     1      23.781  28.133  85.598  1.00  0.00    -0.329 N 
HETATM   42  C8  UNL     1      23.121  27.579  84.648  1.00  0.00     0.193 C 
ATOM     43  H3  UNL     1      24.013  27.693  86.489  1.00  0.00     0.165 HD
HETATM   44  N4  UNL     1      23.010  28.525  83.572  1.00  0.00    -0.295 N 
HETATM   45  N5  UNL     1      24.052  29.425  83.739  1.00  0.00    -0.068 NA
ATOM     46  H4  UNL     1      22.307  28.533  82.833  1.00  0.00     0.183 HD
BRANCH  40  47
HETATM   47  C7  UNL     1      23.139  30.466  85.660  1.00  0.00     0.253 C 
HETATM   48  O5  UNL     1      23.154  31.614  85.080  1.00  0.00    -0.643 OA
HETATM   49  O6  UNL     1      22.187  30.244  86.649  1.00  0.00    -0.643 OA
ENDBRANCH  40  47
ENDBRANCH  39  40
ENDBRANCH  37  39
ENDBRANCH  36  37
ENDBRANCH   4  36
TORSDOF 14
ENDMDL
