MODEL 1
REMARK VINA RESULT: -9.337055797      0.000      0.000
REMARK  15 active torsions:
REMARK  status: ('A' for Active; 'I' for Inactive)
REMARK    1  A    between atoms: N1_1  and  N2_4 
REMARK       I    between atoms: N2_4  and  C1_6 
REMARK    2  A    between atoms: C1_6  and  C2_8 
REMARK    3  A    between atoms: C4_11  and  N4_12 
REMARK    4  A    between atoms: C6_16  and  C7_17 
REMARK       I    between atoms: C7_17  and  N6_19 
REMARK    5  A    between atoms: N6_19  and  C8_21 
REMARK    6  A    between atoms: C8_21  and  O3_22 
REMARK    7  A    between atoms: C8_21  and  C9_24 
REMARK    8  A    between atoms: C9_24  and  C10_25 
REMARK    9  A    between atoms: N7_27  and  C12_28 
REMARK   10  A    between atoms: C13_30  and  C14_31 
REMARK   11  A    between atoms: C14_31  and  O4_32 
REMARK   12  A    between atoms: C16_35  and  O5_36 
REMARK   13  A    between atoms: C17_44  and  O6_45 
REMARK   14  A    between atoms: C18_47  and  O7_48 
REMARK   15  A    between atoms: C19_50  and  O8_51 
ROOT
HETATM    1  N4  UNL     1      24.080  28.658  83.974  1.00  0.00    -0.192 N 
HETATM    2  N5  UNL     1      23.942  29.437  85.028  1.00  0.00    -0.288 N 
ATOM      3  H5  UNL     1      23.115  29.999  85.226  1.00  0.00     0.188 HD
HETATM    4  C5  UNL     1      25.032  29.393  85.802  1.00  0.00     0.146 A 
HETATM    5  C6  UNL     1      25.907  28.524  85.188  1.00  0.00     0.134 A 
HETATM    6  N10 UNL     1      25.267  28.112  84.080  1.00  0.00    -0.273 N 
ATOM      7  H10 UNL     1      25.657  27.455  83.404  1.00  0.00     0.189 HD
ENDROOT
BRANCH   5   8
HETATM    8  C7  UNL     1      27.249  28.132  85.641  1.00  0.00     0.273 C 
HETATM    9  O2  UNL     1      27.513  28.111  86.864  1.00  0.00    -0.266 OA
HETATM   10  N6  UNL     1      28.271  27.771  84.726  1.00  0.00    -0.329 N 
ATOM     11  H6  UNL     1      28.072  27.783  83.726  1.00  0.00     0.165 HD
BRANCH  10  12
HETATM   12  C8  UNL     1      29.589  27.387  85.178  1.00  0.00     0.226 C 
BRANCH  12  13
HETATM   13  O3  UNL     1      29.566  26.897  86.492  1.00  0.00    -0.376 OA
ATOM     14  H3  UNL     1      30.425  26.605  86.774  1.00  0.00     0.212 HD
ENDBRANCH  12  13
BRANCH  12  15
HETATM   15  C9  UNL     1      30.585  28.515  85.030  1.00  0.00     0.113 C 
BRANCH  15  16
HETATM   16  C10 UNL     1      30.389  29.508  86.114  1.00  0.00     0.048 A 
HETATM   17  C11 UNL     1      30.211  30.852  85.905  1.00  0.00     0.139 A 
HETATM   18  N7  UNL     1      30.062  31.470  87.095  1.00  0.00    -0.270 N 
HETATM   19  N8  UNL     1      30.146  30.531  88.007  1.00  0.00    -0.240 N 
HETATM   20  N9  UNL     1      30.344  29.338  87.446  1.00  0.00    -0.289 N 
ATOM     21  H8  UNL     1      30.072  30.692  89.011  1.00  0.00     0.208 HD
ATOM     22  H9  UNL     1      30.443  28.452  87.942  1.00  0.00     0.188 HD
BRANCH  18  23
HETATM   23  C12 UNL     1      29.854  32.889  87.227  1.00  0.00     0.199 C 
HETATM   24  S1  UNL     1      28.826  33.124  88.729  1.00  0.00    -0.132 SA
HETATM   25  C13 UNL     1      29.775  34.493  89.501  1.00  0.00     0.075 C 
HETATM   26  C15 UNL     1      30.687  34.876  88.360  1.00  0.00     0.052 C 
HETATM   27  C16 UNL     1      31.119  33.620  87.658  1.00  0.00     0.154 C 
BRANCH  25  28
HETATM   28  C14 UNL     1      28.755  35.602  89.765  1.00  0.00     0.179 C 
BRANCH  28  29
HETATM   29  O4  UNL     1      29.448  36.768  90.087  1.00  0.00    -0.400 OA
ATOM     30  H4  UNL     1      29.810  37.131  89.286  1.00  0.00     0.209 HD
ENDBRANCH  28  29
ENDBRANCH  25  28
BRANCH  27  31
HETATM   31  O5  UNL     1      31.875  32.823  88.498  1.00  0.00    -0.393 OA
ATOM     32  H5  UNL     1      32.667  32.535  88.058  1.00  0.00     0.210 HD
ENDBRANCH  27  31
ENDBRANCH  18  23
ENDBRANCH  15  16
ENDBRANCH  12  15
ENDBRANCH  10  12
ENDBRANCH   5   8
BRANCH   1  33
HETATM   33  C4  UNL     1      23.083  28.502  82.972  1.00  0.00     0.136 A 
HETATM   34  C3  UNL     1      23.457  28.470  81.645  1.00  0.00     0.098 A 
HETATM   35  C2  UNL     1      22.529  28.318  80.585  1.00  0.00     0.096 A 
HETATM   36  N3  UNL     1      24.826  28.593  81.323  1.00  0.00    -0.099 NA
HETATM   37  C19 UNL     1      21.235  28.206  80.968  1.00  0.00     0.119 A 
HETATM   38  C18 UNL     1      20.801  28.232  82.298  1.00  0.00     0.136 A 
HETATM   39  C17 UNL     1      21.754  28.382  83.268  1.00  0.00     0.134 A 
BRANCH  35  40
HETATM   40  C1  UNL     1      23.066  28.301  79.243  1.00  0.00     0.274 C 
HETATM   41  N2  UNL     1      23.919  29.243  78.704  1.00  0.00    -0.272 N 
ATOM     42  H2  UNL     1      24.217  30.032  79.277  1.00  0.00     0.189 HD
HETATM   43  O1  UNL     1      22.754  27.347  78.435  1.00  0.00    -0.266 OA
BRANCH  41  44
HETATM   44  N1  UNL     1      24.395  29.137  77.360  1.00  0.00    -0.342 N 
ATOM     45  H12 UNL     1      24.012  28.399  76.769  1.00  0.00     0.176 HD
ATOM     46  H11 UNL     1      25.099  29.777  76.992  1.00  0.00     0.176 HD
ENDBRANCH  41  44
ENDBRANCH  35  40
BRANCH  37  47
HETATM   47  O8  UNL     1      20.256  28.051  79.975  1.00  0.00    -0.357 OA
ATOM     48  H8  UNL     1      19.684  28.786  79.787  1.00  0.00     0.218 HD
ENDBRANCH  37  47
BRANCH  38  49
HETATM   49  O7  UNL     1      19.453  28.107  82.554  1.00  0.00    -0.356 OA
ATOM     50  H7  UNL     1      18.811  27.843  81.905  1.00  0.00     0.218 HD
ENDBRANCH  38  49
BRANCH  39  51
HETATM   51  O6  UNL     1      21.396  28.416  84.607  1.00  0.00    -0.356 OA
ATOM     52  H6  UNL     1      20.529  28.102  84.834  1.00  0.00     0.218 HD
ENDBRANCH  39  51
ENDBRANCH   1  33
TORSDOF 15
ENDMDL
MODEL 2
REMARK VINA RESULT: -9.191862081      1.716      2.521
REMARK  15 active torsions:
REMARK  status: ('A' for Active; 'I' for Inactive)
REMARK    1  A    between atoms: N1_1  and  N2_4 
REMARK       I    between atoms: N2_4  and  C1_6 
REMARK    2  A    between atoms: C1_6  and  C2_8 
REMARK    3  A    between atoms: C4_11  and  N4_12 
REMARK    4  A    between atoms: C6_16  and  C7_17 
REMARK       I    between atoms: C7_17  and  N6_19 
REMARK    5  A    between atoms: N6_19  and  C8_21 
REMARK    6  A    between atoms: C8_21  and  O3_22 
REMARK    7  A    between atoms: C8_21  and  C9_24 
REMARK    8  A    between atoms: C9_24  and  C10_25 
REMARK    9  A    between atoms: N7_27  and  C12_28 
REMARK   10  A    between atoms: C13_30  and  C14_31 
REMARK   11  A    between atoms: C14_31  and  O4_32 
REMARK   12  A    between atoms: C16_35  and  O5_36 
REMARK   13  A    between atoms: C17_44  and  O6_45 
REMARK   14  A    between atoms: C18_47  and  O7_48 
REMARK   15  A    between atoms: C19_50  and  O8_51 
ROOT
HETATM    1  N4  UNL     1      25.809  28.793  84.749  1.00  0.00    -0.192 N 
HETATM    2  N5  UNL     1      26.645  29.109  83.781  1.00  0.00    -0.288 N 
ATOM      3  H5  UNL     1      26.366  29.511  82.886  1.00  0.00     0.188 HD
HETATM    4  C5  UNL     1      27.906  28.834  84.128  1.00  0.00     0.146 A 
HETATM    5  C6  UNL     1      27.851  28.311  85.402  1.00  0.00     0.134 A 
HETATM    6  N10 UNL     1      26.545  28.313  85.722  1.00  0.00    -0.273 N 
ATOM      7  H10 UNL     1      26.173  27.983  86.612  1.00  0.00     0.189 HD
ENDROOT
BRANCH   5   8
HETATM    8  C7  UNL     1      28.972  27.849  86.233  1.00  0.00     0.273 C 
HETATM    9  O2  UNL     1      28.884  27.897  87.481  1.00  0.00    -0.266 OA
HETATM   10  N6  UNL     1      30.167  27.344  85.662  1.00  0.00    -0.329 N 
ATOM     11  H6  UNL     1      30.254  27.298  84.646  1.00  0.00     0.165 HD
BRANCH  10  12
HETATM   12  C8  UNL     1      31.266  26.892  86.485  1.00  0.00     0.226 C 
BRANCH  12  13
HETATM   13  O3  UNL     1      30.824  26.415  87.727  1.00  0.00    -0.376 OA
ATOM     14  H3  UNL     1      30.252  27.037  88.159  1.00  0.00     0.212 HD
ENDBRANCH  12  13
BRANCH  12  15
HETATM   15  C9  UNL     1      32.322  27.963  86.651  1.00  0.00     0.113 C 
BRANCH  15  16
HETATM   16  C10 UNL     1      31.764  29.107  87.413  1.00  0.00     0.048 A 
HETATM   17  C11 UNL     1      31.340  30.279  86.841  1.00  0.00     0.139 A 
HETATM   18  N7  UNL     1      30.891  31.107  87.807  1.00  0.00    -0.270 N 
HETATM   19  N8  UNL     1      31.037  30.459  88.939  1.00  0.00    -0.240 N 
HETATM   20  N9  UNL     1      31.561  29.252  88.733  1.00  0.00    -0.289 N 
ATOM     21  H8  UNL     1      30.784  30.831  89.855  1.00  0.00     0.208 HD
ATOM     22  H9  UNL     1      31.771  28.559  89.452  1.00  0.00     0.188 HD
BRANCH  18  23
HETATM   23  C12 UNL     1      30.372  32.424  87.541  1.00  0.00     0.199 C 
HETATM   24  S1  UNL     1      29.394  32.904  89.019  1.00  0.00    -0.132 SA
HETATM   25  C13 UNL     1      30.044  34.607  89.238  1.00  0.00     0.075 C 
HETATM   26  C15 UNL     1      30.786  34.790  87.935  1.00  0.00     0.052 C 
HETATM   27  C16 UNL     1      31.457  33.492  87.587  1.00  0.00     0.154 C 
BRANCH  25  28
HETATM   28  C14 UNL     1      28.812  35.513  89.284  1.00  0.00     0.179 C 
BRANCH  28  29
HETATM   29  O4  UNL     1      29.098  36.599  90.109  1.00  0.00    -0.400 OA
ATOM     30  H4  UNL     1      29.841  36.372  90.656  1.00  0.00     0.209 HD
ENDBRANCH  28  29
ENDBRANCH  25  28
BRANCH  27  31
HETATM   31  O5  UNL     1      32.416  33.166  88.528  1.00  0.00    -0.393 OA
ATOM     32  H5  UNL     1      33.279  33.433  88.230  1.00  0.00     0.210 HD
ENDBRANCH  27  31
ENDBRANCH  18  23
ENDBRANCH  15  16
ENDBRANCH  12  15
ENDBRANCH  10  12
ENDBRANCH   5   8
BRANCH   1  33
HETATM   33  C4  UNL     1      24.400  28.974  84.667  1.00  0.00     0.136 A 
HETATM   34  C3  UNL     1      23.731  28.565  83.533  1.00  0.00     0.098 A 
HETATM   35  C2  UNL     1      22.331  28.707  83.368  1.00  0.00     0.096 A 
HETATM   36  N3  UNL     1      24.471  27.975  82.485  1.00  0.00    -0.099 NA
HETATM   37  C19 UNL     1      21.687  29.281  84.412  1.00  0.00     0.119 A 
HETATM   38  C18 UNL     1      22.316  29.715  85.584  1.00  0.00     0.136 A 
HETATM   39  C17 UNL     1      23.671  29.544  85.672  1.00  0.00     0.134 A 
BRANCH  35  40
HETATM   40  C1  UNL     1      21.767  28.232  82.125  1.00  0.00     0.274 C 
HETATM   41  N2  UNL     1      22.304  28.426  80.869  1.00  0.00    -0.272 N 
ATOM     42  H2  UNL     1      23.176  28.947  80.774  1.00  0.00     0.189 HD
HETATM   43  O1  UNL     1      20.666  27.562  82.131  1.00  0.00    -0.266 OA
BRANCH  41  44
HETATM   44  N1  UNL     1      21.665  27.915  79.696  1.00  0.00    -0.342 N 
ATOM     45  H12 UNL     1      20.942  28.482  79.254  1.00  0.00     0.176 HD
ATOM     46  H11 UNL     1      21.919  27.007  79.304  1.00  0.00     0.176 HD
ENDBRANCH  41  44
ENDBRANCH  35  40
BRANCH  37  47
HETATM   47  O8  UNL     1      20.298  29.456  84.325  1.00  0.00    -0.357 OA
ATOM     48  H8  UNL     1      19.735  28.741  84.596  1.00  0.00     0.218 HD
ENDBRANCH  37  47
BRANCH  38  49
HETATM   49  O7  UNL     1      21.545  30.282  86.574  1.00  0.00    -0.356 OA
ATOM     50  H7  UNL     1      20.866  29.819  87.051  1.00  0.00     0.218 HD
ENDBRANCH  38  49
BRANCH  39  51
HETATM   51  O6  UNL     1      24.360  29.950  86.805  1.00  0.00    -0.356 OA
ATOM     52  H6  UNL     1      25.289  29.757  86.841  1.00  0.00     0.218 HD
ENDBRANCH  39  51
ENDBRANCH   1  33
TORSDOF 15
ENDMDL
MODEL 3
REMARK VINA RESULT: -8.786067824      1.376      1.665
REMARK  15 active torsions:
REMARK  status: ('A' for Active; 'I' for Inactive)
REMARK    1  A    between atoms: N1_1  and  N2_4 
REMARK       I    between atoms: N2_4  and  C1_6 
REMARK    2  A    between atoms: C1_6  and  C2_8 
REMARK    3  A    between atoms: C4_11  and  N4_12 
REMARK    4  A    between atoms: C6_16  and  C7_17 
REMARK       I    between atoms: C7_17  and  N6_19 
REMARK    5  A    between atoms: N6_19  and  C8_21 
REMARK    6  A    between atoms: C8_21  and  O3_22 
REMARK    7  A    between atoms: C8_21  and  C9_24 
REMARK    8  A    between atoms: C9_24  and  C10_25 
REMARK    9  A    between atoms: N7_27  and  C12_28 
REMARK   10  A    between atoms: C13_30  and  C14_31 
REMARK   11  A    between atoms: C14_31  and  O4_32 
REMARK   12  A    between atoms: C16_35  and  O5_36 
REMARK   13  A    between atoms: C17_44  and  O6_45 
REMARK   14  A    between atoms: C18_47  and  O7_48 
REMARK   15  A    between atoms: C19_50  and  O8_51 
ROOT
HETATM    1  N4  UNL     1      24.691  28.997  84.079  1.00  0.00    -0.192 N 
HETATM    2  N5  UNL     1      25.174  29.914  84.894  1.00  0.00    -0.288 N 
ATOM      3  H5  UNL     1      24.610  30.619  85.369  1.00  0.00     0.188 HD
HETATM    4  C5  UNL     1      26.500  29.796  85.015  1.00  0.00     0.146 A 
HETATM    5  C6  UNL     1      26.868  28.732  84.222  1.00  0.00     0.134 A 
HETATM    6  N10 UNL     1      25.720  28.289  83.680  1.00  0.00    -0.273 N 
ATOM      7  H10 UNL     1      25.656  27.500  83.037  1.00  0.00     0.189 HD
ENDROOT
BRANCH   5   8
HETATM    8  C7  UNL     1      28.219  28.194  84.010  1.00  0.00     0.273 C 
HETATM    9  O2  UNL     1      28.641  28.008  82.846  1.00  0.00    -0.266 OA
HETATM   10  N6  UNL     1      29.075  27.873  85.094  1.00  0.00    -0.329 N 
ATOM     11  H6  UNL     1      28.746  28.018  86.049  1.00  0.00     0.165 HD
BRANCH  10  12
HETATM   12  C8  UNL     1      30.402  27.344  84.879  1.00  0.00     0.226 C 
BRANCH  12  13
HETATM   13  O3  UNL     1      30.610  26.154  85.590  1.00  0.00    -0.376 OA
ATOM     14  H3  UNL     1      30.863  25.440  85.016  1.00  0.00     0.212 HD
ENDBRANCH  12  13
BRANCH  12  15
HETATM   15  C9  UNL     1      31.472  28.366  85.193  1.00  0.00     0.113 C 
BRANCH  15  16
HETATM   16  C10 UNL     1      30.964  29.338  86.192  1.00  0.00     0.048 A 
HETATM   17  C11 UNL     1      30.814  30.680  85.952  1.00  0.00     0.139 A 
HETATM   18  N7  UNL     1      30.332  31.277  87.063  1.00  0.00    -0.270 N 
HETATM   19  N8  UNL     1      30.192  30.327  87.956  1.00  0.00    -0.240 N 
HETATM   20  N9  UNL     1      30.565  29.148  87.461  1.00  0.00    -0.289 N 
ATOM     21  H8  UNL     1      29.844  30.472  88.904  1.00  0.00     0.208 HD
ATOM     22  H9  UNL     1      30.549  28.257  87.958  1.00  0.00     0.188 HD
BRANCH  18  23
HETATM   23  C12 UNL     1      30.059  32.689  87.145  1.00  0.00     0.199 C 
HETATM   24  S1  UNL     1      28.970  32.922  88.604  1.00  0.00    -0.132 SA
HETATM   25  C13 UNL     1      29.832  34.352  89.366  1.00  0.00     0.075 C 
HETATM   26  C15 UNL     1      30.766  34.742  88.244  1.00  0.00     0.052 C 
HETATM   27  C16 UNL     1      31.275  33.487  87.595  1.00  0.00     0.154 C 
BRANCH  25  28
HETATM   28  C14 UNL     1      28.756  35.423  89.561  1.00  0.00     0.179 C 
BRANCH  28  29
HETATM   29  O4  UNL     1      29.352  36.543  90.139  1.00  0.00    -0.400 OA
ATOM     30  H4  UNL     1      30.098  36.792  89.605  1.00  0.00     0.209 HD
ENDBRANCH  28  29
ENDBRANCH  25  28
BRANCH  27  31
HETATM   31  O5  UNL     1      32.035  32.748  88.484  1.00  0.00    -0.393 OA
ATOM     32  H5  UNL     1      32.665  33.306  88.926  1.00  0.00     0.210 HD
ENDBRANCH  27  31
ENDBRANCH  18  23
ENDBRANCH  15  16
ENDBRANCH  12  15
ENDBRANCH  10  12
ENDBRANCH   5   8
BRANCH   1  33
HETATM   33  C4  UNL     1      23.311  28.875  83.758  1.00  0.00     0.136 A 
HETATM   34  C3  UNL     1      22.946  28.459  82.495  1.00  0.00     0.098 A 
HETATM   35  C2  UNL     1      21.596  28.310  82.091  1.00  0.00     0.096 A 
HETATM   36  N3  UNL     1      23.960  28.165  81.557  1.00  0.00    -0.099 NA
HETATM   37  C19 UNL     1      20.677  28.609  83.041  1.00  0.00     0.119 A 
HETATM   38  C18 UNL     1      20.993  29.035  84.336  1.00  0.00     0.136 A 
HETATM   39  C17 UNL     1      22.318  29.155  84.653  1.00  0.00     0.134 A 
BRANCH  35  40
HETATM   40  C1  UNL     1      21.363  27.865  80.736  1.00  0.00     0.274 C 
HETATM   41  N2  UNL     1      22.086  28.250  79.625  1.00  0.00    -0.272 N 
ATOM     42  H2  UNL     1      22.860  28.905  79.736  1.00  0.00     0.189 HD
HETATM   43  O1  UNL     1      20.410  27.035  80.484  1.00  0.00    -0.266 OA
BRANCH  41  44
HETATM   44  N1  UNL     1      21.775  27.752  78.321  1.00  0.00    -0.342 N 
ATOM     45  H12 UNL     1      20.966  27.137  78.220  1.00  0.00     0.176 HD
ATOM     46  H11 UNL     1      22.339  27.998  77.508  1.00  0.00     0.176 HD
ENDBRANCH  41  44
ENDBRANCH  35  40
BRANCH  37  47
HETATM   47  O8  UNL     1      19.318  28.486  82.718  1.00  0.00    -0.357 OA
ATOM     48  H8  UNL     1      18.847  27.722  83.029  1.00  0.00     0.218 HD
ENDBRANCH  37  47
BRANCH  38  49
HETATM   49  O7  UNL     1      19.963  29.306  85.209  1.00  0.00    -0.356 OA
ATOM     50  H7  UNL     1      19.722  30.180  85.492  1.00  0.00     0.218 HD
ENDBRANCH  38  49
BRANCH  39  51
HETATM   51  O6  UNL     1      22.704  29.573  85.919  1.00  0.00    -0.356 OA
ATOM     52  H6  UNL     1      22.115  29.380  86.639  1.00  0.00     0.218 HD
ENDBRANCH  39  51
ENDBRANCH   1  33
TORSDOF 15
ENDMDL
MODEL 4
REMARK VINA RESULT: -8.479322120      2.907      4.523
REMARK  15 active torsions:
REMARK  status: ('A' for Active; 'I' for Inactive)
REMARK    1  A    between atoms: N1_1  and  N2_4 
REMARK       I    between atoms: N2_4  and  C1_6 
REMARK    2  A    between atoms: C1_6  and  C2_8 
REMARK    3  A    between atoms: C4_11  and  N4_12 
REMARK    4  A    between atoms: C6_16  and  C7_17 
REMARK       I    between atoms: C7_17  and  N6_19 
REMARK    5  A    between atoms: N6_19  and  C8_21 
REMARK    6  A    between atoms: C8_21  and  O3_22 
REMARK    7  A    between atoms: C8_21  and  C9_24 
REMARK    8  A    between atoms: C9_24  and  C10_25 
REMARK    9  A    between atoms: N7_27  and  C12_28 
REMARK   10  A    between atoms: C13_30  and  C14_31 
REMARK   11  A    between atoms: C14_31  and  O4_32 
REMARK   12  A    between atoms: C16_35  and  O5_36 
REMARK   13  A    between atoms: C17_44  and  O6_45 
REMARK   14  A    between atoms: C18_47  and  O7_48 
REMARK   15  A    between atoms: C19_50  and  O8_51 
ROOT
HETATM    1  N4  UNL     1      26.154  28.149  82.879  1.00  0.00    -0.192 N 
HETATM    2  N5  UNL     1      26.514  28.655  81.717  1.00  0.00    -0.288 N 
ATOM      3  H5  UNL     1      26.033  29.423  81.247  1.00  0.00     0.188 HD
HETATM    4  C5  UNL     1      27.593  28.029  81.235  1.00  0.00     0.146 A 
HETATM    5  C6  UNL     1      27.928  27.067  82.163  1.00  0.00     0.134 A 
HETATM    6  N10 UNL     1      27.012  27.193  83.139  1.00  0.00    -0.273 N 
ATOM      7  H10 UNL     1      26.989  26.616  83.980  1.00  0.00     0.189 HD
ENDROOT
BRANCH   5   8
HETATM    8  C7  UNL     1      29.041  26.110  82.102  1.00  0.00     0.273 C 
HETATM    9  O2  UNL     1      29.497  25.753  80.992  1.00  0.00    -0.266 OA
HETATM   10  N6  UNL     1      29.625  25.567  83.274  1.00  0.00    -0.329 N 
ATOM     11  H6  UNL     1      29.265  25.847  84.187  1.00  0.00     0.165 HD
BRANCH  10  12
HETATM   12  C8  UNL     1      30.719  24.625  83.207  1.00  0.00     0.226 C 
BRANCH  12  13
HETATM   13  O3  UNL     1      30.459  23.471  83.958  1.00  0.00    -0.376 OA
ATOM     14  H3  UNL     1      29.656  23.044  83.683  1.00  0.00     0.212 HD
ENDBRANCH  12  13
BRANCH  12  15
HETATM   15  C9  UNL     1      32.032  25.260  83.611  1.00  0.00     0.113 C 
BRANCH  15  16
HETATM   16  C10 UNL     1      31.910  25.855  84.964  1.00  0.00     0.048 A 
HETATM   17  C11 UNL     1      32.140  27.177  85.247  1.00  0.00     0.139 A 
HETATM   18  N7  UNL     1      31.942  27.390  86.565  1.00  0.00    -0.270 N 
HETATM   19  N8  UNL     1      31.601  26.230  87.074  1.00  0.00    -0.240 N 
HETATM   20  N9  UNL     1      31.573  25.286  86.134  1.00  0.00    -0.289 N 
ATOM     21  H8  UNL     1      31.386  26.071  88.058  1.00  0.00     0.208 HD
ATOM     22  H9  UNL     1      31.337  24.304  86.277  1.00  0.00     0.188 HD
BRANCH  18  23
HETATM   23  C12 UNL     1      32.101  28.678  87.190  1.00  0.00     0.199 C 
HETATM   24  S1  UNL     1      31.743  29.929  85.895  1.00  0.00    -0.132 SA
HETATM   25  C13 UNL     1      30.641  31.026  86.869  1.00  0.00     0.075 C 
HETATM   26  C15 UNL     1      30.867  30.482  88.260  1.00  0.00     0.052 C 
HETATM   27  C16 UNL     1      30.978  28.987  88.170  1.00  0.00     0.154 C 
BRANCH  25  28
HETATM   28  C14 UNL     1      31.239  32.428  86.740  1.00  0.00     0.179 C 
BRANCH  28  29
HETATM   29  O4  UNL     1      31.820  32.771  87.960  1.00  0.00    -0.400 OA
ATOM     30  H4  UNL     1      32.585  32.223  88.091  1.00  0.00     0.209 HD
ENDBRANCH  28  29
ENDBRANCH  25  28
BRANCH  27  31
HETATM   31  O5  UNL     1      29.789  28.431  87.733  1.00  0.00    -0.393 OA
ATOM     32  H5  UNL     1      29.231  28.218  88.473  1.00  0.00     0.210 HD
ENDBRANCH  27  31
ENDBRANCH  18  23
ENDBRANCH  15  16
ENDBRANCH  12  15
ENDBRANCH  10  12
ENDBRANCH   5   8
BRANCH   1  33
HETATM   33  C4  UNL     1      25.040  28.614  83.631  1.00  0.00     0.136 A 
HETATM   34  C3  UNL     1      23.793  28.646  83.044  1.00  0.00     0.098 A 
HETATM   35  C2  UNL     1      22.631  29.094  83.720  1.00  0.00     0.096 A 
HETATM   36  N3  UNL     1      23.662  28.213  81.706  1.00  0.00    -0.099 NA
HETATM   37  C19 UNL     1      22.832  29.494  84.999  1.00  0.00     0.119 A 
HETATM   38  C18 UNL     1      24.074  29.483  85.643  1.00  0.00     0.136 A 
HETATM   39  C17 UNL     1      25.151  29.037  84.926  1.00  0.00     0.134 A 
BRANCH  35  40
HETATM   40  C1  UNL     1      21.392  29.072  82.978  1.00  0.00     0.274 C 
HETATM   41  N2  UNL     1      20.847  27.969  82.350  1.00  0.00    -0.272 N 
ATOM     42  H2  UNL     1      21.338  27.076  82.395  1.00  0.00     0.189 HD
HETATM   43  O1  UNL     1      20.691  30.147  82.859  1.00  0.00    -0.266 OA
BRANCH  41  44
HETATM   44  N1  UNL     1      19.611  28.051  81.637  1.00  0.00    -0.342 N 
ATOM     45  H12 UNL     1      18.942  28.771  81.912  1.00  0.00     0.176 HD
ATOM     46  H11 UNL     1      19.393  27.412  80.873  1.00  0.00     0.176 HD
ENDBRANCH  41  44
ENDBRANCH  35  40
BRANCH  37  47
HETATM   47  O8  UNL     1      21.730  29.951  85.736  1.00  0.00    -0.357 OA
ATOM     48  H8  UNL     1      21.889  30.510  86.487  1.00  0.00     0.218 HD
ENDBRANCH  37  47
BRANCH  38  49
HETATM   49  O7  UNL     1      24.143  29.916  86.949  1.00  0.00    -0.356 OA
ATOM     50  H7  UNL     1      23.508  29.690  87.618  1.00  0.00     0.218 HD
ENDBRANCH  38  49
BRANCH  39  51
HETATM   51  O6  UNL     1      26.412  28.997  85.501  1.00  0.00    -0.356 OA
ATOM     52  H6  UNL     1      26.458  28.883  86.443  1.00  0.00     0.218 HD
ENDBRANCH  39  51
ENDBRANCH   1  33
TORSDOF 15
ENDMDL
MODEL 5
REMARK VINA RESULT: -8.429176750      4.602      5.716
REMARK  15 active torsions:
REMARK  status: ('A' for Active; 'I' for Inactive)
REMARK    1  A    between atoms: N1_1  and  N2_4 
REMARK       I    between atoms: N2_4  and  C1_6 
REMARK    2  A    between atoms: C1_6  and  C2_8 
REMARK    3  A    between atoms: C4_11  and  N4_12 
REMARK    4  A    between atoms: C6_16  and  C7_17 
REMARK       I    between atoms: C7_17  and  N6_19 
REMARK    5  A    between atoms: N6_19  and  C8_21 
REMARK    6  A    between atoms: C8_21  and  O3_22 
REMARK    7  A    between atoms: C8_21  and  C9_24 
REMARK    8  A    between atoms: C9_24  and  C10_25 
REMARK    9  A    between atoms: N7_27  and  C12_28 
REMARK   10  A    between atoms: C13_30  and  C14_31 
REMARK   11  A    between atoms: C14_31  and  O4_32 
REMARK   12  A    between atoms: C16_35  and  O5_36 
REMARK   13  A    between atoms: C17_44  and  O6_45 
REMARK   14  A    between atoms: C18_47  and  O7_48 
REMARK   15  A    between atoms: C19_50  and  O8_51 
ROOT
HETATM    1  N4  UNL     1      26.148  29.219  84.587  1.00  0.00    -0.192 N 
HETATM    2  N5  UNL     1      26.849  28.118  84.768  1.00  0.00    -0.288 N 
ATOM      3  H5  UNL     1      26.444  27.197  84.942  1.00  0.00     0.188 HD
HETATM    4  C5  UNL     1      28.161  28.367  84.694  1.00  0.00     0.146 A 
HETATM    5  C6  UNL     1      28.284  29.717  84.448  1.00  0.00     0.134 A 
HETATM    6  N10 UNL     1      27.022  30.177  84.395  1.00  0.00    -0.273 N 
ATOM      7  H10 UNL     1      26.775  31.151  84.225  1.00  0.00     0.189 HD
ENDROOT
BRANCH   5   8
HETATM    8  C7  UNL     1      29.523  30.489  84.281  1.00  0.00     0.273 C 
HETATM    9  O2  UNL     1      29.848  30.910  83.147  1.00  0.00    -0.266 OA
HETATM   10  N6  UNL     1      30.377  30.780  85.375  1.00  0.00    -0.329 N 
ATOM     11  H6  UNL     1      30.126  30.444  86.306  1.00  0.00     0.165 HD
BRANCH  10  12
HETATM   12  C8  UNL     1      31.594  31.540  85.204  1.00  0.00     0.226 C 
BRANCH  12  13
HETATM   13  O3  UNL     1      32.734  30.748  85.400  1.00  0.00    -0.376 OA
ATOM     14  H3  UNL     1      33.095  30.860  86.271  1.00  0.00     0.212 HD
ENDBRANCH  12  13
BRANCH  12  15
HETATM   15  C9  UNL     1      31.618  32.768  86.087  1.00  0.00     0.113 C 
BRANCH  15  16
HETATM   16  C10 UNL     1      32.545  33.778  85.522  1.00  0.00     0.048 A 
HETATM   17  C11 UNL     1      32.986  33.776  84.223  1.00  0.00     0.139 A 
HETATM   18  N7  UNL     1      33.813  34.826  84.033  1.00  0.00    -0.270 N 
HETATM   19  N8  UNL     1      33.876  35.452  85.185  1.00  0.00    -0.240 N 
HETATM   20  N9  UNL     1      33.123  34.845  86.100  1.00  0.00    -0.289 N 
ATOM     21  H8  UNL     1      34.429  36.293  85.356  1.00  0.00     0.208 HD
ATOM     22  H9  UNL     1      33.005  35.138  87.070  1.00  0.00     0.188 HD
BRANCH  18  23
HETATM   23  C12 UNL     1      34.450  35.113  82.774  1.00  0.00     0.199 C 
HETATM   24  S1  UNL     1      35.573  36.534  83.073  1.00  0.00    -0.132 SA
HETATM   25  C13 UNL     1      37.063  35.893  82.214  1.00  0.00     0.075 C 
HETATM   26  C15 UNL     1      36.474  34.708  81.485  1.00  0.00     0.052 C 
HETATM   27  C16 UNL     1      35.469  34.050  82.387  1.00  0.00     0.154 C 
BRANCH  25  28
HETATM   28  C14 UNL     1      37.466  36.985  81.221  1.00  0.00     0.179 C 
BRANCH  28  29
HETATM   29  O4  UNL     1      38.818  37.269  81.406  1.00  0.00    -0.400 OA
ATOM     30  H4  UNL     1      39.001  38.117  81.017  1.00  0.00     0.209 HD
ENDBRANCH  28  29
ENDBRANCH  25  28
BRANCH  27  31
HETATM   31  O5  UNL     1      36.083  33.536  83.515  1.00  0.00    -0.393 OA
ATOM     32  H5  UNL     1      35.890  34.076  84.273  1.00  0.00     0.210 HD
ENDBRANCH  27  31
ENDBRANCH  18  23
ENDBRANCH  15  16
ENDBRANCH  12  15
ENDBRANCH  10  12
ENDBRANCH   5   8
BRANCH   1  33
HETATM   33  C4  UNL     1      24.727  29.263  84.611  1.00  0.00     0.136 A 
HETATM   34  C3  UNL     1      24.018  28.789  83.528  1.00  0.00     0.098 A 
HETATM   35  C2  UNL     1      22.602  28.795  83.469  1.00  0.00     0.096 A 
HETATM   36  N3  UNL     1      24.730  28.273  82.424  1.00  0.00    -0.099 NA
HETATM   37  C19 UNL     1      21.985  29.304  84.562  1.00  0.00     0.119 A 
HETATM   38  C18 UNL     1      22.655  29.798  85.687  1.00  0.00     0.136 A 
HETATM   39  C17 UNL     1      24.023  29.759  85.672  1.00  0.00     0.134 A 
BRANCH  35  40
HETATM   40  C1  UNL     1      21.994  28.266  82.269  1.00  0.00     0.274 C 
HETATM   41  N2  UNL     1      22.478  28.420  80.985  1.00  0.00    -0.272 N 
ATOM     42  H2  UNL     1      23.339  28.946  80.836  1.00  0.00     0.189 HD
HETATM   43  O1  UNL     1      20.904  27.584  82.344  1.00  0.00    -0.266 OA
BRANCH  41  44
HETATM   44  N1  UNL     1      21.800  27.856  79.859  1.00  0.00    -0.342 N 
ATOM     45  H12 UNL     1      21.762  28.400  78.997  1.00  0.00     0.176 HD
ATOM     46  H11 UNL     1      21.362  26.936  79.907  1.00  0.00     0.176 HD
ENDBRANCH  41  44
ENDBRANCH  35  40
BRANCH  37  47
HETATM   47  O8  UNL     1      20.584  29.344  84.580  1.00  0.00    -0.357 OA
ATOM     48  H8  UNL     1      20.133  29.736  83.841  1.00  0.00     0.218 HD
ENDBRANCH  37  47
BRANCH  38  49
HETATM   49  O7  UNL     1      21.909  30.288  86.735  1.00  0.00    -0.356 OA
ATOM     50  H7  UNL     1      22.096  31.104  87.186  1.00  0.00     0.218 HD
ENDBRANCH  38  49
BRANCH  39  51
HETATM   51  O6  UNL     1      24.752  30.231  86.753  1.00  0.00    -0.356 OA
ATOM     52  H6  UNL     1      25.694  30.102  86.732  1.00  0.00     0.218 HD
ENDBRANCH  39  51
ENDBRANCH   1  33
TORSDOF 15
ENDMDL
