MODEL 1
REMARK VINA RESULT: -8.684943132      0.000      0.000
REMARK  7 active torsions:
REMARK  status: ('A' for Active; 'I' for Inactive)
REMARK    1  A    between atoms: C2_2  and  C4_5 
REMARK    2  A    between atoms: C4_5  and  C5_6 
REMARK    3  A    between atoms: N2_11  and  C9_12 
REMARK    4  A    between atoms: C9_12  and  C10_13 
REMARK    5  A    between atoms: C10_13  and  C11_14 
REMARK    6  A    between atoms: C11_14  and  C12_15 
REMARK    7  A    between atoms: C18_25  and  O2_27 
ROOT
HETATM    1  C1  UNL     1     -28.336  21.130   2.837  1.00  0.00     0.025 C 
HETATM    2  C2  UNL     1     -28.695  22.570   3.136  1.00  0.00     0.090 C 
HETATM    3  C3  UNL     1     -29.548  22.583   4.333  1.00  0.00     0.063 C 
HETATM    4  N1  UNL     1     -30.236  22.595   5.265  1.00  0.00    -0.197 NA
ENDROOT
BRANCH   2   5
HETATM    5  C4  UNL     1     -27.432  23.296   3.471  1.00  0.00     0.044 C 
BRANCH   5   6
HETATM    6  C5  UNL     1     -26.430  22.424   4.200  1.00  0.00     0.088 C 
HETATM    7  C6  UNL     1     -26.124  22.966   5.578  1.00  0.00     0.034 C 
HETATM    8  C7  UNL     1     -25.408  24.272   5.216  1.00  0.00     0.105 C 
HETATM    9  C8  UNL     1     -24.590  23.846   4.066  1.00  0.00     0.220 C 
HETATM   10  O1  UNL     1     -23.598  24.431   3.607  1.00  0.00    -0.273 OA
HETATM   11  N2  UNL     1     -25.125  22.626   3.543  1.00  0.00    -0.347 N 
BRANCH  11  12
HETATM   12  C9  UNL     1     -24.620  21.724   2.582  1.00  0.00     0.126 C 
BRANCH  12  13
HETATM   13  C10 UNL     1     -23.552  20.783   2.948  1.00  0.00     0.021 C 
BRANCH  13  14
HETATM   14  C11 UNL     1     -23.740  20.164   4.309  1.00  0.00     0.014 C 
BRANCH  14  15
HETATM   15  C12 UNL     1     -22.461  19.541   4.826  1.00  0.00     0.056 C 
HETATM   16  C13 UNL     1     -21.958  18.520   3.852  1.00  0.00    -0.010 A 
HETATM   17  C14 UNL     1     -21.099  18.611   2.769  1.00  0.00     0.116 A 
HETATM   18  C15 UNL     1     -22.340  17.202   3.938  1.00  0.00     0.034 A 
HETATM   19  N3  UNL     1     -21.004  17.374   2.263  1.00  0.00    -0.311 N 
HETATM   20  N4  UNL     1     -21.736  16.539   2.949  1.00  0.00    -0.305 N 
ATOM     21  H3  UNL     1     -20.437  17.119   1.453  1.00  0.00     0.186 HD
ATOM     22  H4  UNL     1     -21.831  15.541   2.761  1.00  0.00     0.186 HD
HETATM   23  C16 UNL     1     -23.270  16.831   5.033  1.00  0.00     0.062 C 
HETATM   24  C17 UNL     1     -22.776  17.497   6.281  1.00  0.00     0.044 C 
HETATM   25  C18 UNL     1     -22.606  18.974   6.200  1.00  0.00     0.062 C 
HETATM   26  C19 UNL     1     -23.746  19.616   6.976  1.00  0.00     0.046 C 
BRANCH  25  27
HETATM   27  O2  UNL     1     -21.438  19.289   6.938  1.00  0.00    -0.390 OA
ATOM     28  H2  UNL     1     -21.542  18.951   7.820  1.00  0.00     0.210 HD
ENDBRANCH  25  27
ENDBRANCH  14  15
ENDBRANCH  13  14
ENDBRANCH  12  13
ENDBRANCH  11  12
ENDBRANCH   5   6
ENDBRANCH   2   5
TORSDOF 7
ENDMDL
MODEL 2
REMARK VINA RESULT: -8.526870046      2.057      2.758
REMARK  7 active torsions:
REMARK  status: ('A' for Active; 'I' for Inactive)
REMARK    1  A    between atoms: C2_2  and  C4_5 
REMARK    2  A    between atoms: C4_5  and  C5_6 
REMARK    3  A    between atoms: N2_11  and  C9_12 
REMARK    4  A    between atoms: C9_12  and  C10_13 
REMARK    5  A    between atoms: C10_13  and  C11_14 
REMARK    6  A    between atoms: C11_14  and  C12_15 
REMARK    7  A    between atoms: C18_25  and  O2_27 
ROOT
HETATM    1  C1  UNL     1     -28.853  22.960  -0.603  1.00  0.00     0.025 C 
HETATM    2  C2  UNL     1     -27.853  21.883  -0.238  1.00  0.00     0.090 C 
HETATM    3  C3  UNL     1     -27.128  21.508  -1.461  1.00  0.00     0.063 C 
HETATM    4  N1  UNL     1     -26.570  21.195  -2.427  1.00  0.00    -0.197 NA
ENDROOT
BRANCH   2   5
HETATM    5  C4  UNL     1     -26.863  22.480   0.710  1.00  0.00     0.044 C 
BRANCH   5   6
HETATM    6  C5  UNL     1     -26.360  21.484   1.736  1.00  0.00     0.088 C 
HETATM    7  C6  UNL     1     -27.380  21.251   2.827  1.00  0.00     0.034 C 
HETATM    8  C7  UNL     1     -27.393  22.628   3.501  1.00  0.00     0.105 C 
HETATM    9  C8  UNL     1     -25.960  22.976   3.480  1.00  0.00     0.220 C 
HETATM   10  O1  UNL     1     -25.397  23.831   4.178  1.00  0.00    -0.273 OA
HETATM   11  N2  UNL     1     -25.300  22.160   2.508  1.00  0.00    -0.347 N 
BRANCH  11  12
HETATM   12  C9  UNL     1     -23.930  21.970   2.227  1.00  0.00     0.126 C 
BRANCH  12  13
HETATM   13  C10 UNL     1     -23.270  20.713   2.608  1.00  0.00     0.021 C 
BRANCH  13  14
HETATM   14  C11 UNL     1     -23.571  20.283   4.021  1.00  0.00     0.014 C 
BRANCH  14  15
HETATM   15  C12 UNL     1     -22.392  19.581   4.659  1.00  0.00     0.056 C 
HETATM   16  C13 UNL     1     -21.878  18.510   3.746  1.00  0.00    -0.010 A 
HETATM   17  C14 UNL     1     -20.919  18.523   2.745  1.00  0.00     0.116 A 
HETATM   18  C15 UNL     1     -22.359  17.225   3.810  1.00  0.00     0.034 A 
HETATM   19  N3  UNL     1     -20.868  17.273   2.263  1.00  0.00    -0.311 N 
HETATM   20  N4  UNL     1     -21.717  16.504   2.889  1.00  0.00    -0.305 N 
ATOM     21  H3  UNL     1     -20.250  16.966   1.512  1.00  0.00     0.186 HD
ATOM     22  H4  UNL     1     -21.866  15.512   2.703  1.00  0.00     0.186 HD
HETATM   23  C16 UNL     1     -23.408  16.938   4.820  1.00  0.00     0.062 C 
HETATM   24  C17 UNL     1     -22.983  17.590   6.101  1.00  0.00     0.044 C 
HETATM   25  C18 UNL     1     -22.701  19.049   6.020  1.00  0.00     0.062 C 
HETATM   26  C19 UNL     1     -23.858  19.783   6.682  1.00  0.00     0.046 C 
BRANCH  25  27
HETATM   27  O2  UNL     1     -21.585  19.293   6.858  1.00  0.00    -0.390 OA
ATOM     28  H2  UNL     1     -21.857  19.173   7.761  1.00  0.00     0.210 HD
ENDBRANCH  25  27
ENDBRANCH  14  15
ENDBRANCH  13  14
ENDBRANCH  12  13
ENDBRANCH  11  12
ENDBRANCH   5   6
ENDBRANCH   2   5
TORSDOF 7
ENDMDL
MODEL 3
REMARK VINA RESULT: -8.473791759      2.115      7.154
REMARK  7 active torsions:
REMARK  status: ('A' for Active; 'I' for Inactive)
REMARK    1  A    between atoms: C2_2  and  C4_5 
REMARK    2  A    between atoms: C4_5  and  C5_6 
REMARK    3  A    between atoms: N2_11  and  C9_12 
REMARK    4  A    between atoms: C9_12  and  C10_13 
REMARK    5  A    between atoms: C10_13  and  C11_14 
REMARK    6  A    between atoms: C11_14  and  C12_15 
REMARK    7  A    between atoms: C18_25  and  O2_27 
ROOT
HETATM    1  C1  UNL     1     -20.757  18.221   7.384  1.00  0.00     0.025 C 
HETATM    2  C2  UNL     1     -21.995  18.325   6.519  1.00  0.00     0.090 C 
HETATM    3  C3  UNL     1     -22.933  19.241   7.182  1.00  0.00     0.063 C 
HETATM    4  N1  UNL     1     -23.683  19.947   7.713  1.00  0.00    -0.197 NA
ENDROOT
BRANCH   2   5
HETATM    5  C4  UNL     1     -21.594  18.947   5.220  1.00  0.00     0.044 C 
BRANCH   5   6
HETATM    6  C5  UNL     1     -22.546  18.610   4.091  1.00  0.00     0.088 C 
HETATM    7  C6  UNL     1     -21.924  17.637   3.115  1.00  0.00     0.034 C 
HETATM    8  C7  UNL     1     -20.808  18.505   2.522  1.00  0.00     0.105 C 
HETATM    9  C8  UNL     1     -21.487  19.807   2.395  1.00  0.00     0.220 C 
HETATM   10  O1  UNL     1     -21.135  20.758   1.683  1.00  0.00    -0.273 OA
HETATM   11  N2  UNL     1     -22.643  19.810   3.237  1.00  0.00    -0.347 N 
BRANCH  11  12
HETATM   12  C9  UNL     1     -23.715  20.723   3.345  1.00  0.00     0.126 C 
BRANCH  12  13
HETATM   13  C10 UNL     1     -24.851  20.421   4.227  1.00  0.00     0.021 C 
BRANCH  13  14
HETATM   14  C11 UNL     1     -26.181  20.842   3.656  1.00  0.00     0.014 C 
BRANCH  14  15
HETATM   15  C12 UNL     1     -26.359  22.344   3.691  1.00  0.00     0.056 C 
HETATM   16  C13 UNL     1     -27.015  22.752   4.976  1.00  0.00    -0.010 A 
HETATM   17  C14 UNL     1     -26.500  23.104   6.212  1.00  0.00     0.116 A 
HETATM   18  C15 UNL     1     -28.383  22.838   5.083  1.00  0.00     0.034 A 
HETATM   19  N3  UNL     1     -27.555  23.380   6.991  1.00  0.00    -0.311 N 
HETATM   20  N4  UNL     1     -28.669  23.223   6.328  1.00  0.00    -0.305 N 
ATOM     21  H3  UNL     1     -27.497  23.672   7.967  1.00  0.00     0.186 HD
ATOM     22  H4  UNL     1     -29.607  23.370   6.702  1.00  0.00     0.186 HD
HETATM   23  C16 UNL     1     -29.184  22.511   3.877  1.00  0.00     0.062 C 
HETATM   24  C17 UNL     1     -28.531  23.190   2.712  1.00  0.00     0.044 C 
HETATM   25  C18 UNL     1     -27.092  22.870   2.502  1.00  0.00     0.062 C 
HETATM   26  C19 UNL     1     -26.993  21.942   1.301  1.00  0.00     0.046 C 
BRANCH  25  27
HETATM   27  O2  UNL     1     -26.466  24.072   2.088  1.00  0.00    -0.390 OA
ATOM     28  H2  UNL     1     -25.704  23.848   1.566  1.00  0.00     0.210 HD
ENDBRANCH  25  27
ENDBRANCH  14  15
ENDBRANCH  13  14
ENDBRANCH  12  13
ENDBRANCH  11  12
ENDBRANCH   5   6
ENDBRANCH   2   5
TORSDOF 7
ENDMDL
MODEL 4
REMARK VINA RESULT: -8.405304931      1.624      2.311
REMARK  7 active torsions:
REMARK  status: ('A' for Active; 'I' for Inactive)
REMARK    1  A    between atoms: C2_2  and  C4_5 
REMARK    2  A    between atoms: C4_5  and  C5_6 
REMARK    3  A    between atoms: N2_11  and  C9_12 
REMARK    4  A    between atoms: C9_12  and  C10_13 
REMARK    5  A    between atoms: C10_13  and  C11_14 
REMARK    6  A    between atoms: C11_14  and  C12_15 
REMARK    7  A    between atoms: C18_25  and  O2_27 
ROOT
HETATM    1  C1  UNL     1     -25.391  22.969   6.180  1.00  0.00     0.025 C 
HETATM    2  C2  UNL     1     -26.845  22.974   5.759  1.00  0.00     0.090 C 
HETATM    3  C3  UNL     1     -27.321  24.365   5.796  1.00  0.00     0.063 C 
HETATM    4  N1  UNL     1     -27.704  25.457   5.845  1.00  0.00    -0.197 NA
ENDROOT
BRANCH   2   5
HETATM    5  C4  UNL     1     -26.913  22.510   4.340  1.00  0.00     0.044 C 
BRANCH   5   6
HETATM    6  C5  UNL     1     -26.134  23.402   3.394  1.00  0.00     0.088 C 
HETATM    7  C6  UNL     1     -27.039  24.037   2.362  1.00  0.00     0.034 C 
HETATM    8  C7  UNL     1     -27.472  22.801   1.566  1.00  0.00     0.105 C 
HETATM    9  C8  UNL     1     -26.213  22.036   1.508  1.00  0.00     0.220 C 
HETATM   10  O1  UNL     1     -25.937  21.123   0.716  1.00  0.00    -0.273 OA
HETATM   11  N2  UNL     1     -25.333  22.516   2.529  1.00  0.00    -0.347 N 
BRANCH  11  12
HETATM   12  C9  UNL     1     -23.968  22.256   2.780  1.00  0.00     0.126 C 
BRANCH  12  13
HETATM   13  C10 UNL     1     -23.485  20.868   2.843  1.00  0.00     0.021 C 
BRANCH  13  14
HETATM   14  C11 UNL     1     -23.745  20.204   4.171  1.00  0.00     0.014 C 
BRANCH  14  15
HETATM   15  C12 UNL     1     -22.493  19.575   4.741  1.00  0.00     0.056 C 
HETATM   16  C13 UNL     1     -21.965  18.538   3.796  1.00  0.00    -0.010 A 
HETATM   17  C14 UNL     1     -21.066  18.609   2.745  1.00  0.00     0.116 A 
HETATM   18  C15 UNL     1     -22.364  17.225   3.882  1.00  0.00     0.034 A 
HETATM   19  N3  UNL     1     -20.965  17.366   2.255  1.00  0.00    -0.311 N 
HETATM   20  N4  UNL     1     -21.731  16.546   2.923  1.00  0.00    -0.305 N 
ATOM     21  H3  UNL     1     -20.372  17.097   1.470  1.00  0.00     0.186 HD
ATOM     22  H4  UNL     1     -21.829  15.547   2.742  1.00  0.00     0.186 HD
HETATM   23  C16 UNL     1     -23.336  16.875   4.946  1.00  0.00     0.062 C 
HETATM   24  C17 UNL     1     -22.882  17.549   6.204  1.00  0.00     0.044 C 
HETATM   25  C18 UNL     1     -22.694  19.023   6.114  1.00  0.00     0.062 C 
HETATM   26  C19 UNL     1     -23.854  19.685   6.842  1.00  0.00     0.046 C 
BRANCH  25  27
HETATM   27  O2  UNL     1     -21.550  19.334   6.891  1.00  0.00    -0.390 OA
ATOM     28  H2  UNL     1     -21.792  19.292   7.809  1.00  0.00     0.210 HD
ENDBRANCH  25  27
ENDBRANCH  14  15
ENDBRANCH  13  14
ENDBRANCH  12  13
ENDBRANCH  11  12
ENDBRANCH   5   6
ENDBRANCH   2   5
TORSDOF 7
ENDMDL
MODEL 5
REMARK VINA RESULT: -8.375037625      2.147      2.861
REMARK  7 active torsions:
REMARK  status: ('A' for Active; 'I' for Inactive)
REMARK    1  A    between atoms: C2_2  and  C4_5 
REMARK    2  A    between atoms: C4_5  and  C5_6 
REMARK    3  A    between atoms: N2_11  and  C9_12 
REMARK    4  A    between atoms: C9_12  and  C10_13 
REMARK    5  A    between atoms: C10_13  and  C11_14 
REMARK    6  A    between atoms: C11_14  and  C12_15 
REMARK    7  A    between atoms: C18_25  and  O2_27 
ROOT
HETATM    1  C1  UNL     1     -26.198  22.152   3.839  1.00  0.00     0.025 C 
HETATM    2  C2  UNL     1     -26.862  21.161   2.906  1.00  0.00     0.090 C 
HETATM    3  C3  UNL     1     -28.304  21.169   3.192  1.00  0.00     0.063 C 
HETATM    4  N1  UNL     1     -29.438  21.159   3.429  1.00  0.00    -0.197 NA
ENDROOT
BRANCH   2   5
HETATM    5  C4  UNL     1     -26.674  21.654   1.508  1.00  0.00     0.044 C 
BRANCH   5   6
HETATM    6  C5  UNL     1     -25.310  22.273   1.282  1.00  0.00     0.088 C 
HETATM    7  C6  UNL     1     -25.381  23.427   0.306  1.00  0.00     0.034 C 
HETATM    8  C7  UNL     1     -25.760  22.686  -0.981  1.00  0.00     0.105 C 
HETATM    9  C8  UNL     1     -24.932  21.471  -0.873  1.00  0.00     0.220 C 
HETATM   10  O1  UNL     1     -24.626  20.700  -1.794  1.00  0.00    -0.273 OA
HETATM   11  N2  UNL     1     -24.525  21.308   0.489  1.00  0.00    -0.347 N 
BRANCH  11  12
HETATM   12  C9  UNL     1     -23.594  20.429   1.084  1.00  0.00     0.126 C 
BRANCH  12  13
HETATM   13  C10 UNL     1     -22.851  20.847   2.282  1.00  0.00     0.021 C 
BRANCH  13  14
HETATM   14  C11 UNL     1     -23.400  20.266   3.559  1.00  0.00     0.014 C 
BRANCH  14  15
HETATM   15  C12 UNL     1     -22.332  19.551   4.358  1.00  0.00     0.056 C 
HETATM   16  C13 UNL     1     -21.791  18.397   3.570  1.00  0.00    -0.010 A 
HETATM   17  C14 UNL     1     -20.739  18.294   2.674  1.00  0.00     0.116 A 
HETATM   18  C15 UNL     1     -22.348  17.144   3.664  1.00  0.00     0.034 A 
HETATM   19  N3  UNL     1     -20.711  17.013   2.278  1.00  0.00    -0.311 N 
HETATM   20  N4  UNL     1     -21.660  16.331   2.860  1.00  0.00    -0.305 N 
ATOM     21  H3  UNL     1     -20.040  16.626   1.614  1.00  0.00     0.186 HD
ATOM     22  H4  UNL     1     -21.845  15.338   2.722  1.00  0.00     0.186 HD
HETATM   23  C16 UNL     1     -23.506  16.979   4.577  1.00  0.00     0.062 C 
HETATM   24  C17 UNL     1     -23.174  17.693   5.852  1.00  0.00     0.044 C 
HETATM   25  C18 UNL     1     -22.804  19.128   5.710  1.00  0.00     0.062 C 
HETATM   26  C19 UNL     1     -23.977  19.962   6.203  1.00  0.00     0.046 C 
BRANCH  25  27
HETATM   27  O2  UNL     1     -21.764  19.372   6.641  1.00  0.00    -0.390 OA
ATOM     28  H2  UNL     1     -22.065  19.104   7.502  1.00  0.00     0.210 HD
ENDBRANCH  25  27
ENDBRANCH  14  15
ENDBRANCH  13  14
ENDBRANCH  12  13
ENDBRANCH  11  12
ENDBRANCH   5   6
ENDBRANCH   2   5
TORSDOF 7
ENDMDL
