MODEL 1
REMARK VINA RESULT: -6.652349989      0.000      0.000
REMARK  4 active torsions:
REMARK  status: ('A' for Active; 'I' for Inactive)
REMARK    1  A    between atoms: O1_2  and  C2_3 
REMARK    2  A    between atoms: C6_8  and  O3_9 
REMARK    3  A    between atoms: N1_11  and  C7_12 
REMARK    4  A    between atoms: C10_15  and  O4_16 
ROOT
HETATM    1  C2  UNL     1     -22.630  18.826   3.447  1.00  0.00     0.269 C 
HETATM    2  O2  UNL     1     -23.809  18.118   3.676  1.00  0.00    -0.350 OA
HETATM    3  C3  UNL     1     -24.575  18.843   4.554  1.00  0.00     0.171 C 
HETATM    4  C4  UNL     1     -24.958  20.128   3.898  1.00  0.00     0.034 A 
HETATM    5  C5  UNL     1     -23.805  20.880   3.762  1.00  0.00     0.016 A 
HETATM    6  C6  UNL     1     -24.147  22.084   3.153  1.00  0.00     0.152 A 
HETATM    7  N1  UNL     1     -25.476  22.060   2.925  1.00  0.00    -0.303 N 
HETATM    8  C10 UNL     1     -25.989  20.896   3.364  1.00  0.00     0.154 A 
HETATM    9  C11 UNL     1     -22.727  20.053   4.328  1.00  0.00     0.089 C 
HETATM   10  C12 UNL     1     -23.485  19.397   5.499  1.00  0.00    -0.005 C 
HETATM   11  C13 UNL     1     -24.035  20.410   6.441  1.00  0.00     0.018 C 
HETATM   12  C14 UNL     1     -22.689  18.311   6.126  1.00  0.00     0.018 C 
ENDROOT
BRANCH   7  13
HETATM   13  C7  UNL     1     -26.223  23.116   2.311  1.00  0.00     0.086 C 
HETATM   14  C8  UNL     1     -27.258  23.711   3.263  1.00  0.00     0.032 C 
HETATM   15  C9  UNL     1     -26.973  22.684   1.076  1.00  0.00     0.032 C 
ENDBRANCH   7  13
BRANCH   6  16
HETATM   16  O3  UNL     1     -23.234  23.097   2.856  1.00  0.00    -0.345 OA
ATOM     17  H3  UNL     1     -23.181  23.536   2.015  1.00  0.00     0.219 HD
ENDBRANCH   6  16
BRANCH   8  18
HETATM   18  O4  UNL     1     -27.321  20.472   3.318  1.00  0.00    -0.345 OA
ATOM     19  H4  UNL     1     -27.581  19.560   3.363  1.00  0.00     0.219 HD
ENDBRANCH   8  18
BRANCH   1  20
HETATM   20  O1  UNL     1     -22.586  19.138   2.106  1.00  0.00    -0.365 OA
HETATM   21  C1  UNL     1     -21.253  19.194   1.713  1.00  0.00     0.204 C 
ENDBRANCH   1  20
TORSDOF 4
ENDMDL
MODEL 2
REMARK VINA RESULT: -6.647395247      4.197      6.349
REMARK  4 active torsions:
REMARK  status: ('A' for Active; 'I' for Inactive)
REMARK    1  A    between atoms: O1_2  and  C2_3 
REMARK    2  A    between atoms: C6_8  and  O3_9 
REMARK    3  A    between atoms: N1_11  and  C7_12 
REMARK    4  A    between atoms: C10_15  and  O4_16 
ROOT
HETATM    1  C2  UNL     1     -29.650  23.998   5.594  1.00  0.00     0.269 C 
HETATM    2  O2  UNL     1     -29.029  25.146   5.104  1.00  0.00    -0.350 OA
HETATM    3  C3  UNL     1     -27.754  24.810   4.728  1.00  0.00     0.171 C 
HETATM    4  C4  UNL     1     -27.836  23.841   3.595  1.00  0.00     0.034 A 
HETATM    5  C5  UNL     1     -28.357  22.663   4.098  1.00  0.00     0.016 A 
HETATM    6  C6  UNL     1     -28.438  21.747   3.053  1.00  0.00     0.152 A 
HETATM    7  N1  UNL     1     -27.977  22.358   1.942  1.00  0.00    -0.303 N 
HETATM    8  C10 UNL     1     -27.609  23.618   2.240  1.00  0.00     0.154 A 
HETATM    9  C11 UNL     1     -28.594  22.917   5.528  1.00  0.00     0.089 C 
HETATM   10  C12 UNL     1     -27.376  23.809   5.843  1.00  0.00    -0.005 C 
HETATM   11  C13 UNL     1     -26.091  23.117   5.552  1.00  0.00     0.018 C 
HETATM   12  C14 UNL     1     -27.479  24.418   7.193  1.00  0.00     0.018 C 
ENDROOT
BRANCH   7  13
HETATM   13  C7  UNL     1     -27.894  21.754   0.647  1.00  0.00     0.086 C 
HETATM   14  C8  UNL     1     -26.466  21.754   0.107  1.00  0.00     0.032 C 
HETATM   15  C9  UNL     1     -28.747  22.438  -0.393  1.00  0.00     0.032 C 
ENDBRANCH   7  13
BRANCH   6  16
HETATM   16  O3  UNL     1     -28.919  20.444   3.190  1.00  0.00    -0.345 OA
ATOM     17  H3  UNL     1     -28.643  19.715   2.646  1.00  0.00     0.219 HD
ENDBRANCH   6  16
BRANCH   8  18
HETATM   18  O4  UNL     1     -27.081  24.585   1.378  1.00  0.00    -0.345 OA
ATOM     19  H4  UNL     1     -26.411  24.399   0.731  1.00  0.00     0.219 HD
ENDBRANCH   8  18
BRANCH   1  20
HETATM   20  O1  UNL     1     -30.733  23.733   4.785  1.00  0.00    -0.365 OA
HETATM   21  C1  UNL     1     -31.789  23.315   5.588  1.00  0.00     0.204 C 
ENDBRANCH   1  20
TORSDOF 4
ENDMDL
MODEL 3
REMARK VINA RESULT: -6.448839345      3.368      5.495
REMARK  4 active torsions:
REMARK  status: ('A' for Active; 'I' for Inactive)
REMARK    1  A    between atoms: O1_2  and  C2_3 
REMARK    2  A    between atoms: C6_8  and  O3_9 
REMARK    3  A    between atoms: N1_11  and  C7_12 
REMARK    4  A    between atoms: C10_15  and  O4_16 
ROOT
HETATM    1  C2  UNL     1     -19.927  22.408   0.214  1.00  0.00     0.269 C 
HETATM    2  O2  UNL     1     -20.376  23.724   0.318  1.00  0.00    -0.350 OA
HETATM    3  C3  UNL     1     -21.618  23.794  -0.260  1.00  0.00     0.171 C 
HETATM    4  C4  UNL     1     -22.557  22.948   0.534  1.00  0.00     0.034 A 
HETATM    5  C5  UNL     1     -22.179  21.631   0.353  1.00  0.00     0.016 A 
HETATM    6  C6  UNL     1     -23.048  20.828   1.086  1.00  0.00     0.152 A 
HETATM    7  N1  UNL     1     -23.932  21.643   1.699  1.00  0.00    -0.303 N 
HETATM    8  C10 UNL     1     -23.659  22.923   1.384  1.00  0.00     0.154 A 
HETATM    9  C11 UNL     1     -21.013  21.676  -0.545  1.00  0.00     0.089 C 
HETATM   10  C12 UNL     1     -21.432  22.842  -1.463  1.00  0.00    -0.005 C 
HETATM   11  C13 UNL     1     -22.722  22.567  -2.154  1.00  0.00     0.018 C 
HETATM   12  C14 UNL     1     -20.317  23.272  -2.345  1.00  0.00     0.018 C 
ENDROOT
BRANCH   7  13
HETATM   13  C7  UNL     1     -24.995  21.207   2.552  1.00  0.00     0.086 C 
HETATM   14  C8  UNL     1     -26.365  21.585   1.995  1.00  0.00     0.032 C 
HETATM   15  C9  UNL     1     -24.924  21.781   3.945  1.00  0.00     0.032 C 
ENDBRANCH   7  13
BRANCH   6  16
HETATM   16  O3  UNL     1     -22.970  19.436   1.140  1.00  0.00    -0.345 OA
ATOM     17  H3  UNL     1     -23.686  18.854   0.916  1.00  0.00     0.219 HD
ENDBRANCH   6  16
BRANCH   8  18
HETATM   18  O4  UNL     1     -24.333  24.073   1.808  1.00  0.00    -0.345 OA
ATOM     19  H4  UNL     1     -25.087  24.055   2.383  1.00  0.00     0.219 HD
ENDBRANCH   8  18
BRANCH   1  20
HETATM   20  O1  UNL     1     -19.755  21.924   1.493  1.00  0.00    -0.365 OA
HETATM   21  C1  UNL     1     -18.736  20.978   1.471  1.00  0.00     0.204 C 
ENDBRANCH   1  20
TORSDOF 4
ENDMDL
MODEL 4
REMARK VINA RESULT: -6.401169060      1.874      5.439
REMARK  4 active torsions:
REMARK  status: ('A' for Active; 'I' for Inactive)
REMARK    1  A    between atoms: O1_2  and  C2_3 
REMARK    2  A    between atoms: C6_8  and  O3_9 
REMARK    3  A    between atoms: N1_11  and  C7_12 
REMARK    4  A    between atoms: C10_15  and  O4_16 
ROOT
HETATM    1  C2  UNL     1     -27.310  22.050   1.528  1.00  0.00     0.269 C 
HETATM    2  O2  UNL     1     -26.731  21.530   0.372  1.00  0.00    -0.350 OA
HETATM    3  C3  UNL     1     -25.413  21.910   0.350  1.00  0.00     0.171 C 
HETATM    4  C4  UNL     1     -24.719  21.275   1.510  1.00  0.00     0.034 A 
HETATM    5  C5  UNL     1     -25.216  21.861   2.659  1.00  0.00     0.016 A 
HETATM    6  C6  UNL     1     -24.577  21.280   3.750  1.00  0.00     0.152 A 
HETATM    7  N1  UNL     1     -23.712  20.362   3.271  1.00  0.00    -0.303 N 
HETATM    8  C10 UNL     1     -23.777  20.339   1.927  1.00  0.00     0.154 A 
HETATM    9  C11 UNL     1     -26.211  22.845   2.200  1.00  0.00     0.089 C 
HETATM   10  C12 UNL     1     -25.516  23.344   0.918  1.00  0.00    -0.005 C 
HETATM   11  C13 UNL     1     -24.174  23.922   1.203  1.00  0.00     0.018 C 
HETATM   12  C14 UNL     1     -26.417  24.199   0.104  1.00  0.00     0.018 C 
ENDROOT
BRANCH   7  13
HETATM   13  C7  UNL     1     -22.857  19.542   4.074  1.00  0.00     0.086 C 
HETATM   14  C8  UNL     1     -21.488  19.341   3.430  1.00  0.00     0.032 C 
HETATM   15  C9  UNL     1     -23.415  18.165   4.335  1.00  0.00     0.032 C 
ENDBRANCH   7  13
BRANCH   6  16
HETATM   16  O3  UNL     1     -24.827  21.626   5.078  1.00  0.00    -0.345 OA
ATOM     17  H3  UNL     1     -25.313  21.083   5.688  1.00  0.00     0.219 HD
ENDBRANCH   6  16
BRANCH   8  18
HETATM   18  O4  UNL     1     -23.049  19.533   1.046  1.00  0.00    -0.345 OA
ATOM     19  H4  UNL     1     -22.648  18.710   1.299  1.00  0.00     0.219 HD
ENDBRANCH   8  18
BRANCH   1  20
HETATM   20  O1  UNL     1     -27.739  20.987   2.293  1.00  0.00    -0.365 OA
HETATM   21  C1  UNL     1     -28.866  21.386   3.005  1.00  0.00     0.204 C 
ENDBRANCH   1  20
TORSDOF 4
ENDMDL
MODEL 5
REMARK VINA RESULT: -6.224560281      3.993      5.785
REMARK  4 active torsions:
REMARK  status: ('A' for Active; 'I' for Inactive)
REMARK    1  A    between atoms: O1_2  and  C2_3 
REMARK    2  A    between atoms: C6_8  and  O3_9 
REMARK    3  A    between atoms: N1_11  and  C7_12 
REMARK    4  A    between atoms: C10_15  and  O4_16 
ROOT
HETATM    1  C2  UNL     1     -27.339  24.234   5.771  1.00  0.00     0.269 C 
HETATM    2  O2  UNL     1     -28.118  23.143   6.153  1.00  0.00    -0.350 OA
HETATM    3  C3  UNL     1     -29.143  23.017   5.249  1.00  0.00     0.171 C 
HETATM    4  C4  UNL     1     -28.558  22.690   3.915  1.00  0.00     0.034 A 
HETATM    5  C5  UNL     1     -27.868  23.808   3.483  1.00  0.00     0.016 A 
HETATM    6  C6  UNL     1     -27.318  23.519   2.237  1.00  0.00     0.152 A 
HETATM    7  N1  UNL     1     -27.667  22.254   1.924  1.00  0.00    -0.303 N 
HETATM    8  C10 UNL     1     -28.413  21.733   2.915  1.00  0.00     0.154 A 
HETATM    9  C11 UNL     1     -28.029  24.807   4.552  1.00  0.00     0.089 C 
HETATM   10  C12 UNL     1     -29.478  24.502   4.982  1.00  0.00    -0.005 C 
HETATM   11  C13 UNL     1     -30.436  24.657   3.854  1.00  0.00     0.018 C 
HETATM   12  C14 UNL     1     -29.841  25.222   6.229  1.00  0.00     0.018 C 
ENDROOT
BRANCH   7  13
HETATM   13  C7  UNL     1     -27.298  21.576   0.718  1.00  0.00     0.086 C 
HETATM   14  C8  UNL     1     -25.806  21.707   0.423  1.00  0.00     0.032 C 
HETATM   15  C9  UNL     1     -28.024  22.081  -0.504  1.00  0.00     0.032 C 
ENDBRANCH   7  13
BRANCH   6  16
HETATM   16  O3  UNL     1     -26.552  24.417   1.494  1.00  0.00    -0.345 OA
ATOM     17  H3  UNL     1     -26.743  24.665   0.596  1.00  0.00     0.219 HD
ENDBRANCH   6  16
BRANCH   8  18
HETATM   18  O4  UNL     1     -28.975  20.454   2.986  1.00  0.00    -0.345 OA
ATOM     19  H4  UNL     1     -29.891  20.275   2.813  1.00  0.00     0.219 HD
ENDBRANCH   8  18
BRANCH   1  20
HETATM   20  O1  UNL     1     -26.074  23.765   5.493  1.00  0.00    -0.365 OA
HETATM   21  C1  UNL     1     -25.739  22.814   6.452  1.00  0.00     0.204 C 
ENDBRANCH   1  20
TORSDOF 4
ENDMDL
