MODEL 1
REMARK VINA RESULT: -8.295080919      0.000      0.000
REMARK  4 active torsions:
REMARK  status: ('A' for Active; 'I' for Inactive)
REMARK    1  A    between atoms: C2_2  and  C3_3 
REMARK    2  A    between atoms: C3_3  and  O1_4 
REMARK    3  A    between atoms: O1_4  and  C4_5 
REMARK    4  A    between atoms: C9_10  and  O2_11 
ROOT
HETATM    1  C4  UNL     1     -23.851  19.252   5.494  1.00  0.00     0.102 A 
HETATM    2  C5  UNL     1     -24.409  20.333   6.158  1.00  0.00     0.047 A 
HETATM    3  C6  UNL     1     -24.755  21.471   5.450  1.00  0.00    -0.043 A 
HETATM    4  C7  UNL     1     -24.563  21.571   4.091  1.00  0.00    -0.031 A 
HETATM    5  C8  UNL     1     -24.006  20.487   3.448  1.00  0.00     0.049 A 
HETATM    6  C9  UNL     1     -23.649  19.330   4.131  1.00  0.00     0.102 A 
HETATM    7  C11 UNL     1     -24.862  22.679   3.184  1.00  0.00     0.160 C 
HETATM    8  N1  UNL     1     -26.083  23.371   3.465  1.00  0.00    -0.371 N 
ATOM      9  H1  UNL     1     -26.403  23.973   2.707  1.00  0.00     0.161 HD
HETATM   10  C12 UNL     1     -26.928  23.373   4.600  1.00  0.00     0.110 A 
HETATM   11  N2  UNL     1     -28.220  23.785   4.526  1.00  0.00    -0.319 N 
ATOM     12  H2  UNL     1     -28.694  24.118   3.687  1.00  0.00     0.169 HD
HETATM   13  C13 UNL     1     -28.764  23.677   5.750  1.00  0.00     0.190 A 
HETATM   14  F1  UNL     1     -30.044  23.987   6.107  1.00  0.00    -0.186 F 
HETATM   15  C14 UNL     1     -27.786  23.183   6.613  1.00  0.00     0.072 A 
HETATM   16  C15 UNL     1     -26.634  22.995   5.881  1.00  0.00    -0.006 A 
HETATM   17  C16 UNL     1     -25.330  22.486   6.375  1.00  0.00     0.082 C 
ENDROOT
BRANCH   1  18
HETATM   18  O1  UNL     1     -23.497  18.101   6.185  1.00  0.00    -0.345 OA
BRANCH  18  19
HETATM   19  C3  UNL     1     -22.689  18.198   7.327  1.00  0.00     0.202 C 
BRANCH  19  20
HETATM   20  C2  UNL     1     -21.293  18.444   6.912  1.00  0.00    -0.011 C 
HETATM   21  C1  UNL     1     -20.300  18.032   7.669  1.00  0.00     0.009 C 
ENDBRANCH  19  20
ENDBRANCH  18  19
ENDBRANCH   1  18
BRANCH   6  22
HETATM   22  O2  UNL     1     -23.090  18.235   3.500  1.00  0.00    -0.353 OA
HETATM   23  C10 UNL     1     -21.723  18.211   3.153  1.00  0.00     0.210 C 
ENDBRANCH   6  22
TORSDOF 4
ENDMDL
MODEL 2
REMARK VINA RESULT: -8.203279997      4.457      6.650
REMARK  4 active torsions:
REMARK  status: ('A' for Active; 'I' for Inactive)
REMARK    1  A    between atoms: C2_2  and  C3_3 
REMARK    2  A    between atoms: C3_3  and  O1_4 
REMARK    3  A    between atoms: O1_4  and  C4_5 
REMARK    4  A    between atoms: C9_10  and  O2_11 
ROOT
HETATM    1  C4  UNL     1     -22.971  19.664   4.721  1.00  0.00     0.102 A 
HETATM    2  C5  UNL     1     -21.995  19.164   3.874  1.00  0.00     0.047 A 
HETATM    3  C6  UNL     1     -22.001  19.514   2.535  1.00  0.00    -0.043 A 
HETATM    4  C7  UNL     1     -22.955  20.354   2.005  1.00  0.00    -0.031 A 
HETATM    5  C8  UNL     1     -23.918  20.840   2.862  1.00  0.00     0.049 A 
HETATM    6  C9  UNL     1     -23.938  20.507   4.212  1.00  0.00     0.102 A 
HETATM    7  C11 UNL     1     -23.121  20.829   0.632  1.00  0.00     0.160 C 
HETATM    8  N1  UNL     1     -21.900  21.136  -0.048  1.00  0.00    -0.371 N 
ATOM      9  H1  UNL     1     -22.024  21.683  -0.900  1.00  0.00     0.161 HD
HETATM   10  C12 UNL     1     -20.551  20.821   0.243  1.00  0.00     0.110 A 
HETATM   11  N2  UNL     1     -19.523  21.519  -0.302  1.00  0.00    -0.319 N 
ATOM     12  H2  UNL     1     -19.608  22.306  -0.945  1.00  0.00     0.169 HD
HETATM   13  C13 UNL     1     -18.372  20.993   0.153  1.00  0.00     0.190 A 
HETATM   14  F1  UNL     1     -17.107  21.405  -0.150  1.00  0.00    -0.186 F 
HETATM   15  C14 UNL     1     -18.691  19.937   1.007  1.00  0.00     0.072 A 
HETATM   16  C15 UNL     1     -20.064  19.836   1.057  1.00  0.00    -0.006 A 
HETATM   17  C16 UNL     1     -20.863  18.857   1.836  1.00  0.00     0.082 C 
ENDROOT
BRANCH   1  18
HETATM   18  O1  UNL     1     -22.984  19.325   6.068  1.00  0.00    -0.345 OA
BRANCH  18  19
HETATM   19  C3  UNL     1     -23.172  17.988   6.445  1.00  0.00     0.202 C 
BRANCH  19  20
HETATM   20  C2  UNL     1     -22.026  17.551   7.266  1.00  0.00    -0.011 C 
HETATM   21  C1  UNL     1     -21.010  18.361   7.463  1.00  0.00     0.009 C 
ENDBRANCH  19  20
ENDBRANCH  18  19
ENDBRANCH   1  18
BRANCH   6  22
HETATM   22  O2  UNL     1     -24.897  20.987   5.083  1.00  0.00    -0.353 OA
HETATM   23  C10 UNL     1     -25.314  22.334   5.039  1.00  0.00     0.210 C 
ENDBRANCH   6  22
TORSDOF 4
ENDMDL
MODEL 3
REMARK VINA RESULT: -8.062984680      3.959      6.410
REMARK  4 active torsions:
REMARK  status: ('A' for Active; 'I' for Inactive)
REMARK    1  A    between atoms: C2_2  and  C3_3 
REMARK    2  A    between atoms: C3_3  and  O1_4 
REMARK    3  A    between atoms: O1_4  and  C4_5 
REMARK    4  A    between atoms: C9_10  and  O2_11 
ROOT
HETATM    1  C4  UNL     1     -25.241  22.545   3.892  1.00  0.00     0.102 A 
HETATM    2  C5  UNL     1     -25.123  21.449   4.733  1.00  0.00     0.047 A 
HETATM    3  C6  UNL     1     -24.250  20.424   4.410  1.00  0.00    -0.043 A 
HETATM    4  C7  UNL     1     -23.483  20.453   3.267  1.00  0.00    -0.031 A 
HETATM    5  C8  UNL     1     -23.614  21.550   2.443  1.00  0.00     0.049 A 
HETATM    6  C9  UNL     1     -24.481  22.595   2.741  1.00  0.00     0.102 A 
HETATM    7  C11 UNL     1     -22.518  19.476   2.765  1.00  0.00     0.160 C 
HETATM    8  N1  UNL     1     -21.708  18.861   3.772  1.00  0.00    -0.371 N 
ATOM      9  H1  UNL     1     -20.892  18.370   3.407  1.00  0.00     0.161 HD
HETATM   10  C12 UNL     1     -21.830  18.808   5.181  1.00  0.00     0.110 A 
HETATM   11  N2  UNL     1     -20.771  18.514   5.978  1.00  0.00    -0.319 N 
ATOM     12  H2  UNL     1     -19.823  18.311   5.662  1.00  0.00     0.169 HD
HETATM   13  C13 UNL     1     -21.190  18.536   7.255  1.00  0.00     0.190 A 
HETATM   14  F1  UNL     1     -20.437  18.297   8.367  1.00  0.00    -0.186 F 
HETATM   15  C14 UNL     1     -22.548  18.854   7.257  1.00  0.00     0.072 A 
HETATM   16  C15 UNL     1     -22.943  19.023   5.947  1.00  0.00    -0.006 A 
HETATM   17  C16 UNL     1     -24.300  19.369   5.457  1.00  0.00     0.082 C 
ENDROOT
BRANCH   1  18
HETATM   18  O1  UNL     1     -26.110  23.583   4.198  1.00  0.00    -0.345 OA
BRANCH  18  19
HETATM   19  C3  UNL     1     -27.457  23.303   4.466  1.00  0.00     0.202 C 
BRANCH  19  20
HETATM   20  C2  UNL     1     -27.856  23.994   5.709  1.00  0.00    -0.011 C 
HETATM   21  C1  UNL     1     -27.253  23.711   6.842  1.00  0.00     0.009 C 
ENDBRANCH  19  20
ENDBRANCH  18  19
ENDBRANCH   1  18
BRANCH   6  22
HETATM   22  O2  UNL     1     -24.623  23.701   1.924  1.00  0.00    -0.353 OA
HETATM   23  C10 UNL     1     -23.773  23.904   0.817  1.00  0.00     0.210 C 
ENDBRANCH   6  22
TORSDOF 4
ENDMDL
MODEL 4
REMARK VINA RESULT: -7.947794172      4.032      6.499
REMARK  4 active torsions:
REMARK  status: ('A' for Active; 'I' for Inactive)
REMARK    1  A    between atoms: C2_2  and  C3_3 
REMARK    2  A    between atoms: C3_3  and  O1_4 
REMARK    3  A    between atoms: O1_4  and  C4_5 
REMARK    4  A    between atoms: C9_10  and  O2_11 
ROOT
HETATM    1  C4  UNL     1     -25.140  22.297   3.762  1.00  0.00     0.102 A 
HETATM    2  C5  UNL     1     -25.028  21.225   4.632  1.00  0.00     0.047 A 
HETATM    3  C6  UNL     1     -24.108  20.223   4.376  1.00  0.00    -0.043 A 
HETATM    4  C7  UNL     1     -23.287  20.253   3.271  1.00  0.00    -0.031 A 
HETATM    5  C8  UNL     1     -23.413  21.326   2.416  1.00  0.00     0.049 A 
HETATM    6  C9  UNL     1     -24.328  22.348   2.647  1.00  0.00     0.102 A 
HETATM    7  C11 UNL     1     -22.267  19.298   2.839  1.00  0.00     0.160 C 
HETATM    8  N1  UNL     1     -21.487  18.733   3.898  1.00  0.00    -0.371 N 
ATOM      9  H1  UNL     1     -20.639  18.262   3.584  1.00  0.00     0.161 HD
HETATM   10  C12 UNL     1     -21.677  18.707   5.300  1.00  0.00     0.110 A 
HETATM   11  N2  UNL     1     -20.648  18.466   6.153  1.00  0.00    -0.319 N 
ATOM     12  H2  UNL     1     -19.680  18.289   5.888  1.00  0.00     0.169 HD
HETATM   13  C13 UNL     1     -21.129  18.503   7.408  1.00  0.00     0.190 A 
HETATM   14  F1  UNL     1     -20.424  18.313   8.561  1.00  0.00    -0.186 F 
HETATM   15  C14 UNL     1     -22.496  18.774   7.337  1.00  0.00     0.072 A 
HETATM   16  C15 UNL     1     -22.831  18.901   6.007  1.00  0.00    -0.006 A 
HETATM   17  C16 UNL     1     -24.174  19.189   5.444  1.00  0.00     0.082 C 
ENDROOT
BRANCH   1  18
HETATM   18  O1  UNL     1     -26.057  23.312   4.000  1.00  0.00    -0.345 OA
BRANCH  18  19
HETATM   19  C3  UNL     1     -27.371  22.987   4.366  1.00  0.00     0.202 C 
BRANCH  19  20
HETATM   20  C2  UNL     1     -28.088  22.466   3.185  1.00  0.00    -0.011 C 
HETATM   21  C1  UNL     1     -28.609  21.260   3.211  1.00  0.00     0.009 C 
ENDBRANCH  19  20
ENDBRANCH  18  19
ENDBRANCH   1  18
BRANCH   6  22
HETATM   22  O2  UNL     1     -24.466  23.429   1.799  1.00  0.00    -0.353 OA
HETATM   23  C10 UNL     1     -23.468  23.748   0.854  1.00  0.00     0.210 C 
ENDBRANCH   6  22
TORSDOF 4
ENDMDL
MODEL 5
REMARK VINA RESULT: -7.849570644      2.371      2.636
REMARK  4 active torsions:
REMARK  status: ('A' for Active; 'I' for Inactive)
REMARK    1  A    between atoms: C2_2  and  C3_3 
REMARK    2  A    between atoms: C3_3  and  O1_4 
REMARK    3  A    between atoms: O1_4  and  C4_5 
REMARK    4  A    between atoms: C9_10  and  O2_11 
ROOT
HETATM    1  C4  UNL     1     -23.092  18.578   4.439  1.00  0.00     0.102 A 
HETATM    2  C5  UNL     1     -24.194  19.387   4.667  1.00  0.00     0.047 A 
HETATM    3  C6  UNL     1     -24.459  20.445   3.815  1.00  0.00    -0.043 A 
HETATM    4  C7  UNL     1     -23.657  20.728   2.732  1.00  0.00    -0.031 A 
HETATM    5  C8  UNL     1     -22.565  19.914   2.523  1.00  0.00     0.049 A 
HETATM    6  C9  UNL     1     -22.273  18.844   3.361  1.00  0.00     0.102 A 
HETATM    7  C11 UNL     1     -23.776  21.790   1.734  1.00  0.00     0.160 C 
HETATM    8  N1  UNL     1     -25.116  22.077   1.321  1.00  0.00    -0.371 N 
ATOM      9  H1  UNL     1     -25.178  22.637   0.471  1.00  0.00     0.161 HD
HETATM   10  C12 UNL     1     -26.371  21.729   1.876  1.00  0.00     0.110 A 
HETATM   11  N2  UNL     1     -27.510  21.765   1.139  1.00  0.00    -0.319 N 
ATOM     12  H2  UNL     1     -27.579  22.031   0.157  1.00  0.00     0.169 HD
HETATM   13  C13 UNL     1     -28.531  21.387   1.928  1.00  0.00     0.190 A 
HETATM   14  F1  UNL     1     -29.845  21.287   1.574  1.00  0.00    -0.186 F 
HETATM   15  C14 UNL     1     -28.015  21.108   3.193  1.00  0.00     0.072 A 
HETATM   16  C15 UNL     1     -26.655  21.326   3.152  1.00  0.00    -0.006 A 
HETATM   17  C16 UNL     1     -25.685  21.159   4.263  1.00  0.00     0.082 C 
ENDROOT
BRANCH   1  18
HETATM   18  O1  UNL     1     -22.807  17.512   5.283  1.00  0.00    -0.345 OA
BRANCH  18  19
HETATM   19  C3  UNL     1     -22.692  17.731   6.662  1.00  0.00     0.202 C 
BRANCH  19  20
HETATM   20  C2  UNL     1     -21.480  18.529   6.927  1.00  0.00    -0.011 C 
HETATM   21  C1  UNL     1     -20.506  18.027   7.654  1.00  0.00     0.009 C 
ENDBRANCH  19  20
ENDBRANCH  18  19
ENDBRANCH   1  18
BRANCH   6  22
HETATM   22  O2  UNL     1     -21.182  18.019   3.162  1.00  0.00    -0.353 OA
HETATM   23  C10 UNL     1     -20.472  18.028   1.943  1.00  0.00     0.210 C 
ENDBRANCH   6  22
TORSDOF 4
ENDMDL
