MODEL 1
REMARK VINA RESULT: -6.935191179      0.000      0.000
REMARK  4 active torsions:
REMARK  status: ('A' for Active; 'I' for Inactive)
REMARK    1  A    between atoms: C2_2  and  O1_3 
REMARK    2  A    between atoms: C2_2  and  C5_9 
REMARK    3  A    between atoms: O1_3  and  N1_4 
REMARK    4  A    between atoms: C3_6  and  C4_7 
ROOT
HETATM    1  C1  UNL     1      30.045  14.561  13.466  1.00  0.00     0.043 C 
HETATM    2  C2  UNL     1      29.106  15.296  14.435  1.00  0.00     0.156 C 
ENDROOT
BRANCH   2   3
HETATM    3  O1  UNL     1      28.463  14.294  15.175  1.00  0.00    -0.275 OA
BRANCH   3   4
HETATM    4  N1  UNL     1      28.155  13.058  14.727  1.00  0.00    -0.275 N 
HETATM    5  C3  UNL     1      28.132  11.990  15.414  1.00  0.00     0.155 C 
ATOM      6  H1  UNL     1      27.917  12.974  13.738  1.00  0.00     0.193 HD
BRANCH   5   7
HETATM    7  C4  UNL     1      27.779  10.726  14.787  1.00  0.00     0.277 C 
HETATM    8  O2  UNL     1      28.625   9.968  14.250  1.00  0.00    -0.301 OA
ENDBRANCH   5   7
ENDBRANCH   3   4
ENDBRANCH   2   3
BRANCH   2   9
HETATM    9  C5  UNL     1      29.857  16.271  15.182  1.00  0.00    -0.011 C 
HETATM   10  C6  UNL     1      29.946  16.237  16.666  1.00  0.00     0.012 C 
HETATM   11  C7  UNL     1      30.868  17.457  16.895  1.00  0.00     0.005 C 
HETATM   12  C8  UNL     1      31.076  17.865  15.465  1.00  0.00    -0.013 C 
HETATM   13  C9  UNL     1      31.326  16.503  14.802  1.00  0.00     0.017 C 
HETATM   14  C10 UNL     1      29.673  17.745  14.897  1.00  0.00     0.017 C 
ENDBRANCH   2   9
TORSDOF 4
ENDMDL
MODEL 2
REMARK VINA RESULT: -6.743895968      3.408      5.001
REMARK  4 active torsions:
REMARK  status: ('A' for Active; 'I' for Inactive)
REMARK    1  A    between atoms: C2_2  and  O1_3 
REMARK    2  A    between atoms: C2_2  and  C5_9 
REMARK    3  A    between atoms: O1_3  and  N1_4 
REMARK    4  A    between atoms: C3_6  and  C4_7 
ROOT
HETATM    1  C1  UNL     1      32.368  16.798  18.217  1.00  0.00     0.043 C 
HETATM    2  C2  UNL     1      32.368  18.056  17.335  1.00  0.00     0.156 C 
ENDROOT
BRANCH   2   3
HETATM    3  O1  UNL     1      31.148  18.036  16.645  1.00  0.00    -0.275 OA
BRANCH   3   4
HETATM    4  N1  UNL     1      30.375  16.949  16.441  1.00  0.00    -0.275 N 
HETATM    5  C3  UNL     1      30.187  16.352  15.336  1.00  0.00     0.155 C 
ATOM      6  H1  UNL     1      29.893  16.569  17.256  1.00  0.00     0.193 HD
BRANCH   5   7
HETATM    7  C4  UNL     1      29.321  15.186  15.273  1.00  0.00     0.277 C 
HETATM    8  O2  UNL     1      28.980  14.531  16.290  1.00  0.00    -0.301 OA
ENDBRANCH   5   7
ENDBRANCH   3   4
ENDBRANCH   2   3
BRANCH   2   9
HETATM    9  C5  UNL     1      32.633  19.213  18.149  1.00  0.00    -0.011 C 
HETATM   10  C6  UNL     1      32.456  19.202  19.625  1.00  0.00     0.012 C 
HETATM   11  C7  UNL     1      32.901  20.646  19.948  1.00  0.00     0.005 C 
HETATM   12  C8  UNL     1      33.231  21.106  18.558  1.00  0.00    -0.013 C 
HETATM   13  C9  UNL     1      34.004  19.892  18.021  1.00  0.00     0.017 C 
HETATM   14  C10 UNL     1      32.061  20.558  17.760  1.00  0.00     0.017 C 
ENDBRANCH   2   9
TORSDOF 4
ENDMDL
MODEL 3
REMARK VINA RESULT: -6.701518718      3.611      5.273
REMARK  4 active torsions:
REMARK  status: ('A' for Active; 'I' for Inactive)
REMARK    1  A    between atoms: C2_2  and  O1_3 
REMARK    2  A    between atoms: C2_2  and  C5_9 
REMARK    3  A    between atoms: O1_3  and  N1_4 
REMARK    4  A    between atoms: C3_6  and  C4_7 
ROOT
HETATM    1  C1  UNL     1      32.272  16.882  18.116  1.00  0.00     0.043 C 
HETATM    2  C2  UNL     1      32.544  18.159  17.306  1.00  0.00     0.156 C 
ENDROOT
BRANCH   2   3
HETATM    3  O1  UNL     1      31.477  18.272  16.405  1.00  0.00    -0.275 OA
BRANCH   3   4
HETATM    4  N1  UNL     1      31.230  17.443  15.368  1.00  0.00    -0.275 N 
HETATM    5  C3  UNL     1      30.095  17.000  15.009  1.00  0.00     0.155 C 
ATOM      6  H1  UNL     1      32.035  17.142  14.818  1.00  0.00     0.193 HD
BRANCH   5   7
HETATM    7  C4  UNL     1      29.987  16.110  13.864  1.00  0.00     0.277 C 
HETATM    8  O2  UNL     1      30.076  14.860  13.958  1.00  0.00    -0.301 OA
ENDBRANCH   5   7
ENDBRANCH   3   4
ENDBRANCH   2   3
BRANCH   2   9
HETATM    9  C5  UNL     1      32.750  19.263  18.207  1.00  0.00    -0.011 C 
HETATM   10  C6  UNL     1      32.649  19.112  19.683  1.00  0.00     0.012 C 
HETATM   11  C7  UNL     1      32.985  20.559  20.111  1.00  0.00     0.005 C 
HETATM   12  C8  UNL     1      33.204  21.160  18.754  1.00  0.00    -0.013 C 
HETATM   13  C9  UNL     1      34.050  20.070  18.080  1.00  0.00     0.017 C 
HETATM   14  C10 UNL     1      32.047  20.579  17.962  1.00  0.00     0.017 C 
ENDBRANCH   2   9
TORSDOF 4
ENDMDL
MODEL 4
REMARK VINA RESULT: -6.629474299      2.754      4.361
REMARK  4 active torsions:
REMARK  status: ('A' for Active; 'I' for Inactive)
REMARK    1  A    between atoms: C2_2  and  O1_3 
REMARK    2  A    between atoms: C2_2  and  C5_9 
REMARK    3  A    between atoms: O1_3  and  N1_4 
REMARK    4  A    between atoms: C3_6  and  C4_7 
ROOT
HETATM    1  C1  UNL     1      32.421  17.124  15.905  1.00  0.00     0.043 C 
HETATM    2  C2  UNL     1      31.502  18.132  16.611  1.00  0.00     0.156 C 
ENDROOT
BRANCH   2   3
HETATM    3  O1  UNL     1      30.284  17.465  16.805  1.00  0.00    -0.275 OA
BRANCH   3   4
HETATM    4  N1  UNL     1      29.997  16.213  16.391  1.00  0.00    -0.275 N 
HETATM    5  C3  UNL     1      29.288  15.893  15.387  1.00  0.00     0.155 C 
ATOM      6  H1  UNL     1      30.387  15.447  16.941  1.00  0.00     0.193 HD
BRANCH   5   7
HETATM    7  C4  UNL     1      29.066  14.492  15.067  1.00  0.00     0.277 C 
HETATM    8  O2  UNL     1      28.520  13.686  15.861  1.00  0.00    -0.301 OA
ENDBRANCH   5   7
ENDBRANCH   3   4
ENDBRANCH   2   3
BRANCH   2   9
HETATM    9  C5  UNL     1      32.159  18.636  17.789  1.00  0.00    -0.011 C 
HETATM   10  C6  UNL     1      33.377  19.485  17.717  1.00  0.00     0.012 C 
HETATM   11  C7  UNL     1      33.603  19.738  19.225  1.00  0.00     0.005 C 
HETATM   12  C8  UNL     1      32.435  18.968  19.769  1.00  0.00    -0.013 C 
HETATM   13  C9  UNL     1      31.317  19.411  18.814  1.00  0.00     0.017 C 
HETATM   14  C10 UNL     1      32.477  17.701  18.934  1.00  0.00     0.017 C 
ENDBRANCH   2   9
TORSDOF 4
ENDMDL
MODEL 5
REMARK VINA RESULT: -6.603332248      2.231      6.585
REMARK  4 active torsions:
REMARK  status: ('A' for Active; 'I' for Inactive)
REMARK    1  A    between atoms: C2_2  and  O1_3 
REMARK    2  A    between atoms: C2_2  and  C5_9 
REMARK    3  A    between atoms: O1_3  and  N1_4 
REMARK    4  A    between atoms: C3_6  and  C4_7 
ROOT
HETATM    1  C1  UNL     1      29.232  11.076  11.507  1.00  0.00     0.043 C 
HETATM    2  C2  UNL     1      28.956  11.240  13.010  1.00  0.00     0.156 C 
ENDROOT
BRANCH   2   3
HETATM    3  O1  UNL     1      28.432  12.531  13.161  1.00  0.00    -0.275 OA
BRANCH   3   4
HETATM    4  N1  UNL     1      29.057  13.572  13.751  1.00  0.00    -0.275 N 
HETATM    5  C3  UNL     1      28.719  14.142  14.834  1.00  0.00     0.155 C 
ATOM      6  H1  UNL     1      29.884  13.938  13.278  1.00  0.00     0.193 HD
BRANCH   5   7
HETATM    7  C4  UNL     1      29.496  15.258  15.346  1.00  0.00     0.277 C 
HETATM    8  O2  UNL     1      30.291  15.923  14.635  1.00  0.00    -0.301 OA
ENDBRANCH   5   7
ENDBRANCH   3   4
ENDBRANCH   2   3
BRANCH   2   9
HETATM    9  C5  UNL     1      28.136  10.150  13.469  1.00  0.00    -0.011 C 
HETATM   10  C6  UNL     1      27.309  10.243  14.700  1.00  0.00     0.012 C 
HETATM   11  C7  UNL     1      26.651   8.844  14.674  1.00  0.00     0.005 C 
HETATM   12  C8  UNL     1      27.273   8.317  13.413  1.00  0.00    -0.013 C 
HETATM   13  C9  UNL     1      27.133   9.532  12.484  1.00  0.00     0.017 C 
HETATM   14  C10 UNL     1      28.718   8.757  13.568  1.00  0.00     0.017 C 
ENDBRANCH   2   9
TORSDOF 4
ENDMDL
