MODEL 1
REMARK VINA RESULT: -5.590020173      0.000      0.000
REMARK  3 active torsions:
REMARK  status: ('A' for Active; 'I' for Inactive)
REMARK    1  A    between atoms: C3_3  and  C4_4 
REMARK    2  A    between atoms: C4_4  and  N1_5 
REMARK    3  A    between atoms: C9_12  and  C10_13 
ROOT
HETATM    1  C1  UNL     1      33.006  20.358  20.694  1.00  0.00     0.098 C 
HETATM    2  C2  UNL     1      33.215  20.602  19.515  1.00  0.00    -0.175 C 
HETATM    3  C3  UNL     1      33.485  20.884  18.103  1.00  0.00     0.040 C 
HETATM    4  C5  UNL     1      34.809  20.284  17.710  1.00  0.00     0.024 C 
HETATM    5  C6  UNL     1      35.873  21.304  17.468  1.00  0.00     0.002 C 
HETATM    6  C7  UNL     1      35.477  22.384  16.507  1.00  0.00     0.001 C 
HETATM    7  C8  UNL     1      34.044  22.808  16.625  1.00  0.00     0.010 C 
HETATM    8  C9  UNL     1      33.485  22.406  17.949  1.00  0.00     0.029 C 
ENDROOT
BRANCH   3   9
HETATM    9  C4  UNL     1      32.345  20.365  17.268  1.00  0.00     0.223 C 
BRANCH   9  10
HETATM   10  N1  UNL     1      31.997  19.010  17.593  1.00  0.00    -0.154 N 
HETATM   11  O1  UNL     1      31.117  18.790  18.427  1.00  0.00    -0.536 OA
HETATM   12  O2  UNL     1      32.633  17.974  16.986  1.00  0.00    -0.536 OA
ENDBRANCH   9  10
ENDBRANCH   3   9
BRANCH   8  13
HETATM   13  C10 UNL     1      32.098  22.902  18.095  1.00  0.00    -0.030 C 
HETATM   14  C11 UNL     1      31.597  23.871  17.342  1.00  0.00     0.007 C 
ENDBRANCH   8  13
TORSDOF 3
ENDMDL
MODEL 2
REMARK VINA RESULT: -4.692444117     16.198     17.546
REMARK  3 active torsions:
REMARK  status: ('A' for Active; 'I' for Inactive)
REMARK    1  A    between atoms: C3_3  and  C4_4 
REMARK    2  A    between atoms: C4_4  and  N1_5 
REMARK    3  A    between atoms: C9_12  and  C10_13 
ROOT
HETATM    1  C1  UNL     1      26.475   7.091  11.046  1.00  0.00     0.098 C 
HETATM    2  C2  UNL     1      26.877   6.471  12.019  1.00  0.00    -0.175 C 
HETATM    3  C3  UNL     1      27.381   5.731  13.179  1.00  0.00     0.040 C 
HETATM    4  C5  UNL     1      28.885   5.693  13.143  1.00  0.00     0.024 C 
HETATM    5  C6  UNL     1      29.436   4.340  12.831  1.00  0.00     0.002 C 
HETATM    6  C7  UNL     1      28.902   3.247  13.705  1.00  0.00     0.001 C 
HETATM    7  C8  UNL     1      27.454   3.403  14.059  1.00  0.00     0.010 C 
HETATM    8  C9  UNL     1      26.777   4.327  13.103  1.00  0.00     0.029 C 
ENDROOT
BRANCH   3   9
HETATM    9  C4  UNL     1      26.849   6.362  14.438  1.00  0.00     0.223 C 
BRANCH   9  10
HETATM   10  N1  UNL     1      27.080   7.779  14.483  1.00  0.00    -0.154 N 
HETATM   11  O1  UNL     1      26.325   8.500  15.138  1.00  0.00    -0.536 OA
HETATM   12  O2  UNL     1      28.124   8.326  13.806  1.00  0.00    -0.536 OA
ENDBRANCH   9  10
ENDBRANCH   3   9
BRANCH   8  13
HETATM   13  C10 UNL     1      25.330   4.411  13.404  1.00  0.00    -0.030 C 
HETATM   14  C11 UNL     1      24.462   3.480  13.033  1.00  0.00     0.007 C 
ENDBRANCH   8  13
TORSDOF 3
ENDMDL
MODEL 3
REMARK VINA RESULT: -4.675876540      2.532      4.229
REMARK  3 active torsions:
REMARK  status: ('A' for Active; 'I' for Inactive)
REMARK    1  A    between atoms: C3_3  and  C4_4 
REMARK    2  A    between atoms: C4_4  and  N1_5 
REMARK    3  A    between atoms: C9_12  and  C10_13 
ROOT
HETATM    1  C1  UNL     1      35.928  21.201  17.246  1.00  0.00     0.098 C 
HETATM    2  C2  UNL     1      34.799  21.011  17.672  1.00  0.00    -0.175 C 
HETATM    3  C3  UNL     1      33.450  20.792  18.202  1.00  0.00     0.040 C 
HETATM    4  C5  UNL     1      33.330  21.429  19.561  1.00  0.00     0.024 C 
HETATM    5  C6  UNL     1      33.249  20.436  20.674  1.00  0.00     0.002 C 
HETATM    6  C7  UNL     1      32.190  19.392  20.485  1.00  0.00     0.001 C 
HETATM    7  C8  UNL     1      32.027  18.942  19.065  1.00  0.00     0.010 C 
HETATM    8  C9  UNL     1      33.240  19.278  18.264  1.00  0.00     0.029 C 
ENDROOT
BRANCH   3   9
HETATM    9  C4  UNL     1      32.441  21.329  17.222  1.00  0.00     0.223 C 
BRANCH   9  10
HETATM   10  N1  UNL     1      32.547  22.750  17.045  1.00  0.00    -0.154 N 
HETATM   11  O1  UNL     1      31.937  23.506  17.803  1.00  0.00    -0.536 OA
HETATM   12  O2  UNL     1      33.316  23.262  16.048  1.00  0.00    -0.536 OA
ENDBRANCH   9  10
ENDBRANCH   3   9
BRANCH   8  13
HETATM   13  C10 UNL     1      33.111  18.755  16.886  1.00  0.00    -0.030 C 
HETATM   14  C11 UNL     1      32.441  17.648  16.596  1.00  0.00     0.007 C 
ENDBRANCH   8  13
TORSDOF 3
ENDMDL
MODEL 4
REMARK VINA RESULT: -4.275345659      1.877      3.381
REMARK  3 active torsions:
REMARK  status: ('A' for Active; 'I' for Inactive)
REMARK    1  A    between atoms: C3_3  and  C4_4 
REMARK    2  A    between atoms: C4_4  and  N1_5 
REMARK    3  A    between atoms: C9_12  and  C10_13 
ROOT
HETATM    1  C1  UNL     1      32.922  18.605  17.011  1.00  0.00     0.098 C 
HETATM    2  C2  UNL     1      33.162  19.682  17.537  1.00  0.00    -0.175 C 
HETATM    3  C3  UNL     1      33.429  20.979  18.164  1.00  0.00     0.040 C 
HETATM    4  C5  UNL     1      32.148  21.761  18.276  1.00  0.00     0.024 C 
HETATM    5  C6  UNL     1      32.085  22.930  17.348  1.00  0.00     0.002 C 
HETATM    6  C7  UNL     1      33.270  23.843  17.435  1.00  0.00     0.001 C 
HETATM    7  C8  UNL     1      34.571  23.132  17.659  1.00  0.00     0.010 C 
HETATM    8  C9  UNL     1      34.454  21.693  17.282  1.00  0.00     0.029 C 
ENDROOT
BRANCH   3   9
HETATM    9  C4  UNL     1      34.087  20.756  19.499  1.00  0.00     0.223 C 
BRANCH   9  10
HETATM   10  N1  UNL     1      33.163  20.300  20.500  1.00  0.00    -0.154 N 
HETATM   11  O1  UNL     1      32.925  21.009  21.479  1.00  0.00    -0.536 OA
HETATM   12  O2  UNL     1      32.553  19.092  20.370  1.00  0.00    -0.536 OA
ENDBRANCH   9  10
ENDBRANCH   3   9
BRANCH   8  13
HETATM   13  C10 UNL     1      35.762  21.016  17.423  1.00  0.00    -0.030 C 
HETATM   14  C11 UNL     1      36.909  21.585  17.079  1.00  0.00     0.007 C 
ENDBRANCH   8  13
TORSDOF 3
ENDMDL
MODEL 5
REMARK VINA RESULT: -4.101810020      2.747      4.534
REMARK  3 active torsions:
REMARK  status: ('A' for Active; 'I' for Inactive)
REMARK    1  A    between atoms: C3_3  and  C4_4 
REMARK    2  A    between atoms: C4_4  and  N1_5 
REMARK    3  A    between atoms: C9_12  and  C10_13 
ROOT
HETATM    1  C1  UNL     1      33.046  16.986  15.564  1.00  0.00     0.098 C 
HETATM    2  C2  UNL     1      32.509  17.662  16.429  1.00  0.00    -0.175 C 
HETATM    3  C3  UNL     1      31.869  18.492  17.453  1.00  0.00     0.040 C 
HETATM    4  C5  UNL     1      31.847  19.928  17.002  1.00  0.00     0.024 C 
HETATM    5  C6  UNL     1      32.781  20.804  17.770  1.00  0.00     0.002 C 
HETATM    6  C7  UNL     1      32.616  20.716  19.257  1.00  0.00     0.001 C 
HETATM    7  C8  UNL     1      32.301  19.337  19.754  1.00  0.00     0.010 C 
HETATM    8  C9  UNL     1      32.681  18.314  18.737  1.00  0.00     0.029 C 
ENDROOT
BRANCH   3   9
HETATM    9  C4  UNL     1      30.491  17.955  17.734  1.00  0.00     0.223 C 
BRANCH   9  10
HETATM   10  N1  UNL     1      29.989  17.139  16.664  1.00  0.00    -0.154 N 
HETATM   11  O1  UNL     1      29.942  15.915  16.800  1.00  0.00    -0.536 OA
HETATM   12  O2  UNL     1      29.567  17.711  15.506  1.00  0.00    -0.536 OA
ENDBRANCH   9  10
ENDBRANCH   3   9
BRANCH   8  13
HETATM   13  C10 UNL     1      32.449  16.951  19.265  1.00  0.00    -0.030 C 
HETATM   14  C11 UNL     1      32.523  16.656  20.556  1.00  0.00     0.007 C 
ENDBRANCH   8  13
TORSDOF 3
ENDMDL
