MODEL 1
REMARK VINA RESULT: -6.230304325      0.000      0.000
REMARK  2 active torsions:
REMARK  status: ('A' for Active; 'I' for Inactive)
REMARK    1  A    between atoms: C2_2  and  C3_3 
REMARK    2  A    between atoms: C6_12  and  C7_13 
ROOT
HETATM    1  C3  UNL     1      34.513  21.706  17.610  1.00  0.00     0.048 A 
HETATM    2  N1  UNL     1      34.571  23.051  17.523  1.00  0.00    -0.302 N 
ATOM      3  H1  UNL     1      35.473  23.521  17.451  1.00  0.00     0.186 HD
HETATM    4  N2  UNL     1      33.451  23.756  17.532  1.00  0.00    -0.289 N 
ATOM      5  H2  UNL     1      33.483  24.774  17.467  1.00  0.00     0.188 HD
HETATM    6  C4  UNL     1      32.277  23.122  17.627  1.00  0.00     0.092 A 
HETATM    7  C5  UNL     1      30.998  23.871  17.713  1.00  0.00     0.090 C 
HETATM    8  N3  UNL     1      32.197  21.750  17.717  1.00  0.00    -0.347 N 
ATOM      9  H3  UNL     1      31.285  21.298  17.788  1.00  0.00     0.167 HD
HETATM   10  C6  UNL     1      33.309  21.006  17.713  1.00  0.00     0.039 A 
ENDROOT
BRANCH  10  11
HETATM   11  C7  UNL     1      33.344  19.601  18.055  1.00  0.00     0.037 C 
HETATM   12  C8  UNL     1      32.258  18.697  17.532  1.00  0.00     0.011 C 
HETATM   13  C9  UNL     1      32.625  17.443  18.375  1.00  0.00     0.001 C 
HETATM   14  C10 UNL     1      32.620  18.092  19.773  1.00  0.00     0.001 C 
HETATM   15  C11 UNL     1      32.774  19.551  19.581  1.00  0.00     0.011 C 
ENDBRANCH  10  11
BRANCH   1  16
HETATM   16  C2  UNL     1      35.725  20.864  17.406  1.00  0.00     0.056 C 
HETATM   17  C1  UNL     1      36.860  21.761  16.953  1.00  0.00     0.011 C 
ENDBRANCH   1  16
TORSDOF 2
ENDMDL
MODEL 2
REMARK VINA RESULT: -6.083527513     14.964     17.513
REMARK  2 active torsions:
REMARK  status: ('A' for Active; 'I' for Inactive)
REMARK    1  A    between atoms: C2_2  and  C3_3 
REMARK    2  A    between atoms: C6_12  and  C7_13 
ROOT
HETATM    1  C3  UNL     1      28.160   4.907  13.070  1.00  0.00     0.048 A 
HETATM    2  N1  UNL     1      27.853   3.670  12.628  1.00  0.00    -0.302 N 
ATOM      3  H1  UNL     1      28.583   3.065  12.252  1.00  0.00     0.186 HD
HETATM    4  N2  UNL     1      26.600   3.247  12.684  1.00  0.00    -0.289 N 
ATOM      5  H2  UNL     1      26.357   2.313  12.352  1.00  0.00     0.188 HD
HETATM    6  C4  UNL     1      25.656   4.055  13.182  1.00  0.00     0.092 A 
HETATM    7  C5  UNL     1      24.227   3.653  13.200  1.00  0.00     0.090 C 
HETATM    8  N3  UNL     1      25.949   5.321  13.638  1.00  0.00    -0.347 N 
ATOM      9  H3  UNL     1      25.206   5.909  14.011  1.00  0.00     0.167 HD
HETATM   10  C6  UNL     1      27.204   5.781  13.594  1.00  0.00     0.039 A 
ENDROOT
BRANCH  10  11
HETATM   11  C7  UNL     1      27.566   7.166  13.807  1.00  0.00     0.037 C 
HETATM   12  C8  UNL     1      26.628   8.052  14.585  1.00  0.00     0.011 C 
HETATM   13  C9  UNL     1      27.345   9.400  14.292  1.00  0.00     0.001 C 
HETATM   14  C10 UNL     1      27.386   9.312  12.754  1.00  0.00     0.001 C 
HETATM   15  C11 UNL     1      27.217   7.889  12.389  1.00  0.00     0.011 C 
ENDBRANCH  10  11
BRANCH   1  16
HETATM   16  C2  UNL     1      29.574   5.351  13.210  1.00  0.00     0.056 C 
HETATM   17  C1  UNL     1      30.460   4.365  12.474  1.00  0.00     0.011 C 
ENDBRANCH   1  16
TORSDOF 2
ENDMDL
MODEL 3
REMARK VINA RESULT: -5.802590369      8.147     10.746
REMARK  2 active torsions:
REMARK  status: ('A' for Active; 'I' for Inactive)
REMARK    1  A    between atoms: C2_2  and  C3_3 
REMARK    2  A    between atoms: C6_12  and  C7_13 
ROOT
HETATM    1  C3  UNL     1      28.209  12.301  15.060  1.00  0.00     0.048 A 
HETATM    2  N1  UNL     1      27.981  11.015  14.721  1.00  0.00    -0.302 N 
ATOM      3  H1  UNL     1      27.561  10.375  15.394  1.00  0.00     0.186 HD
HETATM    4  N2  UNL     1      28.306  10.590  13.510  1.00  0.00    -0.289 N 
ATOM      5  H2  UNL     1      28.138   9.619  13.243  1.00  0.00     0.188 HD
HETATM    6  C4  UNL     1      28.856  11.445  12.640  1.00  0.00     0.092 A 
HETATM    7  C5  UNL     1      29.303  10.999  11.296  1.00  0.00     0.090 C 
HETATM    8  N3  UNL     1      29.097  12.760  12.967  1.00  0.00    -0.347 N 
ATOM      9  H3  UNL     1      29.517  13.385  12.279  1.00  0.00     0.167 HD
HETATM   10  C6  UNL     1      28.784  13.223  14.182  1.00  0.00     0.039 A 
ENDROOT
BRANCH  10  11
HETATM   11  C7  UNL     1      29.224  14.500  14.700  1.00  0.00     0.037 C 
HETATM   12  C8  UNL     1      28.330  15.701  14.535  1.00  0.00     0.011 C 
HETATM   13  C9  UNL     1      29.353  16.774  15.003  1.00  0.00     0.001 C 
HETATM   14  C10 UNL     1      30.516  16.416  14.056  1.00  0.00     0.001 C 
HETATM   15  C11 UNL     1      30.292  15.030  13.589  1.00  0.00     0.011 C 
ENDBRANCH  10  11
BRANCH   1  16
HETATM   16  C2  UNL     1      27.684  12.871  16.331  1.00  0.00     0.056 C 
HETATM   17  C1  UNL     1      28.855  13.140  17.255  1.00  0.00     0.011 C 
ENDBRANCH   1  16
TORSDOF 2
ENDMDL
MODEL 4
REMARK VINA RESULT: -5.502817916      2.193      4.702
REMARK  2 active torsions:
REMARK  status: ('A' for Active; 'I' for Inactive)
REMARK    1  A    between atoms: C2_2  and  C3_3 
REMARK    2  A    between atoms: C6_12  and  C7_13 
ROOT
HETATM    1  C3  UNL     1      32.822  18.835  18.791  1.00  0.00     0.048 A 
HETATM    2  N1  UNL     1      32.438  17.558  18.588  1.00  0.00    -0.302 N 
ATOM      3  H1  UNL     1      32.673  16.838  19.271  1.00  0.00     0.186 HD
HETATM    4  N2  UNL     1      31.755  17.245  17.498  1.00  0.00    -0.289 N 
ATOM      5  H2  UNL     1      31.460  16.282  17.335  1.00  0.00     0.188 HD
HETATM    6  C4  UNL     1      31.455  18.203  16.614  1.00  0.00     0.092 A 
HETATM    7  C5  UNL     1      30.754  17.889  15.343  1.00  0.00     0.090 C 
HETATM    8  N3  UNL     1      31.839  19.512  16.802  1.00  0.00    -0.347 N 
ATOM      9  H3  UNL     1      31.593  20.217  16.108  1.00  0.00     0.167 HD
HETATM   10  C6  UNL     1      32.532  19.864  17.890  1.00  0.00     0.039 A 
ENDROOT
BRANCH  10  11
HETATM   11  C7  UNL     1      33.190  21.141  18.053  1.00  0.00     0.037 C 
HETATM   12  C8  UNL     1      32.837  22.267  17.117  1.00  0.00     0.011 C 
HETATM   13  C9  UNL     1      33.964  23.245  17.552  1.00  0.00     0.001 C 
HETATM   14  C10 UNL     1      35.172  22.305  17.368  1.00  0.00     0.001 C 
HETATM   15  C11 UNL     1      34.656  20.919  17.376  1.00  0.00     0.011 C 
ENDBRANCH  10  11
BRANCH   1  16
HETATM   16  C2  UNL     1      33.414  19.270  20.086  1.00  0.00     0.056 C 
HETATM   17  C1  UNL     1      32.594  20.424  20.625  1.00  0.00     0.011 C 
ENDBRANCH   1  16
TORSDOF 2
ENDMDL
MODEL 5
REMARK VINA RESULT: -5.307395058     10.164     12.345
REMARK  2 active torsions:
REMARK  status: ('A' for Active; 'I' for Inactive)
REMARK    1  A    between atoms: C2_2  and  C3_3 
REMARK    2  A    between atoms: C6_12  and  C7_13 
ROOT
HETATM    1  C3  UNL     1      28.748  11.585  12.784  1.00  0.00     0.048 A 
HETATM    2  N1  UNL     1      29.109  12.883  12.839  1.00  0.00    -0.302 N 
ATOM      3  H1  UNL     1      29.463  13.353  12.006  1.00  0.00     0.186 HD
HETATM    4  N2  UNL     1      29.002  13.545  13.981  1.00  0.00    -0.289 N 
ATOM      5  H2  UNL     1      29.272  14.527  14.035  1.00  0.00     0.188 HD
HETATM    6  C4  UNL     1      28.534  12.913  15.064  1.00  0.00     0.092 A 
HETATM    7  C5  UNL     1      28.462  13.590  16.384  1.00  0.00     0.090 C 
HETATM    8  N3  UNL     1      28.161  11.587  15.028  1.00  0.00    -0.347 N 
ATOM      9  H3  UNL     1      27.809  11.137  15.872  1.00  0.00     0.167 HD
HETATM   10  C6  UNL     1      28.259  10.889  13.892  1.00  0.00     0.039 A 
ENDROOT
BRANCH  10  11
HETATM   11  C7  UNL     1      28.136   9.449  13.814  1.00  0.00     0.037 C 
HETATM   12  C8  UNL     1      27.457   8.840  12.616  1.00  0.00     0.011 C 
HETATM   13  C9  UNL     1      27.375   7.384  13.156  1.00  0.00     0.001 C 
HETATM   14  C10 UNL     1      26.678   7.673  14.500  1.00  0.00     0.001 C 
HETATM   15  C11 UNL     1      26.892   9.104  14.809  1.00  0.00     0.011 C 
ENDBRANCH  10  11
BRANCH   1  16
HETATM   16  C2  UNL     1      28.665  10.860  11.487  1.00  0.00     0.056 C 
HETATM   17  C1  UNL     1      30.052  10.805  10.878  1.00  0.00     0.011 C 
ENDBRANCH   1  16
TORSDOF 2
ENDMDL
