MODEL 1
REMARK VINA RESULT: -9.113399194      0.000      0.000
REMARK  7 active torsions:
REMARK  status: ('A' for Active; 'I' for Inactive)
REMARK    1  A    between atoms: C2_2  and  C3_3 
REMARK    2  A    between atoms: C3_3  and  C4_4 
REMARK    3  A    between atoms: C7_7  and  C8_8 
REMARK    4  A    between atoms: C8_8  and  N1_9 
REMARK    5  A    between atoms: N5_23  and  C14_24 
REMARK    6  A    between atoms: C16_27  and  O1_28 
REMARK    7  A    between atoms: C17_30  and  O2_31 
ROOT
HETATM    1  N1  UNL     1       4.060  31.027  25.100  1.00  0.00    -0.374 N 
ATOM      2  H1  UNL     1       3.653  30.296  24.516  1.00  0.00     0.161 HD
HETATM    3  C9  UNL     1       5.294  31.361  24.984  1.00  0.00     0.134 A 
HETATM    4  N2  UNL     1       5.877  32.314  25.726  1.00  0.00    -0.317 N 
ATOM      5  H2  UNL     1       5.300  32.792  26.418  1.00  0.00     0.170 HD
HETATM    6  C10 UNL     1       7.152  32.681  25.629  1.00  0.00     0.182 A 
HETATM    7 CL1  UNL     1       7.806  33.950  26.665  1.00  0.00    -0.045 Cl
HETATM    8  N3  UNL     1       7.914  32.048  24.714  1.00  0.00    -0.317 N 
ATOM      9  H3  UNL     1       8.895  32.307  24.615  1.00  0.00     0.170 HD
HETATM   10  C11 UNL     1       7.408  31.086  23.934  1.00  0.00     0.142 A 
HETATM   11  C12 UNL     1       6.078  30.716  24.048  1.00  0.00     0.122 A 
HETATM   12  N4  UNL     1       5.905  29.748  23.139  1.00  0.00    -0.346 N 
ATOM     13  H4  UNL     1       5.022  29.264  22.976  1.00  0.00     0.167 HD
HETATM   14  C13 UNL     1       7.043  29.494  22.469  1.00  0.00     0.186 A 
HETATM   15  N5  UNL     1       7.971  30.325  22.964  1.00  0.00    -0.310 N 
ENDROOT
BRANCH   1  16
HETATM   16  C8  UNL     1       3.268  31.721  26.085  1.00  0.00     0.126 C 
BRANCH  16  17
HETATM   17  C7  UNL     1       2.022  30.987  26.475  1.00  0.00     0.003 C 
HETATM   18  C6  UNL     1       1.064  31.829  27.252  1.00  0.00     0.006 C 
HETATM   19  C5  UNL     1      -0.381  31.411  27.075  1.00  0.00     0.005 C 
HETATM   20  C4  UNL     1      -0.815  31.403  25.648  1.00  0.00    -0.014 C 
HETATM   21  C19 UNL     1       0.389  31.551  24.762  1.00  0.00     0.005 C 
HETATM   22  C18 UNL     1       1.384  30.466  25.196  1.00  0.00     0.006 C 
BRANCH  20  23
HETATM   23  C3  UNL     1      -1.886  32.418  25.333  1.00  0.00     0.004 C 
BRANCH  23  24
HETATM   24  C2  UNL     1      -1.385  33.571  24.523  1.00  0.00    -0.004 C 
HETATM   25  C1  UNL     1      -1.831  33.356  23.089  1.00  0.00     0.005 C 
ENDBRANCH  23  24
ENDBRANCH  20  23
ENDBRANCH  16  17
ENDBRANCH   1  16
BRANCH  15  26
HETATM   26  C14 UNL     1       9.331  30.380  22.520  1.00  0.00     0.185 C 
HETATM   27  S1  UNL     1      10.466  29.664  23.775  1.00  0.00    -0.138 SA
HETATM   28  C15 UNL     1      11.761  30.967  23.741  1.00  0.00     0.110 C 
HETATM   29  C16 UNL     1      11.349  31.731  22.500  1.00  0.00     0.159 C 
HETATM   30  C17 UNL     1       9.843  31.826  22.524  1.00  0.00     0.180 C 
BRANCH  29  31
HETATM   31  O1  UNL     1      11.748  31.094  21.350  1.00  0.00    -0.392 OA
ATOM     32  H1  UNL     1      12.621  30.730  21.432  1.00  0.00     0.210 HD
ENDBRANCH  29  31
BRANCH  30  33
HETATM   33  O2  UNL     1       9.438  32.469  21.377  1.00  0.00    -0.390 OA
ATOM     34  H2  UNL     1       8.910  33.227  21.601  1.00  0.00     0.210 HD
ENDBRANCH  30  33
ENDBRANCH  15  26
TORSDOF 7
ENDMDL
MODEL 2
REMARK VINA RESULT: -8.901456734      5.377      8.806
REMARK  7 active torsions:
REMARK  status: ('A' for Active; 'I' for Inactive)
REMARK    1  A    between atoms: C2_2  and  C3_3 
REMARK    2  A    between atoms: C3_3  and  C4_4 
REMARK    3  A    between atoms: C7_7  and  C8_8 
REMARK    4  A    between atoms: C8_8  and  N1_9 
REMARK    5  A    between atoms: N5_23  and  C14_24 
REMARK    6  A    between atoms: C16_27  and  O1_28 
REMARK    7  A    between atoms: C17_30  and  O2_31 
ROOT
HETATM    1  N1  UNL     1       4.628  32.328  24.970  1.00  0.00    -0.374 N 
ATOM      2  H1  UNL     1       5.602  32.613  25.072  1.00  0.00     0.161 HD
HETATM    3  C9  UNL     1       3.690  33.197  24.849  1.00  0.00     0.134 A 
HETATM    4  N2  UNL     1       2.395  32.875  24.713  1.00  0.00    -0.317 N 
ATOM      5  H2  UNL     1       2.153  31.885  24.707  1.00  0.00     0.170 HD
HETATM    6  C10 UNL     1       1.403  33.752  24.586  1.00  0.00     0.182 A 
HETATM    7 CL1  UNL     1      -0.266  33.205  24.415  1.00  0.00    -0.045 Cl
HETATM    8  N3  UNL     1       1.724  35.062  24.594  1.00  0.00    -0.317 N 
ATOM      9  H3  UNL     1       0.985  35.758  24.499  1.00  0.00     0.170 HD
HETATM   10  C11 UNL     1       2.992  35.465  24.726  1.00  0.00     0.142 A 
HETATM   11  C12 UNL     1       4.015  34.540  24.856  1.00  0.00     0.122 A 
HETATM   12  N4  UNL     1       5.134  35.266  24.964  1.00  0.00    -0.346 N 
ATOM     13  H4  UNL     1       6.068  34.870  25.074  1.00  0.00     0.167 HD
HETATM   14  C13 UNL     1       4.871  36.583  24.909  1.00  0.00     0.186 A 
HETATM   15  N5  UNL     1       3.545  36.703  24.761  1.00  0.00    -0.310 N 
ENDROOT
BRANCH   1  16
HETATM   16  C8  UNL     1       4.256  30.935  24.957  1.00  0.00     0.126 C 
BRANCH  16  17
HETATM   17  C7  UNL     1       5.020  30.122  23.958  1.00  0.00     0.003 C 
HETATM   18  C6  UNL     1       5.763  30.958  22.967  1.00  0.00     0.006 C 
HETATM   19  C5  UNL     1       7.007  30.283  22.428  1.00  0.00     0.005 C 
HETATM   20  C4  UNL     1       7.958  29.870  23.500  1.00  0.00    -0.014 C 
HETATM   21  C19 UNL     1       7.285  29.998  24.838  1.00  0.00     0.005 C 
HETATM   22  C18 UNL     1       5.966  29.220  24.736  1.00  0.00     0.006 C 
BRANCH  20  23
HETATM   23  C3  UNL     1       9.280  30.597  23.453  1.00  0.00     0.004 C 
BRANCH  23  24
HETATM   24  C2  UNL     1      10.436  29.698  23.148  1.00  0.00    -0.004 C 
HETATM   25  C1  UNL     1      11.598  30.572  22.714  1.00  0.00     0.005 C 
ENDBRANCH  23  24
ENDBRANCH  20  23
ENDBRANCH  16  17
ENDBRANCH   1  16
BRANCH  15  26
HETATM   26  C14 UNL     1       2.847  37.949  24.658  1.00  0.00     0.185 C 
HETATM   27  S1  UNL     1       3.999  39.320  24.246  1.00  0.00    -0.138 SA
HETATM   28  C15 UNL     1       3.385  40.560  25.455  1.00  0.00     0.110 C 
HETATM   29  C16 UNL     1       2.095  39.899  25.893  1.00  0.00     0.159 C 
HETATM   30  C17 UNL     1       2.384  38.426  26.040  1.00  0.00     0.180 C 
BRANCH  29  31
HETATM   31  O1  UNL     1       1.090  40.078  24.974  1.00  0.00    -0.392 OA
ATOM     32  H1  UNL     1       0.380  39.460  25.101  1.00  0.00     0.210 HD
ENDBRANCH  29  31
BRANCH  30  33
HETATM   33  O2  UNL     1       1.213  37.793  26.385  1.00  0.00    -0.390 OA
ATOM     34  H2  UNL     1       0.757  38.296  27.050  1.00  0.00     0.210 HD
ENDBRANCH  30  33
ENDBRANCH  15  26
TORSDOF 7
ENDMDL
MODEL 3
REMARK VINA RESULT: -8.831762114      5.728      8.637
REMARK  7 active torsions:
REMARK  status: ('A' for Active; 'I' for Inactive)
REMARK    1  A    between atoms: C2_2  and  C3_3 
REMARK    2  A    between atoms: C3_3  and  C4_4 
REMARK    3  A    between atoms: C7_7  and  C8_8 
REMARK    4  A    between atoms: C8_8  and  N1_9 
REMARK    5  A    between atoms: N5_23  and  C14_24 
REMARK    6  A    between atoms: C16_27  and  O1_28 
REMARK    7  A    between atoms: C17_30  and  O2_31 
ROOT
HETATM    1  N1  UNL     1       3.420  32.500  24.928  1.00  0.00    -0.374 N 
ATOM      2  H1  UNL     1       4.417  32.642  25.092  1.00  0.00     0.161 HD
HETATM    3  C9  UNL     1       2.613  33.495  24.835  1.00  0.00     0.134 A 
HETATM    4  N2  UNL     1       1.296  33.363  24.620  1.00  0.00    -0.317 N 
ATOM      5  H2  UNL     1       0.925  32.418  24.528  1.00  0.00     0.170 HD
HETATM    6  C10 UNL     1       0.437  34.374  24.520  1.00  0.00     0.182 A 
HETATM    7 CL1  UNL     1      -1.278  34.074  24.237  1.00  0.00    -0.045 Cl
HETATM    8  N3  UNL     1       0.928  35.624  24.643  1.00  0.00    -0.317 N 
ATOM      9  H3  UNL     1       0.295  36.420  24.571  1.00  0.00     0.170 HD
HETATM   10  C11 UNL     1       2.231  35.840  24.859  1.00  0.00     0.142 A 
HETATM   11  C12 UNL     1       3.113  34.777  24.960  1.00  0.00     0.122 A 
HETATM   12  N4  UNL     1       4.312  35.334  25.170  1.00  0.00    -0.346 N 
ATOM     13  H4  UNL     1       5.178  34.808  25.289  1.00  0.00     0.167 HD
HETATM   14  C13 UNL     1       4.229  36.675  25.206  1.00  0.00     0.186 A 
HETATM   15  N5  UNL     1       2.940  36.985  25.012  1.00  0.00    -0.310 N 
ENDROOT
BRANCH   1  16
HETATM   16  C8  UNL     1       2.867  31.175  24.791  1.00  0.00     0.126 C 
BRANCH  16  17
HETATM   17  C7  UNL     1       3.888  30.086  24.919  1.00  0.00     0.003 C 
HETATM   18  C6  UNL     1       4.121  29.348  23.641  1.00  0.00     0.006 C 
HETATM   19  C5  UNL     1       5.516  28.771  23.529  1.00  0.00     0.005 C 
HETATM   20  C4  UNL     1       6.586  29.800  23.677  1.00  0.00    -0.014 C 
HETATM   21  C19 UNL     1       5.978  31.082  24.169  1.00  0.00     0.005 C 
HETATM   22  C18 UNL     1       5.172  30.726  25.426  1.00  0.00     0.006 C 
BRANCH  20  23
HETATM   23  C3  UNL     1       7.413  30.001  22.431  1.00  0.00     0.004 C 
BRANCH  23  24
HETATM   24  C2  UNL     1       7.626  31.442  22.091  1.00  0.00    -0.004 C 
HETATM   25  C1  UNL     1       9.048  31.802  22.480  1.00  0.00     0.005 C 
ENDBRANCH  23  24
ENDBRANCH  20  23
ENDBRANCH  16  17
ENDBRANCH   1  16
BRANCH  15  26
HETATM   26  C14 UNL     1       2.421  38.319  24.977  1.00  0.00     0.185 C 
HETATM   27  S1  UNL     1       3.669  39.498  24.323  1.00  0.00    -0.138 SA
HETATM   28  C15 UNL     1       3.456  40.833  25.566  1.00  0.00     0.110 C 
HETATM   29  C16 UNL     1       2.179  40.378  26.241  1.00  0.00     0.159 C 
HETATM   30  C17 UNL     1       2.275  38.880  26.397  1.00  0.00     0.180 C 
BRANCH  29  31
HETATM   31  O1  UNL     1       1.067  40.689  25.497  1.00  0.00    -0.392 OA
ATOM     32  H1  UNL     1       0.348  40.987  26.041  1.00  0.00     0.210 HD
ENDBRANCH  29  31
BRANCH  30  33
HETATM   33  O2  UNL     1       1.102  38.433  26.959  1.00  0.00    -0.390 OA
ATOM     34  H2  UNL     1       1.201  38.363  27.901  1.00  0.00     0.210 HD
ENDBRANCH  30  33
ENDBRANCH  15  26
TORSDOF 7
ENDMDL
MODEL 4
REMARK VINA RESULT: -8.696527786      5.180      8.495
REMARK  7 active torsions:
REMARK  status: ('A' for Active; 'I' for Inactive)
REMARK    1  A    between atoms: C2_2  and  C3_3 
REMARK    2  A    between atoms: C3_3  and  C4_4 
REMARK    3  A    between atoms: C7_7  and  C8_8 
REMARK    4  A    between atoms: C8_8  and  N1_9 
REMARK    5  A    between atoms: N5_23  and  C14_24 
REMARK    6  A    between atoms: C16_27  and  O1_28 
REMARK    7  A    between atoms: C17_30  and  O2_31 
ROOT
HETATM    1  N1  UNL     1       4.865  32.109  25.481  1.00  0.00    -0.374 N 
ATOM      2  H1  UNL     1       5.822  32.141  25.832  1.00  0.00     0.161 HD
HETATM    3  C9  UNL     1       4.168  33.180  25.351  1.00  0.00     0.134 A 
HETATM    4  N2  UNL     1       2.907  33.193  24.896  1.00  0.00    -0.317 N 
ATOM      5  H2  UNL     1       2.488  32.299  24.642  1.00  0.00     0.170 HD
HETATM    6  C10 UNL     1       2.161  34.285  24.752  1.00  0.00     0.182 A 
HETATM    7 CL1  UNL     1       0.509  34.175  24.142  1.00  0.00    -0.045 Cl
HETATM    8  N3  UNL     1       2.716  35.467  25.089  1.00  0.00    -0.317 N 
ATOM      9  H3  UNL     1       2.170  36.323  24.989  1.00  0.00     0.170 HD
HETATM   10  C11 UNL     1       3.969  35.540  25.551  1.00  0.00     0.142 A 
HETATM   11  C12 UNL     1       4.733  34.393  25.695  1.00  0.00     0.122 A 
HETATM   12  N4  UNL     1       5.912  34.814  26.170  1.00  0.00    -0.346 N 
ATOM     13  H4  UNL     1       6.698  34.200  26.383  1.00  0.00     0.167 HD
HETATM   14  C13 UNL     1       5.928  36.149  26.330  1.00  0.00     0.186 A 
HETATM   15  N5  UNL     1       4.724  36.594  25.945  1.00  0.00    -0.310 N 
ENDROOT
BRANCH   1  16
HETATM   16  C8  UNL     1       4.247  30.860  25.112  1.00  0.00     0.126 C 
BRANCH  16  17
HETATM   17  C7  UNL     1       4.959  30.145  24.005  1.00  0.00     0.003 C 
HETATM   18  C6  UNL     1       5.688  31.068  23.084  1.00  0.00     0.006 C 
HETATM   19  C5  UNL     1       6.896  30.431  22.432  1.00  0.00     0.005 C 
HETATM   20  C4  UNL     1       7.873  29.887  23.419  1.00  0.00    -0.014 C 
HETATM   21  C19 UNL     1       7.248  29.882  24.786  1.00  0.00     0.005 C 
HETATM   22  C18 UNL     1       5.909  29.146  24.648  1.00  0.00     0.006 C 
BRANCH  20  23
HETATM   23  C3  UNL     1       9.209  30.588  23.404  1.00  0.00     0.004 C 
BRANCH  23  24
HETATM   24  C2  UNL     1      10.360  29.659  23.180  1.00  0.00    -0.004 C 
HETATM   25  C1  UNL     1      11.558  30.498  22.774  1.00  0.00     0.005 C 
ENDBRANCH  23  24
ENDBRANCH  20  23
ENDBRANCH  16  17
ENDBRANCH   1  16
BRANCH  15  26
HETATM   26  C14 UNL     1       4.325  37.969  25.958  1.00  0.00     0.185 C 
HETATM   27  S1  UNL     1       5.772  39.078  26.187  1.00  0.00    -0.138 SA
HETATM   28  C15 UNL     1       5.053  40.201  27.451  1.00  0.00     0.110 C 
HETATM   29  C16 UNL     1       3.594  39.801  27.375  1.00  0.00     0.159 C 
HETATM   30  C17 UNL     1       3.558  38.298  27.245  1.00  0.00     0.180 C 
BRANCH  29  31
HETATM   31  O1  UNL     1       2.963  40.368  26.295  1.00  0.00    -0.392 OA
ATOM     32  H1  UNL     1       3.011  41.316  26.314  1.00  0.00     0.210 HD
ENDBRANCH  29  31
BRANCH  30  33
HETATM   33  O2  UNL     1       2.244  37.912  27.120  1.00  0.00    -0.390 OA
ATOM     34  H2  UNL     1       2.188  36.965  27.074  1.00  0.00     0.210 HD
ENDBRANCH  30  33
ENDBRANCH  15  26
TORSDOF 7
ENDMDL
MODEL 5
REMARK VINA RESULT: -8.567275678      6.159      9.244
REMARK  7 active torsions:
REMARK  status: ('A' for Active; 'I' for Inactive)
REMARK    1  A    between atoms: C2_2  and  C3_3 
REMARK    2  A    between atoms: C3_3  and  C4_4 
REMARK    3  A    between atoms: C7_7  and  C8_8 
REMARK    4  A    between atoms: C8_8  and  N1_9 
REMARK    5  A    between atoms: N5_23  and  C14_24 
REMARK    6  A    between atoms: C16_27  and  O1_28 
REMARK    7  A    between atoms: C17_30  and  O2_31 
ROOT
HETATM    1  N1  UNL     1       4.642  33.685  25.199  1.00  0.00    -0.374 N 
ATOM      2  H1  UNL     1       5.614  33.808  25.483  1.00  0.00     0.161 HD
HETATM    3  C9  UNL     1       3.810  34.663  25.236  1.00  0.00     0.134 A 
HETATM    4  N2  UNL     1       2.523  34.554  24.875  1.00  0.00    -0.317 N 
ATOM      5  H2  UNL     1       2.197  33.642  24.557  1.00  0.00     0.170 HD
HETATM    6  C10 UNL     1       1.639  35.548  24.902  1.00  0.00     0.182 A 
HETATM    7 CL1  UNL     1      -0.032  35.281  24.403  1.00  0.00    -0.045 Cl
HETATM    8  N3  UNL     1       2.070  36.754  25.323  1.00  0.00    -0.317 N 
ATOM      9  H3  UNL     1       1.416  37.536  25.355  1.00  0.00     0.170 HD
HETATM   10  C11 UNL     1       3.340  36.945  25.701  1.00  0.00     0.142 A 
HETATM   11  C12 UNL     1       4.248  35.900  25.666  1.00  0.00     0.122 A 
HETATM   12  N4  UNL     1       5.402  36.423  26.098  1.00  0.00    -0.346 N 
ATOM     13  H4  UNL     1       6.273  35.900  26.188  1.00  0.00     0.167 HD
HETATM   14  C13 UNL     1       5.267  37.727  26.399  1.00  0.00     0.186 A 
HETATM   15  N5  UNL     1       3.989  38.046  26.151  1.00  0.00    -0.310 N 
ENDROOT
BRANCH   1  16
HETATM   16  C8  UNL     1       4.153  32.407  24.744  1.00  0.00     0.126 C 
BRANCH  16  17
HETATM   17  C7  UNL     1       4.942  31.246  25.267  1.00  0.00     0.003 C 
HETATM   18  C6  UNL     1       5.186  30.191  24.237  1.00  0.00     0.006 C 
HETATM   19  C5  UNL     1       6.459  29.407  24.472  1.00  0.00     0.005 C 
HETATM   20  C4  UNL     1       7.671  30.273  24.551  1.00  0.00    -0.014 C 
HETATM   21  C19 UNL     1       7.248  31.712  24.646  1.00  0.00     0.005 C 
HETATM   22  C18 UNL     1       6.252  31.796  25.811  1.00  0.00     0.006 C 
BRANCH  20  23
HETATM   23  C3  UNL     1       8.659  30.041  23.434  1.00  0.00     0.004 C 
BRANCH  23  24
HETATM   24  C2  UNL     1      10.038  29.729  23.923  1.00  0.00    -0.004 C 
HETATM   25  C1  UNL     1      10.978  29.813  22.735  1.00  0.00     0.005 C 
ENDBRANCH  23  24
ENDBRANCH  20  23
ENDBRANCH  16  17
ENDBRANCH   1  16
BRANCH  15  26
HETATM   26  C14 UNL     1       3.426  39.349  26.339  1.00  0.00     0.185 C 
HETATM   27  S1  UNL     1       4.741  40.617  26.532  1.00  0.00    -0.138 SA
HETATM   28  C15 UNL     1       4.033  41.523  27.966  1.00  0.00     0.110 C 
HETATM   29  C16 UNL     1       2.636  40.939  27.997  1.00  0.00     0.159 C 
HETATM   30  C17 UNL     1       2.773  39.461  27.723  1.00  0.00     0.180 C 
BRANCH  29  31
HETATM   31  O1  UNL     1       1.823  41.506  27.046  1.00  0.00    -0.392 OA
ATOM     32  H1  UNL     1       1.163  40.897  26.737  1.00  0.00     0.210 HD
ENDBRANCH  29  31
BRANCH  30  33
HETATM   33  O2  UNL     1       1.511  38.914  27.691  1.00  0.00    -0.390 OA
ATOM     34  H2  UNL     1       1.415  38.282  28.393  1.00  0.00     0.210 HD
ENDBRANCH  30  33
ENDBRANCH  15  26
TORSDOF 7
ENDMDL
