MODEL 1
REMARK VINA RESULT: -7.196300328      0.000      0.000
REMARK  19 active torsions:
REMARK  status: ('A' for Active; 'I' for Inactive)
REMARK    1  A    between atoms: C2_2  and  C3_3 
REMARK    2  A    between atoms: C3_3  and  N1_4 
REMARK    3  A    between atoms: N1_4  and  C4_5 
REMARK       I    between atoms: N1_4  and  C23_41 
REMARK    4  A    between atoms: C4_5  and  C5_6 
REMARK    5  A    between atoms: C5_6  and  N2_7 
REMARK    6  A    between atoms: C6_8  and  C7_9 
REMARK    7  A    between atoms: C7_9  and  C8_10 
REMARK    8  A    between atoms: C8_10  and  C9_11 
REMARK    9  A    between atoms: C9_11  and  N3_12 
REMARK   10  A    between atoms: C12_20  and  N7_21 
REMARK   11  A    between atoms: N7_21  and  C13_23 
REMARK   12  A    between atoms: C13_23  and  C14_24 
REMARK   13  A    between atoms: C14_24  and  C15_25 
REMARK   14  A    between atoms: C15_25  and  O1_26 
REMARK   15  A    between atoms: O1_26  and  C16_27 
REMARK   16  A    between atoms: C18_29  and  N8_30 
REMARK       I    between atoms: N8_30  and  C19_32 
REMARK   17  A    between atoms: C20_38  and  C21_39 
REMARK   18  A    between atoms: C23_41  and  C24_43 
REMARK   19  A    between atoms: C24_43  and  N11_44 
ROOT
HETATM    1  N2  UNL     1       0.425   7.610  94.039  1.00  0.00    -0.374 N 
HETATM    2  C6  UNL     1       1.771   7.823  93.599  1.00  0.00     0.102 C 
HETATM    3  C11 UNL     1       2.750   7.013  94.370  1.00  0.00     0.146 C 
HETATM    4  N6  UNL     1       2.126   5.760  94.857  1.00  0.00    -0.376 N 
ATOM      5  H6  UNL     1       2.654   4.889  94.810  1.00  0.00     0.160 HD
HETATM    6  C12 UNL     1       0.907   5.747  95.348  1.00  0.00     0.096 C 
HETATM    7  C20 UNL     1       0.227   7.051  95.339  1.00  0.00     0.150 C 
ENDROOT
BRANCH   6   8
HETATM    8  N7  UNL     1       0.339   4.534  95.795  1.00  0.00    -0.378 N 
ATOM      9  H7  UNL     1       0.985   3.784  96.040  1.00  0.00     0.160 HD
BRANCH   8  10
HETATM   10  C13 UNL     1      -1.055   4.258  95.938  1.00  0.00     0.123 C 
BRANCH  10  11
HETATM   11  C14 UNL     1      -1.278   2.770  95.759  1.00  0.00     0.046 C 
BRANCH  11  12
HETATM   12  C15 UNL     1      -1.540   2.038  97.036  1.00  0.00     0.179 C 
BRANCH  12  13
HETATM   13  O1  UNL     1      -2.945   1.900  97.150  1.00  0.00    -0.329 OA
BRANCH  13  14
HETATM   14  C16 UNL     1      -3.778   2.852  97.702  1.00  0.00     0.210 A 
HETATM   15  C17 UNL     1      -3.461   3.878  98.546  1.00  0.00     0.116 A 
HETATM   16  C18 UNL     1      -4.634   4.579  98.839  1.00  0.00     0.134 A 
HETATM   17  N10 UNL     1      -5.580   3.918  98.143  1.00  0.00    -0.242 N 
HETATM   18  O3  UNL     1      -5.071   2.928  97.495  1.00  0.00    -0.211 OA
ATOM     19  H10 UNL     1      -6.569   4.168  98.130  1.00  0.00     0.196 HD
BRANCH  16  20
HETATM   20  N8  UNL     1      -4.762   5.613  99.601  1.00  0.00    -0.296 N 
HETATM   21  C19 UNL     1      -4.856   6.894  98.969  1.00  0.00     0.334 C 
HETATM   22  N9  UNL     1      -6.097   7.250  98.384  1.00  0.00    -0.040 NA
HETATM   23  O2  UNL     1      -3.839   7.627  98.969  1.00  0.00    -0.251 OA
ATOM     24  H8  UNL     1      -4.795   5.519 100.616  1.00  0.00     0.171 HD
ENDBRANCH  16  20
ENDBRANCH  13  14
ENDBRANCH  12  13
ENDBRANCH  11  12
ENDBRANCH  10  11
ENDBRANCH   8  10
ENDBRANCH   6   8
BRANCH   7  25
HETATM   25  C21 UNL     1       0.562   8.010  96.424  1.00  0.00     0.028 C 
HETATM   26  C22 UNL     1      -0.525   8.401  97.359  1.00  0.00     0.007 C 
ENDBRANCH   7  25
BRANCH   1  27
HETATM   27  C5  UNL     1      -0.652   7.940  93.241  1.00  0.00     0.079 C 
BRANCH  27  28
HETATM   28  C4  UNL     1      -0.850   7.068  92.023  1.00  0.00     0.169 C 
BRANCH  28  29
HETATM   29  N1  UNL     1      -0.940   5.671  92.276  1.00  0.00    -0.346 N 
HETATM   30  C23 UNL     1       0.126   4.814  91.860  1.00  0.00     0.245 C 
HETATM   31  O4  UNL     1       1.132   5.311  91.316  1.00  0.00    -0.272 OA
BRANCH  29  32
HETATM   32  C3  UNL     1      -2.067   5.066  92.899  1.00  0.00     0.126 C 
BRANCH  32  33
HETATM   33  C2  UNL     1      -3.389   5.721  92.658  1.00  0.00     0.015 C 
HETATM   34  C1  UNL     1      -4.215   5.697  93.957  1.00  0.00     0.006 C 
ENDBRANCH  32  33
ENDBRANCH  29  32
BRANCH  30  35
HETATM   35  C24 UNL     1       0.081   3.342  92.050  1.00  0.00     0.332 C 
BRANCH  35  36
HETATM   36  N11 UNL     1       1.240   2.892  92.794  1.00  0.00    -0.071 N 
ATOM     37 3H11 UNL     1       1.934   2.456  92.188  1.00  0.00     0.274 HD
ATOM     38 2H11 UNL     1       1.802   3.674  93.131  1.00  0.00     0.274 HD
ATOM     39 1H11 UNL     1       0.957   2.272  93.554  1.00  0.00     0.274 HD
ENDBRANCH  35  36
ENDBRANCH  30  35
ENDBRANCH  28  29
ENDBRANCH  27  28
ENDBRANCH   1  27
BRANCH   2  40
HETATM   40  C7  UNL     1       2.142   9.242  93.486  1.00  0.00     0.028 C 
BRANCH  40  41
HETATM   41  C8  UNL     1       3.564   9.628  93.420  1.00  0.00     0.022 C 
BRANCH  41  42
HETATM   42  C9  UNL     1       4.040  10.731  92.572  1.00  0.00     0.122 C 
BRANCH  42  43
HETATM   43  N3  UNL     1       5.394  10.298  92.101  1.00  0.00    -0.367 N 
HETATM   44  C10 UNL     1       5.574  10.168  90.846  1.00  0.00     0.196 C 
HETATM   45  N4  UNL     1       4.507  10.432  89.951  1.00  0.00    -0.067 NA
HETATM   46  N5  UNL     1       6.832   9.761  90.315  1.00  0.00    -0.067 NA
ATOM     47  H3  UNL     1       6.148  10.114  92.763  1.00  0.00     0.161 HD
ENDBRANCH  42  43
ENDBRANCH  41  42
ENDBRANCH  40  41
ENDBRANCH   2  40
TORSDOF 19
ENDMDL
MODEL 2
REMARK VINA RESULT: -7.138051326      2.420      3.681
REMARK  19 active torsions:
REMARK  status: ('A' for Active; 'I' for Inactive)
REMARK    1  A    between atoms: C2_2  and  C3_3 
REMARK    2  A    between atoms: C3_3  and  N1_4 
REMARK    3  A    between atoms: N1_4  and  C4_5 
REMARK       I    between atoms: N1_4  and  C23_41 
REMARK    4  A    between atoms: C4_5  and  C5_6 
REMARK    5  A    between atoms: C5_6  and  N2_7 
REMARK    6  A    between atoms: C6_8  and  C7_9 
REMARK    7  A    between atoms: C7_9  and  C8_10 
REMARK    8  A    between atoms: C8_10  and  C9_11 
REMARK    9  A    between atoms: C9_11  and  N3_12 
REMARK   10  A    between atoms: C12_20  and  N7_21 
REMARK   11  A    between atoms: N7_21  and  C13_23 
REMARK   12  A    between atoms: C13_23  and  C14_24 
REMARK   13  A    between atoms: C14_24  and  C15_25 
REMARK   14  A    between atoms: C15_25  and  O1_26 
REMARK   15  A    between atoms: O1_26  and  C16_27 
REMARK   16  A    between atoms: C18_29  and  N8_30 
REMARK       I    between atoms: N8_30  and  C19_32 
REMARK   17  A    between atoms: C20_38  and  C21_39 
REMARK   18  A    between atoms: C23_41  and  C24_43 
REMARK   19  A    between atoms: C24_43  and  N11_44 
ROOT
HETATM    1  N2  UNL     1      -0.365   7.181  94.307  1.00  0.00    -0.374 N 
HETATM    2  C6  UNL     1       0.884   7.162  93.609  1.00  0.00     0.102 C 
HETATM    3  C11 UNL     1       1.845   6.194  94.200  1.00  0.00     0.146 C 
HETATM    4  N6  UNL     1       1.126   5.063  94.835  1.00  0.00    -0.376 N 
ATOM      5  H6  UNL     1       1.480   4.115  94.713  1.00  0.00     0.160 HD
HETATM    6  C12 UNL     1       0.043   5.258  95.553  1.00  0.00     0.096 C 
HETATM    7  C20 UNL     1      -0.396   6.659  95.637  1.00  0.00     0.150 C 
ENDROOT
BRANCH   6   8
HETATM    8  N7  UNL     1      -0.623   4.158  96.138  1.00  0.00    -0.378 N 
ATOM      9  H7  UNL     1      -1.154   4.340  96.990  1.00  0.00     0.160 HD
BRANCH   8  10
HETATM   10  C13 UNL     1      -0.624   2.817  95.650  1.00  0.00     0.123 C 
BRANCH  10  11
HETATM   11  C14 UNL     1      -1.426   1.952  96.601  1.00  0.00     0.046 C 
BRANCH  11  12
HETATM   12  C15 UNL     1      -2.840   2.401  96.783  1.00  0.00     0.179 C 
BRANCH  12  13
HETATM   13  O1  UNL     1      -2.892   3.110  98.008  1.00  0.00    -0.329 OA
BRANCH  13  14
HETATM   14  C16 UNL     1      -3.410   4.380  98.151  1.00  0.00     0.210 A 
HETATM   15  C17 UNL     1      -4.374   4.818  99.015  1.00  0.00     0.116 A 
HETATM   16  C18 UNL     1      -4.571   6.184  98.793  1.00  0.00     0.134 A 
HETATM   17  N10 UNL     1      -3.704   6.471  97.802  1.00  0.00    -0.242 N 
HETATM   18  O3  UNL     1      -3.045   5.424  97.445  1.00  0.00    -0.211 OA
ATOM     19  H10 UNL     1      -3.585   7.397  97.390  1.00  0.00     0.196 HD
BRANCH  16  20
HETATM   20  N8  UNL     1      -5.396   6.967  99.401  1.00  0.00    -0.296 N 
HETATM   21  C19 UNL     1      -5.771   8.179  98.736  1.00  0.00     0.334 C 
HETATM   22  N9  UNL     1      -6.725   8.087  97.692  1.00  0.00    -0.040 NA
HETATM   23  O2  UNL     1      -5.237   9.248  99.113  1.00  0.00    -0.251 OA
ATOM     24  H8  UNL     1      -5.767   6.732 100.322  1.00  0.00     0.171 HD
ENDBRANCH  16  20
ENDBRANCH  13  14
ENDBRANCH  12  13
ENDBRANCH  11  12
ENDBRANCH  10  11
ENDBRANCH   8  10
ENDBRANCH   6   8
BRANCH   7  25
HETATM   25  C21 UNL     1       0.301   7.542  96.608  1.00  0.00     0.028 C 
HETATM   26  C22 UNL     1      -0.534   8.422  97.466  1.00  0.00     0.007 C 
ENDBRANCH   7  25
BRANCH   1  27
HETATM   27  C5  UNL     1      -1.507   7.693  93.724  1.00  0.00     0.079 C 
BRANCH  27  28
HETATM   28  C4  UNL     1      -2.807   7.298  94.385  1.00  0.00     0.169 C 
BRANCH  28  29
HETATM   29  N1  UNL     1      -3.902   8.178  94.160  1.00  0.00    -0.346 N 
HETATM   30  C23 UNL     1      -4.201   9.184  95.130  1.00  0.00     0.245 C 
HETATM   31  O4  UNL     1      -3.476   9.296  96.138  1.00  0.00    -0.272 OA
BRANCH  29  32
HETATM   32  C3  UNL     1      -4.750   8.089  93.021  1.00  0.00     0.126 C 
BRANCH  32  33
HETATM   33  C2  UNL     1      -4.855   6.743  92.377  1.00  0.00     0.015 C 
HETATM   34  C1  UNL     1      -4.196   6.789  90.986  1.00  0.00     0.006 C 
ENDBRANCH  32  33
ENDBRANCH  29  32
BRANCH  30  35
HETATM   35  C24 UNL     1      -5.354  10.109  94.985  1.00  0.00     0.332 C 
BRANCH  35  36
HETATM   36  N11 UNL     1      -5.700  10.693  96.265  1.00  0.00    -0.071 N 
ATOM     37 3H11 UNL     1      -6.437  10.168  96.736  1.00  0.00     0.274 HD
ATOM     38 2H11 UNL     1      -4.958  10.564  96.954  1.00  0.00     0.274 HD
ATOM     39 1H11 UNL     1      -5.947  11.677  96.153  1.00  0.00     0.274 HD
ENDBRANCH  35  36
ENDBRANCH  30  35
ENDBRANCH  28  29
ENDBRANCH  27  28
ENDBRANCH   1  27
BRANCH   2  40
HETATM   40  C7  UNL     1       1.461   8.497  93.384  1.00  0.00     0.028 C 
BRANCH  40  41
HETATM   41  C8  UNL     1       2.520   9.002  94.277  1.00  0.00     0.022 C 
BRANCH  41  42
HETATM   42  C9  UNL     1       3.729   9.664  93.765  1.00  0.00     0.122 C 
BRANCH  42  43
HETATM   43  N3  UNL     1       4.599   9.861  94.968  1.00  0.00    -0.367 N 
HETATM   44  C10 UNL     1       4.895  11.055  95.299  1.00  0.00     0.196 C 
HETATM   45  N4  UNL     1       4.401  12.141  94.533  1.00  0.00    -0.067 NA
HETATM   46  N5  UNL     1       5.717  11.331  96.430  1.00  0.00    -0.067 NA
ATOM     47  H3  UNL     1       4.943   9.065  95.505  1.00  0.00     0.161 HD
ENDBRANCH  42  43
ENDBRANCH  41  42
ENDBRANCH  40  41
ENDBRANCH   2  40
TORSDOF 19
ENDMDL
MODEL 3
REMARK VINA RESULT: -7.119495520      2.241      3.061
REMARK  19 active torsions:
REMARK  status: ('A' for Active; 'I' for Inactive)
REMARK    1  A    between atoms: C2_2  and  C3_3 
REMARK    2  A    between atoms: C3_3  and  N1_4 
REMARK    3  A    between atoms: N1_4  and  C4_5 
REMARK       I    between atoms: N1_4  and  C23_41 
REMARK    4  A    between atoms: C4_5  and  C5_6 
REMARK    5  A    between atoms: C5_6  and  N2_7 
REMARK    6  A    between atoms: C6_8  and  C7_9 
REMARK    7  A    between atoms: C7_9  and  C8_10 
REMARK    8  A    between atoms: C8_10  and  C9_11 
REMARK    9  A    between atoms: C9_11  and  N3_12 
REMARK   10  A    between atoms: C12_20  and  N7_21 
REMARK   11  A    between atoms: N7_21  and  C13_23 
REMARK   12  A    between atoms: C13_23  and  C14_24 
REMARK   13  A    between atoms: C14_24  and  C15_25 
REMARK   14  A    between atoms: C15_25  and  O1_26 
REMARK   15  A    between atoms: O1_26  and  C16_27 
REMARK   16  A    between atoms: C18_29  and  N8_30 
REMARK       I    between atoms: N8_30  and  C19_32 
REMARK   17  A    between atoms: C20_38  and  C21_39 
REMARK   18  A    between atoms: C23_41  and  C24_43 
REMARK   19  A    between atoms: C24_43  and  N11_44 
ROOT
HETATM    1  N2  UNL     1      -0.215   7.308  94.213  1.00  0.00    -0.374 N 
HETATM    2  C6  UNL     1       1.132   7.263  93.731  1.00  0.00     0.102 C 
HETATM    3  C11 UNL     1       1.960   6.271  94.469  1.00  0.00     0.146 C 
HETATM    4  N6  UNL     1       1.121   5.157  94.970  1.00  0.00    -0.376 N 
ATOM      5  H6  UNL     1       1.470   4.201  94.903  1.00  0.00     0.160 HD
HETATM    6  C12 UNL     1      -0.062   5.375  95.499  1.00  0.00     0.096 C 
HETATM    7  C20 UNL     1      -0.477   6.785  95.517  1.00  0.00     0.150 C 
ENDROOT
BRANCH   6   8
HETATM    8  N7  UNL     1      -0.840   4.289  95.960  1.00  0.00    -0.378 N 
ATOM      9  H7  UNL     1      -1.663   4.515  96.518  1.00  0.00     0.160 HD
BRANCH   8  10
HETATM   10  C13 UNL     1      -0.583   2.906  95.718  1.00  0.00     0.123 C 
BRANCH  10  11
HETATM   11  C14 UNL     1      -1.289   2.086  96.779  1.00  0.00     0.046 C 
BRANCH  11  12
HETATM   12  C15 UNL     1      -2.750   2.380  96.900  1.00  0.00     0.179 C 
BRANCH  12  13
HETATM   13  O1  UNL     1      -2.931   3.066  98.125  1.00  0.00    -0.329 OA
BRANCH  13  14
HETATM   14  C16 UNL     1      -3.468   4.333  98.236  1.00  0.00     0.210 A 
HETATM   15  C17 UNL     1      -4.458   4.771  99.069  1.00  0.00     0.116 A 
HETATM   16  C18 UNL     1      -4.666   6.131  98.822  1.00  0.00     0.134 A 
HETATM   17  N10 UNL     1      -3.778   6.414  97.848  1.00  0.00    -0.242 N 
HETATM   18  O3  UNL     1      -3.098   5.370  97.523  1.00  0.00    -0.211 OA
ATOM     19  H10 UNL     1      -3.660   7.335  97.424  1.00  0.00     0.196 HD
BRANCH  16  20
HETATM   20  N8  UNL     1      -5.516   6.913  99.397  1.00  0.00    -0.296 N 
HETATM   21  C19 UNL     1      -5.758   8.188  98.792  1.00  0.00     0.334 C 
HETATM   22  N9  UNL     1      -6.594   8.224  97.648  1.00  0.00    -0.040 NA
HETATM   23  O2  UNL     1      -5.219   9.196  99.306  1.00  0.00    -0.251 OA
ATOM     24  H8  UNL     1      -5.997   6.633 100.252  1.00  0.00     0.171 HD
ENDBRANCH  16  20
ENDBRANCH  13  14
ENDBRANCH  12  13
ENDBRANCH  11  12
ENDBRANCH  10  11
ENDBRANCH   8  10
ENDBRANCH   6   8
BRANCH   7  25
HETATM   25  C21 UNL     1       0.068   7.650  96.595  1.00  0.00     0.028 C 
HETATM   26  C22 UNL     1      -0.894   8.468  97.379  1.00  0.00     0.007 C 
ENDBRANCH   7  25
BRANCH   1  27
HETATM   27  C5  UNL     1      -1.233   7.847  93.452  1.00  0.00     0.079 C 
BRANCH  27  28
HETATM   28  C4  UNL     1      -1.367   7.285  92.055  1.00  0.00     0.169 C 
BRANCH  28  29
HETATM   29  N1  UNL     1      -1.117   8.203  90.998  1.00  0.00    -0.346 N 
HETATM   30  C23 UNL     1       0.044   8.031  90.182  1.00  0.00     0.245 C 
HETATM   31  O4  UNL     1       0.797   7.059  90.388  1.00  0.00    -0.272 OA
BRANCH  29  32
HETATM   32  C3  UNL     1      -1.954   9.320  90.725  1.00  0.00     0.126 C 
BRANCH  32  33
HETATM   33  C2  UNL     1      -3.367   9.012  90.344  1.00  0.00     0.015 C 
HETATM   34  C1  UNL     1      -3.431   8.679  88.842  1.00  0.00     0.006 C 
ENDBRANCH  32  33
ENDBRANCH  29  32
BRANCH  30  35
HETATM   35  C24 UNL     1       0.393   8.974  89.089  1.00  0.00     0.332 C 
BRANCH  35  36
HETATM   36  N11 UNL     1       0.115   8.379  87.798  1.00  0.00    -0.071 N 
ATOM     37 3H11 UNL     1       0.790   8.672  87.092  1.00  0.00     0.274 HD
ATOM     38 2H11 UNL     1       0.313   7.378  87.791  1.00  0.00     0.274 HD
ATOM     39 1H11 UNL     1      -0.844   8.579  87.512  1.00  0.00     0.274 HD
ENDBRANCH  35  36
ENDBRANCH  30  35
ENDBRANCH  28  29
ENDBRANCH  27  28
ENDBRANCH   1  27
BRANCH   2  40
HETATM   40  C7  UNL     1       1.767   8.584  93.613  1.00  0.00     0.028 C 
BRANCH  40  41
HETATM   41  C8  UNL     1       3.178   8.762  94.003  1.00  0.00     0.022 C 
BRANCH  41  42
HETATM   42  C9  UNL     1       3.850  10.069  93.947  1.00  0.00     0.122 C 
BRANCH  42  43
HETATM   43  N3  UNL     1       4.672  10.133  95.198  1.00  0.00    -0.367 N 
HETATM   44  C10 UNL     1       4.966  11.284  95.658  1.00  0.00     0.196 C 
HETATM   45  N4  UNL     1       4.513  12.448  94.987  1.00  0.00    -0.067 NA
HETATM   46  N5  UNL     1       5.743  11.433  96.843  1.00  0.00    -0.067 NA
ATOM     47  H3  UNL     1       4.986   9.282  95.666  1.00  0.00     0.161 HD
ENDBRANCH  42  43
ENDBRANCH  41  42
ENDBRANCH  40  41
ENDBRANCH   2  40
TORSDOF 19
ENDMDL
MODEL 4
REMARK VINA RESULT: -7.045004024      2.217      2.921
REMARK  19 active torsions:
REMARK  status: ('A' for Active; 'I' for Inactive)
REMARK    1  A    between atoms: C2_2  and  C3_3 
REMARK    2  A    between atoms: C3_3  and  N1_4 
REMARK    3  A    between atoms: N1_4  and  C4_5 
REMARK       I    between atoms: N1_4  and  C23_41 
REMARK    4  A    between atoms: C4_5  and  C5_6 
REMARK    5  A    between atoms: C5_6  and  N2_7 
REMARK    6  A    between atoms: C6_8  and  C7_9 
REMARK    7  A    between atoms: C7_9  and  C8_10 
REMARK    8  A    between atoms: C8_10  and  C9_11 
REMARK    9  A    between atoms: C9_11  and  N3_12 
REMARK   10  A    between atoms: C12_20  and  N7_21 
REMARK   11  A    between atoms: N7_21  and  C13_23 
REMARK   12  A    between atoms: C13_23  and  C14_24 
REMARK   13  A    between atoms: C14_24  and  C15_25 
REMARK   14  A    between atoms: C15_25  and  O1_26 
REMARK   15  A    between atoms: O1_26  and  C16_27 
REMARK   16  A    between atoms: C18_29  and  N8_30 
REMARK       I    between atoms: N8_30  and  C19_32 
REMARK   17  A    between atoms: C20_38  and  C21_39 
REMARK   18  A    between atoms: C23_41  and  C24_43 
REMARK   19  A    between atoms: C24_43  and  N11_44 
ROOT
HETATM    1  N2  UNL     1      -0.071   7.266  94.228  1.00  0.00    -0.374 N 
HETATM    2  C6  UNL     1       1.297   7.240  93.807  1.00  0.00     0.102 C 
HETATM    3  C11 UNL     1       2.042   6.091  94.387  1.00  0.00     0.146 C 
HETATM    4  N6  UNL     1       1.133   4.948  94.638  1.00  0.00    -0.376 N 
ATOM      5  H6  UNL     1       1.444   4.004  94.413  1.00  0.00     0.160 HD
HETATM    6  C12 UNL     1      -0.067   5.126  95.144  1.00  0.00     0.096 C 
HETATM    7  C20 UNL     1      -0.424   6.529  95.401  1.00  0.00     0.150 C 
ENDROOT
BRANCH   6   8
HETATM    8  N7  UNL     1      -0.913   4.016  95.363  1.00  0.00    -0.378 N 
ATOM      9  H7  UNL     1      -1.874   4.096  95.031  1.00  0.00     0.160 HD
BRANCH   8  10
HETATM   10  C13 UNL     1      -0.550   2.794  96.004  1.00  0.00     0.123 C 
BRANCH  10  11
HETATM   11  C14 UNL     1      -1.649   2.406  96.973  1.00  0.00     0.046 C 
BRANCH  11  12
HETATM   12  C15 UNL     1      -2.928   3.153  96.770  1.00  0.00     0.179 C 
BRANCH  12  13
HETATM   13  O1  UNL     1      -2.934   4.219  97.702  1.00  0.00    -0.329 OA
BRANCH  13  14
HETATM   14  C16 UNL     1      -3.391   5.491  97.426  1.00  0.00     0.210 A 
HETATM   15  C17 UNL     1      -3.807   6.458  98.298  1.00  0.00     0.116 A 
HETATM   16  C18 UNL     1      -4.181   7.582  97.558  1.00  0.00     0.134 A 
HETATM   17  N10 UNL     1      -3.960   7.208  96.282  1.00  0.00    -0.242 N 
HETATM   18  O3  UNL     1      -3.507   6.004  96.224  1.00  0.00    -0.211 OA
ATOM     19  H10 UNL     1      -4.130   7.800  95.469  1.00  0.00     0.196 HD
BRANCH  16  20
HETATM   20  N8  UNL     1      -4.632   8.705  98.007  1.00  0.00    -0.296 N 
HETATM   21  C19 UNL     1      -3.800   9.861  97.853  1.00  0.00     0.334 C 
HETATM   22  N9  UNL     1      -3.747  10.467  96.573  1.00  0.00    -0.040 NA
HETATM   23  O2  UNL     1      -3.170  10.271  98.856  1.00  0.00    -0.251 OA
ATOM     24  H8  UNL     1      -5.546   8.766  98.455  1.00  0.00     0.171 HD
ENDBRANCH  16  20
ENDBRANCH  13  14
ENDBRANCH  12  13
ENDBRANCH  11  12
ENDBRANCH  10  11
ENDBRANCH   8  10
ENDBRANCH   6   8
BRANCH   7  25
HETATM   25  C21 UNL     1       0.099   7.157  96.642  1.00  0.00     0.028 C 
HETATM   26  C22 UNL     1      -0.573   8.390  97.129  1.00  0.00     0.007 C 
ENDBRANCH   7  25
BRANCH   1  27
HETATM   27  C5  UNL     1      -1.023   7.984  93.533  1.00  0.00     0.079 C 
BRANCH  27  28
HETATM   28  C4  UNL     1      -1.367   7.449  92.162  1.00  0.00     0.169 C 
BRANCH  28  29
HETATM   29  N1  UNL     1      -1.094   8.326  91.075  1.00  0.00    -0.346 N 
HETATM   30  C23 UNL     1       0.054   8.089  90.256  1.00  0.00     0.245 C 
HETATM   31  O4  UNL     1       0.774   7.097  90.486  1.00  0.00    -0.272 OA
BRANCH  29  32
HETATM   32  C3  UNL     1      -1.894   9.464  90.775  1.00  0.00     0.126 C 
BRANCH  32  33
HETATM   33  C2  UNL     1      -3.141   9.209  89.990  1.00  0.00     0.015 C 
HETATM   34  C1  UNL     1      -4.352   9.213  90.941  1.00  0.00     0.006 C 
ENDBRANCH  32  33
ENDBRANCH  29  32
BRANCH  30  35
HETATM   35  C24 UNL     1       0.426   8.986  89.133  1.00  0.00     0.332 C 
BRANCH  35  36
HETATM   36  N11 UNL     1       0.131   8.357  87.862  1.00  0.00    -0.071 N 
ATOM     37 3H11 UNL     1       0.292   7.350  87.890  1.00  0.00     0.274 HD
ATOM     38 2H11 UNL     1      -0.871   8.345  87.668  1.00  0.00     0.274 HD
ATOM     39 1H11 UNL     1       0.657   8.805  87.111  1.00  0.00     0.274 HD
ENDBRANCH  35  36
ENDBRANCH  30  35
ENDBRANCH  28  29
ENDBRANCH  27  28
ENDBRANCH   1  27
BRANCH   2  40
HETATM   40  C7  UNL     1       1.992   8.527  93.961  1.00  0.00     0.028 C 
BRANCH  40  41
HETATM   41  C8  UNL     1       2.547   9.211  92.779  1.00  0.00     0.022 C 
BRANCH  41  42
HETATM   42  C9  UNL     1       3.503  10.322  92.890  1.00  0.00     0.122 C 
BRANCH  42  43
HETATM   43  N3  UNL     1       4.328  10.248  91.642  1.00  0.00    -0.367 N 
HETATM   44  C10 UNL     1       5.529   9.836  91.745  1.00  0.00     0.196 C 
HETATM   45  N4  UNL     1       6.039   9.466  93.015  1.00  0.00    -0.067 NA
HETATM   46  N5  UNL     1       6.380   9.735  90.607  1.00  0.00    -0.067 NA
ATOM     47  H3  UNL     1       3.940  10.519  90.738  1.00  0.00     0.161 HD
ENDBRANCH  42  43
ENDBRANCH  41  42
ENDBRANCH  40  41
ENDBRANCH   2  40
TORSDOF 19
ENDMDL
MODEL 5
REMARK VINA RESULT: -7.009685398      1.467      1.924
REMARK  19 active torsions:
REMARK  status: ('A' for Active; 'I' for Inactive)
REMARK    1  A    between atoms: C2_2  and  C3_3 
REMARK    2  A    between atoms: C3_3  and  N1_4 
REMARK    3  A    between atoms: N1_4  and  C4_5 
REMARK       I    between atoms: N1_4  and  C23_41 
REMARK    4  A    between atoms: C4_5  and  C5_6 
REMARK    5  A    between atoms: C5_6  and  N2_7 
REMARK    6  A    between atoms: C6_8  and  C7_9 
REMARK    7  A    between atoms: C7_9  and  C8_10 
REMARK    8  A    between atoms: C8_10  and  C9_11 
REMARK    9  A    between atoms: C9_11  and  N3_12 
REMARK   10  A    between atoms: C12_20  and  N7_21 
REMARK   11  A    between atoms: N7_21  and  C13_23 
REMARK   12  A    between atoms: C13_23  and  C14_24 
REMARK   13  A    between atoms: C14_24  and  C15_25 
REMARK   14  A    between atoms: C15_25  and  O1_26 
REMARK   15  A    between atoms: O1_26  and  C16_27 
REMARK   16  A    between atoms: C18_29  and  N8_30 
REMARK       I    between atoms: N8_30  and  C19_32 
REMARK   17  A    between atoms: C20_38  and  C21_39 
REMARK   18  A    between atoms: C23_41  and  C24_43 
REMARK   19  A    between atoms: C24_43  and  N11_44 
ROOT
HETATM    1  N2  UNL     1       0.282   7.712  94.132  1.00  0.00    -0.374 N 
HETATM    2  C6  UNL     1       1.692   7.738  93.887  1.00  0.00     0.102 C 
HETATM    3  C11 UNL     1       2.432   6.788  94.759  1.00  0.00     0.146 C 
HETATM    4  N6  UNL     1       1.580   5.629  95.116  1.00  0.00    -0.376 N 
ATOM      5  H6  UNL     1       1.983   4.693  95.113  1.00  0.00     0.160 HD
HETATM    6  C12 UNL     1       0.314   5.783  95.434  1.00  0.00     0.096 C 
HETATM    7  C20 UNL     1      -0.171   7.170  95.375  1.00  0.00     0.150 C 
ENDROOT
BRANCH   6   8
HETATM    8  N7  UNL     1      -0.474   4.657  95.761  1.00  0.00    -0.378 N 
ATOM      9  H7  UNL     1      -1.483   4.750  95.645  1.00  0.00     0.160 HD
BRANCH   8  10
HETATM   10  C13 UNL     1       0.009   3.401  96.237  1.00  0.00     0.123 C 
BRANCH  10  11
HETATM   11  C14 UNL     1      -1.077   2.360  96.053  1.00  0.00     0.046 C 
BRANCH  11  12
HETATM   12  C15 UNL     1      -2.094   2.344  97.148  1.00  0.00     0.179 C 
BRANCH  12  13
HETATM   13  O1  UNL     1      -3.091   3.287  96.797  1.00  0.00    -0.329 OA
BRANCH  13  14
HETATM   14  C16 UNL     1      -3.520   4.308  97.620  1.00  0.00     0.210 A 
HETATM   15  C17 UNL     1      -3.613   5.644  97.347  1.00  0.00     0.116 A 
HETATM   16  C18 UNL     1      -4.099   6.289  98.488  1.00  0.00     0.134 A 
HETATM   17  N10 UNL     1      -4.266   5.285  99.372  1.00  0.00    -0.242 N 
HETATM   18  O3  UNL     1      -3.929   4.153  98.857  1.00  0.00    -0.211 OA
ATOM     19  H10 UNL     1      -4.614   5.405 100.323  1.00  0.00     0.196 HD
BRANCH  16  20
HETATM   20  N8  UNL     1      -4.325   7.550  98.640  1.00  0.00    -0.296 N 
HETATM   21  C19 UNL     1      -5.691   7.982  98.638  1.00  0.00     0.334 C 
HETATM   22  N9  UNL     1      -6.451   7.767  99.815  1.00  0.00    -0.040 NA
HETATM   23  O2  UNL     1      -6.135   8.525  97.599  1.00  0.00    -0.251 OA
ATOM     24  H8  UNL     1      -3.560   8.214  98.758  1.00  0.00     0.171 HD
ENDBRANCH  16  20
ENDBRANCH  13  14
ENDBRANCH  12  13
ENDBRANCH  11  12
ENDBRANCH  10  11
ENDBRANCH   8  10
ENDBRANCH   6   8
BRANCH   7  25
HETATM   25  C21 UNL     1       0.138   8.058  96.526  1.00  0.00     0.028 C 
HETATM   26  C22 UNL     1      -0.975   8.408  97.446  1.00  0.00     0.007 C 
ENDBRANCH   7  25
BRANCH   1  27
HETATM   27  C5  UNL     1      -0.617   8.201  93.206  1.00  0.00     0.079 C 
BRANCH  27  28
HETATM   28  C4  UNL     1      -0.814   7.344  91.977  1.00  0.00     0.169 C 
BRANCH  28  29
HETATM   29  N1  UNL     1      -0.993   5.954  92.220  1.00  0.00    -0.346 N 
HETATM   30  C23 UNL     1       0.056   5.044  91.882  1.00  0.00     0.245 C 
HETATM   31  O4  UNL     1       1.123   5.488  91.415  1.00  0.00    -0.272 OA
BRANCH  29  32
HETATM   32  C3  UNL     1      -2.192   5.407  92.757  1.00  0.00     0.126 C 
BRANCH  32  33
HETATM   33  C2  UNL     1      -3.472   5.993  92.252  1.00  0.00     0.015 C 
HETATM   34  C1  UNL     1      -4.488   6.070  93.407  1.00  0.00     0.006 C 
ENDBRANCH  32  33
ENDBRANCH  29  32
BRANCH  30  35
HETATM   35  C24 UNL     1      -0.077   3.576  92.066  1.00  0.00     0.332 C 
BRANCH  35  36
HETATM   36  N11 UNL     1       1.075   3.047  92.768  1.00  0.00    -0.071 N 
ATOM     37 3H11 UNL     1       1.951   3.350  92.344  1.00  0.00     0.274 HD
ATOM     38 2H11 UNL     1       1.192   3.480  93.685  1.00  0.00     0.274 HD
ATOM     39 1H11 UNL     1       1.017   2.030  92.833  1.00  0.00     0.274 HD
ENDBRANCH  35  36
ENDBRANCH  30  35
ENDBRANCH  28  29
ENDBRANCH  27  28
ENDBRANCH   1  27
BRANCH   2  40
HETATM   40  C7  UNL     1       2.269   9.091  93.872  1.00  0.00     0.028 C 
BRANCH  40  41
HETATM   41  C8  UNL     1       3.295   9.444  92.874  1.00  0.00     0.022 C 
BRANCH  41  42
HETATM   42  C9  UNL     1       4.674   9.790  93.253  1.00  0.00     0.122 C 
BRANCH  42  43
HETATM   43  N3  UNL     1       4.589  11.189  93.782  1.00  0.00    -0.367 N 
HETATM   44  C10 UNL     1       5.054  11.414  94.946  1.00  0.00     0.196 C 
HETATM   45  N4  UNL     1       5.629  10.354  95.692  1.00  0.00    -0.067 NA
HETATM   46  N5  UNL     1       5.014  12.717  95.523  1.00  0.00    -0.067 NA
ATOM     47  H3  UNL     1       4.172  11.937  93.227  1.00  0.00     0.161 HD
ENDBRANCH  42  43
ENDBRANCH  41  42
ENDBRANCH  40  41
ENDBRANCH   2  40
TORSDOF 19
ENDMDL
