MODEL 1
REMARK VINA RESULT: -6.814388793      0.000      0.000
REMARK  18 active torsions:
REMARK  status: ('A' for Active; 'I' for Inactive)
REMARK    1  A    between atoms: C4_6  and  C5_7 
REMARK    2  A    between atoms: C5_7  and  N2_8 
REMARK       I    between atoms: C6_10  and  N4_12 
REMARK    3  A    between atoms: N4_12  and  C7_14 
REMARK    4  A    between atoms: C7_14  and  C8_15 
REMARK    5  A    between atoms: C8_15  and  N5_16 
REMARK    6  A    between atoms: N5_16  and  C9_19 
REMARK    7  A    between atoms: C9_19  and  C10_20 
REMARK    8  A    between atoms: C10_20  and  C11_21 
REMARK    9  A    between atoms: C11_21  and  N6_22 
REMARK   10  A    between atoms: N6_22  and  C12_25 
REMARK   11  A    between atoms: C12_25  and  C13_26 
REMARK   12  A    between atoms: C13_26  and  C14_27 
REMARK   13  A    between atoms: C14_27  and  C15_28 
REMARK   14  A    between atoms: C15_28  and  N7_29 
REMARK   15  A    between atoms: N7_29  and  C16_32 
REMARK   16  A    between atoms: C16_32  and  C17_33 
REMARK   17  A    between atoms: C17_33  and  C18_34 
REMARK   18  A    between atoms: C18_34  and  N8_35 
ROOT
HETATM    1  C7  UNL     1       3.606   8.793  93.971  1.00  0.00     0.150 C 
ENDROOT
BRANCH   1   2
HETATM    2  N4  UNL     1       2.250   9.276  93.941  1.00  0.00    -0.363 N 
HETATM    3  C6  UNL     1       1.268   8.609  93.171  1.00  0.00     0.184 C 
HETATM    4  N2  UNL     1       0.229   8.014  93.576  1.00  0.00    -0.363 N 
HETATM    5  N3  UNL     1       1.540   8.646  91.737  1.00  0.00    -0.064 NA
ATOM      6  H2  UNL     1      -0.334   7.605  92.829  1.00  0.00     0.162 HD
ATOM      7  H4  UNL     1       1.995  10.105  94.478  1.00  0.00     0.162 HD
BRANCH   4   8
HETATM    8  C5  UNL     1      -0.297   7.811  94.875  1.00  0.00     0.142 C 
BRANCH   8   9
HETATM    9  C4  UNL     1      -1.801   7.561  94.775  1.00  0.00     0.099 C 
HETATM   10  S1  UNL     1      -2.236   7.078  93.096  1.00  0.00    -0.150 SA
HETATM   11  C3  UNL     1      -2.108   5.306  92.921  1.00  0.00     0.082 C 
HETATM   12  C2  UNL     1      -0.872   5.011  92.103  1.00  0.00     0.141 C 
HETATM   13  C25 UNL     1      -1.997   4.513  94.147  1.00  0.00     0.127 C 
HETATM   14  N1  UNL     1      -0.014   4.204  92.934  1.00  0.00    -0.355 N 
HETATM   15  C1  UNL     1       1.298   3.755  92.535  1.00  0.00     0.152 C 
HETATM   16  C26 UNL     1      -0.612   3.911  94.168  1.00  0.00     0.227 C 
HETATM   17  O3  UNL     1      -0.124   3.271  95.136  1.00  0.00    -0.273 OA
HETATM   18  C24 UNL     1      -2.362   5.066  95.442  1.00  0.00     0.171 C 
HETATM   19  C19 UNL     1      -2.205   6.484  95.711  1.00  0.00    -0.013 C 
HETATM   20  O2  UNL     1      -3.639   4.679  95.892  1.00  0.00    -0.345 OA
HETATM   21  C20 UNL     1      -2.444   6.832  96.976  1.00  0.00     0.145 C 
HETATM   22  O1  UNL     1      -2.821   5.761  97.797  1.00  0.00    -0.327 OA
HETATM   23  C21 UNL     1      -3.811   4.876  97.239  1.00  0.00     0.162 C 
HETATM   24  C22 UNL     1      -3.955   3.614  98.049  1.00  0.00     0.079 C 
HETATM   25  C23 UNL     1      -5.153   5.617  97.387  1.00  0.00     0.079 C 
ENDBRANCH   8   9
ENDBRANCH   4   8
ENDBRANCH   1   2
BRANCH   1  26
HETATM   26  C8  UNL     1       4.529  10.011  94.093  1.00  0.00     0.251 C 
BRANCH  26  27
HETATM   27  N5  UNL     1       5.218  10.275  92.876  1.00  0.00    -0.074 N 
ATOM     28  H52 UNL     1       6.085  10.788  93.036  1.00  0.00     0.277 HD
ATOM     29  H51 UNL     1       5.614   9.425  92.474  1.00  0.00     0.277 HD
BRANCH  27  30
HETATM   30  C9  UNL     1       4.359  10.958  91.946  1.00  0.00     0.234 C 
BRANCH  30  31
HETATM   31  C10 UNL     1       4.787  10.590  90.539  1.00  0.00     0.055 C 
BRANCH  31  32
HETATM   32  C11 UNL     1       3.499  10.748  89.698  1.00  0.00     0.233 C 
BRANCH  32  33
HETATM   33  N6  UNL     1       2.550  11.351  90.573  1.00  0.00    -0.075 N 
ATOM     34  H62 UNL     1       2.346  10.754  91.374  1.00  0.00     0.277 HD
ATOM     35  H61 UNL     1       2.950  12.146  91.069  1.00  0.00     0.277 HD
BRANCH  33  36
HETATM   36  C12 UNL     1       1.354  11.715  89.868  1.00  0.00     0.232 C 
BRANCH  36  37
HETATM   37  C13 UNL     1       0.351  12.258  90.840  1.00  0.00     0.029 C 
BRANCH  37  38
HETATM   38  C14 UNL     1       0.262  13.773  90.776  1.00  0.00     0.029 C 
BRANCH  38  39
HETATM   39  C15 UNL     1       0.130  14.347  92.183  1.00  0.00     0.232 C 
BRANCH  39  40
HETATM   40  N7  UNL     1       1.439  14.372  92.826  1.00  0.00    -0.075 N 
ATOM     41  H72 UNL     1       1.611  13.504  93.332  1.00  0.00     0.277 HD
ATOM     42  H71 UNL     1       2.186  14.313  92.133  1.00  0.00     0.277 HD
BRANCH  40  43
HETATM   43  C16 UNL     1       1.627  15.502  93.678  1.00  0.00     0.233 C 
BRANCH  43  44
HETATM   44  C17 UNL     1       1.006  16.716  92.979  1.00  0.00     0.055 C 
BRANCH  44  45
HETATM   45  C18 UNL     1       1.778  17.977  93.270  1.00  0.00     0.231 C 
BRANCH  45  46
HETATM   46  N8  UNL     1       3.128  17.790  92.756  1.00  0.00    -0.079 N 
ATOM     47  H83 UNL     1       3.150  17.604  91.753  1.00  0.00     0.274 HD
ATOM     48  H82 UNL     1       3.673  18.653  92.744  1.00  0.00     0.274 HD
ATOM     49  H81 UNL     1       3.565  17.051  93.308  1.00  0.00     0.274 HD
ENDBRANCH  45  46
ENDBRANCH  44  45
ENDBRANCH  43  44
ENDBRANCH  40  43
ENDBRANCH  39  40
ENDBRANCH  38  39
ENDBRANCH  37  38
ENDBRANCH  36  37
ENDBRANCH  33  36
ENDBRANCH  32  33
ENDBRANCH  31  32
ENDBRANCH  30  31
ENDBRANCH  27  30
ENDBRANCH  26  27
ENDBRANCH   1  26
TORSDOF 18
ENDMDL
MODEL 2
REMARK VINA RESULT: -6.687617776      1.425      2.386
REMARK  18 active torsions:
REMARK  status: ('A' for Active; 'I' for Inactive)
REMARK    1  A    between atoms: C4_6  and  C5_7 
REMARK    2  A    between atoms: C5_7  and  N2_8 
REMARK       I    between atoms: C6_10  and  N4_12 
REMARK    3  A    between atoms: N4_12  and  C7_14 
REMARK    4  A    between atoms: C7_14  and  C8_15 
REMARK    5  A    between atoms: C8_15  and  N5_16 
REMARK    6  A    between atoms: N5_16  and  C9_19 
REMARK    7  A    between atoms: C9_19  and  C10_20 
REMARK    8  A    between atoms: C10_20  and  C11_21 
REMARK    9  A    between atoms: C11_21  and  N6_22 
REMARK   10  A    between atoms: N6_22  and  C12_25 
REMARK   11  A    between atoms: C12_25  and  C13_26 
REMARK   12  A    between atoms: C13_26  and  C14_27 
REMARK   13  A    between atoms: C14_27  and  C15_28 
REMARK   14  A    between atoms: C15_28  and  N7_29 
REMARK   15  A    between atoms: N7_29  and  C16_32 
REMARK   16  A    between atoms: C16_32  and  C17_33 
REMARK   17  A    between atoms: C17_33  and  C18_34 
REMARK   18  A    between atoms: C18_34  and  N8_35 
ROOT
HETATM    1  C7  UNL     1       3.541  10.689  91.556  1.00  0.00     0.150 C 
ENDROOT
BRANCH   1   2
HETATM    2  N4  UNL     1       3.893   9.604  92.435  1.00  0.00    -0.363 N 
HETATM    3  C6  UNL     1       3.558   9.655  93.809  1.00  0.00     0.184 C 
HETATM    4  N2  UNL     1       2.776   8.899  94.451  1.00  0.00    -0.363 N 
HETATM    5  N3  UNL     1       4.232  10.736  94.523  1.00  0.00    -0.064 NA
ATOM      6  H2  UNL     1       2.692   9.131  95.441  1.00  0.00     0.162 HD
ATOM      7  H4  UNL     1       4.387   8.792  92.064  1.00  0.00     0.162 HD
BRANCH   4   8
HETATM    8  C5  UNL     1       1.993   7.789  94.049  1.00  0.00     0.142 C 
BRANCH   8   9
HETATM    9  C4  UNL     1       0.535   8.224  93.912  1.00  0.00     0.099 C 
HETATM   10  S1  UNL     1      -0.065   7.861  92.254  1.00  0.00    -0.150 SA
HETATM   11  C3  UNL     1      -0.737   6.208  92.199  1.00  0.00     0.082 C 
HETATM   12  C2  UNL     1       0.243   5.336  91.446  1.00  0.00     0.141 C 
HETATM   13  C25 UNL     1      -0.992   5.540  93.477  1.00  0.00     0.127 C 
HETATM   14  N1  UNL     1       0.650   4.297  92.358  1.00  0.00    -0.355 N 
HETATM   15  C1  UNL     1       1.627   3.285  92.036  1.00  0.00     0.152 C 
HETATM   16  C26 UNL     1      -0.020   4.391  93.587  1.00  0.00     0.227 C 
HETATM   17  O3  UNL     1       0.130   3.675  94.611  1.00  0.00    -0.273 OA
HETATM   18  C24 UNL     1      -1.078   6.292  94.720  1.00  0.00     0.171 C 
HETATM   19  C19 UNL     1      -0.308   7.509  94.901  1.00  0.00    -0.013 C 
HETATM   20  O2  UNL     1      -2.395   6.546  95.149  1.00  0.00    -0.345 OA
HETATM   21  C20 UNL     1      -0.372   8.020  96.132  1.00  0.00     0.145 C 
HETATM   22  O1  UNL     1      -1.187   7.291  97.007  1.00  0.00    -0.327 OA
HETATM   23  C21 UNL     1      -2.466   6.897  96.472  1.00  0.00     0.162 C 
HETATM   24  C22 UNL     1      -3.158   5.893  97.357  1.00  0.00     0.079 C 
HETATM   25  C23 UNL     1      -3.339   8.165  96.524  1.00  0.00     0.079 C 
ENDBRANCH   8   9
ENDBRANCH   4   8
ENDBRANCH   1   2
BRANCH   1  26
HETATM   26  C8  UNL     1       4.514  10.661  90.372  1.00  0.00     0.251 C 
BRANCH  26  27
HETATM   27  N5  UNL     1       3.853  10.924  89.140  1.00  0.00    -0.074 N 
ATOM     28  H52 UNL     1       4.119  11.829  88.753  1.00  0.00     0.277 HD
ATOM     29  H51 UNL     1       4.202  10.328  88.389  1.00  0.00     0.277 HD
BRANCH  27  30
HETATM   30  C9  UNL     1       2.427  10.809  89.295  1.00  0.00     0.234 C 
BRANCH  30  31
HETATM   31  C10 UNL     1       1.759  11.525  88.137  1.00  0.00     0.055 C 
BRANCH  31  32
HETATM   32  C11 UNL     1       0.339  10.917  88.085  1.00  0.00     0.233 C 
BRANCH  32  33
HETATM   33  N6  UNL     1      -0.155  10.999  89.418  1.00  0.00    -0.075 N 
ATOM     34  H62 UNL     1      -0.517  10.102  89.741  1.00  0.00     0.277 HD
ATOM     35  H61 UNL     1       0.601  11.114  90.092  1.00  0.00     0.277 HD
BRANCH  33  36
HETATM   36  C12 UNL     1      -1.137  12.039  89.544  1.00  0.00     0.232 C 
BRANCH  36  37
HETATM   37  C13 UNL     1      -0.996  12.696  90.883  1.00  0.00     0.029 C 
BRANCH  37  38
HETATM   38  C14 UNL     1       0.413  13.212  91.116  1.00  0.00     0.029 C 
BRANCH  38  39
HETATM   39  C15 UNL     1       0.374  14.455  91.998  1.00  0.00     0.232 C 
BRANCH  39  40
HETATM   40  N7  UNL     1       1.433  14.380  92.998  1.00  0.00    -0.075 N 
ATOM     41  H72 UNL     1       1.409  13.485  93.485  1.00  0.00     0.277 HD
ATOM     42  H71 UNL     1       2.348  14.305  92.552  1.00  0.00     0.277 HD
BRANCH  40  43
HETATM   43  C16 UNL     1       1.410  15.464  93.927  1.00  0.00     0.233 C 
BRANCH  43  44
HETATM   44  C17 UNL     1       1.063  16.736  93.145  1.00  0.00     0.055 C 
BRANCH  44  45
HETATM   45  C18 UNL     1       2.003  17.865  93.478  1.00  0.00     0.231 C 
BRANCH  45  46
HETATM   46  N8  UNL     1       2.453  18.443  92.219  1.00  0.00    -0.079 N 
ATOM     47  H83 UNL     1       2.616  17.743  91.495  1.00  0.00     0.274 HD
ATOM     48  H82 UNL     1       1.722  18.966  91.737  1.00  0.00     0.274 HD
ATOM     49  H81 UNL     1       3.279  19.007  92.421  1.00  0.00     0.274 HD
ENDBRANCH  45  46
ENDBRANCH  44  45
ENDBRANCH  43  44
ENDBRANCH  40  43
ENDBRANCH  39  40
ENDBRANCH  38  39
ENDBRANCH  37  38
ENDBRANCH  36  37
ENDBRANCH  33  36
ENDBRANCH  32  33
ENDBRANCH  31  32
ENDBRANCH  30  31
ENDBRANCH  27  30
ENDBRANCH  26  27
ENDBRANCH   1  26
TORSDOF 18
ENDMDL
MODEL 3
REMARK VINA RESULT: -6.648449922      3.057      4.869
REMARK  18 active torsions:
REMARK  status: ('A' for Active; 'I' for Inactive)
REMARK    1  A    between atoms: C4_6  and  C5_7 
REMARK    2  A    between atoms: C5_7  and  N2_8 
REMARK       I    between atoms: C6_10  and  N4_12 
REMARK    3  A    between atoms: N4_12  and  C7_14 
REMARK    4  A    between atoms: C7_14  and  C8_15 
REMARK    5  A    between atoms: C8_15  and  N5_16 
REMARK    6  A    between atoms: N5_16  and  C9_19 
REMARK    7  A    between atoms: C9_19  and  C10_20 
REMARK    8  A    between atoms: C10_20  and  C11_21 
REMARK    9  A    between atoms: C11_21  and  N6_22 
REMARK   10  A    between atoms: N6_22  and  C12_25 
REMARK   11  A    between atoms: C12_25  and  C13_26 
REMARK   12  A    between atoms: C13_26  and  C14_27 
REMARK   13  A    between atoms: C14_27  and  C15_28 
REMARK   14  A    between atoms: C15_28  and  N7_29 
REMARK   15  A    between atoms: N7_29  and  C16_32 
REMARK   16  A    between atoms: C16_32  and  C17_33 
REMARK   17  A    between atoms: C17_33  and  C18_34 
REMARK   18  A    between atoms: C18_34  and  N8_35 
ROOT
HETATM    1  C7  UNL     1       3.719  10.758  91.752  1.00  0.00     0.150 C 
ENDROOT
BRANCH   1   2
HETATM    2  N4  UNL     1       3.977   9.633  92.613  1.00  0.00    -0.363 N 
HETATM    3  C6  UNL     1       3.507   9.627  93.948  1.00  0.00     0.184 C 
HETATM    4  N2  UNL     1       2.661   8.850  94.475  1.00  0.00    -0.363 N 
HETATM    5  N3  UNL     1       4.109  10.671  94.772  1.00  0.00    -0.064 NA
ATOM      6  H2  UNL     1       2.479   9.040  95.461  1.00  0.00     0.162 HD
ATOM      7  H4  UNL     1       4.504   8.834  92.259  1.00  0.00     0.162 HD
BRANCH   4   8
HETATM    8  C5  UNL     1       1.920   7.764  93.948  1.00  0.00     0.142 C 
BRANCH   8   9
HETATM    9  C4  UNL     1       0.451   8.167  93.832  1.00  0.00     0.099 C 
HETATM   10  S1  UNL     1      -0.174   7.757  92.193  1.00  0.00    -0.150 SA
HETATM   11  C3  UNL     1      -0.813   6.090  92.186  1.00  0.00     0.082 C 
HETATM   12  C2  UNL     1       0.169   5.222  91.432  1.00  0.00     0.141 C 
HETATM   13  C25 UNL     1      -1.030   5.445  93.482  1.00  0.00     0.127 C 
HETATM   14  N1  UNL     1       0.615   4.211  92.357  1.00  0.00    -0.355 N 
HETATM   15  C1  UNL     1       1.606   3.212  92.036  1.00  0.00     0.152 C 
HETATM   16  C26 UNL     1      -0.032   4.317  93.596  1.00  0.00     0.227 C 
HETATM   17  O3  UNL     1       0.153   3.626  94.632  1.00  0.00    -0.273 OA
HETATM   18  C24 UNL     1      -1.106   6.220  94.711  1.00  0.00     0.171 C 
HETATM   19  C19 UNL     1      -0.357   7.457  94.852  1.00  0.00    -0.013 C 
HETATM   20  O2  UNL     1      -2.420   6.457  95.161  1.00  0.00    -0.345 OA
HETATM   21  C20 UNL     1      -0.407   7.992  96.073  1.00  0.00     0.145 C 
HETATM   22  O1  UNL     1      -1.190   7.265  96.978  1.00  0.00    -0.327 OA
HETATM   23  C21 UNL     1      -2.471   6.835  96.478  1.00  0.00     0.162 C 
HETATM   24  C22 UNL     1      -3.125   5.836  97.397  1.00  0.00     0.079 C 
HETATM   25  C23 UNL     1      -3.369   8.085  96.522  1.00  0.00     0.079 C 
ENDBRANCH   8   9
ENDBRANCH   4   8
ENDBRANCH   1   2
BRANCH   1  26
HETATM   26  C8  UNL     1       4.554  10.570  90.481  1.00  0.00     0.251 C 
BRANCH  26  27
HETATM   27  N5  UNL     1       3.798  10.848  89.308  1.00  0.00    -0.074 N 
ATOM     28  H52 UNL     1       4.170  11.650  88.799  1.00  0.00     0.277 HD
ATOM     29  H51 UNL     1       3.937  10.135  88.591  1.00  0.00     0.277 HD
BRANCH  27  30
HETATM   30  C9  UNL     1       2.406  11.018  89.629  1.00  0.00     0.234 C 
BRANCH  30  31
HETATM   31  C10 UNL     1       1.582  10.627  88.419  1.00  0.00     0.055 C 
BRANCH  31  32
HETATM   32  C11 UNL     1       0.692  11.862  88.151  1.00  0.00     0.233 C 
BRANCH  32  33
HETATM   33  N6  UNL     1       1.595  12.911  87.817  1.00  0.00    -0.075 N 
ATOM     34  H62 UNL     1       1.194  13.829  88.013  1.00  0.00     0.277 HD
ATOM     35  H61 UNL     1       2.385  12.946  88.462  1.00  0.00     0.277 HD
BRANCH  33  36
HETATM   36  C12 UNL     1       2.031  12.806  86.453  1.00  0.00     0.232 C 
BRANCH  36  37
HETATM   37  C13 UNL     1       3.389  13.425  86.317  1.00  0.00     0.029 C 
BRANCH  37  38
HETATM   38  C14 UNL     1       4.464  12.381  86.066  1.00  0.00     0.029 C 
BRANCH  38  39
HETATM   39  C15 UNL     1       5.843  12.989  86.300  1.00  0.00     0.232 C 
BRANCH  39  40
HETATM   40  N7  UNL     1       6.459  12.369  87.468  1.00  0.00    -0.075 N 
ATOM     41  H72 UNL     1       5.890  12.521  88.300  1.00  0.00     0.277 HD
ATOM     42  H71 UNL     1       6.406  11.352  87.410  1.00  0.00     0.277 HD
BRANCH  40  43
HETATM   43  C16 UNL     1       7.804  12.795  87.689  1.00  0.00     0.233 C 
BRANCH  43  44
HETATM   44  C17 UNL     1       8.512  12.810  86.329  1.00  0.00     0.055 C 
BRANCH  44  45
HETATM   45  C18 UNL     1       9.835  12.090  86.386  1.00  0.00     0.231 C 
BRANCH  45  46
HETATM   46  N8  UNL     1      10.222  11.782  85.016  1.00  0.00    -0.079 N 
ATOM     47  H83 UNL     1       9.431  11.775  84.371  1.00  0.00     0.274 HD
ATOM     48  H82 UNL     1      10.749  12.535  84.572  1.00  0.00     0.274 HD
ATOM     49  H81 UNL     1      10.729  10.897  85.034  1.00  0.00     0.274 HD
ENDBRANCH  45  46
ENDBRANCH  44  45
ENDBRANCH  43  44
ENDBRANCH  40  43
ENDBRANCH  39  40
ENDBRANCH  38  39
ENDBRANCH  37  38
ENDBRANCH  36  37
ENDBRANCH  33  36
ENDBRANCH  32  33
ENDBRANCH  31  32
ENDBRANCH  30  31
ENDBRANCH  27  30
ENDBRANCH  26  27
ENDBRANCH   1  26
TORSDOF 18
ENDMDL
MODEL 4
REMARK VINA RESULT: -6.514868127      4.277      9.612
REMARK  18 active torsions:
REMARK  status: ('A' for Active; 'I' for Inactive)
REMARK    1  A    between atoms: C4_6  and  C5_7 
REMARK    2  A    between atoms: C5_7  and  N2_8 
REMARK       I    between atoms: C6_10  and  N4_12 
REMARK    3  A    between atoms: N4_12  and  C7_14 
REMARK    4  A    between atoms: C7_14  and  C8_15 
REMARK    5  A    between atoms: C8_15  and  N5_16 
REMARK    6  A    between atoms: N5_16  and  C9_19 
REMARK    7  A    between atoms: C9_19  and  C10_20 
REMARK    8  A    between atoms: C10_20  and  C11_21 
REMARK    9  A    between atoms: C11_21  and  N6_22 
REMARK   10  A    between atoms: N6_22  and  C12_25 
REMARK   11  A    between atoms: C12_25  and  C13_26 
REMARK   12  A    between atoms: C13_26  and  C14_27 
REMARK   13  A    between atoms: C14_27  and  C15_28 
REMARK   14  A    between atoms: C15_28  and  N7_29 
REMARK   15  A    between atoms: N7_29  and  C16_32 
REMARK   16  A    between atoms: C16_32  and  C17_33 
REMARK   17  A    between atoms: C17_33  and  C18_34 
REMARK   18  A    between atoms: C18_34  and  N8_35 
ROOT
HETATM    1  C7  UNL     1       0.825   4.379  92.038  1.00  0.00     0.150 C 
ENDROOT
BRANCH   1   2
HETATM    2  N4  UNL     1      -0.088   5.483  91.896  1.00  0.00    -0.363 N 
HETATM    3  C6  UNL     1       0.325   6.801  92.204  1.00  0.00     0.184 C 
HETATM    4  N2  UNL     1       0.427   7.790  91.424  1.00  0.00    -0.363 N 
HETATM    5  N3  UNL     1       0.662   6.981  93.613  1.00  0.00    -0.064 NA
ATOM      6  H2  UNL     1       0.747   8.646  91.878  1.00  0.00     0.162 HD
ATOM      7  H4  UNL     1      -1.040   5.314  91.572  1.00  0.00     0.162 HD
BRANCH   4   8
HETATM    8  C5  UNL     1       0.178   7.928  90.036  1.00  0.00     0.142 C 
BRANCH   8   9
HETATM    9  C4  UNL     1      -0.762   9.110  89.809  1.00  0.00     0.099 C 
HETATM   10  S1  UNL     1      -0.553  10.326  91.121  1.00  0.00    -0.150 SA
HETATM   11  C3  UNL     1       0.728  11.487  90.676  1.00  0.00     0.082 C 
HETATM   12  C2  UNL     1       1.946  11.175  91.516  1.00  0.00     0.141 C 
HETATM   13  C25 UNL     1       1.175  11.496  89.281  1.00  0.00     0.127 C 
HETATM   14  N1  UNL     1       3.006  10.852  90.595  1.00  0.00    -0.355 N 
HETATM   15  C1  UNL     1       4.327  10.441  91.006  1.00  0.00     0.152 C 
HETATM   16  C26 UNL     1       2.597  10.988  89.261  1.00  0.00     0.227 C 
HETATM   17  O3  UNL     1       3.255  10.744  88.217  1.00  0.00    -0.273 OA
HETATM   18  C24 UNL     1       0.375  10.895  88.225  1.00  0.00     0.171 C 
HETATM   19  C19 UNL     1      -0.474   9.750  88.503  1.00  0.00    -0.013 C 
HETATM   20  O2  UNL     1      -0.378  11.820  87.477  1.00  0.00    -0.345 OA
HETATM   21  C20 UNL     1      -1.043   9.214  87.421  1.00  0.00     0.145 C 
HETATM   22  O1  UNL     1      -0.725   9.874  86.228  1.00  0.00    -0.327 OA
HETATM   23  C21 UNL     1      -0.807  11.312  86.278  1.00  0.00     0.162 C 
HETATM   24  C22 UNL     1      -0.189  11.951  85.062  1.00  0.00     0.079 C 
HETATM   25  C23 UNL     1      -2.310  11.638  86.197  1.00  0.00     0.079 C 
ENDBRANCH   8   9
ENDBRANCH   4   8
ENDBRANCH   1   2
BRANCH   1  26
HETATM   26  C8  UNL     1       0.252   3.437  93.102  1.00  0.00     0.251 C 
BRANCH  26  27
HETATM   27  N5  UNL     1       0.316   4.009  94.403  1.00  0.00    -0.074 N 
ATOM     28  H52 UNL     1       1.211   3.821  94.856  1.00  0.00     0.277 HD
ATOM     29  H51 UNL     1       0.375   5.027  94.366  1.00  0.00     0.277 HD
BRANCH  27  30
HETATM   30  C9  UNL     1      -0.792   3.566  95.207  1.00  0.00     0.234 C 
BRANCH  30  31
HETATM   31  C10 UNL     1      -0.287   2.529  96.191  1.00  0.00     0.055 C 
BRANCH  31  32
HETATM   32  C11 UNL     1      -1.572   1.973  96.847  1.00  0.00     0.233 C 
BRANCH  32  33
HETATM   33  N6  UNL     1      -2.637   2.377  95.992  1.00  0.00    -0.075 N 
ATOM     34  H62 UNL     1      -2.351   3.131  95.366  1.00  0.00     0.277 HD
ATOM     35  H61 UNL     1      -2.846   1.665  95.292  1.00  0.00     0.277 HD
BRANCH  33  36
HETATM   36  C12 UNL     1      -3.803   2.734  96.749  1.00  0.00     0.232 C 
BRANCH  36  37
HETATM   37  C13 UNL     1      -3.387   3.222  98.102  1.00  0.00     0.029 C 
BRANCH  37  38
HETATM   38  C14 UNL     1      -3.996   4.575  98.429  1.00  0.00     0.029 C 
BRANCH  38  39
HETATM   39  C15 UNL     1      -3.800   5.531  97.257  1.00  0.00     0.232 C 
BRANCH  39  40
HETATM   40  N7  UNL     1      -2.451   6.086  97.298  1.00  0.00    -0.075 N 
ATOM     41  H72 UNL     1      -2.251   6.483  98.217  1.00  0.00     0.277 HD
ATOM     42  H71 UNL     1      -1.752   5.343  97.279  1.00  0.00     0.277 HD
BRANCH  40  43
HETATM   43  C16 UNL     1      -2.203   7.043  96.268  1.00  0.00     0.233 C 
BRANCH  43  44
HETATM   44  C17 UNL     1      -1.886   8.380  96.946  1.00  0.00     0.055 C 
BRANCH  44  45
HETATM   45  C18 UNL     1      -0.510   8.378  97.558  1.00  0.00     0.231 C 
BRANCH  45  46
HETATM   46  N8  UNL     1       0.444   8.124  96.487  1.00  0.00    -0.079 N 
ATOM     47  H83 UNL     1       0.002   7.780  95.634  1.00  0.00     0.274 HD
ATOM     48  H82 UNL     1       0.841   8.979  96.096  1.00  0.00     0.274 HD
ATOM     49  H81 UNL     1       1.152   7.487  96.853  1.00  0.00     0.274 HD
ENDBRANCH  45  46
ENDBRANCH  44  45
ENDBRANCH  43  44
ENDBRANCH  40  43
ENDBRANCH  39  40
ENDBRANCH  38  39
ENDBRANCH  37  38
ENDBRANCH  36  37
ENDBRANCH  33  36
ENDBRANCH  32  33
ENDBRANCH  31  32
ENDBRANCH  30  31
ENDBRANCH  27  30
ENDBRANCH  26  27
ENDBRANCH   1  26
TORSDOF 18
ENDMDL
MODEL 5
REMARK VINA RESULT: -6.426022689      3.887      6.839
REMARK  18 active torsions:
REMARK  status: ('A' for Active; 'I' for Inactive)
REMARK    1  A    between atoms: C4_6  and  C5_7 
REMARK    2  A    between atoms: C5_7  and  N2_8 
REMARK       I    between atoms: C6_10  and  N4_12 
REMARK    3  A    between atoms: N4_12  and  C7_14 
REMARK    4  A    between atoms: C7_14  and  C8_15 
REMARK    5  A    between atoms: C8_15  and  N5_16 
REMARK    6  A    between atoms: N5_16  and  C9_19 
REMARK    7  A    between atoms: C9_19  and  C10_20 
REMARK    8  A    between atoms: C10_20  and  C11_21 
REMARK    9  A    between atoms: C11_21  and  N6_22 
REMARK   10  A    between atoms: N6_22  and  C12_25 
REMARK   11  A    between atoms: C12_25  and  C13_26 
REMARK   12  A    between atoms: C13_26  and  C14_27 
REMARK   13  A    between atoms: C14_27  and  C15_28 
REMARK   14  A    between atoms: C15_28  and  N7_29 
REMARK   15  A    between atoms: N7_29  and  C16_32 
REMARK   16  A    between atoms: C16_32  and  C17_33 
REMARK   17  A    between atoms: C17_33  and  C18_34 
REMARK   18  A    between atoms: C18_34  and  N8_35 
ROOT
HETATM    1  C7  UNL     1      -4.484   6.948  91.343  1.00  0.00     0.150 C 
ENDROOT
BRANCH   1   2
HETATM    2  N4  UNL     1      -4.988   7.524  92.562  1.00  0.00    -0.363 N 
HETATM    3  C6  UNL     1      -6.269   7.169  93.049  1.00  0.00     0.184 C 
HETATM    4  N2  UNL     1      -6.557   6.570  94.123  1.00  0.00    -0.363 N 
HETATM    5  N3  UNL     1      -7.353   7.571  92.157  1.00  0.00    -0.064 NA
ATOM      6  H2  UNL     1      -7.557   6.422  94.262  1.00  0.00     0.162 HD
ATOM      7  H4  UNL     1      -4.419   8.195  93.079  1.00  0.00     0.162 HD
BRANCH   4   8
HETATM    8  C5  UNL     1      -5.747   6.064  95.170  1.00  0.00     0.142 C 
BRANCH   8   9
HETATM    9  C4  UNL     1      -5.714   7.076  96.313  1.00  0.00     0.099 C 
HETATM   10  S1  UNL     1      -6.592   6.423  97.743  1.00  0.00    -0.150 SA
HETATM   11  C3  UNL     1      -5.471   5.488  98.771  1.00  0.00     0.082 C 
HETATM   12  C2  UNL     1      -5.789   4.022  98.588  1.00  0.00     0.141 C 
HETATM   13  C25 UNL     1      -4.037   5.638  98.515  1.00  0.00     0.127 C 
HETATM   14  N1  UNL     1      -4.592   3.404  98.076  1.00  0.00    -0.355 N 
HETATM   15  C1  UNL     1      -4.501   2.010  97.715  1.00  0.00     0.152 C 
HETATM   16  C26 UNL     1      -3.536   4.320  97.977  1.00  0.00     0.227 C 
HETATM   17  O3  UNL     1      -2.375   4.123  97.530  1.00  0.00    -0.273 OA
HETATM   18  C24 UNL     1      -3.518   6.762  97.750  1.00  0.00     0.171 C 
HETATM   19  C19 UNL     1      -4.311   7.369  96.697  1.00  0.00    -0.013 C 
HETATM   20  O2  UNL     1      -2.986   7.799  98.542  1.00  0.00    -0.345 OA
HETATM   21  C20 UNL     1      -3.664   8.295  95.987  1.00  0.00     0.145 C 
HETATM   22  O1  UNL     1      -2.348   8.516  96.410  1.00  0.00    -0.327 OA
HETATM   23  C21 UNL     1      -2.172   8.646  97.834  1.00  0.00     0.162 C 
HETATM   24  C22 UNL     1      -0.718   8.600  98.225  1.00  0.00     0.079 C 
HETATM   25  C23 UNL     1      -2.648  10.070  98.177  1.00  0.00     0.079 C 
ENDBRANCH   8   9
ENDBRANCH   4   8
ENDBRANCH   1   2
BRANCH   1  26
HETATM   26  C8  UNL     1      -2.954   7.001  91.403  1.00  0.00     0.251 C 
BRANCH  26  27
HETATM   27  N5  UNL     1      -2.462   6.636  92.687  1.00  0.00    -0.074 N 
ATOM     28  H52 UNL     1      -1.838   7.347  93.069  1.00  0.00     0.277 HD
ATOM     29  H51 UNL     1      -3.194   6.677  93.397  1.00  0.00     0.277 HD
BRANCH  27  30
HETATM   30  C9  UNL     1      -1.833   5.343  92.641  1.00  0.00     0.234 C 
BRANCH  30  31
HETATM   31  C10 UNL     1      -1.737   4.805  94.055  1.00  0.00     0.055 C 
BRANCH  31  32
HETATM   32  C11 UNL     1      -0.278   4.308  94.172  1.00  0.00     0.233 C 
BRANCH  32  33
HETATM   33  N6  UNL     1       0.043   4.407  95.556  1.00  0.00    -0.075 N 
ATOM     34  H62 UNL     1      -0.671   3.972  96.140  1.00  0.00     0.277 HD
ATOM     35  H61 UNL     1       0.831   3.807  95.801  1.00  0.00     0.277 HD
BRANCH  33  36
HETATM   36  C12 UNL     1       0.278   5.770  95.939  1.00  0.00     0.232 C 
BRANCH  36  37
HETATM   37  C13 UNL     1       1.242   6.397  94.978  1.00  0.00     0.029 C 
BRANCH  37  38
HETATM   38  C14 UNL     1       0.813   7.799  94.579  1.00  0.00     0.029 C 
BRANCH  38  39
HETATM   39  C15 UNL     1       1.846   8.411  93.639  1.00  0.00     0.232 C 
BRANCH  39  40
HETATM   40  N7  UNL     1       3.139   8.481  94.311  1.00  0.00    -0.075 N 
ATOM     41  H72 UNL     1       3.020   8.487  95.324  1.00  0.00     0.277 HD
ATOM     42  H71 UNL     1       3.651   7.605  94.206  1.00  0.00     0.277 HD
BRANCH  40  43
HETATM   43  C16 UNL     1       3.936   9.588  93.888  1.00  0.00     0.233 C 
BRANCH  43  44
HETATM   44  C17 UNL     1       4.126  10.510  95.098  1.00  0.00     0.055 C 
BRANCH  44  45
HETATM   45  C18 UNL     1       5.489  10.336  95.717  1.00  0.00     0.231 C 
BRANCH  45  46
HETATM   46  N8  UNL     1       5.493  11.071  96.974  1.00  0.00    -0.079 N 
ATOM     47  H83 UNL     1       5.033  11.979  96.906  1.00  0.00     0.274 HD
ATOM     48  H82 UNL     1       4.877  10.661  97.677  1.00  0.00     0.274 HD
ATOM     49  H81 UNL     1       6.463  11.138  97.285  1.00  0.00     0.274 HD
ENDBRANCH  45  46
ENDBRANCH  44  45
ENDBRANCH  43  44
ENDBRANCH  40  43
ENDBRANCH  39  40
ENDBRANCH  38  39
ENDBRANCH  37  38
ENDBRANCH  36  37
ENDBRANCH  33  36
ENDBRANCH  32  33
ENDBRANCH  31  32
ENDBRANCH  30  31
ENDBRANCH  27  30
ENDBRANCH  26  27
ENDBRANCH   1  26
TORSDOF 18
ENDMDL
