MODEL 1
REMARK VINA RESULT: -5.446091559      0.000      0.000
REMARK  4 active torsions:
REMARK  status: ('A' for Active; 'I' for Inactive)
REMARK    1  A    between atoms: O1_2  and  C2_3 
REMARK    2  A    between atoms: C2_3  and  C3_5 
REMARK    3  A    between atoms: C3_5  and  O3_6 
REMARK    4  A    between atoms: O3_6  and  C4_7 
ROOT
HETATM    1  C4  UNL     1     -37.483  10.959  23.552  1.00  0.00     0.112 A 
HETATM    2  C5  UNL     1     -37.555   9.620  23.254  1.00  0.00     0.065 A 
HETATM    3  C6  UNL     1     -38.674   8.969  23.619  1.00  0.00     0.038 A 
HETATM    4  C7  UNL     1     -39.643   9.703  24.256  1.00  0.00     0.061 A 
HETATM    5  S1  UNL     1     -38.965  11.261  24.324  1.00  0.00    -0.057 SA
HETATM    6  S2  UNL     1     -41.254   9.280  24.909  1.00  0.00    -0.120 SA
HETATM    7  C8  UNL     1     -41.844   7.709  24.286  1.00  0.00     0.091 C 
HETATM    8  C9  UNL     1     -41.356   6.615  25.206  1.00  0.00     0.097 C 
HETATM    9  S3  UNL     1     -39.643   6.156  24.903  1.00  0.00    -0.091 SA
HETATM   10  S4  UNL     1     -38.833   7.183  23.252  1.00  0.00    -0.056 SA
ENDROOT
BRANCH   1  11
HETATM   11  O3  UNL     1     -36.469  11.885  23.304  1.00  0.00    -0.334 OA
BRANCH  11  12
HETATM   12  C3  UNL     1     -35.183  11.531  22.919  1.00  0.00     0.287 C 
BRANCH  12  13
HETATM   13  C2  UNL     1     -34.279  11.696  24.090  1.00  0.00     0.282 C 
HETATM   14  O2  UNL     1     -34.249  12.811  24.674  1.00  0.00    -0.263 OA
BRANCH  13  15
HETATM   15  O1  UNL     1     -33.469  10.690  24.571  1.00  0.00    -0.325 OA
HETATM   16  C1  UNL     1     -33.361   9.414  23.959  1.00  0.00     0.213 C 
ENDBRANCH  13  15
ENDBRANCH  12  13
ENDBRANCH  11  12
ENDBRANCH   1  11
TORSDOF 4
ENDMDL
MODEL 2
REMARK VINA RESULT: -5.315208307      3.621      4.967
REMARK  4 active torsions:
REMARK  status: ('A' for Active; 'I' for Inactive)
REMARK    1  A    between atoms: O1_2  and  C2_3 
REMARK    2  A    between atoms: C2_3  and  C3_5 
REMARK    3  A    between atoms: C3_5  and  O3_6 
REMARK    4  A    between atoms: O3_6  and  C4_7 
ROOT
HETATM    1  C4  UNL     1     -39.402  12.070  24.796  1.00  0.00     0.112 A 
HETATM    2  C5  UNL     1     -40.053  10.955  25.265  1.00  0.00     0.065 A 
HETATM    3  C6  UNL     1     -39.749   9.778  24.689  1.00  0.00     0.038 A 
HETATM    4  C7  UNL     1     -38.816   9.799  23.683  1.00  0.00     0.061 A 
HETATM    5  S1  UNL     1     -38.398  11.444  23.578  1.00  0.00    -0.057 SA
HETATM    6  S2  UNL     1     -38.112   8.517  22.652  1.00  0.00    -0.120 SA
HETATM    7  C8  UNL     1     -38.417   6.881  23.308  1.00  0.00     0.091 C 
HETATM    8  C9  UNL     1     -39.734   6.382  22.761  1.00  0.00     0.097 C 
HETATM    9  S3  UNL     1     -41.156   7.057  23.632  1.00  0.00    -0.091 SA
HETATM   10  S4  UNL     1     -40.582   8.254  25.267  1.00  0.00    -0.056 SA
ENDROOT
BRANCH   1  11
HETATM   11  O3  UNL     1     -39.503  13.405  25.188  1.00  0.00    -0.334 OA
BRANCH  11  12
HETATM   12  C3  UNL     1     -40.660  13.966  25.712  1.00  0.00     0.287 C 
BRANCH  12  13
HETATM   13  C2  UNL     1     -40.408  14.320  27.136  1.00  0.00     0.282 C 
HETATM   14  O2  UNL     1     -40.180  15.524  27.425  1.00  0.00    -0.263 OA
BRANCH  13  15
HETATM   15  O1  UNL     1     -40.412  13.397  28.160  1.00  0.00    -0.325 OA
HETATM   16  C1  UNL     1     -41.310  12.299  28.218  1.00  0.00     0.213 C 
ENDBRANCH  13  15
ENDBRANCH  12  13
ENDBRANCH  11  12
ENDBRANCH   1  11
TORSDOF 4
ENDMDL
MODEL 3
REMARK VINA RESULT: -5.174926184      3.689      4.925
REMARK  4 active torsions:
REMARK  status: ('A' for Active; 'I' for Inactive)
REMARK    1  A    between atoms: O1_2  and  C2_3 
REMARK    2  A    between atoms: C2_3  and  C3_5 
REMARK    3  A    between atoms: C3_5  and  O3_6 
REMARK    4  A    between atoms: O3_6  and  C4_7 
ROOT
HETATM    1  C4  UNL     1     -39.466  12.014  24.706  1.00  0.00     0.112 A 
HETATM    2  C5  UNL     1     -38.949  11.545  23.524  1.00  0.00     0.065 A 
HETATM    3  C6  UNL     1     -39.038  10.222  23.296  1.00  0.00     0.038 A 
HETATM    4  C7  UNL     1     -39.638   9.461  24.268  1.00  0.00     0.061 A 
HETATM    5  S1  UNL     1     -40.053  10.607  25.454  1.00  0.00    -0.057 SA
HETATM    6  S2  UNL     1     -39.974   7.709  24.404  1.00  0.00    -0.120 SA
HETATM    7  C8  UNL     1     -39.828   6.870  22.830  1.00  0.00     0.091 C 
HETATM    8  C9  UNL     1     -38.395   6.423  22.656  1.00  0.00     0.097 C 
HETATM    9  S3  UNL     1     -37.308   7.750  22.114  1.00  0.00    -0.091 SA
HETATM   10  S4  UNL     1     -38.368   9.532  21.738  1.00  0.00    -0.056 SA
ENDROOT
BRANCH   1  11
HETATM   11  O3  UNL     1     -39.521  13.313  25.215  1.00  0.00    -0.334 OA
BRANCH  11  12
HETATM   12  C3  UNL     1     -40.673  13.884  25.738  1.00  0.00     0.287 C 
BRANCH  12  13
HETATM   13  C2  UNL     1     -40.413  14.252  27.157  1.00  0.00     0.282 C 
HETATM   14  O2  UNL     1     -40.212  15.464  27.436  1.00  0.00    -0.263 OA
BRANCH  13  15
HETATM   15  O1  UNL     1     -40.382  13.336  28.185  1.00  0.00    -0.325 OA
HETATM   16  C1  UNL     1     -41.323  12.282  28.322  1.00  0.00     0.213 C 
ENDBRANCH  13  15
ENDBRANCH  12  13
ENDBRANCH  11  12
ENDBRANCH   1  11
TORSDOF 4
ENDMDL
MODEL 4
REMARK VINA RESULT: -5.066461498      1.080      1.340
REMARK  4 active torsions:
REMARK  status: ('A' for Active; 'I' for Inactive)
REMARK    1  A    between atoms: O1_2  and  C2_3 
REMARK    2  A    between atoms: C2_3  and  C3_5 
REMARK    3  A    between atoms: C3_5  and  O3_6 
REMARK    4  A    between atoms: O3_6  and  C4_7 
ROOT
HETATM    1  C4  UNL     1     -37.620   9.848  23.114  1.00  0.00     0.112 A 
HETATM    2  C5  UNL     1     -37.922   8.536  22.844  1.00  0.00     0.065 A 
HETATM    3  C6  UNL     1     -39.081   8.059  23.333  1.00  0.00     0.038 A 
HETATM    4  C7  UNL     1     -39.856   8.929  24.058  1.00  0.00     0.061 A 
HETATM    5  S1  UNL     1     -38.950  10.368  24.033  1.00  0.00    -0.057 SA
HETATM    6  S2  UNL     1     -41.434   8.751  24.883  1.00  0.00    -0.120 SA
HETATM    7  C8  UNL     1     -42.314   7.288  24.347  1.00  0.00     0.091 C 
HETATM    8  C9  UNL     1     -41.901   6.131  25.226  1.00  0.00     0.097 C 
HETATM    9  S3  UNL     1     -40.317   5.421  24.751  1.00  0.00    -0.091 SA
HETATM   10  S4  UNL     1     -39.543   6.318  23.010  1.00  0.00    -0.056 SA
ENDROOT
BRANCH   1  11
HETATM   11  O3  UNL     1     -36.511  10.613  22.748  1.00  0.00    -0.334 OA
BRANCH  11  12
HETATM   12  C3  UNL     1     -35.206  10.284  23.089  1.00  0.00     0.287 C 
BRANCH  12  13
HETATM   13  C2  UNL     1     -34.540  11.501  23.630  1.00  0.00     0.282 C 
HETATM   14  O2  UNL     1     -34.831  12.619  23.128  1.00  0.00    -0.263 OA
BRANCH  13  15
HETATM   15  O1  UNL     1     -33.618  11.470  24.653  1.00  0.00    -0.325 OA
HETATM   16  C1  UNL     1     -33.261  12.611  25.418  1.00  0.00     0.213 C 
ENDBRANCH  13  15
ENDBRANCH  12  13
ENDBRANCH  11  12
ENDBRANCH   1  11
TORSDOF 4
ENDMDL
MODEL 5
REMARK VINA RESULT: -4.931638585      3.636      6.044
REMARK  4 active torsions:
REMARK  status: ('A' for Active; 'I' for Inactive)
REMARK    1  A    between atoms: O1_2  and  C2_3 
REMARK    2  A    between atoms: C2_3  and  C3_5 
REMARK    3  A    between atoms: C3_5  and  O3_6 
REMARK    4  A    between atoms: O3_6  and  C4_7 
ROOT
HETATM    1  C4  UNL     1     -39.215  10.937  23.757  1.00  0.00     0.112 A 
HETATM    2  C5  UNL     1     -37.948  11.460  23.831  1.00  0.00     0.065 A 
HETATM    3  C6  UNL     1     -36.962  10.768  23.233  1.00  0.00     0.038 A 
HETATM    4  C7  UNL     1     -37.314   9.601  22.602  1.00  0.00     0.061 A 
HETATM    5  S1  UNL     1     -38.992   9.511  22.863  1.00  0.00    -0.057 SA
HETATM    6  S2  UNL     1     -36.372   8.379  21.695  1.00  0.00    -0.120 SA
HETATM    7  C8  UNL     1     -34.757   8.986  21.223  1.00  0.00     0.091 C 
HETATM    8  C9  UNL     1     -33.784   8.681  22.337  1.00  0.00     0.097 C 
HETATM    9  S3  UNL     1     -33.889   9.852  23.699  1.00  0.00    -0.091 SA
HETATM   10  S4  UNL     1     -35.248  11.409  23.295  1.00  0.00    -0.056 SA
ENDROOT
BRANCH   1  11
HETATM   11  O3  UNL     1     -40.421  11.418  24.270  1.00  0.00    -0.334 OA
BRANCH  11  12
HETATM   12  C3  UNL     1     -40.885  11.124  25.545  1.00  0.00     0.287 C 
BRANCH  12  13
HETATM   13  C2  UNL     1     -41.040  12.400  26.296  1.00  0.00     0.282 C 
HETATM   14  O2  UNL     1     -41.872  12.445  27.241  1.00  0.00    -0.263 OA
BRANCH  13  15
HETATM   15  O1  UNL     1     -40.320  13.540  26.012  1.00  0.00    -0.325 OA
HETATM   16  C1  UNL     1     -40.249  14.657  26.886  1.00  0.00     0.213 C 
ENDBRANCH  13  15
ENDBRANCH  12  13
ENDBRANCH  11  12
ENDBRANCH   1  11
TORSDOF 4
ENDMDL
