MODEL 1
REMARK VINA RESULT: -5.696170258      0.000      0.000
REMARK  8 active torsions:
REMARK  status: ('A' for Active; 'I' for Inactive)
REMARK    1  A    between atoms: C2_2  and  C3_3 
REMARK    2  A    between atoms: C8_9  and  N1_10 
REMARK    3  A    between atoms: C12_17  and  C13_18 
REMARK    4  A    between atoms: C14_20  and  O3_21 
REMARK    5  A    between atoms: C15_25  and  C16_26 
REMARK    6  A    between atoms: C20_33  and  C21_34 
REMARK    7  A    between atoms: C21_34  and  C22_35 
REMARK    8  A    between atoms: C22_35  and  O5_37 
ROOT
HETATM    1  C3  UNL     1     -63.910  13.149   9.348  1.00  0.00     0.024 C 
HETATM    2  C4  UNL     1     -62.430  13.246   9.045  1.00  0.00     0.038 C 
HETATM    3  C5  UNL     1     -64.196  14.008  10.537  1.00  0.00     0.040 C 
HETATM    4  C6  UNL     1     -65.592  14.592  10.564  1.00  0.00     0.076 C 
HETATM    5  S1  UNL     1     -66.812  13.419  11.283  1.00  0.00    -0.166 SA
HETATM    6  C7  UNL     1     -68.456  13.624  10.537  1.00  0.00     0.119 C 
HETATM    7  C8  UNL     1     -69.163  12.339  10.390  1.00  0.00     0.322 C 
HETATM    8  C11 UNL     1     -68.598  11.475   9.347  1.00  0.00     0.256 C 
HETATM    9  O1  UNL     1     -67.511  10.896   9.668  1.00  0.00    -0.271 OA
HETATM   10  N2  UNL     1     -69.080  11.199   8.082  1.00  0.00    -0.319 N 
ATOM     11  H2  UNL     1     -69.197  10.202   7.904  1.00  0.00     0.169 HD
HETATM   12  C12 UNL     1     -69.450  12.019   6.974  1.00  0.00     0.124 C 
HETATM   13  C14 UNL     1     -68.491  12.892   6.339  1.00  0.00     0.167 C 
HETATM   14  N3  UNL     1     -67.622  12.754   5.260  1.00  0.00    -0.355 N 
ATOM     15  H3  UNL     1     -67.779  13.458   4.538  1.00  0.00     0.162 HD
HETATM   16  C15 UNL     1     -66.547  11.843   4.923  1.00  0.00     0.179 C 
HETATM   17  C19 UNL     1     -65.790  11.246   6.025  1.00  0.00     0.242 C 
HETATM   18  O4  UNL     1     -66.128  10.092   6.473  1.00  0.00    -0.271 OA
HETATM   19  N4  UNL     1     -64.670  11.812   6.697  1.00  0.00    -0.338 N 
ATOM     20  H4  UNL     1     -63.886  11.233   6.996  1.00  0.00     0.164 HD
HETATM   21  C20 UNL     1     -64.682  13.274   6.948  1.00  0.00     0.182 C 
HETATM   22  N5  UNL     1     -64.804  13.525   8.338  1.00  0.00    -0.393 N 
ATOM     23  H5  UNL     1     -65.635  14.037   8.635  1.00  0.00     0.156 HD
ENDROOT
BRANCH  21  24
HETATM   24  C21 UNL     1     -63.468  13.796   6.241  1.00  0.00     0.077 C 
BRANCH  24  25
HETATM   25  C22 UNL     1     -63.444  15.289   6.025  1.00  0.00     0.117 C 
HETATM   26  C23 UNL     1     -64.782  15.620   5.253  1.00  0.00     0.039 C 
BRANCH  25  27
HETATM   27  O5  UNL     1     -63.547  16.036   7.202  1.00  0.00    -0.396 OA
ATOM     28  H5  UNL     1     -62.771  16.543   7.409  1.00  0.00     0.210 HD
ENDBRANCH  25  27
ENDBRANCH  24  25
ENDBRANCH  21  24
BRANCH   1  29
HETATM   29  C2  UNL     1     -64.029  11.697   9.846  1.00  0.00     0.026 C 
HETATM   30  C1  UNL     1     -62.738  10.924   9.683  1.00  0.00     0.007 C 
ENDBRANCH   1  29
BRANCH  16  31
HETATM   31  C16 UNL     1     -67.189  10.733   4.067  1.00  0.00     0.009 C 
HETATM   32  C17 UNL     1     -66.024  10.092   3.352  1.00  0.00     0.012 C 
HETATM   33  C18 UNL     1     -68.172  11.257   3.107  1.00  0.00     0.012 C 
ENDBRANCH  16  31
BRANCH  13  34
HETATM   34  O3  UNL     1     -68.404  14.088   6.856  1.00  0.00    -0.345 OA
ATOM     35  H3  UNL     1     -67.520  14.383   7.042  1.00  0.00     0.219 HD
ENDBRANCH  13  34
BRANCH  12  36
HETATM   36  C13 UNL     1     -70.368  11.299   6.039  1.00  0.00     0.292 C 
HETATM   37  O2  UNL     1     -70.183  10.092   5.866  1.00  0.00    -0.300 OA
ENDBRANCH  12  36
BRANCH   7  38
HETATM   38  N1  UNL     1     -70.606  12.386  10.292  1.00  0.00     0.094 N 
HETATM   39  C9  UNL     1     -71.219  12.102  11.577  1.00  0.00     0.310 C 
HETATM   40  C10 UNL     1     -71.064  13.728   9.947  1.00  0.00     0.310 C 
ENDBRANCH   7  38
TORSDOF 8
ENDMDL
MODEL 2
REMARK VINA RESULT: -5.612944593      1.208      1.369
REMARK  8 active torsions:
REMARK  status: ('A' for Active; 'I' for Inactive)
REMARK    1  A    between atoms: C2_2  and  C3_3 
REMARK    2  A    between atoms: C8_9  and  N1_10 
REMARK    3  A    between atoms: C12_17  and  C13_18 
REMARK    4  A    between atoms: C14_20  and  O3_21 
REMARK    5  A    between atoms: C15_25  and  C16_26 
REMARK    6  A    between atoms: C20_33  and  C21_34 
REMARK    7  A    between atoms: C21_34  and  C22_35 
REMARK    8  A    between atoms: C22_35  and  O5_37 
ROOT
HETATM    1  C3  UNL     1     -64.550  14.175   9.524  1.00  0.00     0.024 C 
HETATM    2  C4  UNL     1     -63.274  14.864   9.088  1.00  0.00     0.038 C 
HETATM    3  C5  UNL     1     -65.050  14.862  10.753  1.00  0.00     0.040 C 
HETATM    4  C6  UNL     1     -66.554  14.826  10.920  1.00  0.00     0.076 C 
HETATM    5  S1  UNL     1     -67.117  13.269  11.722  1.00  0.00    -0.166 SA
HETATM    6  C7  UNL     1     -68.762  12.772  11.134  1.00  0.00     0.119 C 
HETATM    7  C8  UNL     1     -68.893  11.308  11.024  1.00  0.00     0.322 C 
HETATM    8  C11 UNL     1     -68.124  10.733   9.914  1.00  0.00     0.256 C 
HETATM    9  O1  UNL     1     -66.870  10.654  10.121  1.00  0.00    -0.271 OA
HETATM   10  N2  UNL     1     -68.566  10.262   8.693  1.00  0.00    -0.319 N 
ATOM     11  H2  UNL     1     -68.282   9.301   8.504  1.00  0.00     0.169 HD
HETATM   12  C12 UNL     1     -69.339  10.840   7.641  1.00  0.00     0.124 C 
HETATM   13  C14 UNL     1     -68.884  12.018   6.941  1.00  0.00     0.167 C 
HETATM   14  N3  UNL     1     -68.139  12.229   5.784  1.00  0.00    -0.355 N 
ATOM     15  H3  UNL     1     -68.636  12.795   5.096  1.00  0.00     0.162 HD
HETATM   16  C15 UNL     1     -66.822  11.831   5.331  1.00  0.00     0.179 C 
HETATM   17  C19 UNL     1     -65.788  11.614   6.345  1.00  0.00     0.242 C 
HETATM   18  O4  UNL     1     -65.583  10.431   6.796  1.00  0.00    -0.271 OA
HETATM   19  N4  UNL     1     -64.940  12.600   6.924  1.00  0.00    -0.338 N 
ATOM     20  H4  UNL     1     -63.964  12.397   7.137  1.00  0.00     0.164 HD
HETATM   21  C20 UNL     1     -65.524  13.933   7.208  1.00  0.00     0.182 C 
HETATM   22  N5  UNL     1     -65.609  14.137   8.608  1.00  0.00    -0.393 N 
ATOM     23  H5  UNL     1     -66.545  14.270   8.991  1.00  0.00     0.156 HD
ENDROOT
BRANCH  21  24
HETATM   24  C21 UNL     1     -64.701  14.894   6.404  1.00  0.00     0.077 C 
BRANCH  24  25
HETATM   25  C22 UNL     1     -63.719  14.257   5.453  1.00  0.00     0.117 C 
HETATM   26  C23 UNL     1     -63.526  15.308   4.289  1.00  0.00     0.039 C 
BRANCH  25  27
HETATM   27  O5  UNL     1     -62.432  14.108   5.980  1.00  0.00    -0.396 OA
ATOM     28  H5  UNL     1     -62.063  13.240   5.861  1.00  0.00     0.210 HD
ENDBRANCH  25  27
ENDBRANCH  24  25
ENDBRANCH  21  24
BRANCH   1  29
HETATM   29  C2  UNL     1     -64.019  12.811   9.998  1.00  0.00     0.026 C 
HETATM   30  C1  UNL     1     -62.567  12.596   9.627  1.00  0.00     0.007 C 
ENDBRANCH   1  29
BRANCH  16  31
HETATM   31  C16 UNL     1     -67.030  10.541   4.512  1.00  0.00     0.009 C 
HETATM   32  C17 UNL     1     -65.668  10.239   3.936  1.00  0.00     0.012 C 
HETATM   33  C18 UNL     1     -68.028  10.706   3.445  1.00  0.00     0.012 C 
ENDBRANCH  16  31
BRANCH  13  34
HETATM   34  O3  UNL     1     -69.246  13.154   7.475  1.00  0.00    -0.345 OA
ATOM     35  H3  UNL     1     -69.720  13.082   8.295  1.00  0.00     0.219 HD
ENDBRANCH  13  34
BRANCH  12  36
HETATM   36  C13 UNL     1     -69.965   9.792   6.779  1.00  0.00     0.292 C 
HETATM   37  O2  UNL     1     -70.551  10.160   5.759  1.00  0.00    -0.300 OA
ENDBRANCH  12  36
BRANCH   7  38
HETATM   38  N1  UNL     1     -70.232  10.760  11.059  1.00  0.00     0.094 N 
HETATM   39  C9  UNL     1     -70.267   9.539  11.845  1.00  0.00     0.310 C 
HETATM   40  C10 UNL     1     -71.152  11.668  11.736  1.00  0.00     0.310 C 
ENDBRANCH   7  38
TORSDOF 8
ENDMDL
MODEL 3
REMARK VINA RESULT: -5.588921529      2.256      5.281
REMARK  8 active torsions:
REMARK  status: ('A' for Active; 'I' for Inactive)
REMARK    1  A    between atoms: C2_2  and  C3_3 
REMARK    2  A    between atoms: C8_9  and  N1_10 
REMARK    3  A    between atoms: C12_17  and  C13_18 
REMARK    4  A    between atoms: C14_20  and  O3_21 
REMARK    5  A    between atoms: C15_25  and  C16_26 
REMARK    6  A    between atoms: C20_33  and  C21_34 
REMARK    7  A    between atoms: C21_34  and  C22_35 
REMARK    8  A    between atoms: C22_35  and  O5_37 
ROOT
HETATM    1  C3  UNL     1     -68.564  13.931   6.128  1.00  0.00     0.024 C 
HETATM    2  C4  UNL     1     -68.486  14.611   4.778  1.00  0.00     0.038 C 
HETATM    3  C5  UNL     1     -69.999  13.627   6.411  1.00  0.00     0.040 C 
HETATM    4  C6  UNL     1     -70.220  12.406   7.277  1.00  0.00     0.076 C 
HETATM    5  S1  UNL     1     -70.088  12.802   9.068  1.00  0.00    -0.166 SA
HETATM    6  C7  UNL     1     -69.437  11.397  10.017  1.00  0.00     0.119 C 
HETATM    7  C8  UNL     1     -68.561  11.831  11.120  1.00  0.00     0.322 C 
HETATM    8  C11 UNL     1     -67.268  12.359  10.669  1.00  0.00     0.256 C 
HETATM    9  O1  UNL     1     -67.315  13.534  10.180  1.00  0.00    -0.271 OA
HETATM   10  N2  UNL     1     -66.019  11.770  10.709  1.00  0.00    -0.319 N 
ATOM     11  H2  UNL     1     -65.322  12.334  11.194  1.00  0.00     0.169 HD
HETATM   12  C12 UNL     1     -65.502  10.535  10.214  1.00  0.00     0.124 C 
HETATM   13  C14 UNL     1     -65.521  10.230   8.803  1.00  0.00     0.167 C 
HETATM   14  N3  UNL     1     -64.615  10.410   7.761  1.00  0.00    -0.355 N 
ATOM     15  H3  UNL     1     -64.378   9.535   7.293  1.00  0.00     0.162 HD
HETATM   16  C15 UNL     1     -63.932  11.551   7.187  1.00  0.00     0.179 C 
HETATM   17  C19 UNL     1     -64.596  12.854   7.266  1.00  0.00     0.242 C 
HETATM   18  O4  UNL     1     -64.320  13.647   8.235  1.00  0.00    -0.271 OA
HETATM   19  N4  UNL     1     -65.558  13.378   6.356  1.00  0.00    -0.338 N 
ATOM     20  H4  UNL     1     -65.561  14.366   6.103  1.00  0.00     0.164 HD
HETATM   21  C20 UNL     1     -66.556  12.438   5.790  1.00  0.00     0.182 C 
HETATM   22  N5  UNL     1     -67.846  12.740   6.295  1.00  0.00    -0.393 N 
ATOM     23  H5  UNL     1     -68.301  12.008   6.840  1.00  0.00     0.156 HD
ENDROOT
BRANCH  21  24
HETATM   24  C21 UNL     1     -66.347  12.502   4.307  1.00  0.00     0.077 C 
BRANCH  24  25
HETATM   25  C22 UNL     1     -66.937  11.355   3.525  1.00  0.00     0.117 C 
HETATM   26  C23 UNL     1     -66.119  10.080   3.976  1.00  0.00     0.039 C 
BRANCH  25  27
HETATM   27  O5  UNL     1     -68.254  11.044   3.877  1.00  0.00    -0.396 OA
ATOM     28  H5  UNL     1     -68.794  11.804   4.064  1.00  0.00     0.210 HD
ENDBRANCH  25  27
ENDBRANCH  24  25
ENDBRANCH  21  24
BRANCH   1  29
HETATM   29  C2  UNL     1     -68.187  15.083   7.076  1.00  0.00     0.026 C 
HETATM   30  C1  UNL     1     -69.304  16.093   7.228  1.00  0.00     0.007 C 
ENDBRANCH   1  29
BRANCH  16  31
HETATM   31  C16 UNL     1     -62.562  11.619   7.891  1.00  0.00     0.009 C 
HETATM   32  C17 UNL     1     -61.734  12.524   7.011  1.00  0.00     0.012 C 
HETATM   33  C18 UNL     1     -61.932  10.297   8.028  1.00  0.00     0.012 C 
ENDBRANCH  16  31
BRANCH  13  34
HETATM   34  O3  UNL     1     -66.607   9.641   8.378  1.00  0.00    -0.345 OA
ATOM     35  H3  UNL     1     -66.966   8.986   8.965  1.00  0.00     0.219 HD
ENDBRANCH  13  34
BRANCH  12  36
HETATM   36  C13 UNL     1     -64.254  10.135  10.932  1.00  0.00     0.292 C 
HETATM   37  O2  UNL     1     -63.671   9.118  10.551  1.00  0.00    -0.300 OA
ENDBRANCH  12  36
BRANCH   7  38
HETATM   38  N1  UNL     1     -68.383  10.912  12.223  1.00  0.00     0.094 N 
HETATM   39  C9  UNL     1     -69.271  11.249  13.322  1.00  0.00     0.310 C 
HETATM   40  C10 UNL     1     -68.761   9.555  11.840  1.00  0.00     0.310 C 
ENDBRANCH   7  38
TORSDOF 8
ENDMDL
MODEL 4
REMARK VINA RESULT: -5.585135851      4.959      8.327
REMARK  8 active torsions:
REMARK  status: ('A' for Active; 'I' for Inactive)
REMARK    1  A    between atoms: C2_2  and  C3_3 
REMARK    2  A    between atoms: C8_9  and  N1_10 
REMARK    3  A    between atoms: C12_17  and  C13_18 
REMARK    4  A    between atoms: C14_20  and  O3_21 
REMARK    5  A    between atoms: C15_25  and  C16_26 
REMARK    6  A    between atoms: C20_33  and  C21_34 
REMARK    7  A    between atoms: C21_34  and  C22_35 
REMARK    8  A    between atoms: C22_35  and  O5_37 
ROOT
HETATM    1  C3  UNL     1     -70.020  11.631   9.632  1.00  0.00     0.024 C 
HETATM    2  C4  UNL     1     -69.255  12.842  10.120  1.00  0.00     0.038 C 
HETATM    3  C5  UNL     1     -70.003  11.645   8.137  1.00  0.00     0.040 C 
HETATM    4  C6  UNL     1     -70.061  10.273   7.500  1.00  0.00     0.076 C 
HETATM    5  S1  UNL     1     -71.788   9.663   7.342  1.00  0.00    -0.166 SA
HETATM    6  C7  UNL     1     -71.873   7.854   7.486  1.00  0.00     0.119 C 
HETATM    7  C8  UNL     1     -73.091   7.409   8.189  1.00  0.00     0.322 C 
HETATM    8  C11 UNL     1     -73.078   7.704   9.626  1.00  0.00     0.256 C 
HETATM    9  O1  UNL     1     -73.295   8.923   9.921  1.00  0.00    -0.271 OA
HETATM   10  N2  UNL     1     -72.875   6.850  10.693  1.00  0.00    -0.319 N 
ATOM     11  H2  UNL     1     -73.631   6.873  11.378  1.00  0.00     0.169 HD
HETATM   12  C12 UNL     1     -71.828   5.943  11.037  1.00  0.00     0.124 C 
HETATM   13  C14 UNL     1     -70.477   6.406  11.244  1.00  0.00     0.167 C 
HETATM   14  N3  UNL     1     -69.755   6.821  12.360  1.00  0.00    -0.355 N 
ATOM     15  H3  UNL     1     -68.907   6.273  12.504  1.00  0.00     0.162 HD
HETATM   16  C15 UNL     1     -69.930   7.850  13.364  1.00  0.00     0.179 C 
HETATM   17  C19 UNL     1     -70.653   9.063  12.979  1.00  0.00     0.242 C 
HETATM   18  O4  UNL     1     -71.912   9.149  13.208  1.00  0.00    -0.271 OA
HETATM   19  N4  UNL     1     -70.108  10.218  12.350  1.00  0.00    -0.338 N 
ATOM     20  H4  UNL     1     -70.426  11.155  12.600  1.00  0.00     0.164 HD
HETATM   21  C20 UNL     1     -69.063  10.015  11.317  1.00  0.00     0.182 C 
HETATM   22  N5  UNL     1     -69.567  10.371  10.041  1.00  0.00    -0.393 N 
ATOM     23  H5  UNL     1     -69.603   9.627   9.345  1.00  0.00     0.156 HD
ENDROOT
BRANCH  21  24
HETATM   24  C21 UNL     1     -67.864  10.751  11.833  1.00  0.00     0.077 C 
BRANCH  24  25
HETATM   25  C22 UNL     1     -66.584  10.505  11.073  1.00  0.00     0.117 C 
HETATM   26  C23 UNL     1     -65.887  11.919  10.965  1.00  0.00     0.039 C 
BRANCH  25  27
HETATM   27  O5  UNL     1     -65.651   9.729  11.767  1.00  0.00    -0.396 OA
ATOM     28  H5  UNL     1     -65.485  10.024  12.655  1.00  0.00     0.210 HD
ENDBRANCH  25  27
ENDBRANCH  24  25
ENDBRANCH  21  24
BRANCH   1  29
HETATM   29  C2  UNL     1     -71.461  11.992  10.034  1.00  0.00     0.026 C 
HETATM   30  C1  UNL     1     -72.023  13.129   9.208  1.00  0.00     0.007 C 
ENDBRANCH   1  29
BRANCH  16  31
HETATM   31  C16 UNL     1     -70.646   7.167  14.547  1.00  0.00     0.009 C 
HETATM   32  C17 UNL     1     -70.253   7.992  15.749  1.00  0.00     0.012 C 
HETATM   33  C18 UNL     1     -70.243   5.763  14.716  1.00  0.00     0.012 C 
ENDBRANCH  16  31
BRANCH  13  34
HETATM   34  O3  UNL     1     -69.734   6.443  10.170  1.00  0.00    -0.345 OA
ATOM     35  H3  UNL     1     -69.378   5.605   9.897  1.00  0.00     0.219 HD
ENDBRANCH  13  34
BRANCH  12  36
HETATM   36  C13 UNL     1     -72.297   4.904  12.004  1.00  0.00     0.292 C 
HETATM   37  O2  UNL     1     -71.830   3.768  11.901  1.00  0.00    -0.300 OA
ENDBRANCH  12  36
BRANCH   7  38
HETATM   38  N1  UNL     1     -73.536   6.054   7.946  1.00  0.00     0.094 N 
HETATM   39  C9  UNL     1     -74.979   6.006   7.790  1.00  0.00     0.310 C 
HETATM   40  C10 UNL     1     -73.006   5.547   6.684  1.00  0.00     0.310 C 
ENDBRANCH   7  38
TORSDOF 8
ENDMDL
MODEL 5
REMARK VINA RESULT: -5.563280749      2.269      6.580
REMARK  8 active torsions:
REMARK  status: ('A' for Active; 'I' for Inactive)
REMARK    1  A    between atoms: C2_2  and  C3_3 
REMARK    2  A    between atoms: C8_9  and  N1_10 
REMARK    3  A    between atoms: C12_17  and  C13_18 
REMARK    4  A    between atoms: C14_20  and  O3_21 
REMARK    5  A    between atoms: C15_25  and  C16_26 
REMARK    6  A    between atoms: C20_33  and  C21_34 
REMARK    7  A    between atoms: C21_34  and  C22_35 
REMARK    8  A    between atoms: C22_35  and  O5_37 
ROOT
HETATM    1  C3  UNL     1     -69.509  11.352   9.230  1.00  0.00     0.024 C 
HETATM    2  C4  UNL     1     -70.219  10.734  10.415  1.00  0.00     0.038 C 
HETATM    3  C5  UNL     1     -70.483  12.228   8.511  1.00  0.00     0.040 C 
HETATM    4  C6  UNL     1     -69.856  13.408   7.800  1.00  0.00     0.076 C 
HETATM    5  S1  UNL     1     -69.237  12.952   6.130  1.00  0.00    -0.166 SA
HETATM    6  C7  UNL     1     -67.775  13.927   5.671  1.00  0.00     0.119 C 
HETATM    7  C8  UNL     1     -66.804  13.138   4.890  1.00  0.00     0.322 C 
HETATM    8  C11 UNL     1     -66.101  12.123   5.684  1.00  0.00     0.256 C 
HETATM    9  O1  UNL     1     -66.794  11.091   5.958  1.00  0.00    -0.271 OA
HETATM   10  N2  UNL     1     -64.805  12.128   6.162  1.00  0.00    -0.319 N 
ATOM     11  H2  UNL     1     -64.267  11.310   5.876  1.00  0.00     0.169 HD
HETATM   12  C12 UNL     1     -64.062  13.038   6.972  1.00  0.00     0.124 C 
HETATM   13  C14 UNL     1     -64.482  13.356   8.316  1.00  0.00     0.167 C 
HETATM   14  N3  UNL     1     -64.185  12.833   9.572  1.00  0.00    -0.355 N 
ATOM     15  H3  UNL     1     -63.810  13.536  10.210  1.00  0.00     0.162 HD
HETATM   16  C15 UNL     1     -64.284  11.523  10.183  1.00  0.00     0.179 C 
HETATM   17  C19 UNL     1     -65.332  10.623   9.699  1.00  0.00     0.242 C 
HETATM   18  O4  UNL     1     -65.057   9.765   8.786  1.00  0.00    -0.271 OA
HETATM   19  N4  UNL     1     -66.686  10.576  10.137  1.00  0.00    -0.338 N 
ATOM     20  H4  UNL     1     -67.179   9.688  10.234  1.00  0.00     0.164 HD
HETATM   21  C20 UNL     1     -67.357  11.862  10.446  1.00  0.00     0.182 C 
HETATM   22  N5  UNL     1     -68.369  12.123   9.489  1.00  0.00    -0.393 N 
ATOM     23  H5  UNL     1     -68.254  12.966   8.926  1.00  0.00     0.156 HD
ENDROOT
BRANCH  21  24
HETATM   24  C21 UNL     1     -67.760  11.750  11.885  1.00  0.00     0.077 C 
BRANCH  24  25
HETATM   25  C22 UNL     1     -67.771  13.048  12.652  1.00  0.00     0.117 C 
HETATM   26  C23 UNL     1     -69.223  13.638  12.451  1.00  0.00     0.039 C 
BRANCH  25  27
HETATM   27  O5  UNL     1     -67.666  12.892  14.038  1.00  0.00    -0.396 OA
ATOM     28  H5  UNL     1     -68.264  13.438  14.536  1.00  0.00     0.210 HD
ENDBRANCH  25  27
ENDBRANCH  24  25
ENDBRANCH  21  24
BRANCH   1  29
HETATM   29  C2  UNL     1     -69.301  10.128   8.321  1.00  0.00     0.026 C 
HETATM   30  C1  UNL     1     -69.689   8.832   9.000  1.00  0.00     0.007 C 
ENDBRANCH   1  29
BRANCH  16  31
HETATM   31  C16 UNL     1     -62.902  10.866   9.996  1.00  0.00     0.009 C 
HETATM   32  C17 UNL     1     -62.862   9.775  11.039  1.00  0.00     0.012 C 
HETATM   33  C18 UNL     1     -61.795  11.816  10.186  1.00  0.00     0.012 C 
ENDBRANCH  16  31
BRANCH  13  34
HETATM   34  O3  UNL     1     -65.314  14.358   8.415  1.00  0.00    -0.345 OA
ATOM     35  H3  UNL     1     -64.920  15.186   8.665  1.00  0.00     0.219 HD
ENDBRANCH  13  34
BRANCH  12  36
HETATM   36  C13 UNL     1     -62.590  12.857   6.794  1.00  0.00     0.292 C 
HETATM   37  O2  UNL     1     -62.027  13.529   5.927  1.00  0.00    -0.300 OA
ENDBRANCH  12  36
BRANCH   7  38
HETATM   38  N1  UNL     1     -65.876  13.871   4.056  1.00  0.00     0.094 N 
HETATM   39  C9  UNL     1     -66.288  13.824   2.665  1.00  0.00     0.310 C 
HETATM   40  C10 UNL     1     -65.872  15.290   4.398  1.00  0.00     0.310 C 
ENDBRANCH   7  38
TORSDOF 8
ENDMDL
