MODEL 1
REMARK VINA RESULT: -7.876035567      0.000      0.000
REMARK  14 active torsions:
REMARK  status: ('A' for Active; 'I' for Inactive)
REMARK    1  A    between atoms: C2_2  and  O1_3 
REMARK    2  A    between atoms: O1_3  and  C3_4 
REMARK    3  A    between atoms: C3_4  and  C4_6 
REMARK    4  A    between atoms: C4_6  and  C5_7 
REMARK    5  A    between atoms: C5_7  and  C6_8 
REMARK    6  A    between atoms: C6_8  and  C7_9 
REMARK    7  A    between atoms: C9_11  and  C10_12 
REMARK    8  A    between atoms: C13_18  and  C14_19 
REMARK    9  A    between atoms: C14_19  and  O6_20 
REMARK   10  A    between atoms: N1_23  and  C16_25 
REMARK   11  A    between atoms: C17_27  and  C18_28 
REMARK   12  A    between atoms: C18_28  and  C19_29 
REMARK   13  A    between atoms: C20_33  and  O8_34 
REMARK   14  A    between atoms: C21_36  and  O9_37 
ROOT
HETATM    1  C7  UNL     1     -14.007  18.852  28.773  1.00  0.00     0.130 C 
HETATM    2  C8  UNL     1     -12.804  19.730  28.432  1.00  0.00     0.064 C 
HETATM    3  C9  UNL     1     -12.450  19.403  27.002  1.00  0.00     0.130 C 
HETATM    4  O3  UNL     1     -13.552  19.333  26.203  1.00  0.00    -0.322 OA
HETATM    5  C12 UNL     1     -14.746  19.708  26.746  1.00  0.00     0.329 C 
HETATM    6  O4  UNL     1     -15.046  19.273  27.995  1.00  0.00    -0.322 OA
HETATM    7  O5  UNL     1     -14.944  21.092  26.514  1.00  0.00    -0.314 OA
HETATM    8  C13 UNL     1     -15.209  20.715  25.198  1.00  0.00     0.205 C 
HETATM    9  C15 UNL     1     -15.846  19.508  25.728  1.00  0.00     0.109 C 
HETATM   10  N1  UNL     1     -16.738  18.637  25.633  1.00  0.00    -0.359 N 
ATOM     11  H1  UNL     1     -16.737  17.925  26.364  1.00  0.00     0.162 HD
ENDROOT
BRANCH   8  12
HETATM   12  C14 UNL     1     -16.059  21.659  24.414  1.00  0.00     0.202 C 
BRANCH  12  13
HETATM   13  O6  UNL     1     -15.282  22.799  24.146  1.00  0.00    -0.398 OA
ATOM     14  H6  UNL     1     -15.596  23.494  24.713  1.00  0.00     0.209 HD
ENDBRANCH  12  13
ENDBRANCH   8  12
BRANCH  10  15
HETATM   15  C16 UNL     1     -17.738  18.503  24.661  1.00  0.00     0.253 C 
HETATM   16  O7  UNL     1     -18.080  17.153  24.511  1.00  0.00    -0.356 OA
HETATM   17  C17 UNL     1     -19.334  17.093  23.969  1.00  0.00     0.160 C 
HETATM   18  C20 UNL     1     -19.966  18.446  24.044  1.00  0.00     0.180 C 
HETATM   19  C21 UNL     1     -19.063  19.115  25.061  1.00  0.00     0.198 C 
BRANCH  17  20
HETATM   20  C18 UNL     1     -20.168  16.139  24.820  1.00  0.00     0.078 C 
BRANCH  20  21
HETATM   21  C19 UNL     1     -20.908  15.189  23.953  1.00  0.00     0.055 C 
HETATM   22  N2  UNL     1     -22.097  15.508  23.615  1.00  0.00    -0.411 N 
ATOM     23  H22 UNL     1     -22.508  16.384  23.936  1.00  0.00     0.155 HD
ATOM     24  H21 UNL     1     -22.605  14.855  23.018  1.00  0.00     0.155 HD
ENDBRANCH  20  21
ENDBRANCH  17  20
BRANCH  18  25
HETATM   25  O8  UNL     1     -21.288  18.427  24.444  1.00  0.00    -0.390 OA
ATOM     26  H8  UNL     1     -21.431  18.770  25.318  1.00  0.00     0.210 HD
ENDBRANCH  18  25
BRANCH  19  27
HETATM   27  O9  UNL     1     -19.420  18.767  26.349  1.00  0.00    -0.389 OA
ATOM     28  H9  UNL     1     -20.226  19.192  26.618  1.00  0.00     0.210 HD
ENDBRANCH  19  27
ENDBRANCH  10  15
BRANCH   3  29
HETATM   29  C10 UNL     1     -11.350  20.295  26.488  1.00  0.00     0.028 C 
HETATM   30  C11 UNL     1     -11.587  21.750  26.733  1.00  0.00     0.007 C 
ENDBRANCH   3  29
BRANCH   1  31
HETATM   31  C6  UNL     1     -13.717  17.403  28.580  1.00  0.00     0.033 C 
BRANCH  31  32
HETATM   32  C5  UNL     1     -14.096  16.552  29.743  1.00  0.00     0.012 C 
BRANCH  32  33
HETATM   33  C4  UNL     1     -13.796  17.205  31.081  1.00  0.00     0.111 C 
BRANCH  33  34
HETATM   34  C3  UNL     1     -12.441  16.791  31.541  1.00  0.00     0.258 C 
HETATM   35  O2  UNL     1     -12.311  15.760  32.249  1.00  0.00    -0.265 OA
BRANCH  34  36
HETATM   36  O1  UNL     1     -11.335  17.543  31.184  1.00  0.00    -0.322 OA
BRANCH  36  37
HETATM   37  C2  UNL     1     -10.201  16.888  30.607  1.00  0.00     0.174 C 
HETATM   38  C1  UNL     1     -10.073  17.261  29.154  1.00  0.00     0.034 C 
ENDBRANCH  36  37
ENDBRANCH  34  36
ENDBRANCH  33  34
ENDBRANCH  32  33
ENDBRANCH  31  32
ENDBRANCH   1  31
TORSDOF 14
ENDMDL
MODEL 2
REMARK VINA RESULT: -7.740641230      2.461      7.701
REMARK  14 active torsions:
REMARK  status: ('A' for Active; 'I' for Inactive)
REMARK    1  A    between atoms: C2_2  and  O1_3 
REMARK    2  A    between atoms: O1_3  and  C3_4 
REMARK    3  A    between atoms: C3_4  and  C4_6 
REMARK    4  A    between atoms: C4_6  and  C5_7 
REMARK    5  A    between atoms: C5_7  and  C6_8 
REMARK    6  A    between atoms: C6_8  and  C7_9 
REMARK    7  A    between atoms: C9_11  and  C10_12 
REMARK    8  A    between atoms: C13_18  and  C14_19 
REMARK    9  A    between atoms: C14_19  and  O6_20 
REMARK   10  A    between atoms: N1_23  and  C16_25 
REMARK   11  A    between atoms: C17_27  and  C18_28 
REMARK   12  A    between atoms: C18_28  and  C19_29 
REMARK   13  A    between atoms: C20_33  and  O8_34 
REMARK   14  A    between atoms: C21_36  and  O9_37 
ROOT
HETATM    1  C7  UNL     1     -16.079  19.068  25.418  1.00  0.00     0.130 C 
HETATM    2  C8  UNL     1     -15.787  20.202  24.437  1.00  0.00     0.064 C 
HETATM    3  C9  UNL     1     -15.312  21.361  25.279  1.00  0.00     0.130 C 
HETATM    4  O3  UNL     1     -14.419  20.972  26.232  1.00  0.00    -0.322 OA
HETATM    5  C12 UNL     1     -13.978  19.681  26.190  1.00  0.00     0.329 C 
HETATM    6  O4  UNL     1     -14.890  18.700  25.975  1.00  0.00    -0.322 OA
HETATM    7  O5  UNL     1     -12.810  19.618  25.391  1.00  0.00    -0.314 OA
HETATM    8  C13 UNL     1     -12.175  20.218  26.478  1.00  0.00     0.205 C 
HETATM    9  C15 UNL     1     -13.045  19.429  27.352  1.00  0.00     0.109 C 
HETATM   10  N1  UNL     1     -13.207  18.807  28.425  1.00  0.00    -0.359 N 
ATOM     11  H1  UNL     1     -14.128  18.389  28.555  1.00  0.00     0.162 HD
ENDROOT
BRANCH   8  12
HETATM   12  C14 UNL     1     -10.702  19.985  26.575  1.00  0.00     0.202 C 
BRANCH  12  13
HETATM   13  O6  UNL     1     -10.066  21.056  25.926  1.00  0.00    -0.398 OA
ATOM     14  H6  UNL     1      -9.777  20.741  25.077  1.00  0.00     0.209 HD
ENDBRANCH  12  13
ENDBRANCH   8  12
BRANCH  10  15
HETATM   15  C16 UNL     1     -12.298  18.606  29.472  1.00  0.00     0.253 C 
HETATM   16  O7  UNL     1     -12.986  18.252  30.640  1.00  0.00    -0.356 OA
HETATM   17  C17 UNL     1     -12.111  17.598  31.463  1.00  0.00     0.160 C 
HETATM   18  C20 UNL     1     -10.883  17.241  30.689  1.00  0.00     0.180 C 
HETATM   19  C21 UNL     1     -11.393  17.410  29.272  1.00  0.00     0.198 C 
BRANCH  17  20
HETATM   20  C18 UNL     1     -12.773  16.300  31.917  1.00  0.00     0.078 C 
BRANCH  20  21
HETATM   21  C19 UNL     1     -14.204  16.287  31.521  1.00  0.00     0.055 C 
HETATM   22  N2  UNL     1     -14.491  15.797  30.377  1.00  0.00    -0.411 N 
ATOM     23  H22 UNL     1     -13.754  15.434  29.771  1.00  0.00     0.155 HD
ATOM     24  H21 UNL     1     -15.474  15.788  30.105  1.00  0.00     0.155 HD
ENDBRANCH  20  21
ENDBRANCH  17  20
BRANCH  18  25
HETATM   25  O8  UNL     1     -10.418  15.963  30.933  1.00  0.00    -0.390 OA
ATOM     26  H8  UNL     1     -10.692  15.323  30.287  1.00  0.00     0.210 HD
ENDBRANCH  18  25
BRANCH  19  27
HETATM   27  O9  UNL     1     -12.098  16.296  28.860  1.00  0.00    -0.389 OA
ATOM     28  H9  UNL     1     -12.316  15.728  29.589  1.00  0.00     0.210 HD
ENDBRANCH  19  27
ENDBRANCH  10  15
BRANCH   3  29
HETATM   29  C10 UNL     1     -14.862  22.517  24.424  1.00  0.00     0.028 C 
HETATM   30  C11 UNL     1     -13.590  23.150  24.884  1.00  0.00     0.007 C 
ENDBRANCH   3  29
BRANCH   1  31
HETATM   31  C6  UNL     1     -17.080  19.463  26.450  1.00  0.00     0.033 C 
BRANCH  31  32
HETATM   32  C5  UNL     1     -18.433  19.751  25.898  1.00  0.00     0.012 C 
BRANCH  32  33
HETATM   33  C4  UNL     1     -19.522  18.888  26.512  1.00  0.00     0.111 C 
BRANCH  33  34
HETATM   34  C3  UNL     1     -20.125  18.029  25.456  1.00  0.00     0.258 C 
HETATM   35  O2  UNL     1     -21.322  18.207  25.113  1.00  0.00    -0.265 OA
BRANCH  34  36
HETATM   36  O1  UNL     1     -19.364  17.039  24.858  1.00  0.00    -0.322 OA
BRANCH  36  37
HETATM   37  C2  UNL     1     -19.405  16.891  23.434  1.00  0.00     0.174 C 
HETATM   38  C1  UNL     1     -18.286  17.676  22.801  1.00  0.00     0.034 C 
ENDBRANCH  36  37
ENDBRANCH  34  36
ENDBRANCH  33  34
ENDBRANCH  32  33
ENDBRANCH  31  32
ENDBRANCH   1  31
TORSDOF 14
ENDMDL
MODEL 3
REMARK VINA RESULT: -7.638095300      0.908      1.001
REMARK  14 active torsions:
REMARK  status: ('A' for Active; 'I' for Inactive)
REMARK    1  A    between atoms: C2_2  and  O1_3 
REMARK    2  A    between atoms: O1_3  and  C3_4 
REMARK    3  A    between atoms: C3_4  and  C4_6 
REMARK    4  A    between atoms: C4_6  and  C5_7 
REMARK    5  A    between atoms: C5_7  and  C6_8 
REMARK    6  A    between atoms: C6_8  and  C7_9 
REMARK    7  A    between atoms: C9_11  and  C10_12 
REMARK    8  A    between atoms: C13_18  and  C14_19 
REMARK    9  A    between atoms: C14_19  and  O6_20 
REMARK   10  A    between atoms: N1_23  and  C16_25 
REMARK   11  A    between atoms: C17_27  and  C18_28 
REMARK   12  A    between atoms: C18_28  and  C19_29 
REMARK   13  A    between atoms: C20_33  and  O8_34 
REMARK   14  A    between atoms: C21_36  and  O9_37 
ROOT
HETATM    1  C7  UNL     1     -14.402  19.456  29.157  1.00  0.00     0.130 C 
HETATM    2  C8  UNL     1     -13.338  20.544  29.019  1.00  0.00     0.064 C 
HETATM    3  C9  UNL     1     -12.665  20.294  27.692  1.00  0.00     0.130 C 
HETATM    4  O3  UNL     1     -13.562  20.022  26.703  1.00  0.00    -0.322 OA
HETATM    5  C12 UNL     1     -14.886  20.165  27.000  1.00  0.00     0.329 C 
HETATM    6  O4  UNL     1     -15.333  19.678  28.185  1.00  0.00    -0.322 OA
HETATM    7  O5  UNL     1     -15.288  21.488  26.691  1.00  0.00    -0.314 OA
HETATM    8  C13 UNL     1     -15.223  21.072  25.361  1.00  0.00     0.205 C 
HETATM    9  C15 UNL     1     -15.717  19.766  25.802  1.00  0.00     0.109 C 
HETATM   10  N1  UNL     1     -16.398  18.743  25.570  1.00  0.00    -0.359 N 
ATOM     11  H1  UNL     1     -16.405  18.042  26.311  1.00  0.00     0.162 HD
ENDROOT
BRANCH   8  12
HETATM   12  C14 UNL     1     -16.069  21.843  24.401  1.00  0.00     0.202 C 
BRANCH  12  13
HETATM   13  O6  UNL     1     -15.292  22.912  23.925  1.00  0.00    -0.398 OA
ATOM     14  H6  UNL     1     -14.928  23.356  24.682  1.00  0.00     0.209 HD
ENDBRANCH  12  13
ENDBRANCH   8  12
BRANCH  10  15
HETATM   15  C16 UNL     1     -17.153  18.427  24.433  1.00  0.00     0.253 C 
HETATM   16  O7  UNL     1     -17.711  17.150  24.569  1.00  0.00    -0.356 OA
HETATM   17  C17 UNL     1     -18.793  17.071  23.736  1.00  0.00     0.160 C 
HETATM   18  C20 UNL     1     -19.144  18.442  23.256  1.00  0.00     0.180 C 
HETATM   19  C21 UNL     1     -18.387  19.287  24.262  1.00  0.00     0.198 C 
BRANCH  17  20
HETATM   20  C18 UNL     1     -19.972  16.542  24.548  1.00  0.00     0.078 C 
BRANCH  20  21
HETATM   21  C19 UNL     1     -20.751  15.565  23.746  1.00  0.00     0.055 C 
HETATM   22  N2  UNL     1     -21.238  14.558  24.361  1.00  0.00    -0.411 N 
ATOM     23  H22 UNL     1     -21.089  14.443  25.364  1.00  0.00     0.155 HD
ATOM     24  H21 UNL     1     -21.774  13.887  23.810  1.00  0.00     0.155 HD
ENDBRANCH  20  21
ENDBRANCH  17  20
BRANCH  18  25
HETATM   25  O8  UNL     1     -20.500  18.708  23.260  1.00  0.00    -0.390 OA
ATOM     26  H8  UNL     1     -20.999  18.176  22.651  1.00  0.00     0.210 HD
ENDBRANCH  18  25
BRANCH  19  27
HETATM   27  O9  UNL     1     -19.093  19.410  25.442  1.00  0.00    -0.389 OA
ATOM     28  H9  UNL     1     -18.686  18.922  26.148  1.00  0.00     0.210 HD
ENDBRANCH  19  27
ENDBRANCH  10  15
BRANCH   3  29
HETATM   29  C10 UNL     1     -11.671  21.378  27.364  1.00  0.00     0.028 C 
HETATM   30  C11 UNL     1     -12.174  22.760  27.627  1.00  0.00     0.007 C 
ENDBRANCH   3  29
BRANCH   1  31
HETATM   31  C6  UNL     1     -13.819  18.087  29.069  1.00  0.00     0.033 C 
BRANCH  31  32
HETATM   32  C5  UNL     1     -14.649  17.035  29.720  1.00  0.00     0.012 C 
BRANCH  32  33
HETATM   33  C4  UNL     1     -13.822  15.939  30.367  1.00  0.00     0.111 C 
BRANCH  33  34
HETATM   34  C3  UNL     1     -13.186  16.466  31.606  1.00  0.00     0.258 C 
HETATM   35  O2  UNL     1     -13.873  17.126  32.428  1.00  0.00    -0.265 OA
BRANCH  34  36
HETATM   36  O1  UNL     1     -11.844  16.226  31.846  1.00  0.00    -0.322 OA
BRANCH  36  37
HETATM   37  C2  UNL     1     -10.878  17.203  31.445  1.00  0.00     0.174 C 
HETATM   38  C1  UNL     1     -10.397  16.910  30.047  1.00  0.00     0.034 C 
ENDBRANCH  36  37
ENDBRANCH  34  36
ENDBRANCH  33  34
ENDBRANCH  32  33
ENDBRANCH  31  32
ENDBRANCH   1  31
TORSDOF 14
ENDMDL
MODEL 4
REMARK VINA RESULT: -7.563252047      2.424      7.727
REMARK  14 active torsions:
REMARK  status: ('A' for Active; 'I' for Inactive)
REMARK    1  A    between atoms: C2_2  and  O1_3 
REMARK    2  A    between atoms: O1_3  and  C3_4 
REMARK    3  A    between atoms: C3_4  and  C4_6 
REMARK    4  A    between atoms: C4_6  and  C5_7 
REMARK    5  A    between atoms: C5_7  and  C6_8 
REMARK    6  A    between atoms: C6_8  and  C7_9 
REMARK    7  A    between atoms: C9_11  and  C10_12 
REMARK    8  A    between atoms: C13_18  and  C14_19 
REMARK    9  A    between atoms: C14_19  and  O6_20 
REMARK   10  A    between atoms: N1_23  and  C16_25 
REMARK   11  A    between atoms: C17_27  and  C18_28 
REMARK   12  A    between atoms: C18_28  and  C19_29 
REMARK   13  A    between atoms: C20_33  and  O8_34 
REMARK   14  A    between atoms: C21_36  and  O9_37 
ROOT
HETATM    1  C7  UNL     1     -15.846  20.835  25.256  1.00  0.00     0.130 C 
HETATM    2  C8  UNL     1     -15.043  22.129  25.129  1.00  0.00     0.064 C 
HETATM    3  C9  UNL     1     -14.497  22.410  26.506  1.00  0.00     0.130 C 
HETATM    4  O3  UNL     1     -13.989  21.291  27.097  1.00  0.00    -0.322 OA
HETATM    5  C12 UNL     1     -13.903  20.163  26.334  1.00  0.00     0.329 C 
HETATM    6  O4  UNL     1     -14.961  19.839  25.550  1.00  0.00    -0.322 OA
HETATM    7  O5  UNL     1     -12.637  20.129  25.700  1.00  0.00    -0.314 OA
HETATM    8  C13 UNL     1     -12.145  19.793  26.961  1.00  0.00     0.205 C 
HETATM    9  C15 UNL     1     -13.372  19.025  27.176  1.00  0.00     0.109 C 
HETATM   10  N1  UNL     1     -13.942  18.033  27.681  1.00  0.00    -0.359 N 
ATOM     11  H1  UNL     1     -14.944  17.963  27.503  1.00  0.00     0.162 HD
ENDROOT
BRANCH   8  12
HETATM   12  C14 UNL     1     -10.851  19.047  26.972  1.00  0.00     0.202 C 
BRANCH  12  13
HETATM   13  O6  UNL     1      -9.975  19.715  26.100  1.00  0.00    -0.398 OA
ATOM     14  H6  UNL     1      -9.090  19.483  26.356  1.00  0.00     0.209 HD
ENDBRANCH  12  13
ENDBRANCH   8  12
BRANCH  10  15
HETATM   15  C16 UNL     1     -13.393  17.004  28.457  1.00  0.00     0.253 C 
HETATM   16  O7  UNL     1     -12.285  17.480  29.168  1.00  0.00    -0.356 OA
HETATM   17  C17 UNL     1     -12.088  16.658  30.243  1.00  0.00     0.160 C 
HETATM   18  C20 UNL     1     -13.288  15.784  30.419  1.00  0.00     0.180 C 
HETATM   19  C21 UNL     1     -14.299  16.533  29.574  1.00  0.00     0.198 C 
BRANCH  17  20
HETATM   20  C18 UNL     1     -11.959  17.533  31.487  1.00  0.00     0.078 C 
BRANCH  20  21
HETATM   21  C19 UNL     1     -10.549  17.562  31.952  1.00  0.00     0.055 C 
HETATM   22  N2  UNL     1      -9.658  17.125  31.149  1.00  0.00    -0.411 N 
ATOM     23  H22 UNL     1      -9.921  16.774  30.228  1.00  0.00     0.155 HD
ATOM     24  H21 UNL     1      -8.690  17.146  31.468  1.00  0.00     0.155 HD
ENDBRANCH  20  21
ENDBRANCH  17  20
BRANCH  18  25
HETATM   25  O8  UNL     1     -13.695  15.648  31.732  1.00  0.00    -0.390 OA
ATOM     26  H8  UNL     1     -14.625  15.478  31.832  1.00  0.00     0.210 HD
ENDBRANCH  18  25
BRANCH  19  27
HETATM   27  O9  UNL     1     -14.844  17.593  30.272  1.00  0.00    -0.389 OA
ATOM     28  H9  UNL     1     -14.499  17.647  31.156  1.00  0.00     0.210 HD
ENDBRANCH  19  27
ENDBRANCH  10  15
BRANCH   3  29
HETATM   29  C10 UNL     1     -13.571  23.599  26.502  1.00  0.00     0.028 C 
HETATM   30  C11 UNL     1     -12.527  23.557  27.570  1.00  0.00     0.007 C 
ENDBRANCH   3  29
BRANCH   1  31
HETATM   31  C6  UNL     1     -16.924  20.943  26.279  1.00  0.00     0.033 C 
BRANCH  31  32
HETATM   32  C5  UNL     1     -17.875  19.796  26.277  1.00  0.00     0.012 C 
BRANCH  32  33
HETATM   33  C4  UNL     1     -18.306  19.382  24.881  1.00  0.00     0.111 C 
BRANCH  33  34
HETATM   34  C3  UNL     1     -19.309  18.286  24.978  1.00  0.00     0.258 C 
HETATM   35  O2  UNL     1     -18.955  17.096  24.776  1.00  0.00    -0.265 OA
BRANCH  34  36
HETATM   36  O1  UNL     1     -20.624  18.584  25.291  1.00  0.00    -0.322 OA
BRANCH  36  37
HETATM   37  C2  UNL     1     -21.270  17.869  26.350  1.00  0.00     0.174 C 
HETATM   38  C1  UNL     1     -21.178  18.653  27.633  1.00  0.00     0.034 C 
ENDBRANCH  36  37
ENDBRANCH  34  36
ENDBRANCH  33  34
ENDBRANCH  32  33
ENDBRANCH  31  32
ENDBRANCH   1  31
TORSDOF 14
ENDMDL
MODEL 5
REMARK VINA RESULT: -7.520859742      2.445      7.559
REMARK  14 active torsions:
REMARK  status: ('A' for Active; 'I' for Inactive)
REMARK    1  A    between atoms: C2_2  and  O1_3 
REMARK    2  A    between atoms: O1_3  and  C3_4 
REMARK    3  A    between atoms: C3_4  and  C4_6 
REMARK    4  A    between atoms: C4_6  and  C5_7 
REMARK    5  A    between atoms: C5_7  and  C6_8 
REMARK    6  A    between atoms: C6_8  and  C7_9 
REMARK    7  A    between atoms: C9_11  and  C10_12 
REMARK    8  A    between atoms: C13_18  and  C14_19 
REMARK    9  A    between atoms: C14_19  and  O6_20 
REMARK   10  A    between atoms: N1_23  and  C16_25 
REMARK   11  A    between atoms: C17_27  and  C18_28 
REMARK   12  A    between atoms: C18_28  and  C19_29 
REMARK   13  A    between atoms: C20_33  and  O8_34 
REMARK   14  A    between atoms: C21_36  and  O9_37 
ROOT
HETATM    1  C7  UNL     1     -15.851  20.880  25.271  1.00  0.00     0.130 C 
HETATM    2  C8  UNL     1     -15.049  22.176  25.162  1.00  0.00     0.064 C 
HETATM    3  C9  UNL     1     -14.508  22.442  26.545  1.00  0.00     0.130 C 
HETATM    4  O3  UNL     1     -14.002  21.316  27.123  1.00  0.00    -0.322 OA
HETATM    5  C12 UNL     1     -13.912  20.198  26.348  1.00  0.00     0.329 C 
HETATM    6  O4  UNL     1     -14.967  19.882  25.556  1.00  0.00    -0.322 OA
HETATM    7  O5  UNL     1     -12.643  20.172  25.718  1.00  0.00    -0.314 OA
HETATM    8  C13 UNL     1     -12.156  19.822  26.977  1.00  0.00     0.205 C 
HETATM    9  C15 UNL     1     -13.383  19.050  27.178  1.00  0.00     0.109 C 
HETATM   10  N1  UNL     1     -13.953  18.051  27.668  1.00  0.00    -0.359 N 
ATOM     11  H1  UNL     1     -14.955  17.982  27.486  1.00  0.00     0.162 HD
ENDROOT
BRANCH   8  12
HETATM   12  C14 UNL     1     -10.861  19.076  26.983  1.00  0.00     0.202 C 
BRANCH  12  13
HETATM   13  O6  UNL     1      -9.989  19.745  26.108  1.00  0.00    -0.398 OA
ATOM     14  H6  UNL     1      -9.891  20.634  26.431  1.00  0.00     0.209 HD
ENDBRANCH  12  13
ENDBRANCH   8  12
BRANCH  10  15
HETATM   15  C16 UNL     1     -13.406  17.013  28.434  1.00  0.00     0.253 C 
HETATM   16  O7  UNL     1     -12.281  17.473  29.129  1.00  0.00    -0.356 OA
HETATM   17  C17 UNL     1     -12.078  16.646  30.199  1.00  0.00     0.160 C 
HETATM   18  C20 UNL     1     -13.286  15.788  30.392  1.00  0.00     0.180 C 
HETATM   19  C21 UNL     1     -14.301  16.553  29.565  1.00  0.00     0.198 C 
BRANCH  17  20
HETATM   20  C18 UNL     1     -11.917  17.517  31.442  1.00  0.00     0.078 C 
BRANCH  20  21
HETATM   21  C19 UNL     1     -10.509  17.491  31.910  1.00  0.00     0.055 C 
HETATM   22  N2  UNL     1      -9.623  17.095  31.081  1.00  0.00    -0.411 N 
ATOM     23  H22 UNL     1      -9.888  16.811  30.138  1.00  0.00     0.155 HD
ATOM     24  H21 UNL     1      -8.655  17.077  31.402  1.00  0.00     0.155 HD
ENDBRANCH  20  21
ENDBRANCH  17  20
BRANCH  18  25
HETATM   25  O8  UNL     1     -13.675  15.655  31.712  1.00  0.00    -0.390 OA
ATOM     26  H8  UNL     1     -13.682  16.472  32.196  1.00  0.00     0.210 HD
ENDBRANCH  18  25
BRANCH  19  27
HETATM   27  O9  UNL     1     -14.820  17.619  30.273  1.00  0.00    -0.389 OA
ATOM     28  H9  UNL     1     -15.514  17.345  30.862  1.00  0.00     0.210 HD
ENDBRANCH  19  27
ENDBRANCH  10  15
BRANCH   3  29
HETATM   29  C10 UNL     1     -13.583  23.631  26.558  1.00  0.00     0.028 C 
HETATM   30  C11 UNL     1     -12.511  23.552  27.595  1.00  0.00     0.007 C 
ENDBRANCH   3  29
BRANCH   1  31
HETATM   31  C6  UNL     1     -16.934  20.975  26.291  1.00  0.00     0.033 C 
BRANCH  31  32
HETATM   32  C5  UNL     1     -17.385  19.656  26.816  1.00  0.00     0.012 C 
BRANCH  32  33
HETATM   33  C4  UNL     1     -18.882  19.441  26.677  1.00  0.00     0.111 C 
BRANCH  33  34
HETATM   34  C3  UNL     1     -19.155  18.643  25.449  1.00  0.00     0.258 C 
HETATM   35  O2  UNL     1     -20.343  18.414  25.105  1.00  0.00    -0.265 OA
BRANCH  34  36
HETATM   36  O1  UNL     1     -18.100  18.160  24.696  1.00  0.00    -0.322 OA
BRANCH  36  37
HETATM   37  C2  UNL     1     -17.960  18.585  23.336  1.00  0.00     0.174 C 
HETATM   38  C1  UNL     1     -18.304  17.452  22.404  1.00  0.00     0.034 C 
ENDBRANCH  36  37
ENDBRANCH  34  36
ENDBRANCH  33  34
ENDBRANCH  32  33
ENDBRANCH  31  32
ENDBRANCH   1  31
TORSDOF 14
ENDMDL
