MODEL 1
REMARK VINA RESULT: -9.066995759      0.000      0.000
REMARK  16 active torsions:
REMARK  status: ('A' for Active; 'I' for Inactive)
REMARK    1  A    between atoms: C2_2  and  C3_3 
REMARK    2  A    between atoms: C3_3  and  O2_5 
REMARK    3  A    between atoms: O2_5  and  C4_6 
REMARK    4  A    between atoms: C5_7  and  N1_8 
REMARK    5  A    between atoms: C8_15  and  O4_16 
REMARK    6  A    between atoms: O4_16  and  C9_17 
REMARK    7  A    between atoms: C10_19  and  C11_20 
REMARK    8  A    between atoms: C11_20  and  O6_21 
REMARK    9  A    between atoms: C12_23  and  O7_24 
REMARK   10  A    between atoms: C13_26  and  O8_27 
REMARK   11  A    between atoms: C14_29  and  O9_30 
REMARK   12  A    between atoms: C15_32  and  C16_33 
REMARK   13  A    between atoms: C16_33  and  C17_34 
REMARK   14  A    between atoms: C18_35  and  C19_36 
REMARK   15  A    between atoms: C19_36  and  C20_37 
REMARK   16  A    between atoms: C20_37  and  C21_38 
ROOT
HETATM    1  C4  UNL     1     -14.683  21.061  25.540  1.00  0.00     0.174 C 
HETATM    2  C5  UNL     1     -15.344  21.799  26.671  1.00  0.00     0.241 C 
HETATM    3  C6  UNL     1     -15.102  21.268  28.033  1.00  0.00     0.153 C 
HETATM    4  C7  UNL     1     -15.980  21.963  29.029  1.00  0.00     0.042 C 
HETATM    5  O3  UNL     1     -15.375  19.914  28.052  1.00  0.00    -0.354 OA
HETATM    6  C8  UNL     1     -14.373  19.307  27.260  1.00  0.00     0.270 C 
HETATM    7  C15 UNL     1     -14.583  19.559  25.818  1.00  0.00     0.076 C 
ENDROOT
BRANCH   6   8
HETATM    8  O4  UNL     1     -14.230  18.014  27.681  1.00  0.00    -0.328 OA
BRANCH   8   9
HETATM    9  C9  UNL     1     -13.569  17.978  28.884  1.00  0.00     0.294 C 
HETATM   10  O5  UNL     1     -12.267  17.513  28.629  1.00  0.00    -0.348 OA
HETATM   11  C10 UNL     1     -11.447  17.588  29.728  1.00  0.00     0.179 C 
HETATM   12  C12 UNL     1     -11.959  16.649  30.804  1.00  0.00     0.180 C 
HETATM   13  C13 UNL     1     -13.359  17.116  31.155  1.00  0.00     0.183 C 
HETATM   14  C14 UNL     1     -14.182  17.044  29.886  1.00  0.00     0.204 C 
BRANCH  11  15
HETATM   15  C11 UNL     1     -10.078  17.116  29.329  1.00  0.00     0.198 C 
BRANCH  15  16
HETATM   16  O6  UNL     1      -9.665  17.852  28.226  1.00  0.00    -0.398 OA
ATOM     17  H6  UNL     1      -8.905  17.425  27.847  1.00  0.00     0.209 HD
ENDBRANCH  15  16
ENDBRANCH  11  15
BRANCH  12  18
HETATM   18  O7  UNL     1     -11.191  16.720  31.948  1.00  0.00    -0.390 OA
ATOM     19  H7  UNL     1     -11.615  16.290  32.682  1.00  0.00     0.210 HD
ENDBRANCH  12  18
BRANCH  13  20
HETATM   20  O8  UNL     1     -13.959  16.320  32.117  1.00  0.00    -0.390 OA
ATOM     21  H8  UNL     1     -13.465  16.295  32.928  1.00  0.00     0.210 HD
ENDBRANCH  13  20
BRANCH  14  22
HETATM   22  O9  UNL     1     -14.187  15.724  29.456  1.00  0.00    -0.388 OA
ATOM     23  H9  UNL     1     -13.444  15.229  29.781  1.00  0.00     0.210 HD
ENDBRANCH  14  22
ENDBRANCH   8   9
ENDBRANCH   6   8
BRANCH   7  24
HETATM   24  C16 UNL     1     -15.811  18.869  25.282  1.00  0.00     0.039 C 
BRANCH  24  25
HETATM   25  C17 UNL     1     -16.390  19.384  24.059  1.00  0.00    -0.030 C 
HETATM   26  C18 UNL     1     -17.336  18.800  23.383  1.00  0.00    -0.031 C 
BRANCH  26  27
HETATM   27  C19 UNL     1     -18.028  17.548  23.657  1.00  0.00     0.027 C 
BRANCH  27  28
HETATM   28  C20 UNL     1     -19.498  17.812  23.942  1.00  0.00     0.003 C 
BRANCH  28  29
HETATM   29  C21 UNL     1     -19.817  17.541  25.397  1.00  0.00    -0.004 C 
HETATM   30  C22 UNL     1     -19.744  18.781  26.241  1.00  0.00     0.005 C 
ENDBRANCH  28  29
ENDBRANCH  27  28
ENDBRANCH  26  27
ENDBRANCH  24  25
ENDBRANCH   7  24
BRANCH   1  31
HETATM   31  O2  UNL     1     -13.449  21.622  25.152  1.00  0.00    -0.310 OA
BRANCH  31  32
HETATM   32  C3  UNL     1     -12.623  22.345  26.000  1.00  0.00     0.282 C 
HETATM   33  O1  UNL     1     -12.785  23.593  25.993  1.00  0.00    -0.260 OA
BRANCH  32  34
HETATM   34  C2  UNL     1     -11.628  21.737  26.853  1.00  0.00     0.072 C 
HETATM   35  C1  UNL     1     -11.045  20.620  26.490  1.00  0.00     0.017 C 
ENDBRANCH  32  34
ENDBRANCH  31  32
ENDBRANCH   1  31
BRANCH   2  36
HETATM   36  N1  UNL     1     -16.779  21.926  26.483  1.00  0.00    -0.070 N 
ATOM     37  H13 UNL     1     -17.012  22.795  26.002  1.00  0.00     0.274 HD
ATOM     38  H12 UNL     1     -17.120  21.260  25.790  1.00  0.00     0.274 HD
ATOM     39  H11 UNL     1     -17.293  21.842  27.359  1.00  0.00     0.274 HD
ENDBRANCH   2  36
TORSDOF 16
ENDMDL
MODEL 2
REMARK VINA RESULT: -8.594260935      0.903      1.143
REMARK  16 active torsions:
REMARK  status: ('A' for Active; 'I' for Inactive)
REMARK    1  A    between atoms: C2_2  and  C3_3 
REMARK    2  A    between atoms: C3_3  and  O2_5 
REMARK    3  A    between atoms: O2_5  and  C4_6 
REMARK    4  A    between atoms: C5_7  and  N1_8 
REMARK    5  A    between atoms: C8_15  and  O4_16 
REMARK    6  A    between atoms: O4_16  and  C9_17 
REMARK    7  A    between atoms: C10_19  and  C11_20 
REMARK    8  A    between atoms: C11_20  and  O6_21 
REMARK    9  A    between atoms: C12_23  and  O7_24 
REMARK   10  A    between atoms: C13_26  and  O8_27 
REMARK   11  A    between atoms: C14_29  and  O9_30 
REMARK   12  A    between atoms: C15_32  and  C16_33 
REMARK   13  A    between atoms: C16_33  and  C17_34 
REMARK   14  A    between atoms: C18_35  and  C19_36 
REMARK   15  A    between atoms: C19_36  and  C20_37 
REMARK   16  A    between atoms: C20_37  and  C21_38 
ROOT
HETATM    1  C4  UNL     1     -15.383  21.350  26.323  1.00  0.00     0.174 C 
HETATM    2  C5  UNL     1     -15.426  21.985  27.685  1.00  0.00     0.241 C 
HETATM    3  C6  UNL     1     -14.647  21.310  28.750  1.00  0.00     0.153 C 
HETATM    4  C7  UNL     1     -14.947  21.922  30.085  1.00  0.00     0.042 C 
HETATM    5  O3  UNL     1     -14.979  19.969  28.779  1.00  0.00    -0.354 OA
HETATM    6  C8  UNL     1     -14.472  19.421  27.578  1.00  0.00     0.270 C 
HETATM    7  C15 UNL     1     -15.277  19.826  26.405  1.00  0.00     0.076 C 
ENDROOT
BRANCH   6   8
HETATM    8  O4  UNL     1     -14.250  18.087  27.785  1.00  0.00    -0.328 OA
BRANCH   8   9
HETATM    9  C9  UNL     1     -13.570  17.899  28.964  1.00  0.00     0.294 C 
HETATM   10  O5  UNL     1     -12.250  17.546  28.632  1.00  0.00    -0.348 OA
HETATM   11  C10 UNL     1     -11.420  17.491  29.724  1.00  0.00     0.179 C 
HETATM   12  C12 UNL     1     -11.869  16.372  30.644  1.00  0.00     0.180 C 
HETATM   13  C13 UNL     1     -13.286  16.706  31.072  1.00  0.00     0.183 C 
HETATM   14  C14 UNL     1     -14.122  16.790  29.812  1.00  0.00     0.204 C 
BRANCH  11  15
HETATM   15  C11 UNL     1     -10.035  17.159  29.248  1.00  0.00     0.198 C 
BRANCH  15  16
HETATM   16  O6  UNL     1      -9.761  17.927  28.124  1.00  0.00    -0.398 OA
ATOM     17  H6  UNL     1      -8.834  17.854  27.928  1.00  0.00     0.209 HD
ENDBRANCH  15  16
ENDBRANCH  11  15
BRANCH  12  18
HETATM   18  O7  UNL     1     -11.090  16.303  31.780  1.00  0.00    -0.390 OA
ATOM     19  H7  UNL     1     -11.613  16.383  32.569  1.00  0.00     0.210 HD
ENDBRANCH  12  18
BRANCH  13  20
HETATM   20  O8  UNL     1     -13.832  15.741  31.901  1.00  0.00    -0.390 OA
ATOM     21  H8  UNL     1     -14.351  15.103  31.426  1.00  0.00     0.210 HD
ENDBRANCH  13  20
BRANCH  14  22
HETATM   22  O9  UNL     1     -14.068  15.555  29.182  1.00  0.00    -0.388 OA
ATOM     23  H9  UNL     1     -14.856  15.041  29.313  1.00  0.00     0.210 HD
ENDBRANCH  14  22
ENDBRANCH   8   9
ENDBRANCH   6   8
BRANCH   7  24
HETATM   24  C16 UNL     1     -16.660  19.228  26.417  1.00  0.00     0.039 C 
BRANCH  24  25
HETATM   25  C17 UNL     1     -17.691  19.909  25.663  1.00  0.00    -0.030 C 
HETATM   26  C18 UNL     1     -17.953  19.697  24.406  1.00  0.00    -0.031 C 
BRANCH  26  27
HETATM   27  C19 UNL     1     -17.320  18.774  23.474  1.00  0.00     0.027 C 
BRANCH  27  28
HETATM   28  C20 UNL     1     -18.310  17.706  23.037  1.00  0.00     0.003 C 
BRANCH  28  29
HETATM   29  C21 UNL     1     -18.976  17.070  24.239  1.00  0.00    -0.004 C 
HETATM   30  C22 UNL     1     -20.205  16.291  23.870  1.00  0.00     0.005 C 
ENDBRANCH  28  29
ENDBRANCH  27  28
ENDBRANCH  26  27
ENDBRANCH  24  25
ENDBRANCH   7  24
BRANCH   1  31
HETATM   31  O2  UNL     1     -14.409  21.915  25.473  1.00  0.00    -0.310 OA
BRANCH  31  32
HETATM   32  C3  UNL     1     -13.136  22.279  25.886  1.00  0.00     0.282 C 
HETATM   33  O1  UNL     1     -12.980  23.490  26.189  1.00  0.00    -0.260 OA
BRANCH  32  34
HETATM   34  C2  UNL     1     -12.031  21.350  25.974  1.00  0.00     0.072 C 
HETATM   35  C1  UNL     1     -11.433  21.148  27.123  1.00  0.00     0.017 C 
ENDBRANCH  32  34
ENDBRANCH  31  32
ENDBRANCH   1  31
BRANCH   2  36
HETATM   36  N1  UNL     1     -16.785  22.170  28.165  1.00  0.00    -0.070 N 
ATOM     37  H13 UNL     1     -17.018  21.486  28.885  1.00  0.00     0.274 HD
ATOM     38  H12 UNL     1     -16.867  23.023  28.718  1.00  0.00     0.274 HD
ATOM     39  H11 UNL     1     -17.468  22.155  27.408  1.00  0.00     0.274 HD
ENDBRANCH   2  36
TORSDOF 16
ENDMDL
MODEL 3
REMARK VINA RESULT: -8.541887322      1.437      1.945
REMARK  16 active torsions:
REMARK  status: ('A' for Active; 'I' for Inactive)
REMARK    1  A    between atoms: C2_2  and  C3_3 
REMARK    2  A    between atoms: C3_3  and  O2_5 
REMARK    3  A    between atoms: O2_5  and  C4_6 
REMARK    4  A    between atoms: C5_7  and  N1_8 
REMARK    5  A    between atoms: C8_15  and  O4_16 
REMARK    6  A    between atoms: O4_16  and  C9_17 
REMARK    7  A    between atoms: C10_19  and  C11_20 
REMARK    8  A    between atoms: C11_20  and  O6_21 
REMARK    9  A    between atoms: C12_23  and  O7_24 
REMARK   10  A    between atoms: C13_26  and  O8_27 
REMARK   11  A    between atoms: C14_29  and  O9_30 
REMARK   12  A    between atoms: C15_32  and  C16_33 
REMARK   13  A    between atoms: C16_33  and  C17_34 
REMARK   14  A    between atoms: C18_35  and  C19_36 
REMARK   15  A    between atoms: C19_36  and  C20_37 
REMARK   16  A    between atoms: C20_37  and  C21_38 
ROOT
HETATM    1  C4  UNL     1     -14.663  21.276  26.678  1.00  0.00     0.174 C 
HETATM    2  C5  UNL     1     -15.076  21.906  27.978  1.00  0.00     0.241 C 
HETATM    3  C6  UNL     1     -14.576  21.255  29.213  1.00  0.00     0.153 C 
HETATM    4  C7  UNL     1     -15.230  21.854  30.421  1.00  0.00     0.042 C 
HETATM    5  O3  UNL     1     -14.859  19.904  29.164  1.00  0.00    -0.354 OA
HETATM    6  C8  UNL     1     -14.041  19.376  28.138  1.00  0.00     0.270 C 
HETATM    7  C15 UNL     1     -14.529  19.756  26.794  1.00  0.00     0.076 C 
ENDROOT
BRANCH   6   8
HETATM    8  O4  UNL     1     -13.835  18.050  28.405  1.00  0.00    -0.328 OA
BRANCH   8   9
HETATM    9  C9  UNL     1     -12.870  17.907  29.372  1.00  0.00     0.294 C 
HETATM   10  O5  UNL     1     -11.658  17.635  28.713  1.00  0.00    -0.348 OA
HETATM   11  C10 UNL     1     -10.577  17.634  29.560  1.00  0.00     0.179 C 
HETATM   12  C12 UNL     1     -10.712  16.491  30.549  1.00  0.00     0.180 C 
HETATM   13  C13 UNL     1     -11.993  16.739  31.324  1.00  0.00     0.183 C 
HETATM   14  C14 UNL     1     -13.123  16.769  30.317  1.00  0.00     0.204 C 
BRANCH  11  15
HETATM   15  C11 UNL     1      -9.340  17.385  28.746  1.00  0.00     0.198 C 
BRANCH  15  16
HETATM   16  O6  UNL     1      -9.416  18.148  27.588  1.00  0.00    -0.398 OA
ATOM     17  H6  UNL     1      -8.572  18.560  27.445  1.00  0.00     0.209 HD
ENDBRANCH  15  16
ENDBRANCH  11  15
BRANCH  12  18
HETATM   18  O7  UNL     1      -9.669  16.473  31.451  1.00  0.00    -0.390 OA
ATOM     19  H7  UNL     1      -9.486  15.593  31.758  1.00  0.00     0.210 HD
ENDBRANCH  12  18
BRANCH  13  20
HETATM   20  O8  UNL     1     -12.253  15.745  32.252  1.00  0.00    -0.390 OA
ATOM     21  H8  UNL     1     -13.176  15.524  32.300  1.00  0.00     0.210 HD
ENDBRANCH  13  20
BRANCH  14  22
HETATM   22  O9  UNL     1     -13.155  15.538  29.678  1.00  0.00    -0.388 OA
ATOM     23  H9  UNL     1     -12.696  14.861  30.160  1.00  0.00     0.210 HD
ENDBRANCH  14  22
ENDBRANCH   8   9
ENDBRANCH   6   8
BRANCH   7  24
HETATM   24  C16 UNL     1     -15.848  19.111  26.454  1.00  0.00     0.039 C 
BRANCH  24  25
HETATM   25  C17 UNL     1     -15.929  18.363  25.217  1.00  0.00    -0.030 C 
HETATM   26  C18 UNL     1     -16.781  18.598  24.263  1.00  0.00    -0.031 C 
BRANCH  26  27
HETATM   27  C19 UNL     1     -17.821  19.615  24.183  1.00  0.00     0.027 C 
BRANCH  27  28
HETATM   28  C20 UNL     1     -18.965  19.130  23.307  1.00  0.00     0.003 C 
BRANCH  28  29
HETATM   29  C21 UNL     1     -18.923  17.625  23.156  1.00  0.00    -0.004 C 
HETATM   30  C22 UNL     1     -19.398  17.169  21.807  1.00  0.00     0.005 C 
ENDBRANCH  28  29
ENDBRANCH  27  28
ENDBRANCH  26  27
ENDBRANCH  24  25
ENDBRANCH   7  24
BRANCH   1  31
HETATM   31  O2  UNL     1     -13.522  21.876  26.103  1.00  0.00    -0.310 OA
BRANCH  31  32
HETATM   32  C3  UNL     1     -13.571  22.848  25.116  1.00  0.00     0.282 C 
HETATM   33  O1  UNL     1     -12.832  23.852  25.295  1.00  0.00    -0.260 OA
BRANCH  32  34
HETATM   34  C2  UNL     1     -14.405  22.750  23.940  1.00  0.00     0.072 C 
HETATM   35  C1  UNL     1     -15.663  22.397  24.055  1.00  0.00     0.017 C 
ENDBRANCH  32  34
ENDBRANCH  31  32
ENDBRANCH   1  31
BRANCH   2  36
HETATM   36  N1  UNL     1     -16.518  22.043  28.091  1.00  0.00    -0.070 N 
ATOM     37  H13 UNL     1     -16.897  22.596  27.322  1.00  0.00     0.274 HD
ATOM     38  H12 UNL     1     -16.988  21.157  27.901  1.00  0.00     0.274 HD
ATOM     39  H11 UNL     1     -16.802  22.424  28.993  1.00  0.00     0.274 HD
ENDBRANCH   2  36
TORSDOF 16
ENDMDL
MODEL 4
REMARK VINA RESULT: -8.364584036      0.776      1.161
REMARK  16 active torsions:
REMARK  status: ('A' for Active; 'I' for Inactive)
REMARK    1  A    between atoms: C2_2  and  C3_3 
REMARK    2  A    between atoms: C3_3  and  O2_5 
REMARK    3  A    between atoms: O2_5  and  C4_6 
REMARK    4  A    between atoms: C5_7  and  N1_8 
REMARK    5  A    between atoms: C8_15  and  O4_16 
REMARK    6  A    between atoms: O4_16  and  C9_17 
REMARK    7  A    between atoms: C10_19  and  C11_20 
REMARK    8  A    between atoms: C11_20  and  O6_21 
REMARK    9  A    between atoms: C12_23  and  O7_24 
REMARK   10  A    between atoms: C13_26  and  O8_27 
REMARK   11  A    between atoms: C14_29  and  O9_30 
REMARK   12  A    between atoms: C15_32  and  C16_33 
REMARK   13  A    between atoms: C16_33  and  C17_34 
REMARK   14  A    between atoms: C18_35  and  C19_36 
REMARK   15  A    between atoms: C19_36  and  C20_37 
REMARK   16  A    between atoms: C20_37  and  C21_38 
ROOT
HETATM    1  C4  UNL     1     -14.564  20.684  25.569  1.00  0.00     0.174 C 
HETATM    2  C5  UNL     1     -15.220  21.520  26.632  1.00  0.00     0.241 C 
HETATM    3  C6  UNL     1     -15.042  21.065  28.031  1.00  0.00     0.153 C 
HETATM    4  C7  UNL     1     -15.914  21.860  28.955  1.00  0.00     0.042 C 
HETATM    5  O3  UNL     1     -15.379  19.728  28.123  1.00  0.00    -0.354 OA
HETATM    6  C8  UNL     1     -14.384  19.029  27.402  1.00  0.00     0.270 C 
HETATM    7  C15 UNL     1     -14.542  19.200  25.941  1.00  0.00     0.076 C 
ENDROOT
BRANCH   6   8
HETATM    8  O4  UNL     1     -14.314  17.759  27.905  1.00  0.00    -0.328 OA
BRANCH   8   9
HETATM    9  C9  UNL     1     -13.613  17.757  29.086  1.00  0.00     0.294 C 
HETATM   10  O5  UNL     1     -12.296  17.366  28.788  1.00  0.00    -0.348 OA
HETATM   11  C10 UNL     1     -11.447  17.483  29.861  1.00  0.00     0.179 C 
HETATM   12  C12 UNL     1     -11.871  16.513  30.948  1.00  0.00     0.180 C 
HETATM   13  C13 UNL     1     -13.283  16.899  31.345  1.00  0.00     0.183 C 
HETATM   14  C14 UNL     1     -14.141  16.786  30.103  1.00  0.00     0.204 C 
BRANCH  11  15
HETATM   15  C11 UNL     1     -10.067  17.091  29.416  1.00  0.00     0.198 C 
BRANCH  15  16
HETATM   16  O6  UNL     1      -9.744  17.832  28.287  1.00  0.00    -0.398 OA
ATOM     17  H6  UNL     1      -8.832  18.092  28.350  1.00  0.00     0.209 HD
ENDBRANCH  15  16
ENDBRANCH  11  15
BRANCH  12  18
HETATM   18  O7  UNL     1     -11.072  16.623  32.067  1.00  0.00    -0.390 OA
ATOM     19  H7  UNL     1     -10.150  16.570  31.845  1.00  0.00     0.210 HD
ENDBRANCH  12  18
BRANCH  13  20
HETATM   20  O8  UNL     1     -13.806  16.068  32.321  1.00  0.00    -0.390 OA
ATOM     21  H8  UNL     1     -14.367  15.391  31.961  1.00  0.00     0.210 HD
ENDBRANCH  13  20
BRANCH  14  22
HETATM   22  O9  UNL     1     -14.085  15.469  29.666  1.00  0.00    -0.388 OA
ATOM     23  H9  UNL     1     -14.623  14.886  30.189  1.00  0.00     0.210 HD
ENDBRANCH  14  22
ENDBRANCH   8   9
ENDBRANCH   6   8
BRANCH   7  24
HETATM   24  C16 UNL     1     -15.785  18.533  25.411  1.00  0.00     0.039 C 
BRANCH  24  25
HETATM   25  C17 UNL     1     -16.300  18.990  24.138  1.00  0.00    -0.030 C 
HETATM   26  C18 UNL     1     -17.426  18.607  23.612  1.00  0.00    -0.031 C 
BRANCH  26  27
HETATM   27  C19 UNL     1     -18.416  17.671  24.130  1.00  0.00     0.027 C 
BRANCH  27  28
HETATM   28  C20 UNL     1     -19.636  18.423  24.637  1.00  0.00     0.003 C 
BRANCH  28  29
HETATM   29  C21 UNL     1     -19.472  18.785  26.098  1.00  0.00    -0.004 C 
HETATM   30  C22 UNL     1     -20.735  18.587  26.885  1.00  0.00     0.005 C 
ENDBRANCH  28  29
ENDBRANCH  27  28
ENDBRANCH  26  27
ENDBRANCH  24  25
ENDBRANCH   7  24
BRANCH   1  31
HETATM   31  O2  UNL     1     -13.294  21.163  25.186  1.00  0.00    -0.310 OA
BRANCH  31  32
HETATM   32  C3  UNL     1     -12.821  22.433  25.483  1.00  0.00     0.282 C 
HETATM   33  O1  UNL     1     -11.978  22.502  26.415  1.00  0.00    -0.260 OA
BRANCH  32  34
HETATM   34  C2  UNL     1     -13.247  23.625  24.786  1.00  0.00     0.072 C 
HETATM   35  C1  UNL     1     -13.317  23.632  23.477  1.00  0.00     0.017 C 
ENDBRANCH  32  34
ENDBRANCH  31  32
ENDBRANCH   1  31
BRANCH   2  36
HETATM   36  N1  UNL     1     -16.642  21.700  26.392  1.00  0.00    -0.070 N 
ATOM     37  H13 UNL     1     -16.952  22.625  26.689  1.00  0.00     0.274 HD
ATOM     38  H12 UNL     1     -16.841  21.774  25.394  1.00  0.00     0.274 HD
ATOM     39  H11 UNL     1     -17.203  20.967  26.825  1.00  0.00     0.274 HD
ENDBRANCH   2  36
TORSDOF 16
ENDMDL
MODEL 5
REMARK VINA RESULT: -8.345953286      1.541      1.998
REMARK  16 active torsions:
REMARK  status: ('A' for Active; 'I' for Inactive)
REMARK    1  A    between atoms: C2_2  and  C3_3 
REMARK    2  A    between atoms: C3_3  and  O2_5 
REMARK    3  A    between atoms: O2_5  and  C4_6 
REMARK    4  A    between atoms: C5_7  and  N1_8 
REMARK    5  A    between atoms: C8_15  and  O4_16 
REMARK    6  A    between atoms: O4_16  and  C9_17 
REMARK    7  A    between atoms: C10_19  and  C11_20 
REMARK    8  A    between atoms: C11_20  and  O6_21 
REMARK    9  A    between atoms: C12_23  and  O7_24 
REMARK   10  A    between atoms: C13_26  and  O8_27 
REMARK   11  A    between atoms: C14_29  and  O9_30 
REMARK   12  A    between atoms: C15_32  and  C16_33 
REMARK   13  A    between atoms: C16_33  and  C17_34 
REMARK   14  A    between atoms: C18_35  and  C19_36 
REMARK   15  A    between atoms: C19_36  and  C20_37 
REMARK   16  A    between atoms: C20_37  and  C21_38 
ROOT
HETATM    1  C4  UNL     1     -13.464  21.169  25.974  1.00  0.00     0.174 C 
HETATM    2  C5  UNL     1     -13.085  22.206  26.994  1.00  0.00     0.241 C 
HETATM    3  C6  UNL     1     -12.877  21.721  28.379  1.00  0.00     0.153 C 
HETATM    4  C7  UNL     1     -12.716  22.877  29.319  1.00  0.00     0.042 C 
HETATM    5  O3  UNL     1     -13.967  20.967  28.768  1.00  0.00    -0.354 OA
HETATM    6  C8  UNL     1     -13.925  19.793  27.980  1.00  0.00     0.270 C 
HETATM    7  C15 UNL     1     -14.322  20.056  26.579  1.00  0.00     0.076 C 
ENDROOT
BRANCH   6   8
HETATM    8  O4  UNL     1     -14.573  18.803  28.665  1.00  0.00    -0.328 OA
BRANCH   8   9
HETATM    9  C9  UNL     1     -13.826  18.411  29.749  1.00  0.00     0.294 C 
HETATM   10  O5  UNL     1     -12.683  17.759  29.253  1.00  0.00    -0.348 OA
HETATM   11  C10 UNL     1     -11.768  17.462  30.233  1.00  0.00     0.179 C 
HETATM   12  C12 UNL     1     -12.368  16.454  31.195  1.00  0.00     0.180 C 
HETATM   13  C13 UNL     1     -13.597  17.109  31.797  1.00  0.00     0.183 C 
HETATM   14  C14 UNL     1     -14.530  17.440  30.652  1.00  0.00     0.204 C 
BRANCH  11  15
HETATM   15  C11 UNL     1     -10.575  16.819  29.586  1.00  0.00     0.198 C 
BRANCH  15  16
HETATM   16  O6  UNL     1      -9.531  16.813  30.501  1.00  0.00    -0.398 OA
ATOM     17  H6  UNL     1      -8.761  17.176  30.079  1.00  0.00     0.209 HD
ENDBRANCH  15  16
ENDBRANCH  11  15
BRANCH  12  18
HETATM   18  O7  UNL     1     -11.500  16.155  32.224  1.00  0.00    -0.390 OA
ATOM     19  H7  UNL     1     -11.190  15.259  32.172  1.00  0.00     0.210 HD
ENDBRANCH  12  18
BRANCH  13  20
HETATM   20  O8  UNL     1     -14.262  16.277  32.683  1.00  0.00    -0.390 OA
ATOM     21  H8  UNL     1     -13.740  15.524  32.937  1.00  0.00     0.210 HD
ENDBRANCH  13  20
BRANCH  14  22
HETATM   22  O9  UNL     1     -14.858  16.254  30.012  1.00  0.00    -0.388 OA
ATOM     23  H9  UNL     1     -14.131  15.888  29.522  1.00  0.00     0.210 HD
ENDBRANCH  14  22
ENDBRANCH   8   9
ENDBRANCH   6   8
BRANCH   7  24
HETATM   24  C16 UNL     1     -15.778  20.422  26.450  1.00  0.00     0.039 C 
BRANCH  24  25
HETATM   25  C17 UNL     1     -16.167  21.234  25.316  1.00  0.00    -0.030 C 
HETATM   26  C18 UNL     1     -17.072  20.903  24.442  1.00  0.00    -0.031 C 
BRANCH  26  27
HETATM   27  C19 UNL     1     -17.891  19.701  24.371  1.00  0.00     0.027 C 
BRANCH  27  28
HETATM   28  C20 UNL     1     -17.332  18.743  23.331  1.00  0.00     0.003 C 
BRANCH  28  29
HETATM   29  C21 UNL     1     -18.235  17.539  23.172  1.00  0.00    -0.004 C 
HETATM   30  C22 UNL     1     -18.916  17.158  24.455  1.00  0.00     0.005 C 
ENDBRANCH  28  29
ENDBRANCH  27  28
ENDBRANCH  26  27
ENDBRANCH  24  25
ENDBRANCH   7  24
BRANCH   1  31
HETATM   31  O2  UNL     1     -12.361  20.667  25.251  1.00  0.00    -0.310 OA
BRANCH  31  32
HETATM   32  C3  UNL     1     -11.168  20.267  25.834  1.00  0.00     0.282 C 
HETATM   33  O1  UNL     1     -10.316  21.174  26.024  1.00  0.00    -0.260 OA
BRANCH  32  34
HETATM   34  C2  UNL     1     -10.885  18.901  26.214  1.00  0.00     0.072 C 
HETATM   35  C1  UNL     1      -9.865  18.633  26.993  1.00  0.00     0.017 C 
ENDBRANCH  32  34
ENDBRANCH  31  32
ENDBRANCH   1  31
BRANCH   2  36
HETATM   36  N1  UNL     1     -14.032  23.308  27.037  1.00  0.00    -0.070 N 
ATOM     37  H13 UNL     1     -14.790  23.169  26.369  1.00  0.00     0.274 HD
ATOM     38  H12 UNL     1     -14.572  23.296  27.902  1.00  0.00     0.274 HD
ATOM     39  H11 UNL     1     -13.580  24.212  26.897  1.00  0.00     0.274 HD
ENDBRANCH   2  36
TORSDOF 16
ENDMDL
