MODEL 1
REMARK VINA RESULT: -8.912181737      0.000      0.000
REMARK  6 active torsions:
REMARK  status: ('A' for Active; 'I' for Inactive)
REMARK    1  A    between atoms: C1_2  and  C2_4 
REMARK    2  A    between atoms: C2_4  and  N2_5 
REMARK    3  A    between atoms: C5_8  and  C6_9 
REMARK    4  A    between atoms: C7_13  and  C8_14 
REMARK    5  A    between atoms: C10_18  and  C11_19 
REMARK    6  A    between atoms: C13_21  and  N5_22 
ROOT
HETATM    1  C8  UNL     1       1.344  34.019 -24.480  1.00  0.00     0.103 A 
HETATM    2  C9  UNL     1      -0.019  34.038 -24.179  1.00  0.00     0.123 A 
HETATM    3  N4  UNL     1      -0.413  35.328 -24.298  1.00  0.00    -0.353 N 
ATOM      4  H4  UNL     1      -1.364  35.663 -24.139  1.00  0.00     0.166 HD
HETATM    5  C10 UNL     1       0.622  36.104 -24.654  1.00  0.00     0.086 A 
HETATM    6  N6  UNL     1       1.671  35.282 -24.756  1.00  0.00    -0.341 N 
ATOM      7  H6  UNL     1       2.611  35.585 -25.014  1.00  0.00     0.167 HD
ENDROOT
BRANCH   1   8
HETATM    8  C7  UNL     1       2.190  32.827 -24.479  1.00  0.00     0.200 A 
HETATM    9  O2  UNL     1       1.709  31.612 -24.632  1.00  0.00    -0.216 OA
HETATM   10  N3  UNL     1       2.709  30.779 -24.584  1.00  0.00    -0.246 N 
HETATM   11  C6  UNL     1       3.848  31.465 -24.396  1.00  0.00     0.108 A 
ATOM     12  H3  UNL     1       2.637  29.766 -24.674  1.00  0.00     0.196 HD
HETATM   13  N7  UNL     1       3.517  32.760 -24.330  1.00  0.00    -0.321 N 
ATOM     14  H7  UNL     1       4.154  33.544 -24.192  1.00  0.00     0.169 HD
BRANCH  11  15
HETATM   15  C5  UNL     1       5.248  30.963 -24.271  1.00  0.00     0.058 C 
HETATM   16  C4  UNL     1       6.215  32.027 -23.916  1.00  0.00     0.042 C 
HETATM   17  C3  UNL     1       7.026  32.589 -25.055  1.00  0.00     0.273 C 
HETATM   18  N2  UNL     1       7.539  31.393 -25.747  1.00  0.00     0.096 N 
HETATM   19  C17 UNL     1       6.433  30.816 -26.498  1.00  0.00     0.273 C 
HETATM   20  C16 UNL     1       5.595  30.109 -25.455  1.00  0.00     0.042 C 
BRANCH  18  21
HETATM   21  C2  UNL     1       8.682  31.694 -26.540  1.00  0.00     0.371 C 
BRANCH  21  22
HETATM   22  C1  UNL     1       9.808  30.810 -26.188  1.00  0.00     0.259 C 
HETATM   23  N1  UNL     1      10.928  31.337 -25.445  1.00  0.00    -0.061 NA
HETATM   24  O1  UNL     1       9.806  29.598 -26.528  1.00  0.00    -0.275 OA
ENDBRANCH  21  22
ENDBRANCH  18  21
ENDBRANCH  11  15
ENDBRANCH   1   8
BRANCH   5  25
HETATM   25  C11 UNL     1       0.596  37.560 -24.879  1.00  0.00     0.058 C 
HETATM   26  C12 UNL     1       0.488  38.307 -23.567  1.00  0.00     0.048 C 
HETATM   27  C13 UNL     1       1.222  39.607 -23.921  1.00  0.00     0.222 C 
HETATM   28  C14 UNL     1       2.482  39.033 -24.543  1.00  0.00     0.142 C 
HETATM   29 CL1  UNL     1       3.380  38.169 -23.281  1.00  0.00    -0.099 Cl
HETATM   30 CL2  UNL     1       3.454  40.241 -25.372  1.00  0.00    -0.099 Cl
HETATM   31  C15 UNL     1       1.899  37.998 -25.505  1.00  0.00     0.056 C 
BRANCH  27  32
HETATM   32  N5  UNL     1       1.460  40.365 -22.730  1.00  0.00    -0.072 N 
ATOM     33  H53 UNL     1       1.069  39.914 -21.902  1.00  0.00     0.274 HD
ATOM     34  H52 UNL     1       2.442  40.350 -22.454  1.00  0.00     0.274 HD
ATOM     35  H51 UNL     1       1.108  41.315 -22.853  1.00  0.00     0.274 HD
ENDBRANCH  27  32
ENDBRANCH   5  25
TORSDOF 6
ENDMDL
MODEL 2
REMARK VINA RESULT: -8.477854556      1.582      1.817
REMARK  6 active torsions:
REMARK  status: ('A' for Active; 'I' for Inactive)
REMARK    1  A    between atoms: C1_2  and  C2_4 
REMARK    2  A    between atoms: C2_4  and  N2_5 
REMARK    3  A    between atoms: C5_8  and  C6_9 
REMARK    4  A    between atoms: C7_13  and  C8_14 
REMARK    5  A    between atoms: C10_18  and  C11_19 
REMARK    6  A    between atoms: C13_21  and  N5_22 
ROOT
HETATM    1  C8  UNL     1       1.139  33.154 -24.252  1.00  0.00     0.103 A 
HETATM    2  C9  UNL     1       0.087  33.081 -23.337  1.00  0.00     0.123 A 
HETATM    3  N4  UNL     1      -0.669  34.187 -23.542  1.00  0.00    -0.353 N 
ATOM      4  H4  UNL     1      -1.515  34.418 -23.021  1.00  0.00     0.166 HD
HETATM    5  C10 UNL     1      -0.147  34.936 -24.525  1.00  0.00     0.086 A 
HETATM    6  N6  UNL     1       0.946  34.284 -24.935  1.00  0.00    -0.341 N 
ATOM      7  H6  UNL     1       1.560  34.612 -25.681  1.00  0.00     0.167 HD
ENDROOT
BRANCH   1   8
HETATM    8  C7  UNL     1       2.205  32.165 -24.390  1.00  0.00     0.200 A 
HETATM    9  O2  UNL     1       1.999  30.958 -24.870  1.00  0.00    -0.216 OA
HETATM   10  N3  UNL     1       3.138  30.326 -24.862  1.00  0.00    -0.246 N 
HETATM   11  C6  UNL     1       4.090  31.136 -24.370  1.00  0.00     0.108 A 
ATOM     12  H3  UNL     1       3.283  29.368 -25.179  1.00  0.00     0.196 HD
HETATM   13  N7  UNL     1       3.497  32.298 -24.073  1.00  0.00    -0.321 N 
ATOM     14  H7  UNL     1       3.945  33.126 -23.679  1.00  0.00     0.169 HD
BRANCH  11  15
HETATM   15  C5  UNL     1       5.544  30.873 -24.161  1.00  0.00     0.058 C 
HETATM   16  C4  UNL     1       6.329  32.108 -23.939  1.00  0.00     0.042 C 
HETATM   17  C3  UNL     1       7.086  32.632 -25.134  1.00  0.00     0.273 C 
HETATM   18  N2  UNL     1       7.793  31.447 -25.651  1.00  0.00     0.096 N 
HETATM   19  C17 UNL     1       6.811  30.616 -26.331  1.00  0.00     0.273 C 
HETATM   20  C16 UNL     1       6.053  29.934 -25.214  1.00  0.00     0.042 C 
BRANCH  18  21
HETATM   21  C2  UNL     1       8.905  31.811 -26.463  1.00  0.00     0.371 C 
BRANCH  21  22
HETATM   22  C1  UNL     1      10.050  30.918 -26.208  1.00  0.00     0.259 C 
HETATM   23  N1  UNL     1      11.239  31.440 -25.576  1.00  0.00    -0.061 NA
HETATM   24  O1  UNL     1      10.005  29.704 -26.537  1.00  0.00    -0.275 OA
ENDBRANCH  21  22
ENDBRANCH  18  21
ENDBRANCH  11  15
ENDBRANCH   1   8
BRANCH   5  25
HETATM   25  C11 UNL     1      -0.677  36.211 -25.037  1.00  0.00     0.058 C 
HETATM   26  C12 UNL     1       0.114  37.382 -24.492  1.00  0.00     0.048 C 
HETATM   27  C13 UNL     1      -0.042  38.386 -25.641  1.00  0.00     0.222 C 
HETATM   28  C14 UNL     1       0.333  37.501 -26.815  1.00  0.00     0.142 C 
HETATM   29 CL1  UNL     1       2.040  37.049 -26.648  1.00  0.00    -0.099 Cl
HETATM   30 CL2  UNL     1      -0.035  38.227 -28.372  1.00  0.00    -0.099 Cl
HETATM   31  C15 UNL     1      -0.516  36.259 -26.538  1.00  0.00     0.056 C 
BRANCH  27  32
HETATM   32  N5  UNL     1       0.852  39.488 -25.441  1.00  0.00    -0.072 N 
ATOM     33  H53 UNL     1       0.485  40.357 -25.831  1.00  0.00     0.274 HD
ATOM     34  H52 UNL     1       0.897  39.774 -24.463  1.00  0.00     0.274 HD
ATOM     35  H51 UNL     1       1.771  39.255 -25.817  1.00  0.00     0.274 HD
ENDBRANCH  27  32
ENDBRANCH   5  25
TORSDOF 6
ENDMDL
MODEL 3
REMARK VINA RESULT: -8.412987084      4.128      8.680
REMARK  6 active torsions:
REMARK  status: ('A' for Active; 'I' for Inactive)
REMARK    1  A    between atoms: C1_2  and  C2_4 
REMARK    2  A    between atoms: C2_4  and  N2_5 
REMARK    3  A    between atoms: C5_8  and  C6_9 
REMARK    4  A    between atoms: C7_13  and  C8_14 
REMARK    5  A    between atoms: C10_18  and  C11_19 
REMARK    6  A    between atoms: C13_21  and  N5_22 
ROOT
HETATM    1  C8  UNL     1       1.571  33.448 -24.464  1.00  0.00     0.103 A 
HETATM    2  C9  UNL     1       1.086  32.542 -23.518  1.00  0.00     0.123 A 
HETATM    3  N4  UNL     1       1.849  31.429 -23.636  1.00  0.00    -0.353 N 
ATOM      4  H4  UNL     1       1.737  30.585 -23.075  1.00  0.00     0.166 HD
HETATM    5  C10 UNL     1       2.774  31.593 -24.594  1.00  0.00     0.086 A 
HETATM    6  N6  UNL     1       2.580  32.826 -25.076  1.00  0.00    -0.341 N 
ATOM      7  H6  UNL     1       3.137  33.241 -25.824  1.00  0.00     0.167 HD
ENDROOT
BRANCH   1   8
HETATM    8  C7  UNL     1       1.044  34.792 -24.690  1.00  0.00     0.200 A 
HETATM    9  O2  UNL     1       0.141  35.343 -23.909  1.00  0.00    -0.216 OA
HETATM   10  N3  UNL     1      -0.118  36.531 -24.375  1.00  0.00    -0.246 N 
HETATM   11  C6  UNL     1       0.628  36.748 -25.471  1.00  0.00     0.108 A 
ATOM     12  H3  UNL     1      -0.781  37.192 -23.972  1.00  0.00     0.196 HD
HETATM   13  N7  UNL     1       1.362  35.646 -25.668  1.00  0.00    -0.321 N 
ATOM     14  H7  UNL     1       2.034  35.489 -26.419  1.00  0.00     0.169 HD
BRANCH  11  15
HETATM   15  C5  UNL     1       0.688  37.949 -26.356  1.00  0.00     0.058 C 
HETATM   16  C4  UNL     1      -0.502  38.085 -27.227  1.00  0.00     0.042 C 
HETATM   17  C3  UNL     1      -0.332  37.621 -28.651  1.00  0.00     0.273 C 
HETATM   18  N2  UNL     1       0.920  38.265 -29.086  1.00  0.00     0.096 N 
HETATM   19  C17 UNL     1       2.019  37.542 -28.463  1.00  0.00     0.273 C 
HETATM   20  C16 UNL     1       2.025  38.025 -27.030  1.00  0.00     0.042 C 
BRANCH  18  21
HETATM   21  C2  UNL     1       1.008  38.340 -30.505  1.00  0.00     0.371 C 
BRANCH  21  22
HETATM   22  C1  UNL     1       0.980  39.744 -30.955  1.00  0.00     0.259 C 
HETATM   23  N1  UNL     1      -0.159  40.238 -31.691  1.00  0.00    -0.061 NA
HETATM   24  O1  UNL     1       1.940  40.518 -30.706  1.00  0.00    -0.275 OA
ENDBRANCH  21  22
ENDBRANCH  18  21
ENDBRANCH  11  15
ENDBRANCH   1   8
BRANCH   5  25
HETATM   25  C11 UNL     1       3.786  30.612 -25.020  1.00  0.00     0.058 C 
HETATM   26  C12 UNL     1       4.370  30.988 -26.366  1.00  0.00     0.048 C 
HETATM   27  C13 UNL     1       5.780  30.397 -26.236  1.00  0.00     0.222 C 
HETATM   28  C14 UNL     1       6.175  30.957 -24.882  1.00  0.00     0.142 C 
HETATM   29 CL1  UNL     1       6.281  32.723 -25.021  1.00  0.00    -0.099 Cl
HETATM   30 CL2  UNL     1       7.638  30.231 -24.235  1.00  0.00    -0.099 Cl
HETATM   31  C15 UNL     1       4.940  30.620 -24.045  1.00  0.00     0.056 C 
BRANCH  27  32
HETATM   32  N5  UNL     1       6.598  30.865 -27.315  1.00  0.00    -0.072 N 
ATOM     33  H53 UNL     1       7.590  30.701 -27.144  1.00  0.00     0.274 HD
ATOM     34  H52 UNL     1       6.497  30.290 -28.152  1.00  0.00     0.274 HD
ATOM     35  H51 UNL     1       6.396  31.849 -27.496  1.00  0.00     0.274 HD
ENDBRANCH  27  32
ENDBRANCH   5  25
TORSDOF 6
ENDMDL
MODEL 4
REMARK VINA RESULT: -8.329306320      3.395      8.343
REMARK  6 active torsions:
REMARK  status: ('A' for Active; 'I' for Inactive)
REMARK    1  A    between atoms: C1_2  and  C2_4 
REMARK    2  A    between atoms: C2_4  and  N2_5 
REMARK    3  A    between atoms: C5_8  and  C6_9 
REMARK    4  A    between atoms: C7_13  and  C8_14 
REMARK    5  A    between atoms: C10_18  and  C11_19 
REMARK    6  A    between atoms: C13_21  and  N5_22 
ROOT
HETATM    1  C8  UNL     1       1.362  32.729 -24.368  1.00  0.00     0.103 A 
HETATM    2  C9  UNL     1       1.030  31.644 -23.553  1.00  0.00     0.123 A 
HETATM    3  N4  UNL     1       1.952  30.685 -23.808  1.00  0.00    -0.353 N 
ATOM      4  H4  UNL     1       1.975  29.767 -23.363  1.00  0.00     0.166 HD
HETATM    5  C10 UNL     1       2.831  31.111 -24.728  1.00  0.00     0.086 A 
HETATM    6  N6  UNL     1       2.447  32.352 -25.047  1.00  0.00    -0.341 N 
ATOM      7  H6  UNL     1       2.926  32.940 -25.729  1.00  0.00     0.167 HD
ENDROOT
BRANCH   1   8
HETATM    8  C7  UNL     1       0.634  33.994 -24.422  1.00  0.00     0.200 A 
HETATM    9  O2  UNL     1      -0.667  34.075 -24.250  1.00  0.00    -0.216 OA
HETATM   10  N3  UNL     1      -1.006  35.328 -24.357  1.00  0.00    -0.246 N 
HETATM   11  C6  UNL     1       0.090  36.064 -24.602  1.00  0.00     0.108 A 
ATOM     12  H3  UNL     1      -1.955  35.692 -24.269  1.00  0.00     0.196 HD
HETATM   13  N7  UNL     1       1.126  35.218 -24.643  1.00  0.00    -0.321 N 
ATOM     14  H7  UNL     1       2.102  35.460 -24.810  1.00  0.00     0.169 HD
BRANCH  11  15
HETATM   15  C5  UNL     1       0.218  37.537 -24.805  1.00  0.00     0.058 C 
HETATM   16  C4  UNL     1       0.800  37.891 -26.120  1.00  0.00     0.042 C 
HETATM   17  C3  UNL     1       2.265  38.247 -26.119  1.00  0.00     0.273 C 
HETATM   18  N2  UNL     1       2.390  39.224 -25.022  1.00  0.00     0.096 N 
HETATM   19  C17 UNL     1       2.319  38.484 -23.771  1.00  0.00     0.273 C 
HETATM   20  C16 UNL     1       0.849  38.169 -23.600  1.00  0.00     0.042 C 
BRANCH  18  21
HETATM   21  C2  UNL     1       3.562  40.020 -25.158  1.00  0.00     0.371 C 
BRANCH  21  22
HETATM   22  C1  UNL     1       3.317  41.395 -24.685  1.00  0.00     0.259 C 
HETATM   23  N1  UNL     1       4.226  42.001 -23.742  1.00  0.00    -0.061 NA
HETATM   24  O1  UNL     1       2.322  42.048 -25.095  1.00  0.00    -0.275 OA
ENDBRANCH  21  22
ENDBRANCH  18  21
ENDBRANCH  11  15
ENDBRANCH   1   8
BRANCH   5  25
HETATM   25  C11 UNL     1       3.975  30.359 -25.269  1.00  0.00     0.058 C 
HETATM   26  C12 UNL     1       4.579  31.076 -26.459  1.00  0.00     0.048 C 
HETATM   27  C13 UNL     1       6.041  30.626 -26.347  1.00  0.00     0.222 C 
HETATM   28  C14 UNL     1       6.294  30.921 -24.879  1.00  0.00     0.142 C 
HETATM   29 CL1  UNL     1       6.192  32.676 -24.640  1.00  0.00    -0.099 Cl
HETATM   30 CL2  UNL     1       7.798  30.234 -24.286  1.00  0.00    -0.099 Cl
HETATM   31  C15 UNL     1       5.067  30.282 -24.228  1.00  0.00     0.056 C 
BRANCH  27  32
HETATM   32  N5  UNL     1       6.852  31.400 -27.238  1.00  0.00    -0.072 N 
ATOM     33  H53 UNL     1       6.410  32.284 -27.491  1.00  0.00     0.274 HD
ATOM     34  H52 UNL     1       7.680  31.776 -26.777  1.00  0.00     0.274 HD
ATOM     35  H51 UNL     1       7.088  30.840 -28.058  1.00  0.00     0.274 HD
ENDBRANCH  27  32
ENDBRANCH   5  25
TORSDOF 6
ENDMDL
MODEL 5
REMARK VINA RESULT: -8.264244737      1.224      1.381
REMARK  6 active torsions:
REMARK  status: ('A' for Active; 'I' for Inactive)
REMARK    1  A    between atoms: C1_2  and  C2_4 
REMARK    2  A    between atoms: C2_4  and  N2_5 
REMARK    3  A    between atoms: C5_8  and  C6_9 
REMARK    4  A    between atoms: C7_13  and  C8_14 
REMARK    5  A    between atoms: C10_18  and  C11_19 
REMARK    6  A    between atoms: C13_21  and  N5_22 
ROOT
HETATM    1  C8  UNL     1       0.694  35.031 -24.558  1.00  0.00     0.103 A 
HETATM    2  C9  UNL     1      -0.617  35.313 -24.949  1.00  0.00     0.123 A 
HETATM    3  N4  UNL     1      -0.726  36.663 -24.954  1.00  0.00    -0.353 N 
ATOM      4  H4  UNL     1      -1.573  37.177 -25.200  1.00  0.00     0.166 HD
HETATM    5  C10 UNL     1       0.434  37.230 -24.592  1.00  0.00     0.086 A 
HETATM    6  N6  UNL     1       1.274  36.216 -24.359  1.00  0.00    -0.341 N 
ATOM      7  H6  UNL     1       2.244  36.333 -24.063  1.00  0.00     0.167 HD
ENDROOT
BRANCH   1   8
HETATM    8  C7  UNL     1       1.260  33.691 -24.416  1.00  0.00     0.200 A 
HETATM    9  O2  UNL     1       0.518  32.608 -24.352  1.00  0.00    -0.216 OA
HETATM   10  N3  UNL     1       1.315  31.586 -24.227  1.00  0.00    -0.246 N 
HETATM   11  C6  UNL     1       2.587  32.015 -24.209  1.00  0.00     0.108 A 
ATOM     12  H3  UNL     1       1.019  30.613 -24.154  1.00  0.00     0.196 HD
HETATM   13  N7  UNL     1       2.549  33.348 -24.329  1.00  0.00    -0.321 N 
ATOM     14  H7  UNL     1       3.350  33.979 -24.350  1.00  0.00     0.169 HD
BRANCH  11  15
HETATM   15  C5  UNL     1       3.852  31.233 -24.083  1.00  0.00     0.058 C 
HETATM   16  C4  UNL     1       5.038  32.086 -23.841  1.00  0.00     0.042 C 
HETATM   17  C3  UNL     1       5.899  32.374 -25.044  1.00  0.00     0.273 C 
HETATM   18  N2  UNL     1       6.114  31.048 -25.650  1.00  0.00     0.096 N 
HETATM   19  C17 UNL     1       4.879  30.672 -26.321  1.00  0.00     0.273 C 
HETATM   20  C16 UNL     1       3.956  30.241 -25.202  1.00  0.00     0.042 C 
BRANCH  18  21
HETATM   21  C2  UNL     1       7.259  31.036 -26.496  1.00  0.00     0.371 C 
BRANCH  21  22
HETATM   22  C1  UNL     1       8.495  30.928 -25.699  1.00  0.00     0.259 C 
HETATM   23  N1  UNL     1       9.701  31.577 -26.156  1.00  0.00    -0.061 NA
HETATM   24  O1  UNL     1       8.511  30.277 -24.622  1.00  0.00    -0.275 OA
ENDBRANCH  21  22
ENDBRANCH  18  21
ENDBRANCH  11  15
ENDBRANCH   1   8
BRANCH   5  25
HETATM   25  C11 UNL     1       0.713  38.671 -24.475  1.00  0.00     0.058 C 
HETATM   26  C12 UNL     1       0.621  39.124 -23.033  1.00  0.00     0.048 C 
HETATM   27  C13 UNL     1       1.624  40.284 -23.037  1.00  0.00     0.222 C 
HETATM   28  C14 UNL     1       2.805  39.606 -23.706  1.00  0.00     0.142 C 
HETATM   29 CL1  UNL     1       3.388  38.320 -22.631  1.00  0.00    -0.099 Cl
HETATM   30 CL2  UNL     1       4.071  40.730 -24.179  1.00  0.00    -0.099 Cl
HETATM   31  C15 UNL     1       2.133  38.948 -24.911  1.00  0.00     0.056 C 
BRANCH  27  32
HETATM   32  N5  UNL     1       1.883  40.700 -21.692  1.00  0.00    -0.072 N 
ATOM     33  H53 UNL     1       1.687  39.962 -21.016  1.00  0.00     0.274 HD
ATOM     34  H52 UNL     1       2.881  40.806 -21.507  1.00  0.00     0.274 HD
ATOM     35  H51 UNL     1       1.361  41.554 -21.491  1.00  0.00     0.274 HD
ENDBRANCH  27  32
ENDBRANCH   5  25
TORSDOF 6
ENDMDL
