MODEL 1
REMARK VINA RESULT: -7.554338447      0.000      0.000
REMARK  13 active torsions:
REMARK  status: ('A' for Active; 'I' for Inactive)
REMARK    1  A    between atoms: C2_2  and  C3_3 
REMARK    2  A    between atoms: C3_3  and  N1_4 
REMARK    3  A    between atoms: C4_5  and  C5_6 
REMARK    4  A    between atoms: C5_6  and  N2_7 
REMARK    5  A    between atoms: N2_7  and  C6_9 
REMARK    6  A    between atoms: C9_12  and  N3_13 
REMARK    7  A    between atoms: N3_13  and  C10_15 
REMARK    8  A    between atoms: C10_15  and  C11_16 
REMARK    9  A    between atoms: C11_16  and  C12_17 
REMARK   10  A    between atoms: C12_17  and  C13_18 
REMARK   11  A    between atoms: C13_18  and  C14_19 
REMARK   12  A    between atoms: C14_19  and  N4_20 
REMARK   13  A    between atoms: C18_29  and  N6_30 
ROOT
HETATM    1  C5  UNL     1       2.186  76.844  29.127  1.00  0.00     0.196 C 
ENDROOT
BRANCH   1   2
HETATM    2  C4  UNL     1       2.893  75.540  29.169  1.00  0.00     0.103 A 
HETATM    3  N1  UNL     1       4.122  75.330  28.616  1.00  0.00    -0.319 N 
HETATM    4  C20 UNL     1       4.451  74.028  28.844  1.00  0.00     0.141 A 
HETATM    5  C17 UNL     1       3.397  73.459  29.546  1.00  0.00     0.122 A 
HETATM    6  N8  UNL     1       5.542  73.315  28.510  1.00  0.00    -0.336 N 
HETATM    7  N5  UNL     1       2.472  74.392  29.728  1.00  0.00    -0.338 N 
HETATM    8  C18 UNL     1       3.472  72.126  29.908  1.00  0.00     0.131 A 
ATOM      9  H5  UNL     1       1.585  74.260  30.212  1.00  0.00     0.167 HD
HETATM   10  N7  UNL     1       4.586  71.466  29.545  1.00  0.00    -0.337 N 
HETATM   11  C19 UNL     1       5.605  72.023  28.865  1.00  0.00     0.183 A 
ATOM     12  H7  UNL     1       4.664  70.481  29.801  1.00  0.00     0.168 HD
ATOM     13  H8  UNL     1       6.307  73.750  27.995  1.00  0.00     0.168 HD
BRANCH   3  14
HETATM   14  C3  UNL     1       4.888  76.311  27.923  1.00  0.00     0.131 C 
BRANCH  14  15
HETATM   15  C2  UNL     1       5.693  77.237  28.771  1.00  0.00     0.016 C 
HETATM   16  C1  UNL     1       5.299  78.672  28.624  1.00  0.00     0.006 C 
ENDBRANCH  14  15
ENDBRANCH   3  14
BRANCH   8  17
HETATM   17  N6  UNL     1       2.519  71.538  30.565  1.00  0.00    -0.383 N 
ATOM     18  H62 UNL     1       1.919  72.052  31.210  1.00  0.00     0.157 HD
ATOM     19  H61 UNL     1       2.329  70.541  30.463  1.00  0.00     0.157 HD
ENDBRANCH   8  17
ENDBRANCH   1   2
BRANCH   1  20
HETATM   20  N2  UNL     1       1.598  77.089  27.824  1.00  0.00    -0.383 N 
ATOM     21  H2  UNL     1       2.208  77.168  27.010  1.00  0.00     0.160 HD
BRANCH  20  22
HETATM   22  C6  UNL     1       0.213  77.220  27.655  1.00  0.00     0.028 A 
HETATM   23  C7  UNL     1      -0.578  77.533  28.726  1.00  0.00     0.031 A 
HETATM   24  C8  UNL     1      -1.920  77.661  28.566  1.00  0.00     0.031 A 
HETATM   25  C9  UNL     1      -2.498  77.474  27.306  1.00  0.00     0.028 A 
HETATM   26  C15 UNL     1      -1.705  77.161  26.237  1.00  0.00     0.031 A 
HETATM   27  C16 UNL     1      -0.350  77.036  26.417  1.00  0.00     0.031 A 
BRANCH  25  28
HETATM   28  N3  UNL     1      -3.906  77.596  27.175  1.00  0.00    -0.390 N 
ATOM     29  H3  UNL     1      -4.512  76.856  27.529  1.00  0.00     0.159 HD
BRANCH  28  30
HETATM   30  C10 UNL     1      -4.484  78.751  26.549  1.00  0.00     0.119 C 
BRANCH  30  31
HETATM   31  C11 UNL     1      -3.776  80.028  26.905  1.00  0.00     0.020 C 
BRANCH  31  32
HETATM   32  C12 UNL     1      -4.371  80.647  28.163  1.00  0.00     0.003 C 
BRANCH  32  33
HETATM   33  C13 UNL     1      -4.594  82.122  27.958  1.00  0.00     0.027 C 
BRANCH  33  34
HETATM   34  C14 UNL     1      -6.098  82.335  27.916  1.00  0.00     0.229 C 
BRANCH  34  35
HETATM   35  N4  UNL     1      -6.732  81.224  28.611  1.00  0.00    -0.079 N 
ATOM     36  H43 UNL     1      -6.240  80.962  29.466  1.00  0.00     0.274 HD
ATOM     37  H42 UNL     1      -7.621  81.483  29.039  1.00  0.00     0.274 HD
ATOM     38  H41 UNL     1      -6.821  80.449  27.955  1.00  0.00     0.274 HD
ENDBRANCH  34  35
ENDBRANCH  33  34
ENDBRANCH  32  33
ENDBRANCH  31  32
ENDBRANCH  30  31
ENDBRANCH  28  30
ENDBRANCH  25  28
ENDBRANCH  20  22
ENDBRANCH   1  20
TORSDOF 13
ENDMDL
MODEL 2
REMARK VINA RESULT: -7.270283697      0.812      1.046
REMARK  13 active torsions:
REMARK  status: ('A' for Active; 'I' for Inactive)
REMARK    1  A    between atoms: C2_2  and  C3_3 
REMARK    2  A    between atoms: C3_3  and  N1_4 
REMARK    3  A    between atoms: C4_5  and  C5_6 
REMARK    4  A    between atoms: C5_6  and  N2_7 
REMARK    5  A    between atoms: N2_7  and  C6_9 
REMARK    6  A    between atoms: C9_12  and  N3_13 
REMARK    7  A    between atoms: N3_13  and  C10_15 
REMARK    8  A    between atoms: C10_15  and  C11_16 
REMARK    9  A    between atoms: C11_16  and  C12_17 
REMARK   10  A    between atoms: C12_17  and  C13_18 
REMARK   11  A    between atoms: C13_18  and  C14_19 
REMARK   12  A    between atoms: C14_19  and  N4_20 
REMARK   13  A    between atoms: C18_29  and  N6_30 
ROOT
HETATM    1  C5  UNL     1       2.071  76.935  28.704  1.00  0.00     0.196 C 
ENDROOT
BRANCH   1   2
HETATM    2  C4  UNL     1       3.142  75.913  28.608  1.00  0.00     0.103 A 
HETATM    3  N1  UNL     1       4.373  76.158  28.073  1.00  0.00    -0.319 N 
HETATM    4  C20 UNL     1       5.086  74.999  28.151  1.00  0.00     0.141 A 
HETATM    5  C17 UNL     1       4.260  74.053  28.743  1.00  0.00     0.122 A 
HETATM    6  N8  UNL     1       6.339  74.699  27.767  1.00  0.00    -0.336 N 
HETATM    7  N5  UNL     1       3.096  74.630  29.008  1.00  0.00    -0.338 N 
HETATM    8  C18 UNL     1       4.741  72.771  28.942  1.00  0.00     0.131 A 
ATOM      9  H5  UNL     1       2.294  74.175  29.444  1.00  0.00     0.167 HD
HETATM   10  N7  UNL     1       6.001  72.532  28.537  1.00  0.00    -0.337 N 
HETATM   11  C19 UNL     1       6.797  73.454  27.964  1.00  0.00     0.183 A 
ATOM     12  H7  UNL     1       6.378  71.594  28.673  1.00  0.00     0.168 HD
ATOM     13  H8  UNL     1       6.932  75.408  27.334  1.00  0.00     0.168 HD
BRANCH   3  14
HETATM   14  C3  UNL     1       4.798  77.405  27.531  1.00  0.00     0.131 C 
BRANCH  14  15
HETATM   15  C2  UNL     1       5.208  78.446  28.517  1.00  0.00     0.016 C 
HETATM   16  C1  UNL     1       6.273  77.984  29.460  1.00  0.00     0.006 C 
ENDBRANCH  14  15
ENDBRANCH   3  14
BRANCH   8  17
HETATM   17  N6  UNL     1       4.017  71.843  29.491  1.00  0.00    -0.383 N 
ATOM     18  H62 UNL     1       3.709  71.026  28.964  1.00  0.00     0.157 HD
ATOM     19  H61 UNL     1       3.729  71.892  30.467  1.00  0.00     0.157 HD
ENDBRANCH   8  17
ENDBRANCH   1   2
BRANCH   1  20
HETATM   20  N2  UNL     1       1.379  77.101  27.438  1.00  0.00    -0.383 N 
ATOM     21  H2  UNL     1       1.922  77.128  26.575  1.00  0.00     0.160 HD
BRANCH  20  22
HETATM   22  C6  UNL     1      -0.015  77.225  27.373  1.00  0.00     0.028 A 
HETATM   23  C7  UNL     1      -0.729  77.499  28.507  1.00  0.00     0.031 A 
HETATM   24  C8  UNL     1      -2.080  77.620  28.448  1.00  0.00     0.031 A 
HETATM   25  C9  UNL     1      -2.745  77.467  27.228  1.00  0.00     0.028 A 
HETATM   26  C15 UNL     1      -2.029  77.194  26.095  1.00  0.00     0.031 A 
HETATM   27  C16 UNL     1      -0.664  77.074  26.173  1.00  0.00     0.031 A 
BRANCH  25  28
HETATM   28  N3  UNL     1      -4.160  77.581  27.201  1.00  0.00    -0.390 N 
ATOM     29  H3  UNL     1      -4.736  76.788  27.486  1.00  0.00     0.159 HD
BRANCH  28  30
HETATM   30  C10 UNL     1      -4.787  78.801  26.778  1.00  0.00     0.119 C 
BRANCH  30  31
HETATM   31  C11 UNL     1      -3.929  80.013  27.011  1.00  0.00     0.020 C 
BRANCH  31  32
HETATM   32  C12 UNL     1      -4.388  80.773  28.249  1.00  0.00     0.003 C 
BRANCH  32  33
HETATM   33  C13 UNL     1      -4.623  82.221  27.910  1.00  0.00     0.027 C 
BRANCH  33  34
HETATM   34  C14 UNL     1      -6.128  82.429  27.899  1.00  0.00     0.229 C 
BRANCH  34  35
HETATM   35  N4  UNL     1      -6.742  81.328  28.625  1.00  0.00    -0.079 N 
ATOM     36  H43 UNL     1      -6.116  80.914  29.316  1.00  0.00     0.274 HD
ATOM     37  H42 UNL     1      -7.470  81.638  29.270  1.00  0.00     0.274 HD
ATOM     38  H41 UNL     1      -7.082  80.650  27.944  1.00  0.00     0.274 HD
ENDBRANCH  34  35
ENDBRANCH  33  34
ENDBRANCH  32  33
ENDBRANCH  31  32
ENDBRANCH  30  31
ENDBRANCH  28  30
ENDBRANCH  25  28
ENDBRANCH  20  22
ENDBRANCH   1  20
TORSDOF 13
ENDMDL
MODEL 3
REMARK VINA RESULT: -7.160106653      2.224      4.209
REMARK  13 active torsions:
REMARK  status: ('A' for Active; 'I' for Inactive)
REMARK    1  A    between atoms: C2_2  and  C3_3 
REMARK    2  A    between atoms: C3_3  and  N1_4 
REMARK    3  A    between atoms: C4_5  and  C5_6 
REMARK    4  A    between atoms: C5_6  and  N2_7 
REMARK    5  A    between atoms: N2_7  and  C6_9 
REMARK    6  A    between atoms: C9_12  and  N3_13 
REMARK    7  A    between atoms: N3_13  and  C10_15 
REMARK    8  A    between atoms: C10_15  and  C11_16 
REMARK    9  A    between atoms: C11_16  and  C12_17 
REMARK   10  A    between atoms: C12_17  and  C13_18 
REMARK   11  A    between atoms: C13_18  and  C14_19 
REMARK   12  A    between atoms: C14_19  and  N4_20 
REMARK   13  A    between atoms: C18_29  and  N6_30 
ROOT
HETATM    1  C5  UNL     1       0.184  76.091  27.479  1.00  0.00     0.196 C 
ENDROOT
BRANCH   1   2
HETATM    2  C4  UNL     1       1.425  76.859  27.748  1.00  0.00     0.103 A 
HETATM    3  N1  UNL     1       2.558  76.303  28.266  1.00  0.00    -0.319 N 
HETATM    4  C20 UNL     1       3.482  77.299  28.376  1.00  0.00     0.141 A 
HETATM    5  C17 UNL     1       2.882  78.463  27.915  1.00  0.00     0.122 A 
HETATM    6  N8  UNL     1       4.749  77.289  28.826  1.00  0.00    -0.336 N 
HETATM    7  N5  UNL     1       1.644  78.169  27.543  1.00  0.00    -0.338 N 
HETATM    8  C18 UNL     1       3.609  79.641  27.920  1.00  0.00     0.131 A 
ATOM      9  H5  UNL     1       0.966  78.830  27.164  1.00  0.00     0.167 HD
HETATM   10  N7  UNL     1       4.870  79.567  28.382  1.00  0.00    -0.337 N 
HETATM   11  C19 UNL     1       5.445  78.436  28.828  1.00  0.00     0.183 A 
ATOM     12  H7  UNL     1       5.425  80.423  28.396  1.00  0.00     0.168 HD
ATOM     13  H8  UNL     1       5.174  76.423  29.161  1.00  0.00     0.168 HD
BRANCH   3  14
HETATM   14  C3  UNL     1       2.710  74.933  28.624  1.00  0.00     0.131 C 
BRANCH  14  15
HETATM   15  C2  UNL     1       3.068  74.661  30.046  1.00  0.00     0.016 C 
HETATM   16  C1  UNL     1       3.038  73.208  30.400  1.00  0.00     0.006 C 
ENDBRANCH  14  15
ENDBRANCH   3  14
BRANCH   8  17
HETATM   17  N6  UNL     1       3.104  80.761  27.502  1.00  0.00    -0.383 N 
ATOM     18  H62 UNL     1       2.909  80.922  26.514  1.00  0.00     0.157 HD
ATOM     19  H61 UNL     1       2.880  81.524  28.140  1.00  0.00     0.157 HD
ENDBRANCH   8  17
ENDBRANCH   1   2
BRANCH   1  20
HETATM   20  N2  UNL     1      -0.544  76.636  26.348  1.00  0.00    -0.383 N 
ATOM     21  H2  UNL     1      -0.121  76.601  25.421  1.00  0.00     0.160 HD
BRANCH  20  22
HETATM   22  C6  UNL     1      -1.814  77.209  26.498  1.00  0.00     0.028 A 
HETATM   23  C7  UNL     1      -2.458  77.134  27.702  1.00  0.00     0.031 A 
HETATM   24  C8  UNL     1      -3.688  77.688  27.851  1.00  0.00     0.031 A 
HETATM   25  C9  UNL     1      -4.301  78.338  26.775  1.00  0.00     0.028 A 
HETATM   26  C15 UNL     1      -3.655  78.411  25.572  1.00  0.00     0.031 A 
HETATM   27  C16 UNL     1      -2.411  77.845  25.439  1.00  0.00     0.031 A 
BRANCH  25  28
HETATM   28  N3  UNL     1      -5.596  78.890  26.957  1.00  0.00    -0.390 N 
ATOM     29  H3  UNL     1      -6.153  79.150  26.143  1.00  0.00     0.159 HD
BRANCH  28  30
HETATM   30  C10 UNL     1      -6.128  79.085  28.276  1.00  0.00     0.119 C 
BRANCH  30  31
HETATM   31  C11 UNL     1      -5.732  80.403  28.880  1.00  0.00     0.020 C 
BRANCH  31  32
HETATM   32  C12 UNL     1      -6.451  81.555  28.190  1.00  0.00     0.003 C 
BRANCH  32  33
HETATM   33  C13 UNL     1      -5.487  82.681  27.925  1.00  0.00     0.027 C 
BRANCH  33  34
HETATM   34  C14 UNL     1      -4.090  82.089  28.001  1.00  0.00     0.229 C 
BRANCH  34  35
HETATM   35  N4  UNL     1      -3.609  81.889  26.641  1.00  0.00    -0.079 N 
ATOM     36  H43 UNL     1      -4.276  81.384  26.058  1.00  0.00     0.274 HD
ATOM     37  H42 UNL     1      -3.584  82.754  26.101  1.00  0.00     0.274 HD
ATOM     38  H41 UNL     1      -2.702  81.428  26.691  1.00  0.00     0.274 HD
ENDBRANCH  34  35
ENDBRANCH  33  34
ENDBRANCH  32  33
ENDBRANCH  31  32
ENDBRANCH  30  31
ENDBRANCH  28  30
ENDBRANCH  25  28
ENDBRANCH  20  22
ENDBRANCH   1  20
TORSDOF 13
ENDMDL
MODEL 4
REMARK VINA RESULT: -6.849710545      0.975      1.456
REMARK  13 active torsions:
REMARK  status: ('A' for Active; 'I' for Inactive)
REMARK    1  A    between atoms: C2_2  and  C3_3 
REMARK    2  A    between atoms: C3_3  and  N1_4 
REMARK    3  A    between atoms: C4_5  and  C5_6 
REMARK    4  A    between atoms: C5_6  and  N2_7 
REMARK    5  A    between atoms: N2_7  and  C6_9 
REMARK    6  A    between atoms: C9_12  and  N3_13 
REMARK    7  A    between atoms: N3_13  and  C10_15 
REMARK    8  A    between atoms: C10_15  and  C11_16 
REMARK    9  A    between atoms: C11_16  and  C12_17 
REMARK   10  A    between atoms: C12_17  and  C13_18 
REMARK   11  A    between atoms: C13_18  and  C14_19 
REMARK   12  A    between atoms: C14_19  and  N4_20 
REMARK   13  A    between atoms: C18_29  and  N6_30 
ROOT
HETATM    1  C5  UNL     1       2.642  76.593  29.491  1.00  0.00     0.196 C 
ENDROOT
BRANCH   1   2
HETATM    2  C4  UNL     1       3.166  75.212  29.631  1.00  0.00     0.103 A 
HETATM    3  N1  UNL     1       4.136  74.687  28.827  1.00  0.00    -0.319 N 
HETATM    4  C20 UNL     1       4.360  73.410  29.245  1.00  0.00     0.141 A 
HETATM    5  C17 UNL     1       3.506  73.177  30.315  1.00  0.00     0.122 A 
HETATM    6  N8  UNL     1       5.203  72.463  28.797  1.00  0.00    -0.336 N 
HETATM    7  N5  UNL     1       2.800  74.279  30.526  1.00  0.00    -0.338 N 
HETATM    8  C18 UNL     1       3.527  71.939  30.934  1.00  0.00     0.131 A 
ATOM      9  H5  UNL     1       2.091  74.399  31.250  1.00  0.00     0.167 HD
HETATM   10  N7  UNL     1       4.391  71.034  30.441  1.00  0.00    -0.337 N 
HETATM   11  C19 UNL     1       5.215  71.267  29.403  1.00  0.00     0.183 A 
ATOM     12  H7  UNL     1       4.424  70.115  30.881  1.00  0.00     0.168 HD
ATOM     13  H8  UNL     1       5.824  72.653  28.009  1.00  0.00     0.168 HD
BRANCH   3  14
HETATM   14  C3  UNL     1       4.768  75.373  27.750  1.00  0.00     0.131 C 
BRANCH  14  15
HETATM   15  C2  UNL     1       6.190  75.767  27.966  1.00  0.00     0.016 C 
HETATM   16  C1  UNL     1       7.166  74.876  27.266  1.00  0.00     0.006 C 
ENDBRANCH  14  15
ENDBRANCH   3  14
BRANCH   8  17
HETATM   17  N6  UNL     1       2.754  71.661  31.939  1.00  0.00    -0.383 N 
ATOM     18  H62 UNL     1       2.906  72.074  32.859  1.00  0.00     0.157 HD
ATOM     19  H61 UNL     1       1.965  71.021  31.852  1.00  0.00     0.157 HD
ENDBRANCH   8  17
ENDBRANCH   1   2
BRANCH   1  20
HETATM   20  N2  UNL     1       2.046  76.806  28.185  1.00  0.00    -0.383 N 
ATOM     21  H2  UNL     1       2.644  76.803  27.359  1.00  0.00     0.160 HD
BRANCH  20  22
HETATM   22  C6  UNL     1       0.669  77.014  28.031  1.00  0.00     0.028 A 
HETATM   23  C7  UNL     1       0.085  76.834  26.807  1.00  0.00     0.031 A 
HETATM   24  C8  UNL     1      -1.249  77.035  26.654  1.00  0.00     0.031 A 
HETATM   25  C9  UNL     1      -2.030  77.424  27.747  1.00  0.00     0.028 A 
HETATM   26  C15 UNL     1      -1.444  77.604  28.969  1.00  0.00     0.031 A 
HETATM   27  C16 UNL     1      -0.094  77.397  29.106  1.00  0.00     0.031 A 
BRANCH  25  28
HETATM   28  N3  UNL     1      -3.419  77.645  27.551  1.00  0.00    -0.390 N 
ATOM     29  H3  UNL     1      -4.096  77.149  28.130  1.00  0.00     0.159 HD
BRANCH  28  30
HETATM   30  C10 UNL     1      -3.877  78.561  26.545  1.00  0.00     0.119 C 
BRANCH  30  31
HETATM   31  C11 UNL     1      -3.555  79.994  26.864  1.00  0.00     0.020 C 
BRANCH  31  32
HETATM   32  C12 UNL     1      -4.413  80.500  28.017  1.00  0.00     0.003 C 
BRANCH  32  33
HETATM   33  C13 UNL     1      -4.565  81.995  27.931  1.00  0.00     0.027 C 
BRANCH  33  34
HETATM   34  C14 UNL     1      -6.056  82.280  27.861  1.00  0.00     0.229 C 
BRANCH  34  35
HETATM   35  N4  UNL     1      -6.745  81.281  28.664  1.00  0.00    -0.079 N 
ATOM     36  H43 UNL     1      -6.175  80.933  29.434  1.00  0.00     0.274 HD
ATOM     37  H42 UNL     1      -7.501  81.678  29.222  1.00  0.00     0.274 HD
ATOM     38  H41 UNL     1      -7.063  80.539  28.041  1.00  0.00     0.274 HD
ENDBRANCH  34  35
ENDBRANCH  33  34
ENDBRANCH  32  33
ENDBRANCH  31  32
ENDBRANCH  30  31
ENDBRANCH  28  30
ENDBRANCH  25  28
ENDBRANCH  20  22
ENDBRANCH   1  20
TORSDOF 13
ENDMDL
MODEL 5
REMARK VINA RESULT: -6.782926973      2.403      5.003
REMARK  13 active torsions:
REMARK  status: ('A' for Active; 'I' for Inactive)
REMARK    1  A    between atoms: C2_2  and  C3_3 
REMARK    2  A    between atoms: C3_3  and  N1_4 
REMARK    3  A    between atoms: C4_5  and  C5_6 
REMARK    4  A    between atoms: C5_6  and  N2_7 
REMARK    5  A    between atoms: N2_7  and  C6_9 
REMARK    6  A    between atoms: C9_12  and  N3_13 
REMARK    7  A    between atoms: N3_13  and  C10_15 
REMARK    8  A    between atoms: C10_15  and  C11_16 
REMARK    9  A    between atoms: C11_16  and  C12_17 
REMARK   10  A    between atoms: C12_17  and  C13_18 
REMARK   11  A    between atoms: C13_18  and  C14_19 
REMARK   12  A    between atoms: C14_19  and  N4_20 
REMARK   13  A    between atoms: C18_29  and  N6_30 
ROOT
HETATM    1  C5  UNL     1       6.246  75.160  27.171  1.00  0.00     0.196 C 
ENDROOT
BRANCH   1   2
HETATM    2  C4  UNL     1       7.046  74.047  27.739  1.00  0.00     0.103 A 
HETATM    3  N1  UNL     1       6.497  72.914  28.265  1.00  0.00    -0.319 N 
HETATM    4  C20 UNL     1       7.525  72.126  28.688  1.00  0.00     0.141 A 
HETATM    5  C17 UNL     1       8.701  72.806  28.405  1.00  0.00     0.122 A 
HETATM    6  N8  UNL     1       7.532  70.916  29.276  1.00  0.00    -0.336 N 
HETATM    7  N5  UNL     1       8.384  73.960  27.834  1.00  0.00    -0.338 N 
HETATM    8  C18 UNL     1       9.911  72.222  28.739  1.00  0.00     0.131 A 
ATOM      9  H5  UNL     1       9.048  74.667  27.519  1.00  0.00     0.167 HD
HETATM   10  N7  UNL     1       9.855  71.013  29.325  1.00  0.00    -0.337 N 
HETATM   11  C19 UNL     1       8.710  70.359  29.596  1.00  0.00     0.183 A 
ATOM     12  H7  UNL     1      10.734  70.563  29.580  1.00  0.00     0.168 HD
ATOM     13  H8  UNL     1       6.657  70.431  29.475  1.00  0.00     0.168 HD
BRANCH   3  14
HETATM   14  C3  UNL     1       5.101  72.644  28.352  1.00  0.00     0.131 C 
BRANCH  14  15
HETATM   15  C2  UNL     1       4.520  72.621  29.725  1.00  0.00     0.016 C 
HETATM   16  C1  UNL     1       3.040  72.402  29.741  1.00  0.00     0.006 C 
ENDBRANCH  14  15
ENDBRANCH   3  14
BRANCH   8  17
HETATM   17  N6  UNL     1      11.045  72.808  28.500  1.00  0.00    -0.383 N 
ATOM     18  H62 UNL     1      11.205  73.784  28.750  1.00  0.00     0.157 HD
ATOM     19  H61 UNL     1      11.821  72.319  28.055  1.00  0.00     0.157 HD
ENDBRANCH   8  17
ENDBRANCH   1   2
BRANCH   1  20
HETATM   20  N2  UNL     1       5.835  76.099  28.198  1.00  0.00    -0.383 N 
ATOM     21  H2  UNL     1       6.498  76.359  28.927  1.00  0.00     0.160 HD
BRANCH  20  22
HETATM   22  C6  UNL     1       4.549  76.656  28.213  1.00  0.00     0.028 A 
HETATM   23  C7  UNL     1       3.483  75.902  28.620  1.00  0.00     0.031 A 
HETATM   24  C8  UNL     1       2.237  76.439  28.636  1.00  0.00     0.031 A 
HETATM   25  C9  UNL     1       2.038  77.765  28.238  1.00  0.00     0.028 A 
HETATM   26  C15 UNL     1       3.105  78.517  27.832  1.00  0.00     0.031 A 
HETATM   27  C16 UNL     1       4.360  77.958  27.821  1.00  0.00     0.031 A 
BRANCH  25  28
HETATM   28  N3  UNL     1       0.720  78.291  28.247  1.00  0.00    -0.390 N 
ATOM     29  H3  UNL     1       0.567  79.266  28.507  1.00  0.00     0.159 HD
BRANCH  28  30
HETATM   30  C10 UNL     1      -0.399  77.465  27.895  1.00  0.00     0.119 C 
BRANCH  30  31
HETATM   31  C11 UNL     1      -0.437  77.120  26.432  1.00  0.00     0.020 C 
BRANCH  31  32
HETATM   32  C12 UNL     1      -1.873  76.997  25.940  1.00  0.00     0.003 C 
BRANCH  32  33
HETATM   33  C13 UNL     1      -2.298  78.273  25.264  1.00  0.00     0.027 C 
BRANCH  33  34
HETATM   34  C14 UNL     1      -3.426  78.856  26.100  1.00  0.00     0.229 C 
BRANCH  34  35
HETATM   35  N4  UNL     1      -2.902  80.000  26.831  1.00  0.00    -0.079 N 
ATOM     36  H43 UNL     1      -1.932  79.873  27.119  1.00  0.00     0.274 HD
ATOM     37  H42 UNL     1      -2.762  80.818  26.237  1.00  0.00     0.274 HD
ATOM     38  H41 UNL     1      -3.525  80.186  27.616  1.00  0.00     0.274 HD
ENDBRANCH  34  35
ENDBRANCH  33  34
ENDBRANCH  32  33
ENDBRANCH  31  32
ENDBRANCH  30  31
ENDBRANCH  28  30
ENDBRANCH  25  28
ENDBRANCH  20  22
ENDBRANCH   1  20
TORSDOF 13
ENDMDL
