MODEL 1
REMARK VINA RESULT: -9.336153299      0.000      0.000
REMARK  13 active torsions:
REMARK  status: ('A' for Active; 'I' for Inactive)
REMARK    1  A    between atoms: N2_9  and  C6_10 
REMARK    2  A    between atoms: C6_10  and  C7_11 
REMARK       I    between atoms: C7_11  and  N3_13 
REMARK    3  A    between atoms: N4_18  and  C11_19 
REMARK    4  A    between atoms: C11_19  and  C12_20 
REMARK    5  A    between atoms: C12_20  and  C13_21 
REMARK    6  A    between atoms: C13_21  and  C14_22 
REMARK    7  A    between atoms: C14_22  and  C15_23 
REMARK    8  A    between atoms: C15_23  and  N5_24 
REMARK    9  A    between atoms: C18_27  and  C19_28 
REMARK   10  A    between atoms: C19_28  and  O4_29 
REMARK   11  A    between atoms: C20_31  and  C21_32 
REMARK   12  A    between atoms: C27_38  and  C28_39 
REMARK   13  A    between atoms: C28_39  and  C29_40 
ROOT
HETATM    1  C13 UNL     1      13.043  20.267  17.671  1.00  0.00     0.007 C 
ENDROOT
BRANCH   1   2
HETATM    2  C12 UNL     1      13.021  19.930  16.189  1.00  0.00     0.021 C 
BRANCH   2   3
HETATM    3  C11 UNL     1      11.691  20.080  15.509  1.00  0.00     0.137 C 
BRANCH   3   4
HETATM    4  N4  UNL     1      11.292  18.806  14.917  1.00  0.00    -0.265 N 
HETATM    5  C10 UNL     1      11.658  18.563  13.663  1.00  0.00     0.334 C 
HETATM    6  N2  UNL     1      11.471  17.463  12.886  1.00  0.00    -0.256 N 
HETATM    7  O3  UNL     1      12.294  19.483  13.050  1.00  0.00    -0.246 OA
HETATM    8  C5  UNL     1      11.218  16.213  13.292  1.00  0.00     0.264 C 
HETATM    9  C4  UNL     1      10.727  15.792  14.542  1.00  0.00     0.065 A 
HETATM   10  O1  UNL     1      11.426  15.251  12.520  1.00  0.00    -0.267 OA
HETATM   11  C3  UNL     1      10.431  14.504  14.840  1.00  0.00     0.106 A 
HETATM   12  C36 UNL     1      10.506  16.591  15.664  1.00  0.00     0.071 A 
HETATM   13  N1  UNL     1      10.027  14.465  16.121  1.00  0.00    -0.368 N 
HETATM   14  C2  UNL     1      10.063  15.728  16.657  1.00  0.00     0.022 A 
ATOM     15  H1  UNL     1       9.737  13.624  16.620  1.00  0.00     0.165 HD
HETATM   16  C1  UNL     1       9.713  16.138  18.042  1.00  0.00     0.069 C 
HETATM   17  C35 UNL     1      10.667  17.940  15.761  1.00  0.00     0.264 C 
HETATM   18  O5  UNL     1      10.146  18.427  16.781  1.00  0.00    -0.267 OA
BRANCH   6  19
HETATM   19  C6  UNL     1      11.592  17.599  11.448  1.00  0.00     0.240 C 
BRANCH  19  20
HETATM   20  C7  UNL     1      10.185  17.802  10.954  1.00  0.00     0.237 C 
HETATM   21  O2  UNL     1       9.406  18.660  11.484  1.00  0.00    -0.272 OA
HETATM   22  N3  UNL     1       9.707  17.030   9.904  1.00  0.00    -0.359 N 
HETATM   23  C8  UNL     1       8.332  17.148   9.486  1.00  0.00     0.152 C 
HETATM   24  C9  UNL     1      10.629  16.133   9.208  1.00  0.00     0.152 C 
ENDBRANCH  19  20
ENDBRANCH   6  19
ENDBRANCH   3   4
ENDBRANCH   2   3
ENDBRANCH   1   2
BRANCH   1  25
HETATM   25  C14 UNL     1      14.248  21.204  17.911  1.00  0.00     0.045 C 
BRANCH  25  26
HETATM   26  C15 UNL     1      15.491  20.573  17.570  1.00  0.00     0.070 C 
BRANCH  26  27
HETATM   27  N5  UNL     1      16.621  21.455  17.338  1.00  0.00    -0.329 N 
HETATM   28  C16 UNL     1      17.390  21.988  18.249  1.00  0.00     0.021 A 
HETATM   29  C17 UNL     1      17.621  21.565  19.654  1.00  0.00     0.069 C 
HETATM   30  C18 UNL     1      18.128  22.993  17.684  1.00  0.00     0.001 A 
HETATM   31  C20 UNL     1      17.780  23.057  16.378  1.00  0.00     0.012 A 
HETATM   32  C27 UNL     1      16.827  22.070  16.138  1.00  0.00     0.051 A 
BRANCH  30  33
HETATM   33  C19 UNL     1      19.045  23.919  18.442  1.00  0.00     0.205 C 
BRANCH  33  34
HETATM   34  O4  UNL     1      18.335  25.050  18.963  1.00  0.00    -0.396 OA
ATOM     35  H4  UNL     1      18.176  24.962  19.896  1.00  0.00     0.209 HD
ENDBRANCH  33  34
ENDBRANCH  30  33
BRANCH  31  36
HETATM   36  C21 UNL     1      18.066  24.249  15.526  1.00  0.00    -0.023 A 
HETATM   37  C22 UNL     1      17.296  25.257  15.228  1.00  0.00     0.012 A 
HETATM   38  C23 UNL     1      17.688  26.225  14.289  1.00  0.00     0.001 A 
HETATM   39  C24 UNL     1      18.899  26.090  13.688  1.00  0.00     0.000 A 
HETATM   40  C25 UNL     1      19.742  25.037  13.984  1.00  0.00     0.001 A 
HETATM   41  C26 UNL     1      19.305  24.135  14.909  1.00  0.00     0.012 A 
ENDBRANCH  31  36
BRANCH  32  42
HETATM   42  C28 UNL     1      16.278  21.680  14.827  1.00  0.00     0.042 C 
BRANCH  42  43
HETATM   43  C29 UNL     1      15.113  22.315  14.253  1.00  0.00    -0.034 A 
HETATM   44  C30 UNL     1      14.285  23.177  14.926  1.00  0.00     0.011 A 
HETATM   45  C31 UNL     1      13.120  23.657  14.397  1.00  0.00     0.001 A 
HETATM   46  C32 UNL     1      12.729  23.277  13.118  1.00  0.00     0.000 A 
HETATM   47  C33 UNL     1      13.519  22.421  12.399  1.00  0.00     0.001 A 
HETATM   48  C34 UNL     1      14.686  21.946  12.951  1.00  0.00     0.011 A 
ENDBRANCH  42  43
ENDBRANCH  32  42
ENDBRANCH  26  27
ENDBRANCH  25  26
ENDBRANCH   1  25
TORSDOF 13
ENDMDL
MODEL 2
REMARK VINA RESULT: -9.175230462      3.376     11.355
REMARK  13 active torsions:
REMARK  status: ('A' for Active; 'I' for Inactive)
REMARK    1  A    between atoms: N2_9  and  C6_10 
REMARK    2  A    between atoms: C6_10  and  C7_11 
REMARK       I    between atoms: C7_11  and  N3_13 
REMARK    3  A    between atoms: N4_18  and  C11_19 
REMARK    4  A    between atoms: C11_19  and  C12_20 
REMARK    5  A    between atoms: C12_20  and  C13_21 
REMARK    6  A    between atoms: C13_21  and  C14_22 
REMARK    7  A    between atoms: C14_22  and  C15_23 
REMARK    8  A    between atoms: C15_23  and  N5_24 
REMARK    9  A    between atoms: C18_27  and  C19_28 
REMARK   10  A    between atoms: C19_28  and  O4_29 
REMARK   11  A    between atoms: C20_31  and  C21_32 
REMARK   12  A    between atoms: C27_38  and  C28_39 
REMARK   13  A    between atoms: C28_39  and  C29_40 
ROOT
HETATM    1  C13 UNL     1      16.324  23.195  14.310  1.00  0.00     0.007 C 
ENDROOT
BRANCH   1   2
HETATM    2  C12 UNL     1      17.154  24.394  14.738  1.00  0.00     0.021 C 
BRANCH   2   3
HETATM    3  C11 UNL     1      18.623  24.308  14.439  1.00  0.00     0.137 C 
BRANCH   3   4
HETATM    4  N4  UNL     1      19.391  24.838  15.562  1.00  0.00    -0.265 N 
HETATM    5  C10 UNL     1      19.947  26.037  15.422  1.00  0.00     0.334 C 
HETATM    6  N2  UNL     1      20.664  26.785  16.303  1.00  0.00    -0.256 N 
HETATM    7  O3  UNL     1      19.809  26.618  14.296  1.00  0.00    -0.246 OA
HETATM    8  C5  UNL     1      20.668  26.689  17.638  1.00  0.00     0.264 C 
HETATM    9  C4  UNL     1      20.249  25.603  18.429  1.00  0.00     0.065 A 
HETATM   10  O1  UNL     1      21.074  27.647  18.331  1.00  0.00    -0.267 OA
HETATM   11  C3  UNL     1      20.358  25.569  19.780  1.00  0.00     0.106 A 
HETATM   12  C36 UNL     1      19.635  24.434  17.983  1.00  0.00     0.071 A 
HETATM   13  N1  UNL     1      19.830  24.407  20.201  1.00  0.00    -0.368 N 
HETATM   14  C2  UNL     1      19.375  23.688  19.125  1.00  0.00     0.022 A 
ATOM     15  H1  UNL     1      19.776  24.106  21.173  1.00  0.00     0.165 HD
HETATM   16  C1  UNL     1      18.709  22.359  19.135  1.00  0.00     0.069 C 
HETATM   17  C35 UNL     1      19.365  24.083  16.695  1.00  0.00     0.264 C 
HETATM   18  O5  UNL     1      19.063  22.883  16.563  1.00  0.00    -0.267 OA
BRANCH   6  19
HETATM   19  C6  UNL     1      21.502  27.849  15.789  1.00  0.00     0.240 C 
BRANCH  19  20
HETATM   20  C7  UNL     1      22.855  27.221  15.590  1.00  0.00     0.237 C 
HETATM   21  O2  UNL     1      22.997  25.962  15.460  1.00  0.00    -0.272 OA
HETATM   22  N3  UNL     1      23.988  28.023  15.561  1.00  0.00    -0.359 N 
HETATM   23  C8  UNL     1      25.296  27.425  15.469  1.00  0.00     0.152 C 
HETATM   24  C9  UNL     1      23.827  29.477  15.585  1.00  0.00     0.152 C 
ENDBRANCH  19  20
ENDBRANCH   6  19
ENDBRANCH   3   4
ENDBRANCH   2   3
ENDBRANCH   1   2
BRANCH   1  25
HETATM   25  C14 UNL     1      16.200  22.263  15.537  1.00  0.00     0.045 C 
BRANCH  25  26
HETATM   26  C15 UNL     1      14.934  22.413  16.195  1.00  0.00     0.070 C 
BRANCH  26  27
HETATM   27  N5  UNL     1      13.860  21.552  15.731  1.00  0.00    -0.329 N 
HETATM   28  C16 UNL     1      12.871  21.897  14.950  1.00  0.00     0.021 A 
HETATM   29  C17 UNL     1      12.764  23.046  14.014  1.00  0.00     0.069 C 
HETATM   30  C18 UNL     1      11.905  20.928  14.991  1.00  0.00     0.001 A 
HETATM   31  C20 UNL     1      12.343  19.965  15.835  1.00  0.00     0.012 A 
HETATM   32  C27 UNL     1      13.599  20.343  16.305  1.00  0.00     0.051 A 
BRANCH  30  33
HETATM   33  C19 UNL     1      10.561  21.022  14.315  1.00  0.00     0.205 C 
BRANCH  33  34
HETATM   34  O4  UNL     1      10.451  20.088  13.233  1.00  0.00    -0.396 OA
ATOM     35  H4  UNL     1       9.831  20.386  12.578  1.00  0.00     0.209 HD
ENDBRANCH  33  34
ENDBRANCH  30  33
BRANCH  31  36
HETATM   36  C21 UNL     1      11.432  18.948  16.438  1.00  0.00    -0.023 A 
HETATM   37  C22 UNL     1      10.796  18.979  17.575  1.00  0.00     0.012 A 
HETATM   38  C23 UNL     1      10.089  17.861  18.048  1.00  0.00     0.001 A 
HETATM   39  C24 UNL     1      10.081  16.733  17.291  1.00  0.00     0.000 A 
HETATM   40  C25 UNL     1      10.740  16.668  16.080  1.00  0.00     0.001 A 
HETATM   41  C26 UNL     1      11.402  17.789  15.674  1.00  0.00     0.012 A 
ENDBRANCH  31  36
BRANCH  32  42
HETATM   42  C28 UNL     1      14.511  19.528  17.127  1.00  0.00     0.042 C 
BRANCH  42  43
HETATM   43  C29 UNL     1      14.086  18.880  18.347  1.00  0.00    -0.034 A 
HETATM   44  C30 UNL     1      13.895  17.528  18.484  1.00  0.00     0.011 A 
HETATM   45  C31 UNL     1      13.367  16.960  19.610  1.00  0.00     0.001 A 
HETATM   46  C32 UNL     1      13.001  17.761  20.686  1.00  0.00     0.000 A 
HETATM   47  C33 UNL     1      13.174  19.116  20.605  1.00  0.00     0.001 A 
HETATM   48  C34 UNL     1      13.702  19.669  19.462  1.00  0.00     0.011 A 
ENDBRANCH  42  43
ENDBRANCH  32  42
ENDBRANCH  26  27
ENDBRANCH  25  26
ENDBRANCH   1  25
TORSDOF 13
ENDMDL
MODEL 3
REMARK VINA RESULT: -9.108704749      4.614     12.417
REMARK  13 active torsions:
REMARK  status: ('A' for Active; 'I' for Inactive)
REMARK    1  A    between atoms: N2_9  and  C6_10 
REMARK    2  A    between atoms: C6_10  and  C7_11 
REMARK       I    between atoms: C7_11  and  N3_13 
REMARK    3  A    between atoms: N4_18  and  C11_19 
REMARK    4  A    between atoms: C11_19  and  C12_20 
REMARK    5  A    between atoms: C12_20  and  C13_21 
REMARK    6  A    between atoms: C13_21  and  C14_22 
REMARK    7  A    between atoms: C14_22  and  C15_23 
REMARK    8  A    between atoms: C15_23  and  N5_24 
REMARK    9  A    between atoms: C18_27  and  C19_28 
REMARK   10  A    between atoms: C19_28  and  O4_29 
REMARK   11  A    between atoms: C20_31  and  C21_32 
REMARK   12  A    between atoms: C27_38  and  C28_39 
REMARK   13  A    between atoms: C28_39  and  C29_40 
ROOT
HETATM    1  C13 UNL     1      19.451  22.840  19.650  1.00  0.00     0.007 C 
ENDROOT
BRANCH   1   2
HETATM    2  C12 UNL     1      20.175  23.857  18.784  1.00  0.00     0.021 C 
BRANCH   2   3
HETATM    3  C11 UNL     1      20.541  25.145  19.464  1.00  0.00     0.137 C 
BRANCH   3   4
HETATM    4  N4  UNL     1      21.713  25.730  18.819  1.00  0.00    -0.265 N 
HETATM    5  C10 UNL     1      22.911  25.293  19.196  1.00  0.00     0.334 C 
HETATM    6  N2  UNL     1      24.151  25.617  18.743  1.00  0.00    -0.256 N 
HETATM    7  O3  UNL     1      22.950  24.425  20.129  1.00  0.00    -0.246 OA
HETATM    8  C5  UNL     1      24.471  26.158  17.560  1.00  0.00     0.264 C 
HETATM    9  C4  UNL     1      23.629  26.849  16.669  1.00  0.00     0.065 A 
HETATM   10  O1  UNL     1      25.641  26.070  17.130  1.00  0.00    -0.267 OA
HETATM   11  C3  UNL     1      24.059  27.428  15.522  1.00  0.00     0.106 A 
HETATM   12  C36 UNL     1      22.249  27.019  16.786  1.00  0.00     0.071 A 
HETATM   13  N1  UNL     1      22.989  27.961  14.909  1.00  0.00    -0.368 N 
HETATM   14  C2  UNL     1      21.863  27.726  15.656  1.00  0.00     0.022 A 
ATOM     15  H1  UNL     1      23.011  28.464  14.022  1.00  0.00     0.165 HD
HETATM   16  C1  UNL     1      20.465  28.127  15.344  1.00  0.00     0.069 C 
HETATM   17  C35 UNL     1      21.450  26.599  17.806  1.00  0.00     0.264 C 
HETATM   18  O5  UNL     1      20.316  27.114  17.787  1.00  0.00    -0.267 OA
BRANCH   6  19
HETATM   19  C6  UNL     1      25.296  25.324  19.582  1.00  0.00     0.240 C 
BRANCH  19  20
HETATM   20  C7  UNL     1      25.419  26.508  20.503  1.00  0.00     0.237 C 
HETATM   21  O2  UNL     1      25.368  27.704  20.068  1.00  0.00    -0.272 OA
HETATM   22  N3  UNL     1      25.610  26.304  21.862  1.00  0.00    -0.359 N 
HETATM   23  C8  UNL     1      25.827  27.427  22.740  1.00  0.00     0.152 C 
HETATM   24  C9  UNL     1      25.546  24.941  22.390  1.00  0.00     0.152 C 
ENDBRANCH  19  20
ENDBRANCH   6  19
ENDBRANCH   3   4
ENDBRANCH   2   3
ENDBRANCH   1   2
BRANCH   1  25
HETATM   25  C14 UNL     1      18.230  22.339  18.845  1.00  0.00     0.045 C 
BRANCH  25  26
HETATM   26  C15 UNL     1      17.189  23.325  18.786  1.00  0.00     0.070 C 
BRANCH  26  27
HETATM   27  N5  UNL     1      16.026  22.988  17.985  1.00  0.00    -0.329 N 
HETATM   28  C16 UNL     1      15.195  22.002  18.197  1.00  0.00     0.021 A 
HETATM   29  C17 UNL     1      14.932  21.243  19.447  1.00  0.00     0.069 C 
HETATM   30  C18 UNL     1      14.429  21.809  17.079  1.00  0.00     0.001 A 
HETATM   31  C20 UNL     1      14.824  22.724  16.163  1.00  0.00     0.012 A 
HETATM   32  C27 UNL     1      15.835  23.494  16.733  1.00  0.00     0.051 A 
BRANCH  30  33
HETATM   33  C19 UNL     1      13.438  20.688  16.897  1.00  0.00     0.205 C 
BRANCH  33  34
HETATM   34  O4  UNL     1      14.083  19.482  16.467  1.00  0.00    -0.396 OA
ATOM     35  H4  UNL     1      13.522  18.974  15.892  1.00  0.00     0.209 HD
ENDBRANCH  33  34
ENDBRANCH  30  33
BRANCH  31  36
HETATM   36  C21 UNL     1      14.510  22.594  14.710  1.00  0.00    -0.023 A 
HETATM   37  C22 UNL     1      13.501  23.069  14.037  1.00  0.00     0.012 A 
HETATM   38  C23 UNL     1      13.291  22.725  12.691  1.00  0.00     0.001 A 
HETATM   39  C24 UNL     1      14.170  21.877  12.097  1.00  0.00     0.000 A 
HETATM   40  C25 UNL     1      15.254  21.360  12.778  1.00  0.00     0.001 A 
HETATM   41  C26 UNL     1      15.403  21.738  14.080  1.00  0.00     0.012 A 
ENDBRANCH  31  36
BRANCH  32  42
HETATM   42  C28 UNL     1      16.453  24.700  16.152  1.00  0.00     0.042 C 
BRANCH  42  43
HETATM   43  C29 UNL     1      17.665  24.649  15.365  1.00  0.00    -0.034 A 
HETATM   44  C30 UNL     1      18.878  24.208  15.831  1.00  0.00     0.011 A 
HETATM   45  C31 UNL     1      20.032  24.295  15.104  1.00  0.00     0.001 A 
HETATM   46  C32 UNL     1      20.009  24.847  13.829  1.00  0.00     0.000 A 
HETATM   47  C33 UNL     1      18.825  25.300  13.312  1.00  0.00     0.001 A 
HETATM   48  C34 UNL     1      17.675  25.206  14.061  1.00  0.00     0.011 A 
ENDBRANCH  42  43
ENDBRANCH  32  42
ENDBRANCH  26  27
ENDBRANCH  25  26
ENDBRANCH   1  25
TORSDOF 13
ENDMDL
MODEL 4
REMARK VINA RESULT: -9.094361976      2.007      4.362
REMARK  13 active torsions:
REMARK  status: ('A' for Active; 'I' for Inactive)
REMARK    1  A    between atoms: N2_9  and  C6_10 
REMARK    2  A    between atoms: C6_10  and  C7_11 
REMARK       I    between atoms: C7_11  and  N3_13 
REMARK    3  A    between atoms: N4_18  and  C11_19 
REMARK    4  A    between atoms: C11_19  and  C12_20 
REMARK    5  A    between atoms: C12_20  and  C13_21 
REMARK    6  A    between atoms: C13_21  and  C14_22 
REMARK    7  A    between atoms: C14_22  and  C15_23 
REMARK    8  A    between atoms: C15_23  and  N5_24 
REMARK    9  A    between atoms: C18_27  and  C19_28 
REMARK   10  A    between atoms: C19_28  and  O4_29 
REMARK   11  A    between atoms: C20_31  and  C21_32 
REMARK   12  A    between atoms: C27_38  and  C28_39 
REMARK   13  A    between atoms: C28_39  and  C29_40 
ROOT
HETATM    1  C13 UNL     1      13.762  20.481  13.403  1.00  0.00     0.007 C 
ENDROOT
BRANCH   1   2
HETATM    2  C12 UNL     1      13.314  19.131  12.867  1.00  0.00     0.021 C 
BRANCH   2   3
HETATM    3  C11 UNL     1      11.836  18.976  12.655  1.00  0.00     0.137 C 
BRANCH   3   4
HETATM    4  N4  UNL     1      11.317  17.929  13.531  1.00  0.00    -0.265 N 
HETATM    5  C10 UNL     1      11.313  16.681  13.072  1.00  0.00     0.334 C 
HETATM    6  N2  UNL     1      10.940  15.521  13.674  1.00  0.00    -0.256 N 
HETATM    7  O3  UNL     1      11.721  16.496  11.878  1.00  0.00    -0.246 OA
HETATM    8  C5  UNL     1      10.848  15.277  14.988  1.00  0.00     0.264 C 
HETATM    9  C4  UNL     1      10.749  16.211  16.035  1.00  0.00     0.065 A 
HETATM   10  O1  UNL     1      10.851  14.099  15.406  1.00  0.00    -0.267 OA
HETATM   11  C3  UNL     1      10.586  15.869  17.337  1.00  0.00     0.106 A 
HETATM   12  C36 UNL     1      10.839  17.599  15.928  1.00  0.00     0.071 A 
HETATM   13  N1  UNL     1      10.569  17.004  18.057  1.00  0.00    -0.368 N 
HETATM   14  C2  UNL     1      10.724  18.083  17.224  1.00  0.00     0.022 A 
ATOM     15  H1  UNL     1      10.457  17.054  19.069  1.00  0.00     0.165 HD
HETATM   16  C1  UNL     1      10.776  19.521  17.600  1.00  0.00     0.069 C 
HETATM   17  C35 UNL     1      10.985  18.330  14.789  1.00  0.00     0.264 C 
HETATM   18  O5  UNL     1      10.767  19.545  14.951  1.00  0.00    -0.267 OA
BRANCH   6  19
HETATM   19  C6  UNL     1      10.639  14.373  12.843  1.00  0.00     0.240 C 
BRANCH  19  20
HETATM   20  C7  UNL     1       9.221  14.582  12.385  1.00  0.00     0.237 C 
HETATM   21  O2  UNL     1       8.300  14.930  13.194  1.00  0.00    -0.272 OA
HETATM   22  N3  UNL     1       8.892  14.380  11.052  1.00  0.00    -0.359 N 
HETATM   23  C8  UNL     1       7.520  14.483  10.621  1.00  0.00     0.152 C 
HETATM   24  C9  UNL     1       9.961  14.104  10.093  1.00  0.00     0.152 C 
ENDBRANCH  19  20
ENDBRANCH   6  19
ENDBRANCH   3   4
ENDBRANCH   2   3
ENDBRANCH   1   2
BRANCH   1  25
HETATM   25  C14 UNL     1      14.174  20.274  14.879  1.00  0.00     0.045 C 
BRANCH  25  26
HETATM   26  C15 UNL     1      13.755  21.367  15.708  1.00  0.00     0.070 C 
BRANCH  26  27
HETATM   27  N5  UNL     1      14.811  22.155  16.318  1.00  0.00    -0.329 N 
HETATM   28  C16 UNL     1      15.722  22.851  15.692  1.00  0.00     0.021 A 
HETATM   29  C17 UNL     1      15.718  23.376  14.302  1.00  0.00     0.069 C 
HETATM   30  C18 UNL     1      16.715  23.189  16.572  1.00  0.00     0.001 A 
HETATM   31  C20 UNL     1      16.375  22.669  17.774  1.00  0.00     0.012 A 
HETATM   32  C27 UNL     1      15.153  22.017  17.631  1.00  0.00     0.051 A 
BRANCH  30  33
HETATM   33  C19 UNL     1      17.995  23.891  16.197  1.00  0.00     0.205 C 
BRANCH  33  34
HETATM   34  O4  UNL     1      17.899  25.306  16.407  1.00  0.00    -0.396 OA
ATOM     35  H4  UNL     1      18.758  25.704  16.494  1.00  0.00     0.209 HD
ENDBRANCH  33  34
ENDBRANCH  30  33
BRANCH  31  36
HETATM   36  C21 UNL     1      17.362  22.488  18.879  1.00  0.00    -0.023 A 
HETATM   37  C22 UNL     1      17.922  21.396  19.316  1.00  0.00     0.012 A 
HETATM   38  C23 UNL     1      18.726  21.396  20.469  1.00  0.00     0.001 A 
HETATM   39  C24 UNL     1      18.909  22.569  21.128  1.00  0.00     0.000 A 
HETATM   40  C25 UNL     1      18.335  23.745  20.690  1.00  0.00     0.001 A 
HETATM   41  C26 UNL     1      17.572  23.678  19.562  1.00  0.00     0.012 A 
ENDBRANCH  31  36
BRANCH  32  42
HETATM   42  C28 UNL     1      14.336  21.438  18.712  1.00  0.00     0.042 C 
BRANCH  42  43
HETATM   43  C29 UNL     1      14.262  20.014  18.952  1.00  0.00    -0.034 A 
HETATM   44  C30 UNL     1      14.800  19.057  18.128  1.00  0.00     0.011 A 
HETATM   45  C31 UNL     1      14.601  17.718  18.312  1.00  0.00     0.001 A 
HETATM   46  C32 UNL     1      13.825  17.270  19.376  1.00  0.00     0.000 A 
HETATM   47  C33 UNL     1      13.267  18.182  20.232  1.00  0.00     0.001 A 
HETATM   48  C34 UNL     1      13.477  19.525  20.027  1.00  0.00     0.011 A 
ENDBRANCH  42  43
ENDBRANCH  32  42
ENDBRANCH  26  27
ENDBRANCH  25  26
ENDBRANCH   1  25
TORSDOF 13
ENDMDL
MODEL 5
REMARK VINA RESULT: -8.921421687      1.605      3.770
REMARK  13 active torsions:
REMARK  status: ('A' for Active; 'I' for Inactive)
REMARK    1  A    between atoms: N2_9  and  C6_10 
REMARK    2  A    between atoms: C6_10  and  C7_11 
REMARK       I    between atoms: C7_11  and  N3_13 
REMARK    3  A    between atoms: N4_18  and  C11_19 
REMARK    4  A    between atoms: C11_19  and  C12_20 
REMARK    5  A    between atoms: C12_20  and  C13_21 
REMARK    6  A    between atoms: C13_21  and  C14_22 
REMARK    7  A    between atoms: C14_22  and  C15_23 
REMARK    8  A    between atoms: C15_23  and  N5_24 
REMARK    9  A    between atoms: C18_27  and  C19_28 
REMARK   10  A    between atoms: C19_28  and  O4_29 
REMARK   11  A    between atoms: C20_31  and  C21_32 
REMARK   12  A    between atoms: C27_38  and  C28_39 
REMARK   13  A    between atoms: C28_39  and  C29_40 
ROOT
HETATM    1  C13 UNL     1      14.584  21.144  13.384  1.00  0.00     0.007 C 
ENDROOT
BRANCH   1   2
HETATM    2  C12 UNL     1      13.683  20.425  14.375  1.00  0.00     0.021 C 
BRANCH   2   3
HETATM    3  C11 UNL     1      12.208  20.576  14.140  1.00  0.00     0.137 C 
BRANCH   3   4
HETATM    4  N4  UNL     1      11.557  19.272  14.220  1.00  0.00    -0.265 N 
HETATM    5  C10 UNL     1      11.522  18.527  13.119  1.00  0.00     0.334 C 
HETATM    6  N2  UNL     1      11.033  17.275  12.916  1.00  0.00    -0.256 N 
HETATM    7  O3  UNL     1      12.019  19.029  12.058  1.00  0.00    -0.246 OA
HETATM    8  C5  UNL     1      10.814  16.327  13.836  1.00  0.00     0.264 C 
HETATM    9  C4  UNL     1      10.680  16.486  15.228  1.00  0.00     0.065 A 
HETATM   10  O1  UNL     1      10.714  15.131  13.487  1.00  0.00    -0.267 OA
HETATM   11  C3  UNL     1      10.386  15.472  16.077  1.00  0.00     0.106 A 
HETATM   12  C36 UNL     1      10.857  17.663  15.954  1.00  0.00     0.071 A 
HETATM   13  N1  UNL     1      10.372  15.975  17.323  1.00  0.00    -0.368 N 
HETATM   14  C2  UNL     1      10.659  17.316  17.283  1.00  0.00     0.022 A 
ATOM     15  H1  UNL     1      10.177  15.441  18.169  1.00  0.00     0.165 HD
HETATM   16  C1  UNL     1      10.761  18.258  18.429  1.00  0.00     0.069 C 
HETATM   17  C35 UNL     1      11.142  18.901  15.462  1.00  0.00     0.264 C 
HETATM   18  O5  UNL     1      10.980  19.812  16.295  1.00  0.00    -0.267 OA
BRANCH   6  19
HETATM   19  C6  UNL     1      10.739  16.856  11.561  1.00  0.00     0.240 C 
BRANCH  19  20
HETATM   20  C7  UNL     1       9.252  17.037  11.408  1.00  0.00     0.237 C 
HETATM   21  O2  UNL     1       8.674  18.127  11.727  1.00  0.00    -0.272 OA
HETATM   22  N3  UNL     1       8.479  15.992  10.922  1.00  0.00    -0.359 N 
HETATM   23  C8  UNL     1       7.044  16.121  10.863  1.00  0.00     0.152 C 
HETATM   24  C9  UNL     1       9.145  14.784  10.437  1.00  0.00     0.152 C 
ENDBRANCH  19  20
ENDBRANCH   6  19
ENDBRANCH   3   4
ENDBRANCH   2   3
ENDBRANCH   1   2
BRANCH   1  25
HETATM   25  C14 UNL     1      15.684  21.859  14.200  1.00  0.00     0.045 C 
BRANCH  25  26
HETATM   26  C15 UNL     1      15.213  23.092  14.764  1.00  0.00     0.070 C 
BRANCH  26  27
HETATM   27  N5  UNL     1      16.073  23.719  15.752  1.00  0.00    -0.329 N 
HETATM   28  C16 UNL     1      17.167  24.392  15.515  1.00  0.00     0.021 A 
HETATM   29  C17 UNL     1      17.615  25.053  14.261  1.00  0.00     0.069 C 
HETATM   30  C18 UNL     1      17.861  24.552  16.683  1.00  0.00     0.001 A 
HETATM   31  C20 UNL     1      17.145  23.945  17.658  1.00  0.00     0.012 A 
HETATM   32  C27 UNL     1      15.991  23.420  17.080  1.00  0.00     0.051 A 
BRANCH  30  33
HETATM   33  C19 UNL     1      19.229  25.174  16.794  1.00  0.00     0.205 C 
BRANCH  33  34
HETATM   34  O4  UNL     1      20.263  24.228  16.490  1.00  0.00    -0.396 OA
ATOM     35  H4  UNL     1      20.814  24.060  17.246  1.00  0.00     0.209 HD
ENDBRANCH  33  34
ENDBRANCH  30  33
BRANCH  31  36
HETATM   36  C21 UNL     1      17.736  23.567  18.975  1.00  0.00    -0.023 A 
HETATM   37  C22 UNL     1      17.967  24.309  20.021  1.00  0.00     0.012 A 
HETATM   38  C23 UNL     1      18.666  23.811  21.133  1.00  0.00     0.001 A 
HETATM   39  C24 UNL     1      19.105  22.526  21.096  1.00  0.00     0.000 A 
HETATM   40  C25 UNL     1      18.874  21.710  20.007  1.00  0.00     0.001 A 
HETATM   41  C26 UNL     1      18.183  22.253  18.963  1.00  0.00     0.012 A 
ENDBRANCH  31  36
BRANCH  32  42
HETATM   42  C28 UNL     1      14.854  22.808  17.790  1.00  0.00     0.042 C 
BRANCH  42  43
HETATM   43  C29 UNL     1      14.829  21.409  18.156  1.00  0.00    -0.034 A 
HETATM   44  C30 UNL     1      15.427  20.405  17.436  1.00  0.00     0.011 A 
HETATM   45  C31 UNL     1      15.274  19.081  17.736  1.00  0.00     0.001 A 
HETATM   46  C32 UNL     1      14.487  18.699  18.817  1.00  0.00     0.000 A 
HETATM   47  C33 UNL     1      13.871  19.660  19.573  1.00  0.00     0.001 A 
HETATM   48  C34 UNL     1      14.034  20.987  19.252  1.00  0.00     0.011 A 
ENDBRANCH  42  43
ENDBRANCH  32  42
ENDBRANCH  26  27
ENDBRANCH  25  26
ENDBRANCH   1  25
TORSDOF 13
ENDMDL
