MODEL 1
REMARK VINA RESULT: -9.184463146      0.000      0.000
REMARK  14 active torsions:
REMARK  status: ('A' for Active; 'I' for Inactive)
REMARK    1  A    between atoms: C15_16  and  O2_17 
REMARK    2  A    between atoms: O2_17  and  C16_18 
REMARK    3  A    between atoms: C16_18  and  C17_20 
REMARK    4  A    between atoms: C17_20  and  C18_21 
REMARK    5  A    between atoms: C18_21  and  N1_22 
REMARK       I    between atoms: N1_22  and  C19_23 
REMARK    6  A    between atoms: C19_23  and  C20_25 
REMARK    7  A    between atoms: C20_25  and  C21_26 
REMARK    8  A    between atoms: C21_26  and  C22_27 
REMARK    9  A    between atoms: C22_27  and  C23_28 
REMARK   10  A    between atoms: C23_28  and  C24_29 
REMARK   11  A    between atoms: C24_29  and  C25_30 
REMARK   12  A    between atoms: C25_30  and  C26_31 
REMARK       I    between atoms: N2_32  and  C27_34 
REMARK   13  A    between atoms: C27_34  and  C28_36 
REMARK   14  A    between atoms: C34_46  and  O8_47 
ROOT
HETATM    1  C28 UNL     1      11.072  16.128  16.793  1.00  0.00     0.226 C 
HETATM    2  C29 UNL     1       9.811  16.119  16.066  1.00  0.00     0.068 C 
HETATM    3  N3  UNL     1       8.796  16.084  15.475  1.00  0.00    -0.197 NA
ENDROOT
BRANCH   1   4
HETATM    4  C27 UNL     1      10.821  15.655  18.176  1.00  0.00     0.234 C 
HETATM    5  N2  UNL     1      11.326  16.316  19.302  1.00  0.00    -0.340 N 
HETATM    6  C26 UNL     1      12.119  17.314  19.188  1.00  0.00     0.064 C 
ATOM      7  H2  UNL     1      11.057  15.996  20.232  1.00  0.00     0.167 HD
HETATM    8  O5  UNL     1      10.132  14.621  18.376  1.00  0.00    -0.272 OA
BRANCH   6   9
HETATM    9  C25 UNL     1      12.581  17.918  20.479  1.00  0.00     0.044 C 
BRANCH   9  10
HETATM   10  C24 UNL     1      13.831  18.757  20.166  1.00  0.00     0.005 C 
BRANCH  10  11
HETATM   11  C23 UNL     1      13.802  19.068  18.692  1.00  0.00     0.000 C 
BRANCH  11  12
HETATM   12  C22 UNL     1      14.271  20.499  18.496  1.00  0.00     0.001 C 
BRANCH  12  13
HETATM   13  C21 UNL     1      15.647  20.683  18.997  1.00  0.00     0.010 C 
BRANCH  13  14
HETATM   14  C20 UNL     1      16.737  20.333  18.086  1.00  0.00     0.119 C 
BRANCH  14  15
HETATM   15  C19 UNL     1      17.916  21.316  18.176  1.00  0.00     0.291 C 
HETATM   16  N1  UNL     1      17.943  22.253  17.234  1.00  0.00    -0.383 NA
HETATM   17  O4  UNL     1      18.727  21.096  19.154  1.00  0.00    -0.257 OA
BRANCH  16  18
HETATM   18  C18 UNL     1      17.977  23.225  16.259  1.00  0.00     0.192 C 
BRANCH  18  19
HETATM   19  C17 UNL     1      16.765  24.049  16.104  1.00  0.00     0.114 C 
BRANCH  19  20
HETATM   20  C16 UNL     1      15.466  23.601  16.536  1.00  0.00     0.286 C 
HETATM   21  O3  UNL     1      14.998  23.873  17.678  1.00  0.00    -0.260 OA
BRANCH  20  22
HETATM   22  O2  UNL     1      14.596  22.834  15.776  1.00  0.00    -0.297 OA
BRANCH  22  23
HETATM   23  C15 UNL     1      14.202  23.014  14.461  1.00  0.00     0.254 C 
HETATM   24  C14 UNL     1      12.691  22.858  14.299  1.00  0.00     0.049 C 
HETATM   25  C13 UNL     1      12.223  21.456  14.415  1.00  0.00     0.010 C 
HETATM   26  C12 UNL     1      13.065  20.423  13.752  1.00  0.00     0.013 C 
HETATM   27  C11 UNL     1      13.896  20.860  12.630  1.00  0.00     0.116 C 
HETATM   28  C30 UNL     1      12.223  19.210  13.409  1.00  0.00    -0.034 C 
HETATM   29  C10 UNL     1      14.807  19.718  12.269  1.00  0.00     0.021 C 
HETATM   30  S1  UNL     1      15.064  22.125  13.218  1.00  0.00     0.176 S 
HETATM   31  C9  UNL     1      14.152  18.422  11.988  1.00  0.00     0.008 C 
HETATM   32  C8  UNL     1      12.993  18.061  12.855  1.00  0.00     0.009 C 
HETATM   33  C6  UNL     1      12.182  16.988  12.162  1.00  0.00     0.010 C 
HETATM   34  C5  UNL     1      12.943  16.361  11.059  1.00  0.00    -0.010 C 
HETATM   35  C7  UNL     1      11.937  15.812  13.140  1.00  0.00     0.023 C 
HETATM   36  C34 UNL     1      10.840  17.438  11.703  1.00  0.00     0.079 C 
HETATM   37  C4  UNL     1      12.378  15.662  10.112  1.00  0.00     0.047 C 
HETATM   38  C3  UNL     1      10.926  15.503  10.157  1.00  0.00     0.155 C 
HETATM   39  C2  UNL     1      10.176  16.681  10.617  1.00  0.00     0.091 C 
HETATM   40  O1  UNL     1      10.379  14.421   9.820  1.00  0.00    -0.293 OA
HETATM   41  C1  UNL     1       9.889  17.509   9.364  1.00  0.00     0.021 C 
HETATM   42  C33 UNL     1      10.887  18.904  11.287  1.00  0.00     0.040 C 
HETATM   43  C32 UNL     1      11.092  19.679  12.570  1.00  0.00     0.013 C 
HETATM   44  O6  UNL     1      15.358  22.964  12.009  1.00  0.00    -0.225 OA
HETATM   45  O7  UNL     1      16.341  21.539  13.655  1.00  0.00    -0.225 OA
HETATM   46  C31 UNL     1      11.663  18.806  14.797  1.00  0.00     0.016 C 
BRANCH  36  47
HETATM   47  O8  UNL     1       9.891  17.420  12.774  1.00  0.00    -0.388 OA
ATOM     48  H8  UNL     1       9.696  18.337  12.928  1.00  0.00     0.210 HD
ENDBRANCH  36  47
ENDBRANCH  22  23
ENDBRANCH  20  22
ENDBRANCH  19  20
ENDBRANCH  18  19
ENDBRANCH  16  18
ENDBRANCH  14  15
ENDBRANCH  13  14
ENDBRANCH  12  13
ENDBRANCH  11  12
ENDBRANCH  10  11
ENDBRANCH   9  10
ENDBRANCH   6   9
ENDBRANCH   1   4
TORSDOF 14
ENDMDL
MODEL 2
REMARK VINA RESULT: -9.098897846      1.420      1.937
REMARK  14 active torsions:
REMARK  status: ('A' for Active; 'I' for Inactive)
REMARK    1  A    between atoms: C15_16  and  O2_17 
REMARK    2  A    between atoms: O2_17  and  C16_18 
REMARK    3  A    between atoms: C16_18  and  C17_20 
REMARK    4  A    between atoms: C17_20  and  C18_21 
REMARK    5  A    between atoms: C18_21  and  N1_22 
REMARK       I    between atoms: N1_22  and  C19_23 
REMARK    6  A    between atoms: C19_23  and  C20_25 
REMARK    7  A    between atoms: C20_25  and  C21_26 
REMARK    8  A    between atoms: C21_26  and  C22_27 
REMARK    9  A    between atoms: C22_27  and  C23_28 
REMARK   10  A    between atoms: C23_28  and  C24_29 
REMARK   11  A    between atoms: C24_29  and  C25_30 
REMARK   12  A    between atoms: C25_30  and  C26_31 
REMARK       I    between atoms: N2_32  and  C27_34 
REMARK   13  A    between atoms: C27_34  and  C28_36 
REMARK   14  A    between atoms: C34_46  and  O8_47 
ROOT
HETATM    1  C28 UNL     1      11.999  16.932  18.321  1.00  0.00     0.226 C 
HETATM    2  C29 UNL     1      10.737  16.325  17.922  1.00  0.00     0.068 C 
HETATM    3  N3  UNL     1       9.716  15.824  17.625  1.00  0.00    -0.197 NA
ENDROOT
BRANCH   1   4
HETATM    4  C27 UNL     1      11.704  18.160  19.098  1.00  0.00     0.234 C 
HETATM    5  N2  UNL     1      12.369  19.372  18.872  1.00  0.00    -0.340 N 
HETATM    6  C26 UNL     1      13.340  19.454  18.043  1.00  0.00     0.064 C 
ATOM      7  H2  UNL     1      12.072  20.206  19.378  1.00  0.00     0.167 HD
HETATM    8  O5  UNL     1      10.831  18.142  20.004  1.00  0.00    -0.272 OA
BRANCH   6   9
HETATM    9  C25 UNL     1      13.956  20.813  17.909  1.00  0.00     0.044 C 
BRANCH   9  10
HETATM   10  C24 UNL     1      15.174  20.855  18.847  1.00  0.00     0.005 C 
BRANCH  10  11
HETATM   11  C23 UNL     1      16.293  20.117  18.157  1.00  0.00     0.000 C 
BRANCH  11  12
HETATM   12  C22 UNL     1      17.563  20.938  18.295  1.00  0.00     0.001 C 
BRANCH  12  13
HETATM   13  C21 UNL     1      17.636  21.590  19.617  1.00  0.00     0.010 C 
BRANCH  13  14
HETATM   14  C20 UNL     1      18.747  22.516  19.839  1.00  0.00     0.119 C 
BRANCH  14  15
HETATM   15  C19 UNL     1      18.270  23.962  20.060  1.00  0.00     0.291 C 
HETATM   16  N1  UNL     1      17.511  24.461  19.090  1.00  0.00    -0.383 NA
HETATM   17  O4  UNL     1      18.676  24.501  21.159  1.00  0.00    -0.257 OA
BRANCH  16  18
HETATM   18  C18 UNL     1      16.727  24.983  18.086  1.00  0.00     0.192 C 
BRANCH  18  19
HETATM   19  C17 UNL     1      15.724  24.081  17.492  1.00  0.00     0.114 C 
BRANCH  19  20
HETATM   20  C16 UNL     1      15.710  23.757  16.088  1.00  0.00     0.286 C 
HETATM   21  O3  UNL     1      16.623  24.129  15.296  1.00  0.00    -0.260 OA
BRANCH  20  22
HETATM   22  O2  UNL     1      14.720  23.026  15.450  1.00  0.00    -0.297 OA
BRANCH  22  23
HETATM   23  C15 UNL     1      14.295  23.102  14.135  1.00  0.00     0.254 C 
HETATM   24  C14 UNL     1      12.778  22.968  14.024  1.00  0.00     0.049 C 
HETATM   25  C13 UNL     1      12.285  21.591  14.270  1.00  0.00     0.010 C 
HETATM   26  C12 UNL     1      13.088  20.487  13.678  1.00  0.00     0.013 C 
HETATM   27  C11 UNL     1      13.898  20.808  12.503  1.00  0.00     0.116 C 
HETATM   28  C30 UNL     1      12.213  19.268  13.461  1.00  0.00    -0.034 C 
HETATM   29  C10 UNL     1      14.776  19.619  12.219  1.00  0.00     0.021 C 
HETATM   30  S1  UNL     1      15.107  22.092  12.952  1.00  0.00     0.176 S 
HETATM   31  C9  UNL     1      14.088  18.319  12.066  1.00  0.00     0.008 C 
HETATM   32  C8  UNL     1      12.945  18.059  12.988  1.00  0.00     0.009 C 
HETATM   33  C6  UNL     1      12.094  16.950  12.409  1.00  0.00     0.010 C 
HETATM   34  C5  UNL     1      12.814  16.214  11.346  1.00  0.00    -0.010 C 
HETATM   35  C7  UNL     1      11.851  15.867  13.490  1.00  0.00     0.023 C 
HETATM   36  C34 UNL     1      10.750  17.389  11.946  1.00  0.00     0.079 C 
HETATM   37  C4  UNL     1      12.209  15.450  10.476  1.00  0.00     0.047 C 
HETATM   38  C3  UNL     1      10.756  15.328  10.570  1.00  0.00     0.155 C 
HETATM   39  C2  UNL     1      10.043  16.557  10.945  1.00  0.00     0.091 C 
HETATM   40  O1  UNL     1      10.178  14.234  10.339  1.00  0.00    -0.293 OA
HETATM   41  C1  UNL     1       9.740  17.282   9.633  1.00  0.00     0.021 C 
HETATM   42  C33 UNL     1      10.816  18.813  11.406  1.00  0.00     0.040 C 
HETATM   43  C32 UNL     1      11.070  19.690  12.612  1.00  0.00     0.013 C 
HETATM   44  O6  UNL     1      15.386  22.818  11.669  1.00  0.00    -0.225 OA
HETATM   45  O7  UNL     1      16.382  21.516  13.407  1.00  0.00    -0.225 OA
HETATM   46  C31 UNL     1      11.681  18.996  14.891  1.00  0.00     0.016 C 
BRANCH  36  47
HETATM   47  O8  UNL     1       9.829  17.484  13.038  1.00  0.00    -0.388 OA
ATOM     48  H8  UNL     1       9.039  17.837  12.646  1.00  0.00     0.210 HD
ENDBRANCH  36  47
ENDBRANCH  22  23
ENDBRANCH  20  22
ENDBRANCH  19  20
ENDBRANCH  18  19
ENDBRANCH  16  18
ENDBRANCH  14  15
ENDBRANCH  13  14
ENDBRANCH  12  13
ENDBRANCH  11  12
ENDBRANCH  10  11
ENDBRANCH   9  10
ENDBRANCH   6   9
ENDBRANCH   1   4
TORSDOF 14
ENDMDL
MODEL 3
REMARK VINA RESULT: -8.523486831      4.413     11.775
REMARK  14 active torsions:
REMARK  status: ('A' for Active; 'I' for Inactive)
REMARK    1  A    between atoms: C15_16  and  O2_17 
REMARK    2  A    between atoms: O2_17  and  C16_18 
REMARK    3  A    between atoms: C16_18  and  C17_20 
REMARK    4  A    between atoms: C17_20  and  C18_21 
REMARK    5  A    between atoms: C18_21  and  N1_22 
REMARK       I    between atoms: N1_22  and  C19_23 
REMARK    6  A    between atoms: C19_23  and  C20_25 
REMARK    7  A    between atoms: C20_25  and  C21_26 
REMARK    8  A    between atoms: C21_26  and  C22_27 
REMARK    9  A    between atoms: C22_27  and  C23_28 
REMARK   10  A    between atoms: C23_28  and  C24_29 
REMARK   11  A    between atoms: C24_29  and  C25_30 
REMARK   12  A    between atoms: C25_30  and  C26_31 
REMARK       I    between atoms: N2_32  and  C27_34 
REMARK   13  A    between atoms: C27_34  and  C28_36 
REMARK   14  A    between atoms: C34_46  and  O8_47 
ROOT
HETATM    1  C28 UNL     1      18.298  25.021  14.657  1.00  0.00     0.226 C 
HETATM    2  C29 UNL     1      19.070  26.246  14.511  1.00  0.00     0.068 C 
HETATM    3  N3  UNL     1      19.674  27.245  14.376  1.00  0.00    -0.197 NA
ENDROOT
BRANCH   1   4
HETATM    4  C27 UNL     1      17.253  25.244  15.685  1.00  0.00     0.234 C 
HETATM    5  N2  UNL     1      15.962  24.714  15.574  1.00  0.00    -0.340 N 
HETATM    6  C26 UNL     1      15.588  24.086  14.523  1.00  0.00     0.064 C 
ATOM      7  H2  UNL     1      15.307  24.830  16.347  1.00  0.00     0.167 HD
HETATM    8  O5  UNL     1      17.506  25.936  16.705  1.00  0.00    -0.272 OA
BRANCH   6   9
HETATM    9  C25 UNL     1      14.179  23.578  14.547  1.00  0.00     0.044 C 
BRANCH   9  10
HETATM   10  C24 UNL     1      14.020  22.625  13.351  1.00  0.00     0.005 C 
BRANCH  10  11
HETATM   11  C23 UNL     1      12.698  22.941  12.701  1.00  0.00     0.000 C 
BRANCH  11  12
HETATM   12  C22 UNL     1      11.646  22.012  13.281  1.00  0.00     0.001 C 
BRANCH  12  13
HETATM   13  C21 UNL     1      12.064  20.601  13.178  1.00  0.00     0.010 C 
BRANCH  13  14
HETATM   14  C20 UNL     1      11.485  19.665  14.143  1.00  0.00     0.119 C 
BRANCH  14  15
HETATM   15  C19 UNL     1      11.545  20.199  15.585  1.00  0.00     0.291 C 
HETATM   16  N1  UNL     1      12.768  20.348  16.082  1.00  0.00    -0.383 NA
HETATM   17  O4  UNL     1      10.394  20.426  16.122  1.00  0.00    -0.257 OA
BRANCH  16  18
HETATM   18  C18 UNL     1      14.033  20.502  16.603  1.00  0.00     0.192 C 
BRANCH  18  19
HETATM   19  C17 UNL     1      14.192  21.507  17.670  1.00  0.00     0.114 C 
BRANCH  19  20
HETATM   20  C16 UNL     1      14.751  21.184  18.958  1.00  0.00     0.286 C 
HETATM   21  O3  UNL     1      14.109  20.540  19.836  1.00  0.00    -0.260 OA
BRANCH  20  22
HETATM   22  O2  UNL     1      16.023  21.535  19.383  1.00  0.00    -0.297 OA
BRANCH  22  23
HETATM   23  C15 UNL     1      17.238  20.958  19.057  1.00  0.00     0.254 C 
HETATM   24  C14 UNL     1      18.154  20.846  20.273  1.00  0.00     0.049 C 
HETATM   25  C13 UNL     1      18.711  22.146  20.720  1.00  0.00     0.010 C 
HETATM   26  C12 UNL     1      19.155  23.076  19.647  1.00  0.00     0.013 C 
HETATM   27  C11 UNL     1      19.537  22.482  18.366  1.00  0.00     0.116 C 
HETATM   28  C30 UNL     1      20.212  24.020  20.184  1.00  0.00    -0.034 C 
HETATM   29  C10 UNL     1      19.734  23.607  17.385  1.00  0.00     0.021 C 
HETATM   30  S1  UNL     1      18.104  21.601  17.672  1.00  0.00     0.176 S 
HETATM   31  C9  UNL     1      20.674  24.674  17.792  1.00  0.00     0.008 C 
HETATM   32  C8  UNL     1      20.638  25.080  19.227  1.00  0.00     0.009 C 
HETATM   33  C6  UNL     1      21.925  25.802  19.561  1.00  0.00     0.010 C 
HETATM   34  C5  UNL     1      22.647  26.218  18.338  1.00  0.00    -0.010 C 
HETATM   35  C7  UNL     1      21.597  27.147  20.257  1.00  0.00     0.023 C 
HETATM   36  C34 UNL     1      22.820  25.058  20.488  1.00  0.00     0.079 C 
HETATM   37  C4  UNL     1      23.909  26.551  18.336  1.00  0.00     0.047 C 
HETATM   38  C3  UNL     1      24.628  26.505  19.608  1.00  0.00     0.155 C 
HETATM   39  C2  UNL     1      24.261  25.395  20.500  1.00  0.00     0.091 C 
HETATM   40  O1  UNL     1      25.498  27.367  19.895  1.00  0.00    -0.293 OA
HETATM   41  C1  UNL     1      25.178  24.232  20.119  1.00  0.00     0.021 C 
HETATM   42  C33 UNL     1      22.695  23.556  20.253  1.00  0.00     0.040 C 
HETATM   43  C32 UNL     1      21.310  23.187  20.737  1.00  0.00     0.013 C 
HETATM   44  O6  UNL     1      18.698  20.523  16.814  1.00  0.00    -0.225 OA
HETATM   45  O7  UNL     1      17.301  22.460  16.789  1.00  0.00    -0.225 OA
HETATM   46  C31 UNL     1      19.470  24.692  21.367  1.00  0.00     0.016 C 
BRANCH  36  47
HETATM   47  O8  UNL     1      22.410  25.221  21.850  1.00  0.00    -0.388 OA
ATOM     48  H8  UNL     1      22.368  24.335  22.189  1.00  0.00     0.210 HD
ENDBRANCH  36  47
ENDBRANCH  22  23
ENDBRANCH  20  22
ENDBRANCH  19  20
ENDBRANCH  18  19
ENDBRANCH  16  18
ENDBRANCH  14  15
ENDBRANCH  13  14
ENDBRANCH  12  13
ENDBRANCH  11  12
ENDBRANCH  10  11
ENDBRANCH   9  10
ENDBRANCH   6   9
ENDBRANCH   1   4
TORSDOF 14
ENDMDL
MODEL 4
REMARK VINA RESULT: -8.467052242      3.448      5.742
REMARK  14 active torsions:
REMARK  status: ('A' for Active; 'I' for Inactive)
REMARK    1  A    between atoms: C15_16  and  O2_17 
REMARK    2  A    between atoms: O2_17  and  C16_18 
REMARK    3  A    between atoms: C16_18  and  C17_20 
REMARK    4  A    between atoms: C17_20  and  C18_21 
REMARK    5  A    between atoms: C18_21  and  N1_22 
REMARK       I    between atoms: N1_22  and  C19_23 
REMARK    6  A    between atoms: C19_23  and  C20_25 
REMARK    7  A    between atoms: C20_25  and  C21_26 
REMARK    8  A    between atoms: C21_26  and  C22_27 
REMARK    9  A    between atoms: C22_27  and  C23_28 
REMARK   10  A    between atoms: C23_28  and  C24_29 
REMARK   11  A    between atoms: C24_29  and  C25_30 
REMARK   12  A    between atoms: C25_30  and  C26_31 
REMARK       I    between atoms: N2_32  and  C27_34 
REMARK   13  A    between atoms: C27_34  and  C28_36 
REMARK   14  A    between atoms: C34_46  and  O8_47 
ROOT
HETATM    1  C28 UNL     1      11.848  17.555  18.260  1.00  0.00     0.226 C 
HETATM    2  C29 UNL     1      11.164  18.333  17.238  1.00  0.00     0.068 C 
HETATM    3  N3  UNL     1      10.589  18.959  16.426  1.00  0.00    -0.197 NA
ENDROOT
BRANCH   1   4
HETATM    4  C27 UNL     1      12.155  18.448  19.404  1.00  0.00     0.234 C 
HETATM    5  N2  UNL     1      13.388  19.095  19.544  1.00  0.00    -0.340 N 
HETATM    6  C26 UNL     1      14.355  18.868  18.736  1.00  0.00     0.064 C 
ATOM      7  H2  UNL     1      13.519  19.761  20.305  1.00  0.00     0.167 HD
HETATM    8  O5  UNL     1      11.294  18.648  20.299  1.00  0.00    -0.272 OA
BRANCH   6   9
HETATM    9  C25 UNL     1      15.615  19.631  19.013  1.00  0.00     0.044 C 
BRANCH   9  10
HETATM   10  C24 UNL     1      15.200  21.024  19.514  1.00  0.00     0.005 C 
BRANCH  10  11
HETATM   11  C23 UNL     1      16.464  21.820  19.714  1.00  0.00     0.000 C 
BRANCH  11  12
HETATM   12  C22 UNL     1      17.647  20.937  19.358  1.00  0.00     0.001 C 
BRANCH  12  13
HETATM   13  C21 UNL     1      18.913  21.521  19.840  1.00  0.00     0.010 C 
BRANCH  13  14
HETATM   14  C20 UNL     1      18.815  22.713  20.683  1.00  0.00     0.119 C 
BRANCH  14  15
HETATM   15  C19 UNL     1      19.972  22.816  21.691  1.00  0.00     0.291 C 
HETATM   16  N1  UNL     1      20.501  24.028  21.822  1.00  0.00    -0.383 NA
HETATM   17  O4  UNL     1      20.280  21.707  22.272  1.00  0.00    -0.257 OA
BRANCH  16  18
HETATM   18  C18 UNL     1      21.054  25.282  21.960  1.00  0.00     0.192 C 
BRANCH  18  19
HETATM   19  C17 UNL     1      20.900  26.202  20.818  1.00  0.00     0.114 C 
BRANCH  19  20
HETATM   20  C16 UNL     1      20.955  25.752  19.451  1.00  0.00     0.286 C 
HETATM   21  O3  UNL     1      22.045  25.527  18.852  1.00  0.00    -0.260 OA
BRANCH  20  22
HETATM   22  O2  UNL     1      19.850  25.524  18.644  1.00  0.00    -0.297 OA
BRANCH  22  23
HETATM   23  C15 UNL     1      19.774  25.505  17.262  1.00  0.00     0.254 C 
HETATM   24  C14 UNL     1      18.575  26.301  16.752  1.00  0.00     0.049 C 
HETATM   25  C13 UNL     1      17.273  25.634  16.992  1.00  0.00     0.010 C 
HETATM   26  C12 UNL     1      17.232  24.165  16.760  1.00  0.00     0.013 C 
HETATM   27  C11 UNL     1      18.213  23.610  15.827  1.00  0.00     0.116 C 
HETATM   28  C30 UNL     1      15.817  23.730  16.436  1.00  0.00    -0.034 C 
HETATM   29  C10 UNL     1      18.128  22.110  15.918  1.00  0.00     0.021 C 
HETATM   30  S1  UNL     1      19.886  23.949  16.457  1.00  0.00     0.176 S 
HETATM   31  C9  UNL     1      16.789  21.516  15.715  1.00  0.00     0.008 C 
HETATM   32  C8  UNL     1      15.638  22.256  16.309  1.00  0.00     0.009 C 
HETATM   33  C6  UNL     1      14.363  21.795  15.635  1.00  0.00     0.010 C 
HETATM   34  C5  UNL     1      14.569  20.533  14.892  1.00  0.00    -0.010 C 
HETATM   35  C7  UNL     1      13.319  21.409  16.712  1.00  0.00     0.023 C 
HETATM   36  C34 UNL     1      13.719  22.827  14.778  1.00  0.00     0.079 C 
HETATM   37  C4  UNL     1      13.746  20.107  13.972  1.00  0.00     0.047 C 
HETATM   38  C3  UNL     1      12.573  20.927  13.674  1.00  0.00     0.155 C 
HETATM   39  C2  UNL     1      12.794  22.380  13.711  1.00  0.00     0.091 C 
HETATM   40  O1  UNL     1      11.462  20.401  13.407  1.00  0.00    -0.293 OA
HETATM   41  C1  UNL     1      13.231  22.772  12.300  1.00  0.00     0.021 C 
HETATM   42  C33 UNL     1      14.777  23.716  14.134  1.00  0.00     0.040 C 
HETATM   43  C32 UNL     1      15.365  24.526  15.268  1.00  0.00     0.013 C 
HETATM   44  O6  UNL     1      20.752  23.996  15.233  1.00  0.00    -0.225 OA
HETATM   45  O7  UNL     1      20.391  22.855  17.301  1.00  0.00    -0.225 OA
HETATM   46  C31 UNL     1      15.039  24.216  17.685  1.00  0.00     0.016 C 
BRANCH  36  47
HETATM   47  O8  UNL     1      12.940  23.740  15.558  1.00  0.00    -0.388 OA
ATOM     48  H8  UNL     1      13.266  24.596  15.310  1.00  0.00     0.210 HD
ENDBRANCH  36  47
ENDBRANCH  22  23
ENDBRANCH  20  22
ENDBRANCH  19  20
ENDBRANCH  18  19
ENDBRANCH  16  18
ENDBRANCH  14  15
ENDBRANCH  13  14
ENDBRANCH  12  13
ENDBRANCH  11  12
ENDBRANCH  10  11
ENDBRANCH   9  10
ENDBRANCH   6   9
ENDBRANCH   1   4
TORSDOF 14
ENDMDL
MODEL 5
REMARK VINA RESULT: -8.453956644      4.357     10.903
REMARK  14 active torsions:
REMARK  status: ('A' for Active; 'I' for Inactive)
REMARK    1  A    between atoms: C15_16  and  O2_17 
REMARK    2  A    between atoms: O2_17  and  C16_18 
REMARK    3  A    between atoms: C16_18  and  C17_20 
REMARK    4  A    between atoms: C17_20  and  C18_21 
REMARK    5  A    between atoms: C18_21  and  N1_22 
REMARK       I    between atoms: N1_22  and  C19_23 
REMARK    6  A    between atoms: C19_23  and  C20_25 
REMARK    7  A    between atoms: C20_25  and  C21_26 
REMARK    8  A    between atoms: C21_26  and  C22_27 
REMARK    9  A    between atoms: C22_27  and  C23_28 
REMARK   10  A    between atoms: C23_28  and  C24_29 
REMARK   11  A    between atoms: C24_29  and  C25_30 
REMARK   12  A    between atoms: C25_30  and  C26_31 
REMARK       I    between atoms: N2_32  and  C27_34 
REMARK   13  A    between atoms: C27_34  and  C28_36 
REMARK   14  A    between atoms: C34_46  and  O8_47 
ROOT
HETATM    1  C28 UNL     1      12.947  21.163  12.696  1.00  0.00     0.226 C 
HETATM    2  C29 UNL     1      13.904  22.123  12.167  1.00  0.00     0.068 C 
HETATM    3  N3  UNL     1      14.678  22.911  11.765  1.00  0.00    -0.197 NA
ENDROOT
BRANCH   1   4
HETATM    4  C27 UNL     1      13.690  20.124  13.450  1.00  0.00     0.234 C 
HETATM    5  N2  UNL     1      13.059  19.018  14.030  1.00  0.00    -0.340 N 
HETATM    6  C26 UNL     1      11.784  18.899  14.022  1.00  0.00     0.064 C 
ATOM      7  H2  UNL     1      13.626  18.292  14.468  1.00  0.00     0.167 HD
HETATM    8  O5  UNL     1      14.937  20.217  13.592  1.00  0.00    -0.272 OA
BRANCH   6   9
HETATM    9  C25 UNL     1      11.252  17.664  14.683  1.00  0.00     0.044 C 
BRANCH   9  10
HETATM   10  C24 UNL     1      10.896  18.043  16.131  1.00  0.00     0.005 C 
BRANCH  10  11
HETATM   11  C23 UNL     1      11.263  16.868  17.002  1.00  0.00     0.000 C 
BRANCH  11  12
HETATM   12  C22 UNL     1      10.482  16.973  18.300  1.00  0.00     0.001 C 
BRANCH  12  13
HETATM   13  C21 UNL     1      11.202  17.796  19.291  1.00  0.00     0.010 C 
BRANCH  13  14
HETATM   14  C20 UNL     1      12.618  17.492  19.501  1.00  0.00     0.119 C 
BRANCH  14  15
HETATM   15  C19 UNL     1      13.490  18.759  19.549  1.00  0.00     0.291 C 
HETATM   16  N1  UNL     1      13.303  19.611  18.547  1.00  0.00    -0.383 NA
HETATM   17  O4  UNL     1      14.292  18.822  20.557  1.00  0.00    -0.257 OA
BRANCH  16  18
HETATM   18  C18 UNL     1      13.115  20.496  17.510  1.00  0.00     0.192 C 
BRANCH  18  19
HETATM   19  C17 UNL     1      14.246  21.383  17.183  1.00  0.00     0.114 C 
BRANCH  19  20
HETATM   20  C16 UNL     1      14.809  22.302  18.139  1.00  0.00     0.286 C 
HETATM   21  O3  UNL     1      14.406  23.495  18.254  1.00  0.00    -0.260 OA
BRANCH  20  22
HETATM   22  O2  UNL     1      15.836  22.002  19.021  1.00  0.00    -0.297 OA
BRANCH  22  23
HETATM   23  C15 UNL     1      17.030  21.346  18.773  1.00  0.00     0.254 C 
HETATM   24  C14 UNL     1      17.848  21.162  20.049  1.00  0.00     0.049 C 
HETATM   25  C13 UNL     1      18.459  22.418  20.549  1.00  0.00     0.010 C 
HETATM   26  C12 UNL     1      19.039  23.323  19.521  1.00  0.00     0.013 C 
HETATM   27  C11 UNL     1      19.469  22.714  18.263  1.00  0.00     0.116 C 
HETATM   28  C30 UNL     1      20.117  24.189  20.143  1.00  0.00    -0.034 C 
HETATM   29  C10 UNL     1      19.810  23.830  17.312  1.00  0.00     0.021 C 
HETATM   30  S1  UNL     1      18.033  21.938  17.460  1.00  0.00     0.176 S 
HETATM   31  C9  UNL     1      20.790  24.827  17.797  1.00  0.00     0.008 C 
HETATM   32  C8  UNL     1      20.680  25.224  19.230  1.00  0.00     0.009 C 
HETATM   33  C6  UNL     1      21.986  25.854  19.662  1.00  0.00     0.010 C 
HETATM   34  C5  UNL     1      22.819  26.229  18.497  1.00  0.00    -0.010 C 
HETATM   35  C7  UNL     1      21.702  27.213  20.349  1.00  0.00     0.023 C 
HETATM   36  C34 UNL     1      22.761  25.044  20.640  1.00  0.00     0.079 C 
HETATM   37  C4  UNL     1      24.098  26.475  18.588  1.00  0.00     0.047 C 
HETATM   38  C3  UNL     1      24.720  26.370  19.906  1.00  0.00     0.155 C 
HETATM   39  C2  UNL     1      24.218  25.282  20.756  1.00  0.00     0.091 C 
HETATM   40  O1  UNL     1      25.624  27.169  20.264  1.00  0.00    -0.293 OA
HETATM   41  C1  UNL     1      25.079  24.062  20.427  1.00  0.00     0.021 C 
HETATM   42  C33 UNL     1      22.551  23.556  20.379  1.00  0.00     0.040 C 
HETATM   43  C32 UNL     1      21.114  23.279  20.760  1.00  0.00     0.013 C 
HETATM   44  O6  UNL     1      18.611  20.828  16.633  1.00  0.00    -0.225 OA
HETATM   45  O7  UNL     1      17.353  22.857  16.534  1.00  0.00    -0.225 OA
HETATM   46  C31 UNL     1      19.341  24.902  21.279  1.00  0.00     0.016 C 
BRANCH  36  47
HETATM   47  O8  UNL     1      22.268  25.225  21.972  1.00  0.00    -0.388 OA
ATOM     48  H8  UNL     1      21.402  24.835  21.955  1.00  0.00     0.210 HD
ENDBRANCH  36  47
ENDBRANCH  22  23
ENDBRANCH  20  22
ENDBRANCH  19  20
ENDBRANCH  18  19
ENDBRANCH  16  18
ENDBRANCH  14  15
ENDBRANCH  13  14
ENDBRANCH  12  13
ENDBRANCH  11  12
ENDBRANCH  10  11
ENDBRANCH   9  10
ENDBRANCH   6   9
ENDBRANCH   1   4
TORSDOF 14
ENDMDL
