MODEL 1
REMARK VINA RESULT: -8.916430659      0.000      0.000
REMARK  13 active torsions:
REMARK  status: ('A' for Active; 'I' for Inactive)
REMARK    1  A    between atoms: C5_6  and  C6_7 
REMARK    2  A    between atoms: C6_7  and  N2_8 
REMARK    3  A    between atoms: C8_11  and  C9_12 
REMARK    4  A    between atoms: C9_12  and  C10_13 
REMARK    5  A    between atoms: C13_16  and  O2_17 
REMARK    6  A    between atoms: C16_22  and  C17_23 
REMARK    7  A    between atoms: C21_27  and  C22_28 
REMARK    8  A    between atoms: C22_28  and  N4_29 
REMARK    9  A    between atoms: N5_37  and  C26_38 
REMARK   10  A    between atoms: C26_38  and  C27_39 
REMARK   11  A    between atoms: C27_39  and  C28_40 
REMARK   12  A    between atoms: C28_40  and  C29_41 
REMARK   13  A    between atoms: C29_41  and  C30_42 
ROOT
HETATM    1  N1  UNL     1      19.868  25.680  21.097  1.00  0.00    -0.191 NA
HETATM    2  C1  UNL     1      19.460  24.802  20.468  1.00  0.00     0.099 C 
HETATM    3  C2  UNL     1      18.962  23.693  19.663  1.00  0.00     0.044 A 
HETATM    4  C3  UNL     1      18.230  22.680  20.230  1.00  0.00     0.023 A 
HETATM    5  C4  UNL     1      17.759  21.623  19.449  1.00  0.00     0.010 A 
HETATM    6  C5  UNL     1      18.006  21.554  18.101  1.00  0.00    -0.040 A 
HETATM    7  C35 UNL     1      18.745  22.584  17.550  1.00  0.00     0.010 A 
HETATM    8  C36 UNL     1      19.215  23.634  18.311  1.00  0.00     0.023 A 
ENDROOT
BRANCH   6   9
HETATM    9  C6  UNL     1      17.537  20.458  17.234  1.00  0.00     0.169 C 
BRANCH   9  10
HETATM   10  N2  UNL     1      16.165  20.576  16.804  1.00  0.00    -0.288 N 
HETATM   11  C7  UNL     1      15.113  19.676  17.230  1.00  0.00     0.247 C 
HETATM   12  O1  UNL     1      15.222  18.753  18.072  1.00  0.00    -0.271 OA
HETATM   13  C8  UNL     1      13.874  20.019  16.508  1.00  0.00     0.185 C 
HETATM   14  N3  UNL     1      14.306  21.002  15.605  1.00  0.00    -0.319 N 
HETATM   15  C16 UNL     1      13.670  21.247  14.423  1.00  0.00     0.103 C 
HETATM   16  C24 UNL     1      15.562  21.540  15.907  1.00  0.00     0.310 C 
HETATM   17  O3  UNL     1      16.410  21.662  14.811  1.00  0.00    -0.316 OA
HETATM   18  C34 UNL     1      15.399  22.884  16.477  1.00  0.00     0.300 C 
HETATM   19  C25 UNL     1      16.608  22.980  14.514  1.00  0.00     0.301 C 
HETATM   20  N5  UNL     1      15.796  23.767  15.411  1.00  0.00    -0.325 N 
HETATM   21  O4  UNL     1      15.021  23.318  17.586  1.00  0.00    -0.265 OA
BRANCH  13  22
HETATM   22  C9  UNL     1      12.736  20.398  17.383  1.00  0.00     0.073 C 
BRANCH  22  23
HETATM   23  C10 UNL     1      11.815  19.309  17.759  1.00  0.00    -0.056 A 
HETATM   24  C11 UNL     1      11.015  18.736  16.766  1.00  0.00     0.010 A 
HETATM   25  C12 UNL     1      10.124  17.737  17.074  1.00  0.00     0.037 A 
HETATM   26  C13 UNL     1      10.005  17.274  18.391  1.00  0.00     0.065 A 
HETATM   27  C14 UNL     1      10.788  17.831  19.376  1.00  0.00     0.037 A 
HETATM   28  C15 UNL     1      11.676  18.832  19.054  1.00  0.00     0.010 A 
BRANCH  26  29
HETATM   29  O2  UNL     1       9.101  16.263  18.693  1.00  0.00    -0.361 OA
ATOM     30  H2  UNL     1       8.545  16.336  19.460  1.00  0.00     0.217 HD
ENDBRANCH  26  29
ENDBRANCH  22  23
ENDBRANCH  13  22
BRANCH  15  31
HETATM   31  C17 UNL     1      13.627  20.147  13.430  1.00  0.00    -0.020 A 
HETATM   32  C18 UNL     1      14.654  19.881  12.551  1.00  0.00     0.013 A 
HETATM   33  C19 UNL     1      14.622  18.861  11.626  1.00  0.00     0.002 A 
HETATM   34  C20 UNL     1      13.501  18.065  11.581  1.00  0.00     0.009 A 
HETATM   35  C21 UNL     1      12.430  18.273  12.436  1.00  0.00    -0.032 A 
HETATM   36  C23 UNL     1      12.514  19.302  13.336  1.00  0.00     0.021 A 
BRANCH  35  37
HETATM   37  C22 UNL     1      11.230  17.389  12.357  1.00  0.00     0.268 C 
BRANCH  37  38
HETATM   38  N4  UNL     1      11.203  16.524  13.514  1.00  0.00    -0.075 N 
ATOM     39  H43 UNL     1      11.423  15.555  13.279  1.00  0.00     0.274 HD
ATOM     40  H42 UNL     1      11.983  16.699  14.147  1.00  0.00     0.274 HD
ATOM     41  H41 UNL     1      10.300  16.614  13.978  1.00  0.00     0.274 HD
ENDBRANCH  37  38
ENDBRANCH  35  37
ENDBRANCH  15  31
BRANCH  20  42
HETATM   42  C26 UNL     1      15.482  25.166  15.215  1.00  0.00     0.128 C 
BRANCH  42  43
HETATM   43  C27 UNL     1      16.662  25.986  14.840  1.00  0.00     0.020 C 
BRANCH  43  44
HETATM   44  C28 UNL     1      17.803  25.789  15.791  1.00  0.00     0.006 C 
BRANCH  44  45
HETATM   45  C29 UNL     1      19.113  25.707  15.058  1.00  0.00     0.039 C 
BRANCH  45  46
HETATM   46  C30 UNL     1      20.192  26.375  15.901  1.00  0.00    -0.051 A 
HETATM   47  C31 UNL     1      19.953  26.868  17.121  1.00  0.00     0.014 A 
HETATM   48  C32 UNL     1      21.003  27.447  17.783  1.00  0.00     0.050 A 
HETATM   49  S1  UNL     1      22.289  27.281  16.675  1.00  0.00    -0.113 SA
HETATM   50  C33 UNL     1      21.464  26.488  15.412  1.00  0.00     0.056 A 
ENDBRANCH  45  46
ENDBRANCH  44  45
ENDBRANCH  43  44
ENDBRANCH  42  43
ENDBRANCH  20  42
ENDBRANCH   9  10
ENDBRANCH   6   9
TORSDOF 13
ENDMDL
MODEL 2
REMARK VINA RESULT: -8.795925186      0.863      1.315
REMARK  13 active torsions:
REMARK  status: ('A' for Active; 'I' for Inactive)
REMARK    1  A    between atoms: C5_6  and  C6_7 
REMARK    2  A    between atoms: C6_7  and  N2_8 
REMARK    3  A    between atoms: C8_11  and  C9_12 
REMARK    4  A    between atoms: C9_12  and  C10_13 
REMARK    5  A    between atoms: C13_16  and  O2_17 
REMARK    6  A    between atoms: C16_22  and  C17_23 
REMARK    7  A    between atoms: C21_27  and  C22_28 
REMARK    8  A    between atoms: C22_28  and  N4_29 
REMARK    9  A    between atoms: N5_37  and  C26_38 
REMARK   10  A    between atoms: C26_38  and  C27_39 
REMARK   11  A    between atoms: C27_39  and  C28_40 
REMARK   12  A    between atoms: C28_40  and  C29_41 
REMARK   13  A    between atoms: C29_41  and  C30_42 
ROOT
HETATM    1  N1  UNL     1      19.993  25.675  21.045  1.00  0.00    -0.191 NA
HETATM    2  C1  UNL     1      19.572  24.802  20.417  1.00  0.00     0.099 C 
HETATM    3  C2  UNL     1      19.057  23.701  19.613  1.00  0.00     0.044 A 
HETATM    4  C3  UNL     1      18.391  22.651  20.193  1.00  0.00     0.023 A 
HETATM    5  C4  UNL     1      17.903  21.602  19.413  1.00  0.00     0.010 A 
HETATM    6  C5  UNL     1      18.067  21.577  18.051  1.00  0.00    -0.040 A 
HETATM    7  C35 UNL     1      18.740  22.644  17.485  1.00  0.00     0.010 A 
HETATM    8  C36 UNL     1      19.227  23.687  18.246  1.00  0.00     0.023 A 
ENDROOT
BRANCH   6   9
HETATM    9  C6  UNL     1      17.577  20.491  17.183  1.00  0.00     0.169 C 
BRANCH   9  10
HETATM   10  N2  UNL     1      16.195  20.615  16.786  1.00  0.00    -0.288 N 
HETATM   11  C7  UNL     1      15.151  19.717  17.233  1.00  0.00     0.247 C 
HETATM   12  O1  UNL     1      15.277  18.789  18.068  1.00  0.00    -0.271 OA
HETATM   13  C8  UNL     1      13.896  20.066  16.542  1.00  0.00     0.185 C 
HETATM   14  N3  UNL     1      14.309  21.052  15.634  1.00  0.00    -0.319 N 
HETATM   15  C16 UNL     1      13.646  21.305  14.468  1.00  0.00     0.103 C 
HETATM   16  C24 UNL     1      15.574  21.585  15.908  1.00  0.00     0.310 C 
HETATM   17  O3  UNL     1      16.396  21.709  14.792  1.00  0.00    -0.316 OA
HETATM   18  C34 UNL     1      15.429  22.927  16.488  1.00  0.00     0.300 C 
HETATM   19  C25 UNL     1      16.591  23.029  14.497  1.00  0.00     0.301 C 
HETATM   20  N5  UNL     1      15.803  23.814  15.417  1.00  0.00    -0.325 N 
HETATM   21  O4  UNL     1      15.079  23.357  17.607  1.00  0.00    -0.265 OA
BRANCH  13  22
HETATM   22  C9  UNL     1      12.781  20.445  17.446  1.00  0.00     0.073 C 
BRANCH  22  23
HETATM   23  C10 UNL     1      11.853  19.362  17.822  1.00  0.00    -0.056 A 
HETATM   24  C11 UNL     1      11.014  18.828  16.838  1.00  0.00     0.010 A 
HETATM   25  C12 UNL     1      10.115  17.836  17.147  1.00  0.00     0.037 A 
HETATM   26  C13 UNL     1      10.027  17.341  18.454  1.00  0.00     0.065 A 
HETATM   27  C14 UNL     1      10.849  17.858  19.429  1.00  0.00     0.037 A 
HETATM   28  C15 UNL     1      11.744  18.852  19.107  1.00  0.00     0.010 A 
BRANCH  26  29
HETATM   29  O2  UNL     1       9.116  16.336  18.757  1.00  0.00    -0.361 OA
ATOM     30  H2  UNL     1       8.278  16.557  19.146  1.00  0.00     0.217 HD
ENDBRANCH  26  29
ENDBRANCH  22  23
ENDBRANCH  13  22
BRANCH  15  31
HETATM   31  C17 UNL     1      13.576  20.209  13.472  1.00  0.00    -0.020 A 
HETATM   32  C18 UNL     1      12.484  19.380  13.334  1.00  0.00     0.013 A 
HETATM   33  C19 UNL     1      12.411  18.361  12.411  1.00  0.00     0.002 A 
HETATM   34  C20 UNL     1      13.491  18.162  11.582  1.00  0.00     0.009 A 
HETATM   35  C21 UNL     1      14.622  18.958  11.663  1.00  0.00    -0.032 A 
HETATM   36  C23 UNL     1      14.643  19.957  12.600  1.00  0.00     0.021 A 
BRANCH  35  37
HETATM   37  C22 UNL     1      15.775  18.711  10.747  1.00  0.00     0.268 C 
BRANCH  37  38
HETATM   38  N4  UNL     1      15.788  17.315  10.370  1.00  0.00    -0.075 N 
ATOM     39  H43 UNL     1      15.564  16.700  11.152  1.00  0.00     0.274 HD
ATOM     40  H42 UNL     1      15.004  17.070   9.765  1.00  0.00     0.274 HD
ATOM     41  H41 UNL     1      16.688  17.092   9.947  1.00  0.00     0.274 HD
ENDBRANCH  37  38
ENDBRANCH  35  37
ENDBRANCH  15  31
BRANCH  20  42
HETATM   42  C26 UNL     1      15.489  25.215  15.234  1.00  0.00     0.128 C 
BRANCH  42  43
HETATM   43  C27 UNL     1      16.657  26.029  14.814  1.00  0.00     0.020 C 
BRANCH  43  44
HETATM   44  C28 UNL     1      17.830  25.834  15.726  1.00  0.00     0.006 C 
BRANCH  44  45
HETATM   45  C29 UNL     1      19.121  25.822  14.955  1.00  0.00     0.039 C 
BRANCH  45  46
HETATM   46  C30 UNL     1      20.220  26.415  15.828  1.00  0.00    -0.051 A 
HETATM   47  C31 UNL     1      19.985  26.917  17.045  1.00  0.00     0.014 A 
HETATM   48  C32 UNL     1      21.055  27.423  17.736  1.00  0.00     0.050 A 
HETATM   49  S1  UNL     1      22.353  27.179  16.656  1.00  0.00    -0.113 SA
HETATM   50  C33 UNL     1      21.509  26.447  15.370  1.00  0.00     0.056 A 
ENDBRANCH  45  46
ENDBRANCH  44  45
ENDBRANCH  43  44
ENDBRANCH  42  43
ENDBRANCH  20  42
ENDBRANCH   9  10
ENDBRANCH   6   9
TORSDOF 13
ENDMDL
MODEL 3
REMARK VINA RESULT: -7.787751129      3.113      6.589
REMARK  13 active torsions:
REMARK  status: ('A' for Active; 'I' for Inactive)
REMARK    1  A    between atoms: C5_6  and  C6_7 
REMARK    2  A    between atoms: C6_7  and  N2_8 
REMARK    3  A    between atoms: C8_11  and  C9_12 
REMARK    4  A    between atoms: C9_12  and  C10_13 
REMARK    5  A    between atoms: C13_16  and  O2_17 
REMARK    6  A    between atoms: C16_22  and  C17_23 
REMARK    7  A    between atoms: C21_27  and  C22_28 
REMARK    8  A    between atoms: C22_28  and  N4_29 
REMARK    9  A    between atoms: N5_37  and  C26_38 
REMARK   10  A    between atoms: C26_38  and  C27_39 
REMARK   11  A    between atoms: C27_39  and  C28_40 
REMARK   12  A    between atoms: C28_40  and  C29_41 
REMARK   13  A    between atoms: C29_41  and  C30_42 
ROOT
HETATM    1  N1  UNL     1      17.983  25.025  16.979  1.00  0.00    -0.191 NA
HETATM    2  C1  UNL     1      17.110  24.589  16.362  1.00  0.00     0.099 C 
HETATM    3  C2  UNL     1      15.997  24.054  15.587  1.00  0.00     0.044 A 
HETATM    4  C3  UNL     1      16.204  23.456  14.370  1.00  0.00     0.023 A 
HETATM    5  C4  UNL     1      15.130  22.947  13.638  1.00  0.00     0.010 A 
HETATM    6  C5  UNL     1      13.840  23.025  14.099  1.00  0.00    -0.040 A 
HETATM    7  C35 UNL     1      13.652  23.631  15.327  1.00  0.00     0.010 A 
HETATM    8  C36 UNL     1      14.706  24.137  16.060  1.00  0.00     0.023 A 
ENDROOT
BRANCH   6   9
HETATM    9  C6  UNL     1      12.671  22.511  13.362  1.00  0.00     0.169 C 
BRANCH   9  10
HETATM   10  N2  UNL     1      12.691  21.088  13.120  1.00  0.00    -0.288 N 
HETATM   11  C7  UNL     1      13.230  20.489  11.916  1.00  0.00     0.247 C 
HETATM   12  O1  UNL     1      13.815  21.093  10.985  1.00  0.00    -0.271 OA
HETATM   13  C8  UNL     1      12.979  19.037  11.955  1.00  0.00     0.185 C 
HETATM   14  N3  UNL     1      12.190  18.891  13.106  1.00  0.00    -0.319 N 
HETATM   15  C16 UNL     1      11.314  17.860  13.274  1.00  0.00     0.103 C 
HETATM   16  C24 UNL     1      12.207  20.007  13.952  1.00  0.00     0.310 C 
HETATM   17  O3  UNL     1      10.953  20.385  14.423  1.00  0.00    -0.316 OA
HETATM   18  C34 UNL     1      13.040  19.721  15.128  1.00  0.00     0.300 C 
HETATM   19  C25 UNL     1      10.864  20.147  15.765  1.00  0.00     0.301 C 
HETATM   20  N5  UNL     1      12.090  19.515  16.189  1.00  0.00    -0.325 N 
HETATM   21  O4  UNL     1      14.272  19.641  15.321  1.00  0.00    -0.265 OA
BRANCH  13  22
HETATM   22  C9  UNL     1      14.204  18.199  11.900  1.00  0.00     0.073 C 
BRANCH  22  23
HETATM   23  C10 UNL     1      14.166  17.055  10.970  1.00  0.00    -0.056 A 
HETATM   24  C11 UNL     1      15.231  16.879  10.082  1.00  0.00     0.010 A 
HETATM   25  C12 UNL     1      15.227  15.842   9.180  1.00  0.00     0.037 A 
HETATM   26  C13 UNL     1      14.155  14.942   9.139  1.00  0.00     0.065 A 
HETATM   27  C14 UNL     1      13.102  15.106  10.010  1.00  0.00     0.037 A 
HETATM   28  C15 UNL     1      13.118  16.149  10.908  1.00  0.00     0.010 A 
BRANCH  26  29
HETATM   29  O2  UNL     1      14.160  13.896   8.224  1.00  0.00    -0.361 OA
ATOM     30  H2  UNL     1      13.802  13.050   8.467  1.00  0.00     0.217 HD
ENDBRANCH  26  29
ENDBRANCH  22  23
ENDBRANCH  13  22
BRANCH  15  31
HETATM   31  C17 UNL     1      10.189  17.757  12.312  1.00  0.00    -0.020 A 
HETATM   32  C18 UNL     1      10.033  18.604  11.237  1.00  0.00     0.013 A 
HETATM   33  C19 UNL     1       8.992  18.516  10.340  1.00  0.00     0.002 A 
HETATM   34  C20 UNL     1       8.058  17.525  10.531  1.00  0.00     0.009 A 
HETATM   35  C21 UNL     1       8.151  16.636  11.590  1.00  0.00    -0.032 A 
HETATM   36  C23 UNL     1       9.206  16.769  12.454  1.00  0.00     0.021 A 
BRANCH  35  37
HETATM   37  C22 UNL     1       7.117  15.574  11.766  1.00  0.00     0.268 C 
BRANCH  37  38
HETATM   38  N4  UNL     1       7.052  15.204  13.161  1.00  0.00    -0.075 N 
ATOM     39  H43 UNL     1       7.334  15.966  13.779  1.00  0.00     0.274 HD
ATOM     40  H42 UNL     1       6.093  15.100  13.490  1.00  0.00     0.274 HD
ATOM     41  H41 UNL     1       7.605  14.360  13.309  1.00  0.00     0.274 HD
ENDBRANCH  37  38
ENDBRANCH  35  37
ENDBRANCH  15  31
BRANCH  20  42
HETATM   42  C26 UNL     1      12.259  18.824  17.450  1.00  0.00     0.128 C 
BRANCH  42  43
HETATM   43  C27 UNL     1      12.293  19.736  18.620  1.00  0.00     0.020 C 
BRANCH  43  44
HETATM   44  C28 UNL     1      13.696  20.041  19.051  1.00  0.00     0.006 C 
BRANCH  44  45
HETATM   45  C29 UNL     1      14.120  21.408  18.591  1.00  0.00     0.039 C 
BRANCH  45  46
HETATM   46  C30 UNL     1      15.633  21.420  18.414  1.00  0.00    -0.051 A 
HETATM   47  C31 UNL     1      16.240  20.870  17.357  1.00  0.00     0.014 A 
HETATM   48  C32 UNL     1      17.608  20.943  17.308  1.00  0.00     0.050 A 
HETATM   49  S1  UNL     1      17.996  21.781  18.742  1.00  0.00    -0.113 SA
HETATM   50  C33 UNL     1      16.424  22.013  19.359  1.00  0.00     0.056 A 
ENDBRANCH  45  46
ENDBRANCH  44  45
ENDBRANCH  43  44
ENDBRANCH  42  43
ENDBRANCH  20  42
ENDBRANCH   9  10
ENDBRANCH   6   9
TORSDOF 13
ENDMDL
MODEL 4
REMARK VINA RESULT: -7.655204799      3.253      6.815
REMARK  13 active torsions:
REMARK  status: ('A' for Active; 'I' for Inactive)
REMARK    1  A    between atoms: C5_6  and  C6_7 
REMARK    2  A    between atoms: C6_7  and  N2_8 
REMARK    3  A    between atoms: C8_11  and  C9_12 
REMARK    4  A    between atoms: C9_12  and  C10_13 
REMARK    5  A    between atoms: C13_16  and  O2_17 
REMARK    6  A    between atoms: C16_22  and  C17_23 
REMARK    7  A    between atoms: C21_27  and  C22_28 
REMARK    8  A    between atoms: C22_28  and  N4_29 
REMARK    9  A    between atoms: N5_37  and  C26_38 
REMARK   10  A    between atoms: C26_38  and  C27_39 
REMARK   11  A    between atoms: C27_39  and  C28_40 
REMARK   12  A    between atoms: C28_40  and  C29_41 
REMARK   13  A    between atoms: C29_41  and  C30_42 
ROOT
HETATM    1  N1  UNL     1      17.181  24.874  18.022  1.00  0.00    -0.191 NA
HETATM    2  C1  UNL     1      16.503  24.480  17.175  1.00  0.00     0.099 C 
HETATM    3  C2  UNL     1      15.633  23.993  16.111  1.00  0.00     0.044 A 
HETATM    4  C3  UNL     1      16.131  23.703  14.866  1.00  0.00     0.023 A 
HETATM    5  C4  UNL     1      15.288  23.238  13.855  1.00  0.00     0.010 A 
HETATM    6  C5  UNL     1      13.944  23.056  14.062  1.00  0.00    -0.040 A 
HETATM    7  C35 UNL     1      13.462  23.353  15.323  1.00  0.00     0.010 A 
HETATM    8  C36 UNL     1      14.285  23.813  16.330  1.00  0.00     0.023 A 
ENDROOT
BRANCH   6   9
HETATM    9  C6  UNL     1      13.010  22.574  13.028  1.00  0.00     0.169 C 
BRANCH   9  10
HETATM   10  N2  UNL     1      13.084  21.158  12.763  1.00  0.00    -0.288 N 
HETATM   11  C7  UNL     1      13.830  20.587  11.661  1.00  0.00     0.247 C 
HETATM   12  O1  UNL     1      14.563  21.212  10.859  1.00  0.00    -0.271 OA
HETATM   13  C8  UNL     1      13.587  19.133  11.626  1.00  0.00     0.185 C 
HETATM   14  N3  UNL     1      12.610  18.959  12.618  1.00  0.00    -0.319 N 
HETATM   15  C16 UNL     1      11.726  17.921  12.608  1.00  0.00     0.103 C 
HETATM   16  C24 UNL     1      12.470  20.057  13.476  1.00  0.00     0.310 C 
HETATM   17  O3  UNL     1      11.150  20.420  13.728  1.00  0.00    -0.316 OA
HETATM   18  C34 UNL     1      13.087  19.749  14.773  1.00  0.00     0.300 C 
HETATM   19  C25 UNL     1      10.830  20.153  15.029  1.00  0.00     0.301 C 
HETATM   20  N5  UNL     1      11.968  19.516  15.648  1.00  0.00    -0.325 N 
HETATM   21  O4  UNL     1      14.267  19.670  15.177  1.00  0.00    -0.265 OA
BRANCH  13  22
HETATM   22  C9  UNL     1      14.809  18.302  11.768  1.00  0.00     0.073 C 
BRANCH  22  23
HETATM   23  C10 UNL     1      15.050  17.313  10.700  1.00  0.00    -0.056 A 
HETATM   24  C11 UNL     1      14.306  16.130  10.703  1.00  0.00     0.010 A 
HETATM   25  C12 UNL     1      14.514  15.169   9.743  1.00  0.00     0.037 A 
HETATM   26  C13 UNL     1      15.475  15.362   8.743  1.00  0.00     0.065 A 
HETATM   27  C14 UNL     1      16.213  16.524   8.731  1.00  0.00     0.037 A 
HETATM   28  C15 UNL     1      15.995  17.478   9.698  1.00  0.00     0.010 A 
BRANCH  26  29
HETATM   29  O2  UNL     1      15.678  14.385   7.776  1.00  0.00    -0.361 OA
ATOM     30  H2  UNL     1      16.559  14.089   7.577  1.00  0.00     0.217 HD
ENDBRANCH  26  29
ENDBRANCH  22  23
ENDBRANCH  13  22
BRANCH  15  31
HETATM   31  C17 UNL     1      10.788  17.834  11.463  1.00  0.00    -0.020 A 
HETATM   32  C18 UNL     1       9.690  18.654  11.321  1.00  0.00     0.013 A 
HETATM   33  C19 UNL     1       8.813  18.581  10.261  1.00  0.00     0.002 A 
HETATM   34  C20 UNL     1       9.052  17.635   9.291  1.00  0.00     0.009 A 
HETATM   35  C21 UNL     1      10.137  16.776   9.368  1.00  0.00    -0.032 A 
HETATM   36  C23 UNL     1      10.977  16.892  10.444  1.00  0.00     0.021 A 
BRANCH  35  37
HETATM   37  C22 UNL     1      10.362  15.761   8.297  1.00  0.00     0.268 C 
BRANCH  37  38
HETATM   38  N4  UNL     1       9.826  16.261   7.051  1.00  0.00    -0.075 N 
ATOM     39  H43 UNL     1       9.948  15.601   6.283  1.00  0.00     0.274 HD
ATOM     40  H42 UNL     1       8.806  16.292   7.054  1.00  0.00     0.274 HD
ATOM     41  H41 UNL     1      10.240  17.171   6.850  1.00  0.00     0.274 HD
ENDBRANCH  37  38
ENDBRANCH  35  37
ENDBRANCH  15  31
BRANCH  20  42
HETATM   42  C26 UNL     1      11.920  18.799  16.904  1.00  0.00     0.128 C 
BRANCH  42  43
HETATM   43  C27 UNL     1      12.086  19.678  18.089  1.00  0.00     0.020 C 
BRANCH  43  44
HETATM   44  C28 UNL     1      13.483  19.630  18.628  1.00  0.00     0.006 C 
BRANCH  44  45
HETATM   45  C29 UNL     1      14.000  21.011  18.920  1.00  0.00     0.039 C 
BRANCH  45  46
HETATM   46  C30 UNL     1      15.479  21.070  18.556  1.00  0.00    -0.051 A 
HETATM   47  C31 UNL     1      16.413  21.514  19.402  1.00  0.00     0.014 A 
HETATM   48  C32 UNL     1      17.711  21.520  18.961  1.00  0.00     0.050 A 
HETATM   49  S1  UNL     1      17.576  20.904  17.377  1.00  0.00    -0.113 SA
HETATM   50  C33 UNL     1      15.891  20.658  17.319  1.00  0.00     0.056 A 
ENDBRANCH  45  46
ENDBRANCH  44  45
ENDBRANCH  43  44
ENDBRANCH  42  43
ENDBRANCH  20  42
ENDBRANCH   9  10
ENDBRANCH   6   9
TORSDOF 13
ENDMDL
MODEL 5
REMARK VINA RESULT: -7.357079368      1.311      1.808
REMARK  13 active torsions:
REMARK  status: ('A' for Active; 'I' for Inactive)
REMARK    1  A    between atoms: C5_6  and  C6_7 
REMARK    2  A    between atoms: C6_7  and  N2_8 
REMARK    3  A    between atoms: C8_11  and  C9_12 
REMARK    4  A    between atoms: C9_12  and  C10_13 
REMARK    5  A    between atoms: C13_16  and  O2_17 
REMARK    6  A    between atoms: C16_22  and  C17_23 
REMARK    7  A    between atoms: C21_27  and  C22_28 
REMARK    8  A    between atoms: C22_28  and  N4_29 
REMARK    9  A    between atoms: N5_37  and  C26_38 
REMARK   10  A    between atoms: C26_38  and  C27_39 
REMARK   11  A    between atoms: C27_39  and  C28_40 
REMARK   12  A    between atoms: C28_40  and  C29_41 
REMARK   13  A    between atoms: C29_41  and  C30_42 
ROOT
HETATM    1  N1  UNL     1      18.864  25.426  21.068  1.00  0.00    -0.191 NA
HETATM    2  C1  UNL     1      18.536  24.552  20.387  1.00  0.00     0.099 C 
HETATM    3  C2  UNL     1      18.140  23.449  19.521  1.00  0.00     0.044 A 
HETATM    4  C3  UNL     1      17.258  22.491  19.953  1.00  0.00     0.023 A 
HETATM    5  C4  UNL     1      16.886  21.439  19.114  1.00  0.00     0.010 A 
HETATM    6  C5  UNL     1      17.382  21.320  17.841  1.00  0.00    -0.040 A 
HETATM    7  C35 UNL     1      18.269  22.295  17.424  1.00  0.00     0.010 A 
HETATM    8  C36 UNL     1      18.643  23.340  18.244  1.00  0.00     0.023 A 
ENDROOT
BRANCH   6   9
HETATM    9  C6  UNL     1      17.028  20.226  16.919  1.00  0.00     0.169 C 
BRANCH   9  10
HETATM   10  N2  UNL     1      15.661  20.247  16.457  1.00  0.00    -0.288 N 
HETATM   11  C7  UNL     1      14.639  19.342  16.940  1.00  0.00     0.247 C 
HETATM   12  O1  UNL     1      14.769  18.497  17.858  1.00  0.00    -0.271 OA
HETATM   13  C8  UNL     1      13.402  19.568  16.170  1.00  0.00     0.185 C 
HETATM   14  N3  UNL     1      13.810  20.491  15.195  1.00  0.00    -0.319 N 
HETATM   15  C16 UNL     1      13.189  20.609  13.986  1.00  0.00     0.103 C 
HETATM   16  C24 UNL     1      15.036  21.106  15.472  1.00  0.00     0.310 C 
HETATM   17  O3  UNL     1      15.901  21.173  14.384  1.00  0.00    -0.316 OA
HETATM   18  C34 UNL     1      14.805  22.485  15.924  1.00  0.00     0.300 C 
HETATM   19  C25 UNL     1      16.049  22.470  13.980  1.00  0.00     0.301 C 
HETATM   20  N5  UNL     1      15.186  23.292  14.795  1.00  0.00    -0.325 N 
HETATM   21  O4  UNL     1      14.386  22.993  16.986  1.00  0.00    -0.265 OA
BRANCH  13  22
HETATM   22  C9  UNL     1      12.231  19.969  16.991  1.00  0.00     0.073 C 
BRANCH  22  23
HETATM   23  C10 UNL     1      11.398  18.870  17.514  1.00  0.00    -0.056 A 
HETATM   24  C11 UNL     1      10.550  18.195  16.631  1.00  0.00     0.010 A 
HETATM   25  C12 UNL     1       9.737  17.182  17.078  1.00  0.00     0.037 A 
HETATM   26  C13 UNL     1       9.746  16.808  18.427  1.00  0.00     0.065 A 
HETATM   27  C14 UNL     1      10.577  17.465  19.304  1.00  0.00     0.037 A 
HETATM   28  C15 UNL     1      11.387  18.479  18.844  1.00  0.00     0.010 A 
BRANCH  26  29
HETATM   29  O2  UNL     1       8.920  15.782  18.870  1.00  0.00    -0.361 OA
ATOM     30  H2  UNL     1       9.186  15.241  19.604  1.00  0.00     0.217 HD
ENDBRANCH  26  29
ENDBRANCH  22  23
ENDBRANCH  13  22
BRANCH  15  31
HETATM   31  C17 UNL     1      13.213  19.428  13.089  1.00  0.00    -0.020 A 
HETATM   32  C18 UNL     1      12.201  18.494  13.040  1.00  0.00     0.013 A 
HETATM   33  C19 UNL     1      12.215  17.395  12.210  1.00  0.00     0.002 A 
HETATM   34  C20 UNL     1      13.302  17.225  11.384  1.00  0.00     0.009 A 
HETATM   35  C21 UNL     1      14.356  18.125  11.378  1.00  0.00    -0.032 A 
HETATM   36  C23 UNL     1      14.291  19.200  12.225  1.00  0.00     0.021 A 
BRANCH  35  37
HETATM   37  C22 UNL     1      15.519  17.905  10.469  1.00  0.00     0.268 C 
BRANCH  37  38
HETATM   38  N4  UNL     1      16.371  19.072  10.501  1.00  0.00    -0.075 N 
ATOM     39  H43 UNL     1      15.984  19.851   9.967  1.00  0.00     0.274 HD
ATOM     40  H42 UNL     1      16.382  19.519  11.418  1.00  0.00     0.274 HD
ATOM     41  H41 UNL     1      17.306  18.812  10.186  1.00  0.00     0.274 HD
ENDBRANCH  37  38
ENDBRANCH  35  37
ENDBRANCH  15  31
BRANCH  20  42
HETATM   42  C26 UNL     1      14.818  24.655  14.476  1.00  0.00     0.128 C 
BRANCH  42  43
HETATM   43  C27 UNL     1      15.788  25.660  14.980  1.00  0.00     0.020 C 
BRANCH  43  44
HETATM   44  C28 UNL     1      17.192  25.335  14.571  1.00  0.00     0.006 C 
BRANCH  44  45
HETATM   45  C29 UNL     1      18.155  25.566  15.702  1.00  0.00     0.039 C 
BRANCH  45  46
HETATM   46  C30 UNL     1      19.103  26.695  15.318  1.00  0.00    -0.051 A 
HETATM   47  C31 UNL     1      18.950  27.419  14.204  1.00  0.00     0.014 A 
HETATM   48  C32 UNL     1      19.867  28.409  13.965  1.00  0.00     0.050 A 
HETATM   49  S1  UNL     1      20.910  28.292  15.310  1.00  0.00    -0.113 SA
HETATM   50  C33 UNL     1      20.160  27.000  16.130  1.00  0.00     0.056 A 
ENDBRANCH  45  46
ENDBRANCH  44  45
ENDBRANCH  43  44
ENDBRANCH  42  43
ENDBRANCH  20  42
ENDBRANCH   9  10
ENDBRANCH   6   9
TORSDOF 13
ENDMDL
