MODEL 1
REMARK VINA RESULT: -7.703265987      0.000      0.000
REMARK  7 active torsions:
REMARK  status: ('A' for Active; 'I' for Inactive)
REMARK    1  A    between atoms: O1_2  and  C2_3 
REMARK    2  A    between atoms: C2_3  and  C3_5 
REMARK    3  A    between atoms: C4_6  and  C5_7 
REMARK       I    between atoms: C5_7  and  N1_9 
REMARK       I    between atoms: N1_9  and  C6_11 
REMARK    4  A    between atoms: N5_18  and  C7_19 
REMARK    5  A    between atoms: C7_19  and  C13_29 
REMARK    6  A    between atoms: N6_20  and  O5_22 
REMARK    7  A    between atoms: O5_22  and  C8_23 
ROOT
HETATM    1  C3  UNL     1      23.151  -5.617  21.204  1.00  0.00     0.168 A 
HETATM    2  C4  UNL     1      21.880  -5.661  21.726  1.00  0.00     0.152 A 
HETATM    3  N3  UNL     1      21.186  -4.719  20.977  1.00  0.00    -0.278 N 
ATOM      4  H3  UNL     1      20.200  -4.483  21.094  1.00  0.00     0.189 HD
HETATM    5  N4  UNL     1      21.987  -4.181  20.100  1.00  0.00    -0.233 N 
ATOM      6  H4  UNL     1      21.717  -3.462  19.430  1.00  0.00     0.209 HD
HETATM    7  N5  UNL     1      23.197  -4.696  20.200  1.00  0.00    -0.215 N 
ENDROOT
BRANCH   7   8
HETATM    8  C7  UNL     1      24.282  -4.327  19.398  1.00  0.00     0.180 C 
HETATM    9  N6  UNL     1      24.956  -3.254  19.620  1.00  0.00    -0.248 N 
ATOM     10  H6  UNL     1      25.730  -3.072  18.982  1.00  0.00     0.196 HD
BRANCH   9  11
HETATM   11  O5  UNL     1      24.764  -2.341  20.595  1.00  0.00    -0.271 OA
BRANCH  11  12
HETATM   12  C8  UNL     1      24.029  -1.162  20.487  1.00  0.00     0.186 C 
HETATM   13  C9  UNL     1      23.680  -0.798  19.070  1.00  0.00     0.037 C 
HETATM   14  C10 UNL     1      24.772   0.117  18.594  1.00  0.00     0.006 C 
HETATM   15  C11 UNL     1      25.706   0.328  19.773  1.00  0.00     0.040 C 
HETATM   16  C12 UNL     1      24.811   0.065  20.943  1.00  0.00     0.201 C 
HETATM   17  F1  UNL     1      23.864   1.083  21.077  1.00  0.00    -0.247 F 
ENDBRANCH  11  12
ENDBRANCH   9  11
BRANCH   8  18
HETATM   18  C13 UNL     1      24.702  -5.113  18.187  1.00  0.00     0.250 C 
HETATM   19 CL1  UNL     1      26.301  -5.834  18.334  1.00  0.00    -0.075 Cl
HETATM   20 CL2  UNL     1      23.550  -6.480  17.957  1.00  0.00    -0.075 Cl
HETATM   21 CL3  UNL     1      24.565  -4.127  16.703  1.00  0.00    -0.075 Cl
ENDBRANCH   8  18
ENDBRANCH   7   8
BRANCH   1  22
HETATM   22  C2  UNL     1      24.273  -6.415  21.640  1.00  0.00     0.314 C 
HETATM   23  O2  UNL     1      24.854  -6.150  22.728  1.00  0.00    -0.257 OA
BRANCH  22  24
HETATM   24  O1  UNL     1      24.774  -7.469  20.951  1.00  0.00    -0.321 OA
HETATM   25  C1  UNL     1      26.024  -8.027  21.248  1.00  0.00     0.213 C 
ENDBRANCH  22  24
ENDBRANCH   1  22
BRANCH   2  26
HETATM   26  C5  UNL     1      21.263  -6.431  22.783  1.00  0.00     0.279 C 
HETATM   27  O3  UNL     1      21.771  -7.371  23.400  1.00  0.00    -0.265 OA
HETATM   28  N1  UNL     1      19.929  -6.085  23.168  1.00  0.00    -0.276 N 
HETATM   29  C6  UNL     1      19.271  -6.794  24.190  1.00  0.00     0.335 C 
ATOM     30  H1  UNL     1      19.451  -5.317  22.698  1.00  0.00     0.173 HD
HETATM   31  N2  UNL     1      17.954  -6.431  24.550  1.00  0.00    -0.040 NA
HETATM   32  O4  UNL     1      19.837  -7.746  24.786  1.00  0.00    -0.251 OA
ENDBRANCH   2  26
TORSDOF 7
ENDMDL
MODEL 2
REMARK VINA RESULT: -7.676507102      4.275      5.866
REMARK  7 active torsions:
REMARK  status: ('A' for Active; 'I' for Inactive)
REMARK    1  A    between atoms: O1_2  and  C2_3 
REMARK    2  A    between atoms: C2_3  and  C3_5 
REMARK    3  A    between atoms: C4_6  and  C5_7 
REMARK       I    between atoms: C5_7  and  N1_9 
REMARK       I    between atoms: N1_9  and  C6_11 
REMARK    4  A    between atoms: N5_18  and  C7_19 
REMARK    5  A    between atoms: C7_19  and  C13_29 
REMARK    6  A    between atoms: N6_20  and  O5_22 
REMARK    7  A    between atoms: O5_22  and  C8_23 
ROOT
HETATM    1  C3  UNL     1      21.924  -1.420  20.055  1.00  0.00     0.168 A 
HETATM    2  C4  UNL     1      21.046  -0.833  20.935  1.00  0.00     0.152 A 
HETATM    3  N3  UNL     1      21.873  -0.116  21.792  1.00  0.00    -0.278 N 
ATOM      4  H3  UNL     1      21.556   0.449  22.580  1.00  0.00     0.189 HD
HETATM    5  N4  UNL     1      23.116  -0.278  21.435  1.00  0.00    -0.233 N 
ATOM      6  H4  UNL     1      23.915   0.147  21.906  1.00  0.00     0.209 HD
HETATM    7  N5  UNL     1      23.199  -1.065  20.381  1.00  0.00    -0.215 N 
ENDROOT
BRANCH   7   8
HETATM    8  C7  UNL     1      24.397  -1.430  19.759  1.00  0.00     0.180 C 
HETATM    9  N6  UNL     1      24.920  -2.594  19.924  1.00  0.00    -0.248 N 
ATOM     10  H6  UNL     1      25.794  -2.766  19.426  1.00  0.00     0.196 HD
BRANCH   9  11
HETATM   11  O5  UNL     1      24.454  -3.614  20.673  1.00  0.00    -0.271 OA
BRANCH  11  12
HETATM   12  C8  UNL     1      25.151  -4.771  21.016  1.00  0.00     0.186 C 
HETATM   13  C9  UNL     1      25.740  -5.491  19.834  1.00  0.00     0.037 C 
HETATM   14  C10 UNL     1      24.720  -6.511  19.416  1.00  0.00     0.006 C 
HETATM   15  C11 UNL     1      23.578  -6.416  20.413  1.00  0.00     0.040 C 
HETATM   16  C12 UNL     1      24.252  -5.845  21.620  1.00  0.00     0.201 C 
HETATM   17  F1  UNL     1      25.119  -6.780  22.190  1.00  0.00    -0.247 F 
ENDBRANCH  11  12
ENDBRANCH   9  11
BRANCH   8  18
HETATM   18  C13 UNL     1      25.193  -0.480  18.908  1.00  0.00     0.250 C 
HETATM   19 CL1  UNL     1      24.301   0.964  18.438  1.00  0.00    -0.075 Cl
HETATM   20 CL2  UNL     1      26.615   0.091  19.855  1.00  0.00    -0.075 Cl
HETATM   21 CL3  UNL     1      25.879  -1.314  17.485  1.00  0.00    -0.075 Cl
ENDBRANCH   8  18
ENDBRANCH   7   8
BRANCH   1  22
HETATM   22  C2  UNL     1      21.566  -2.283  18.952  1.00  0.00     0.314 C 
HETATM   23  O2  UNL     1      20.962  -1.812  17.951  1.00  0.00    -0.257 OA
BRANCH  22  24
HETATM   24  O1  UNL     1      21.837  -3.610  18.903  1.00  0.00    -0.321 OA
HETATM   25  C1  UNL     1      22.230  -4.245  17.718  1.00  0.00     0.213 C 
ENDBRANCH  22  24
ENDBRANCH   1  22
BRANCH   2  26
HETATM   26  C5  UNL     1      19.607  -0.855  21.071  1.00  0.00     0.279 C 
HETATM   27  O3  UNL     1      18.841  -1.723  20.644  1.00  0.00    -0.265 OA
HETATM   28  N1  UNL     1      18.986   0.230  21.768  1.00  0.00    -0.276 N 
HETATM   29  C6  UNL     1      17.590   0.270  21.936  1.00  0.00     0.335 C 
ATOM     30  H1  UNL     1      19.562   0.982  22.147  1.00  0.00     0.173 HD
HETATM   31  N2  UNL     1      17.004   1.353  22.628  1.00  0.00    -0.040 NA
HETATM   32  O4  UNL     1      16.856  -0.643  21.478  1.00  0.00    -0.251 OA
ENDBRANCH   2  26
TORSDOF 7
ENDMDL
MODEL 3
REMARK VINA RESULT: -7.571955456      3.283      6.707
REMARK  7 active torsions:
REMARK  status: ('A' for Active; 'I' for Inactive)
REMARK    1  A    between atoms: O1_2  and  C2_3 
REMARK    2  A    between atoms: C2_3  and  C3_5 
REMARK    3  A    between atoms: C4_6  and  C5_7 
REMARK       I    between atoms: C5_7  and  N1_9 
REMARK       I    between atoms: N1_9  and  C6_11 
REMARK    4  A    between atoms: N5_18  and  C7_19 
REMARK    5  A    between atoms: C7_19  and  C13_29 
REMARK    6  A    between atoms: N6_20  and  O5_22 
REMARK    7  A    between atoms: O5_22  and  C8_23 
ROOT
HETATM    1  C3  UNL     1      23.396  -2.759  19.586  1.00  0.00     0.168 A 
HETATM    2  C4  UNL     1      23.884  -1.549  20.020  1.00  0.00     0.152 A 
HETATM    3  N3  UNL     1      24.974  -1.899  20.808  1.00  0.00    -0.278 N 
ATOM      4  H3  UNL     1      25.582  -1.243  21.298  1.00  0.00     0.189 HD
HETATM    5  N4  UNL     1      25.101  -3.197  20.825  1.00  0.00    -0.233 N 
ATOM      6  H4  UNL     1      25.827  -3.702  21.332  1.00  0.00     0.209 HD
HETATM    7  N5  UNL     1      24.162  -3.765  20.095  1.00  0.00    -0.215 N 
ENDROOT
BRANCH   7   8
HETATM    8  C7  UNL     1      24.028  -5.145  19.914  1.00  0.00     0.180 C 
HETATM    9  N6  UNL     1      23.188  -5.841  20.596  1.00  0.00    -0.248 N 
ATOM     10  H6  UNL     1      23.164  -6.840  20.391  1.00  0.00     0.196 HD
BRANCH   9  11
HETATM   11  O5  UNL     1      22.337  -5.412  21.550  1.00  0.00    -0.271 OA
BRANCH  11  12
HETATM   12  C8  UNL     1      21.008  -5.802  21.706  1.00  0.00     0.186 C 
HETATM   13  C9  UNL     1      20.357  -5.240  22.940  1.00  0.00     0.037 C 
HETATM   14  C10 UNL     1      20.541  -6.272  24.016  1.00  0.00     0.006 C 
HETATM   15  C11 UNL     1      21.237  -7.455  23.367  1.00  0.00     0.040 C 
HETATM   16  C12 UNL     1      20.856  -7.303  21.928  1.00  0.00     0.201 C 
HETATM   17  F1  UNL     1      19.497  -7.571  21.747  1.00  0.00    -0.247 F 
ENDBRANCH  11  12
ENDBRANCH   9  11
BRANCH   8  18
HETATM   18  C13 UNL     1      24.891  -5.928  18.962  1.00  0.00     0.250 C 
HETATM   19 CL1  UNL     1      24.006  -6.600  17.597  1.00  0.00    -0.075 Cl
HETATM   20 CL2  UNL     1      26.132  -4.822  18.265  1.00  0.00    -0.075 Cl
HETATM   21 CL3  UNL     1      25.816  -7.189  19.825  1.00  0.00    -0.075 Cl
ENDBRANCH   8  18
ENDBRANCH   7   8
BRANCH   1  22
HETATM   22  C2  UNL     1      22.251  -2.950  18.727  1.00  0.00     0.314 C 
HETATM   23  O2  UNL     1      22.306  -2.609  17.514  1.00  0.00    -0.257 OA
BRANCH  22  24
HETATM   24  O1  UNL     1      21.075  -3.487  19.131  1.00  0.00    -0.321 OA
HETATM   25  C1  UNL     1      20.114  -2.739  19.823  1.00  0.00     0.213 C 
ENDBRANCH  22  24
ENDBRANCH   1  22
BRANCH   2  26
HETATM   26  C5  UNL     1      23.483  -0.177  19.804  1.00  0.00     0.279 C 
HETATM   27  O3  UNL     1      23.691   0.500  18.794  1.00  0.00    -0.265 OA
HETATM   28  N1  UNL     1      22.769   0.482  20.854  1.00  0.00    -0.276 N 
HETATM   29  C6  UNL     1      22.349   1.817  20.709  1.00  0.00     0.335 C 
ATOM     30  H1  UNL     1      22.563  -0.020  21.718  1.00  0.00     0.173 HD
HETATM   31  N2  UNL     1      21.646   2.443  21.762  1.00  0.00    -0.040 NA
HETATM   32  O4  UNL     1      22.590   2.461  19.655  1.00  0.00    -0.251 OA
ENDBRANCH   2  26
TORSDOF 7
ENDMDL
MODEL 4
REMARK VINA RESULT: -7.532338394      3.115      6.935
REMARK  7 active torsions:
REMARK  status: ('A' for Active; 'I' for Inactive)
REMARK    1  A    between atoms: O1_2  and  C2_3 
REMARK    2  A    between atoms: C2_3  and  C3_5 
REMARK    3  A    between atoms: C4_6  and  C5_7 
REMARK       I    between atoms: C5_7  and  N1_9 
REMARK       I    between atoms: N1_9  and  C6_11 
REMARK    4  A    between atoms: N5_18  and  C7_19 
REMARK    5  A    between atoms: C7_19  and  C13_29 
REMARK    6  A    between atoms: N6_20  and  O5_22 
REMARK    7  A    between atoms: O5_22  and  C8_23 
ROOT
HETATM    1  C3  UNL     1      24.558  -3.933  19.042  1.00  0.00     0.168 A 
HETATM    2  C4  UNL     1      24.729  -2.654  19.517  1.00  0.00     0.152 A 
HETATM    3  N3  UNL     1      25.141  -2.845  20.830  1.00  0.00    -0.278 N 
ATOM      4  H3  UNL     1      25.362  -2.101  21.492  1.00  0.00     0.189 HD
HETATM    5  N4  UNL     1      25.201  -4.122  21.088  1.00  0.00    -0.233 N 
ATOM      6  H4  UNL     1      25.478  -4.521  21.984  1.00  0.00     0.209 HD
HETATM    7  N5  UNL     1      24.854  -4.826  20.029  1.00  0.00    -0.215 N 
ENDROOT
BRANCH   7   8
HETATM    8  C7  UNL     1      24.817  -6.223  19.986  1.00  0.00     0.180 C 
HETATM    9  N6  UNL     1      23.737  -6.882  20.224  1.00  0.00    -0.248 N 
ATOM     10  H6  UNL     1      23.811  -7.897  20.166  1.00  0.00     0.196 HD
BRANCH   9  11
HETATM   11  O5  UNL     1      22.520  -6.392  20.539  1.00  0.00    -0.271 OA
BRANCH  11  12
HETATM   12  C8  UNL     1      22.137  -5.865  21.771  1.00  0.00     0.186 C 
HETATM   13  C9  UNL     1      22.442  -6.770  22.933  1.00  0.00     0.037 C 
HETATM   14  C10 UNL     1      21.201  -7.585  23.162  1.00  0.00     0.006 C 
HETATM   15  C11 UNL     1      20.166  -7.088  22.170  1.00  0.00     0.040 C 
HETATM   16  C12 UNL     1      20.628  -5.691  21.896  1.00  0.00     0.201 C 
HETATM   17  F1  UNL     1      20.437  -4.880  23.016  1.00  0.00    -0.247 F 
ENDBRANCH  11  12
ENDBRANCH   9  11
BRANCH   8  18
HETATM   18  C13 UNL     1      26.038  -7.061  19.724  1.00  0.00     0.250 C 
HETATM   19 CL1  UNL     1      26.163  -7.627  18.061  1.00  0.00    -0.075 Cl
HETATM   20 CL2  UNL     1      27.504  -6.057  20.028  1.00  0.00    -0.075 Cl
HETATM   21 CL3  UNL     1      26.147  -8.416  20.884  1.00  0.00    -0.075 Cl
ENDBRANCH   8  18
ENDBRANCH   7   8
BRANCH   1  22
HETATM   22  C2  UNL     1      24.130  -4.291  17.710  1.00  0.00     0.314 C 
HETATM   23  O2  UNL     1      24.956  -4.290  16.758  1.00  0.00    -0.257 OA
BRANCH  22  24
HETATM   24  O1  UNL     1      22.861  -4.641  17.384  1.00  0.00    -0.321 OA
HETATM   25  C1  UNL     1      21.746  -4.034  17.976  1.00  0.00     0.213 C 
ENDBRANCH  22  24
ENDBRANCH   1  22
BRANCH   2  26
HETATM   26  C5  UNL     1      24.566  -1.344  18.930  1.00  0.00     0.279 C 
HETATM   27  O3  UNL     1      23.499  -0.793  18.646  1.00  0.00    -0.265 OA
HETATM   28  N1  UNL     1      25.748  -0.590  18.641  1.00  0.00    -0.276 N 
HETATM   29  C6  UNL     1      25.660   0.692  18.069  1.00  0.00     0.335 C 
ATOM     30  H1  UNL     1      26.664  -0.987  18.851  1.00  0.00     0.173 HD
HETATM   31  N2  UNL     1      26.842   1.413  17.793  1.00  0.00    -0.040 NA
HETATM   32  O4  UNL     1      24.544   1.206  17.798  1.00  0.00    -0.251 OA
ENDBRANCH   2  26
TORSDOF 7
ENDMDL
MODEL 5
REMARK VINA RESULT: -7.530227222      4.619      6.313
REMARK  7 active torsions:
REMARK  status: ('A' for Active; 'I' for Inactive)
REMARK    1  A    between atoms: O1_2  and  C2_3 
REMARK    2  A    between atoms: C2_3  and  C3_5 
REMARK    3  A    between atoms: C4_6  and  C5_7 
REMARK       I    between atoms: C5_7  and  N1_9 
REMARK       I    between atoms: N1_9  and  C6_11 
REMARK    4  A    between atoms: N5_18  and  C7_19 
REMARK    5  A    between atoms: C7_19  and  C13_29 
REMARK    6  A    between atoms: N6_20  and  O5_22 
REMARK    7  A    between atoms: O5_22  and  C8_23 
ROOT
HETATM    1  C3  UNL     1      23.429  -0.848  19.721  1.00  0.00     0.168 A 
HETATM    2  C4  UNL     1      22.073  -1.075  19.706  1.00  0.00     0.152 A 
HETATM    3  N3  UNL     1      21.883  -1.843  18.563  1.00  0.00    -0.278 N 
ATOM      4  H3  UNL     1      20.985  -2.198  18.235  1.00  0.00     0.189 HD
HETATM    5  N4  UNL     1      23.029  -2.040  17.974  1.00  0.00    -0.233 N 
ATOM      6  H4  UNL     1      23.156  -2.575  17.116  1.00  0.00     0.209 HD
HETATM    7  N5  UNL     1      24.002  -1.453  18.642  1.00  0.00    -0.215 N 
ENDROOT
BRANCH   7   8
HETATM    8  C7  UNL     1      25.348  -1.481  18.266  1.00  0.00     0.180 C 
HETATM    9  N6  UNL     1      26.050  -2.558  18.331  1.00  0.00    -0.248 N 
ATOM     10  H6  UNL     1      27.021  -2.478  18.032  1.00  0.00     0.196 HD
BRANCH   9  11
HETATM   11  O5  UNL     1      25.656  -3.779  18.745  1.00  0.00    -0.271 OA
BRANCH  11  12
HETATM   12  C8  UNL     1      25.680  -4.953  17.994  1.00  0.00     0.186 C 
HETATM   13  C9  UNL     1      24.390  -5.231  17.271  1.00  0.00     0.037 C 
HETATM   14  C10 UNL     1      23.583  -6.110  18.183  1.00  0.00     0.006 C 
HETATM   15  C11 UNL     1      24.451  -6.389  19.397  1.00  0.00     0.040 C 
HETATM   16  C12 UNL     1      25.833  -6.203  18.854  1.00  0.00     0.201 C 
HETATM   17  F1  UNL     1      26.156  -7.230  17.965  1.00  0.00    -0.247 F 
ENDBRANCH  11  12
ENDBRANCH   9  11
BRANCH   8  18
HETATM   18  C13 UNL     1      26.093  -0.253  17.820  1.00  0.00     0.250 C 
HETATM   19 CL1  UNL     1      25.051   1.135  17.520  1.00  0.00    -0.075 Cl
HETATM   20 CL2  UNL     1      27.228   0.242  19.129  1.00  0.00    -0.075 Cl
HETATM   21 CL3  UNL     1      27.129  -0.608  16.409  1.00  0.00    -0.075 Cl
ENDBRANCH   8  18
ENDBRANCH   7   8
BRANCH   1  22
HETATM   22  C2  UNL     1      24.148  -0.089  20.718  1.00  0.00     0.314 C 
HETATM   23  O2  UNL     1      24.778  -0.684  21.634  1.00  0.00    -0.257 OA
BRANCH  22  24
HETATM   24  O1  UNL     1      24.205   1.265  20.751  1.00  0.00    -0.321 OA
HETATM   25  C1  UNL     1      23.133   2.065  20.337  1.00  0.00     0.213 C 
ENDBRANCH  22  24
ENDBRANCH   1  22
BRANCH   2  26
HETATM   26  C5  UNL     1      20.988  -0.686  20.578  1.00  0.00     0.279 C 
HETATM   27  O3  UNL     1      21.002  -0.679  21.811  1.00  0.00    -0.265 OA
HETATM   28  N1  UNL     1      19.764  -0.261  19.970  1.00  0.00    -0.276 N 
HETATM   29  C6  UNL     1      18.668   0.131  20.761  1.00  0.00     0.335 C 
ATOM     30  H1  UNL     1      19.684  -0.243  18.953  1.00  0.00     0.173 HD
HETATM   31  N2  UNL     1      17.472   0.546  20.135  1.00  0.00    -0.040 NA
HETATM   32  O4  UNL     1      18.738   0.118  22.017  1.00  0.00    -0.251 OA
ENDBRANCH   2  26
TORSDOF 7
ENDMDL
