MODEL 1
REMARK VINA RESULT: -4.224247843      0.000      0.000
REMARK  3 active torsions:
REMARK  status: ('A' for Active; 'I' for Inactive)
REMARK    1  A    between atoms: S1_2  and  C2_3 
REMARK    2  A    between atoms: C6_8  and  O1_9 
REMARK    3  A    between atoms: C7_11  and  O2_12 
ROOT
HETATM    1  C2  UNL     1       4.473   6.105   8.666  1.00  0.00     0.140 C 
HETATM    2  S2  UNL     1       4.733   7.310  10.013  1.00  0.00    -0.139 SA
HETATM    3  C3  UNL     1       6.028   8.215   9.092  1.00  0.00     0.030 C 
HETATM    4  C4  UNL     1       7.284   7.397   9.234  1.00  0.00     0.029 C 
HETATM    5  C5  UNL     1       6.212   9.600   9.633  1.00  0.00     0.029 C 
HETATM    6  C6  UNL     1       5.427   8.170   7.728  1.00  0.00     0.166 C 
HETATM    7  C7  UNL     1       4.739   6.907   7.464  1.00  0.00     0.171 C 
ENDROOT
BRANCH   1   8
HETATM    8  S1  UNL     1       2.885   5.332   8.818  1.00  0.00    -0.155 SA
HETATM    9  C1  UNL     1       2.539   4.051   7.621  1.00  0.00     0.091 C 
ENDBRANCH   1   8
BRANCH   7  10
HETATM   10  O2  UNL     1       5.494   6.153   6.551  1.00  0.00    -0.391 OA
ATOM     11  H2  UNL     1       6.415   6.360   6.652  1.00  0.00     0.210 HD
ENDBRANCH   7  10
BRANCH   6  12
HETATM   12  O1  UNL     1       6.365   8.424   6.713  1.00  0.00    -0.391 OA
ATOM     13  H1  UNL     1       6.309   7.801   5.999  1.00  0.00     0.210 HD
ENDBRANCH   6  12
TORSDOF 3
ENDMDL
MODEL 2
REMARK VINA RESULT: -4.072730426      2.917      4.276
REMARK  3 active torsions:
REMARK  status: ('A' for Active; 'I' for Inactive)
REMARK    1  A    between atoms: S1_2  and  C2_3 
REMARK    2  A    between atoms: C6_8  and  O1_9 
REMARK    3  A    between atoms: C7_11  and  O2_12 
ROOT
HETATM    1  C2  UNL     1       6.175   8.873  10.533  1.00  0.00     0.140 C 
HETATM    2  S2  UNL     1       7.163   9.595   9.176  1.00  0.00    -0.139 SA
HETATM    3  C3  UNL     1       6.701   8.272   8.000  1.00  0.00     0.030 C 
HETATM    4  C4  UNL     1       7.567   7.090   8.347  1.00  0.00     0.029 C 
HETATM    5  C5  UNL     1       6.912   8.708   6.583  1.00  0.00     0.029 C 
HETATM    6  C6  UNL     1       5.268   8.105   8.379  1.00  0.00     0.166 C 
HETATM    7  C7  UNL     1       5.051   8.257   9.817  1.00  0.00     0.171 C 
ENDROOT
BRANCH   1   8
HETATM    8  S1  UNL     1       5.811  10.101  11.759  1.00  0.00    -0.155 SA
HETATM    9  C1  UNL     1       6.865  11.544  11.734  1.00  0.00     0.091 C 
ENDBRANCH   1   8
BRANCH   7  10
HETATM   10  O2  UNL     1       4.769   6.999  10.375  1.00  0.00    -0.391 OA
ATOM     11  H2  UNL     1       3.991   6.637   9.969  1.00  0.00     0.210 HD
ENDBRANCH   7  10
BRANCH   6  12
HETATM   12  O1  UNL     1       4.731   6.883   7.941  1.00  0.00    -0.391 OA
ATOM     13  H1  UNL     1       3.782   6.893   7.903  1.00  0.00     0.210 HD
ENDBRANCH   6  12
TORSDOF 3
ENDMDL
MODEL 3
REMARK VINA RESULT: -4.070729758      2.463      3.770
REMARK  3 active torsions:
REMARK  status: ('A' for Active; 'I' for Inactive)
REMARK    1  A    between atoms: S1_2  and  C2_3 
REMARK    2  A    between atoms: C6_8  and  O1_9 
REMARK    3  A    between atoms: C7_11  and  O2_12 
ROOT
HETATM    1  C2  UNL     1       7.081   7.647   7.736  1.00  0.00     0.140 C 
HETATM    2  S2  UNL     1       7.001   7.283   9.525  1.00  0.00    -0.139 SA
HETATM    3  C3  UNL     1       5.201   7.588   9.611  1.00  0.00     0.030 C 
HETATM    4  C4  UNL     1       5.037   9.085   9.646  1.00  0.00     0.029 C 
HETATM    5  C5  UNL     1       4.597   6.943  10.820  1.00  0.00     0.029 C 
HETATM    6  C6  UNL     1       4.790   6.964   8.319  1.00  0.00     0.166 C 
HETATM    7  C7  UNL     1       5.771   7.185   7.258  1.00  0.00     0.171 C 
ENDROOT
BRANCH   1   8
HETATM    8  S1  UNL     1       8.533   6.926   7.018  1.00  0.00    -0.155 SA
HETATM    9  C1  UNL     1       9.357   7.929   5.789  1.00  0.00     0.091 C 
ENDBRANCH   1   8
BRANCH   7  10
HETATM   10  O2  UNL     1       5.253   8.110   6.336  1.00  0.00    -0.391 OA
ATOM     11  H2  UNL     1       4.699   7.659   5.710  1.00  0.00     0.210 HD
ENDBRANCH   7  10
BRANCH   6  12
HETATM   12  O1  UNL     1       3.521   7.388   7.892  1.00  0.00    -0.391 OA
ATOM     13  H1  UNL     1       3.430   7.376   6.947  1.00  0.00     0.210 HD
ENDBRANCH   6  12
TORSDOF 3
ENDMDL
MODEL 4
REMARK VINA RESULT: -4.005768364      2.007      2.522
REMARK  3 active torsions:
REMARK  status: ('A' for Active; 'I' for Inactive)
REMARK    1  A    between atoms: S1_2  and  C2_3 
REMARK    2  A    between atoms: C6_8  and  O1_9 
REMARK    3  A    between atoms: C7_11  and  O2_12 
ROOT
HETATM    1  C2  UNL     1       4.222   6.774   8.230  1.00  0.00     0.140 C 
HETATM    2  S2  UNL     1       5.616   6.020   7.323  1.00  0.00    -0.139 SA
HETATM    3  C3  UNL     1       6.779   7.348   7.802  1.00  0.00     0.030 C 
HETATM    4  C4  UNL     1       6.477   8.508   6.891  1.00  0.00     0.029 C 
HETATM    5  C5  UNL     1       8.201   6.900   7.666  1.00  0.00     0.029 C 
HETATM    6  C6  UNL     1       6.338   7.554   9.212  1.00  0.00     0.166 C 
HETATM    7  C7  UNL     1       4.890   7.416   9.369  1.00  0.00     0.171 C 
ENDROOT
BRANCH   1   8
HETATM    8  S1  UNL     1       2.973   5.562   8.572  1.00  0.00    -0.155 SA
HETATM    9  C1  UNL     1       2.904   4.190   7.428  1.00  0.00     0.091 C 
ENDBRANCH   1   8
BRANCH   7  10
HETATM   10  O2  UNL     1       4.328   8.683   9.593  1.00  0.00    -0.391 OA
ATOM     11  H2  UNL     1       5.018   9.333   9.647  1.00  0.00     0.210 HD
ENDBRANCH   7  10
BRANCH   6  12
HETATM   12  O1  UNL     1       6.759   8.788   9.736  1.00  0.00    -0.391 OA
ATOM     13  H1  UNL     1       6.424   8.948  10.610  1.00  0.00     0.210 HD
ENDBRANCH   6  12
TORSDOF 3
ENDMDL
MODEL 5
REMARK VINA RESULT: -3.995800387      1.723      4.367
REMARK  3 active torsions:
REMARK  status: ('A' for Active; 'I' for Inactive)
REMARK    1  A    between atoms: S1_2  and  C2_3 
REMARK    2  A    between atoms: C6_8  and  O1_9 
REMARK    3  A    between atoms: C7_11  and  O2_12 
ROOT
HETATM    1  C2  UNL     1       6.169   9.220   9.223  1.00  0.00     0.140 C 
HETATM    2  S2  UNL     1       4.661   8.190   9.240  1.00  0.00    -0.139 SA
HETATM    3  C3  UNL     1       5.165   7.246   7.758  1.00  0.00     0.030 C 
HETATM    4  C4  UNL     1       4.857   8.131   6.580  1.00  0.00     0.029 C 
HETATM    5  C5  UNL     1       4.433   5.942   7.669  1.00  0.00     0.029 C 
HETATM    6  C6  UNL     1       6.622   7.107   8.047  1.00  0.00     0.166 C 
HETATM    7  C7  UNL     1       7.179   8.299   8.685  1.00  0.00     0.171 C 
ENDROOT
BRANCH   1   8
HETATM    8  S1  UNL     1       6.456   9.932  10.821  1.00  0.00    -0.155 SA
HETATM    9  C1  UNL     1       7.542  11.351  10.843  1.00  0.00     0.091 C 
ENDBRANCH   1   8
BRANCH   7  10
HETATM   10  O2  UNL     1       7.993   8.978   7.763  1.00  0.00    -0.391 OA
ATOM     11  H2  UNL     1       7.663   8.838   6.884  1.00  0.00     0.210 HD
ENDBRANCH   7  10
BRANCH   6  12
HETATM   12  O1  UNL     1       7.373   6.782   6.905  1.00  0.00    -0.391 OA
ATOM     13  H1  UNL     1       7.952   6.043   7.045  1.00  0.00     0.210 HD
ENDBRANCH   6  12
TORSDOF 3
ENDMDL
