MODEL 1
REMARK VINA RESULT: -8.938902737      0.000      0.000
REMARK  9 active torsions:
REMARK  status: ('A' for Active; 'I' for Inactive)
REMARK       I    between atoms: N1_2  and  C2_4 
REMARK    1  A    between atoms: C2_4  and  O2_6 
REMARK    2  A    between atoms: O2_6  and  N2_7 
REMARK    3  A    between atoms: N2_7  and  C3_9 
REMARK    4  A    between atoms: C3_9  and  C4_13 
REMARK    5  A    between atoms: C4_13  and  N4_14 
REMARK    6  A    between atoms: C6_16  and  C7_17 
REMARK       I    between atoms: C7_17  and  N5_19 
REMARK    7  A    between atoms: N5_19  and  N6_21 
REMARK    8  A    between atoms: N6_21  and  C8_23 
REMARK    9  A    between atoms: C12_27  and  N7_28 
ROOT
HETATM    1  N4  UNL     1      26.471 132.555  17.020  1.00  0.00    -0.277 N 
HETATM    2  C5  UNL     1      27.480 131.652  16.899  1.00  0.00     0.144 A 
HETATM    3  C6  UNL     1      27.136 130.494  17.542  1.00  0.00     0.132 A 
HETATM    4  N8  UNL     1      25.915 130.700  18.052  1.00  0.00    -0.278 N 
ATOM      5  H8  UNL     1      25.371 130.027  18.591  1.00  0.00     0.184 HD
HETATM    6  N9  UNL     1      25.535 131.938  17.731  1.00  0.00    -0.020 NA
ENDROOT
BRANCH   3   7
HETATM    7  C7  UNL     1      27.944 129.309  17.684  1.00  0.00     0.289 C 
HETATM    8  O3  UNL     1      28.667 129.196  18.725  1.00  0.00    -0.264 OA
HETATM    9  N5  UNL     1      27.945 128.278  16.673  1.00  0.00    -0.264 N 
ATOM     10  H5  UNL     1      27.354 128.390  15.850  1.00  0.00     0.190 HD
BRANCH   9  11
HETATM   11  N6  UNL     1      28.730 127.135  16.791  1.00  0.00    -0.298 N 
ATOM     12  H6  UNL     1      29.714 127.114  16.523  1.00  0.00     0.187 HD
BRANCH  11  13
HETATM   13  C8  UNL     1      28.047 125.986  17.318  1.00  0.00     0.050 A 
HETATM   14  C9  UNL     1      27.134 125.296  16.520  1.00  0.00     0.031 A 
HETATM   15  C10 UNL     1      26.482 124.203  17.002  1.00  0.00     0.005 A 
HETATM   16  C11 UNL     1      26.706 123.741  18.299  1.00  0.00     0.036 A 
HETATM   17  C12 UNL     1      27.610 124.413  19.102  1.00  0.00     0.105 A 
HETATM   18  C13 UNL     1      28.268 125.531  18.596  1.00  0.00     0.067 A 
BRANCH  17  19
HETATM   19  N7  UNL     1      27.895 123.982  20.426  1.00  0.00    -0.116 N 
HETATM   20  O4  UNL     1      27.775 122.772  20.685  1.00  0.00    -0.532 OA
HETATM   21  O5  UNL     1      28.285 124.824  21.418  1.00  0.00    -0.532 OA
ENDBRANCH  17  19
ENDBRANCH  11  13
ENDBRANCH   9  11
ENDBRANCH   3   7
BRANCH   1  22
HETATM   22  C4  UNL     1      26.482 133.862  16.451  1.00  0.00     0.223 C 
BRANCH  22  23
HETATM   23  C3  UNL     1      25.159 134.528  16.732  1.00  0.00     0.115 C 
HETATM   24  N3  UNL     1      24.154 134.307  15.899  1.00  0.00    -0.386 N 
ATOM     25  H32 UNL     1      23.259 134.757  16.089  1.00  0.00     0.157 HD
ATOM     26  H31 UNL     1      24.277 133.685  15.100  1.00  0.00     0.157 HD
BRANCH  23  27
HETATM   27  N2  UNL     1      24.989 135.381  17.827  1.00  0.00    -0.243 N 
ATOM     28  H2  UNL     1      24.107 135.862  18.003  1.00  0.00     0.196 HD
BRANCH  27  29
HETATM   29  O2  UNL     1      26.089 135.538  18.662  1.00  0.00    -0.180 OA
BRANCH  29  30
HETATM   30  C2  UNL     1      25.986 135.036  19.952  1.00  0.00     0.382 C 
HETATM   31  N1  UNL     1      25.235 133.867  20.214  1.00  0.00    -0.340 N 
HETATM   32  C1  UNL     1      25.161 133.378  21.575  1.00  0.00     0.151 C 
ATOM     33  H1  UNL     1      24.755 133.378  19.459  1.00  0.00     0.164 HD
HETATM   34  O1  UNL     1      26.575 135.645  20.884  1.00  0.00    -0.236 OA
ENDBRANCH  29  30
ENDBRANCH  27  29
ENDBRANCH  23  27
ENDBRANCH  22  23
ENDBRANCH   1  22
TORSDOF 9
ENDMDL
MODEL 2
REMARK VINA RESULT: -8.481234138      1.820      2.149
REMARK  9 active torsions:
REMARK  status: ('A' for Active; 'I' for Inactive)
REMARK       I    between atoms: N1_2  and  C2_4 
REMARK    1  A    between atoms: C2_4  and  O2_6 
REMARK    2  A    between atoms: O2_6  and  N2_7 
REMARK    3  A    between atoms: N2_7  and  C3_9 
REMARK    4  A    between atoms: C3_9  and  C4_13 
REMARK    5  A    between atoms: C4_13  and  N4_14 
REMARK    6  A    between atoms: C6_16  and  C7_17 
REMARK       I    between atoms: C7_17  and  N5_19 
REMARK    7  A    between atoms: N5_19  and  N6_21 
REMARK    8  A    between atoms: N6_21  and  C8_23 
REMARK    9  A    between atoms: C12_27  and  N7_28 
ROOT
HETATM    1  N4  UNL     1      26.905 132.271  17.096  1.00  0.00    -0.277 N 
HETATM    2  C5  UNL     1      27.964 131.424  17.013  1.00  0.00     0.144 A 
HETATM    3  C6  UNL     1      27.660 130.250  17.647  1.00  0.00     0.132 A 
HETATM    4  N8  UNL     1      26.413 130.390  18.113  1.00  0.00    -0.278 N 
ATOM      5  H8  UNL     1      25.887 129.690  18.634  1.00  0.00     0.184 HD
HETATM    6  N9  UNL     1      25.978 131.605  17.775  1.00  0.00    -0.020 NA
ENDROOT
BRANCH   3   7
HETATM    7  C7  UNL     1      28.526 129.111  17.820  1.00  0.00     0.289 C 
HETATM    8  O3  UNL     1      29.721 129.193  17.389  1.00  0.00    -0.264 OA
HETATM    9  N5  UNL     1      28.058 127.903  18.459  1.00  0.00    -0.264 N 
ATOM     10  H5  UNL     1      27.097 127.864  18.800  1.00  0.00     0.190 HD
BRANCH   9  11
HETATM   11  N6  UNL     1      28.879 126.792  18.622  1.00  0.00    -0.298 N 
ATOM     12  H6  UNL     1      29.895 126.862  18.675  1.00  0.00     0.187 HD
BRANCH  11  13
HETATM   13  C8  UNL     1      28.184 125.537  18.709  1.00  0.00     0.050 A 
HETATM   14  C9  UNL     1      28.125 124.862  19.930  1.00  0.00     0.031 A 
HETATM   15  C10 UNL     1      27.467 123.675  20.031  1.00  0.00     0.005 A 
HETATM   16  C11 UNL     1      26.836 123.102  18.928  1.00  0.00     0.036 A 
HETATM   17  C12 UNL     1      26.885 123.759  17.712  1.00  0.00     0.105 A 
HETATM   18  C13 UNL     1      27.562 124.972  17.622  1.00  0.00     0.067 A 
BRANCH  17  19
HETATM   19  N7  UNL     1      26.246 123.235  16.555  1.00  0.00    -0.116 N 
HETATM   20  O4  UNL     1      25.968 122.024  16.538  1.00  0.00    -0.532 OA
HETATM   21  O5  UNL     1      25.933 123.989  15.469  1.00  0.00    -0.532 OA
ENDBRANCH  17  19
ENDBRANCH  11  13
ENDBRANCH   9  11
ENDBRANCH   3   7
BRANCH   1  22
HETATM   22  C4  UNL     1      26.865 133.576  16.524  1.00  0.00     0.223 C 
BRANCH  22  23
HETATM   23  C3  UNL     1      25.499 134.172  16.758  1.00  0.00     0.115 C 
HETATM   24  N3  UNL     1      24.484 133.720  16.039  1.00  0.00    -0.386 N 
ATOM     25  H32 UNL     1      23.561 134.123  16.198  1.00  0.00     0.157 HD
ATOM     26  H31 UNL     1      24.630 132.976  15.357  1.00  0.00     0.157 HD
BRANCH  23  27
HETATM   27  N2  UNL     1      25.299 135.193  17.693  1.00  0.00    -0.243 N 
ATOM     28  H2  UNL     1      24.461 135.774  17.683  1.00  0.00     0.196 HD
BRANCH  27  29
HETATM   29  O2  UNL     1      26.306 135.373  18.635  1.00  0.00    -0.180 OA
BRANCH  29  30
HETATM   30  C2  UNL     1      26.045 134.959  19.933  1.00  0.00     0.382 C 
HETATM   31  N1  UNL     1      25.362 133.746  20.180  1.00  0.00    -0.340 N 
HETATM   32  C1  UNL     1      25.116 133.352  21.552  1.00  0.00     0.151 C 
ATOM     33  H1  UNL     1      25.047 133.160  19.407  1.00  0.00     0.164 HD
HETATM   34  O1  UNL     1      26.429 135.686  20.887  1.00  0.00    -0.236 OA
ENDBRANCH  29  30
ENDBRANCH  27  29
ENDBRANCH  23  27
ENDBRANCH  22  23
ENDBRANCH   1  22
TORSDOF 9
ENDMDL
MODEL 3
REMARK VINA RESULT: -8.451424815      2.321      2.905
REMARK  9 active torsions:
REMARK  status: ('A' for Active; 'I' for Inactive)
REMARK       I    between atoms: N1_2  and  C2_4 
REMARK    1  A    between atoms: C2_4  and  O2_6 
REMARK    2  A    between atoms: O2_6  and  N2_7 
REMARK    3  A    between atoms: N2_7  and  C3_9 
REMARK    4  A    between atoms: C3_9  and  C4_13 
REMARK    5  A    between atoms: C4_13  and  N4_14 
REMARK    6  A    between atoms: C6_16  and  C7_17 
REMARK       I    between atoms: C7_17  and  N5_19 
REMARK    7  A    between atoms: N5_19  and  N6_21 
REMARK    8  A    between atoms: N6_21  and  C8_23 
REMARK    9  A    between atoms: C12_27  and  N7_28 
ROOT
HETATM    1  N4  UNL     1      26.233 133.584  15.888  1.00  0.00    -0.277 N 
HETATM    2  C5  UNL     1      26.454 132.354  15.356  1.00  0.00     0.144 A 
HETATM    3  C6  UNL     1      25.677 131.430  16.001  1.00  0.00     0.132 A 
HETATM    4  N8  UNL     1      24.984 132.107  16.925  1.00  0.00    -0.278 N 
ATOM      5  H8  UNL     1      24.309 131.709  17.577  1.00  0.00     0.184 HD
HETATM    6  N9  UNL     1      25.331 133.393  16.844  1.00  0.00    -0.020 NA
ENDROOT
BRANCH   3   7
HETATM    7  C7  UNL     1      25.646 130.009  15.765  1.00  0.00     0.289 C 
HETATM    8  O3  UNL     1      25.662 129.599  14.561  1.00  0.00    -0.264 OA
HETATM    9  N5  UNL     1      25.593 129.068  16.860  1.00  0.00    -0.264 N 
ATOM     10  H5  UNL     1      25.587 129.422  17.816  1.00  0.00     0.190 HD
BRANCH   9  11
HETATM   11  N6  UNL     1      25.551 127.694  16.647  1.00  0.00    -0.298 N 
ATOM     12  H6  UNL     1      24.757 127.230  16.205  1.00  0.00     0.187 HD
BRANCH  11  13
HETATM   13  C8  UNL     1      26.713 126.978  17.098  1.00  0.00     0.050 A 
HETATM   14  C9  UNL     1      26.604 125.630  17.443  1.00  0.00     0.031 A 
HETATM   15  C10 UNL     1      27.695 124.936  17.867  1.00  0.00     0.005 A 
HETATM   16  C11 UNL     1      28.946 125.545  17.967  1.00  0.00     0.036 A 
HETATM   17  C12 UNL     1      29.070 126.880  17.627  1.00  0.00     0.105 A 
HETATM   18  C13 UNL     1      27.945 127.578  17.196  1.00  0.00     0.067 A 
BRANCH  17  19
HETATM   19  N7  UNL     1      30.320 127.553  17.691  1.00  0.00    -0.116 N 
HETATM   20  O4  UNL     1      31.195 127.090  18.443  1.00  0.00    -0.532 OA
HETATM   21  O5  UNL     1      30.602 128.674  16.979  1.00  0.00    -0.532 OA
ENDBRANCH  17  19
ENDBRANCH  11  13
ENDBRANCH   9  11
ENDBRANCH   3   7
BRANCH   1  22
HETATM   22  C4  UNL     1      26.858 134.784  15.441  1.00  0.00     0.223 C 
BRANCH  22  23
HETATM   23  C3  UNL     1      26.698 135.844  16.502  1.00  0.00     0.115 C 
HETATM   24  N3  UNL     1      26.157 137.002  16.158  1.00  0.00    -0.386 N 
ATOM     25  H32 UNL     1      26.048 137.718  16.875  1.00  0.00     0.157 HD
ATOM     26  H31 UNL     1      25.844 137.157  15.199  1.00  0.00     0.157 HD
BRANCH  23  27
HETATM   27  N2  UNL     1      27.127 135.633  17.816  1.00  0.00    -0.243 N 
ATOM     28  H2  UNL     1      27.982 135.118  18.026  1.00  0.00     0.196 HD
BRANCH  27  29
HETATM   29  O2  UNL     1      26.324 136.163  18.820  1.00  0.00    -0.180 OA
BRANCH  29  30
HETATM   30  C2  UNL     1      26.136 135.392  19.959  1.00  0.00     0.382 C 
HETATM   31  N1  UNL     1      25.257 134.285  19.945  1.00  0.00    -0.340 N 
HETATM   32  C1  UNL     1      25.097 133.507  21.156  1.00  0.00     0.151 C 
ATOM     33  H1  UNL     1      24.745 134.039  19.097  1.00  0.00     0.164 HD
HETATM   34  O1  UNL     1      26.765 135.701  21.006  1.00  0.00    -0.236 OA
ENDBRANCH  29  30
ENDBRANCH  27  29
ENDBRANCH  23  27
ENDBRANCH  22  23
ENDBRANCH   1  22
TORSDOF 9
ENDMDL
MODEL 4
REMARK VINA RESULT: -8.410124495      2.145      2.595
REMARK  9 active torsions:
REMARK  status: ('A' for Active; 'I' for Inactive)
REMARK       I    between atoms: N1_2  and  C2_4 
REMARK    1  A    between atoms: C2_4  and  O2_6 
REMARK    2  A    between atoms: O2_6  and  N2_7 
REMARK    3  A    between atoms: N2_7  and  C3_9 
REMARK    4  A    between atoms: C3_9  and  C4_13 
REMARK    5  A    between atoms: C4_13  and  N4_14 
REMARK    6  A    between atoms: C6_16  and  C7_17 
REMARK       I    between atoms: C7_17  and  N5_19 
REMARK    7  A    between atoms: N5_19  and  N6_21 
REMARK    8  A    between atoms: N6_21  and  C8_23 
REMARK    9  A    between atoms: C12_27  and  N7_28 
ROOT
HETATM    1  N4  UNL     1      27.205 132.206  16.998  1.00  0.00    -0.277 N 
HETATM    2  C5  UNL     1      28.229 131.313  16.974  1.00  0.00     0.144 A 
HETATM    3  C6  UNL     1      27.870 130.188  17.665  1.00  0.00     0.132 A 
HETATM    4  N8  UNL     1      26.625 130.404  18.107  1.00  0.00    -0.278 N 
ATOM      5  H8  UNL     1      26.065 129.754  18.658  1.00  0.00     0.184 HD
HETATM    6  N9  UNL     1      26.245 131.616  17.700  1.00  0.00    -0.020 NA
ENDROOT
BRANCH   3   7
HETATM    7  C7  UNL     1      28.685 129.025  17.909  1.00  0.00     0.289 C 
HETATM    8  O3  UNL     1      29.915 129.074  17.585  1.00  0.00    -0.264 OA
HETATM    9  N5  UNL     1      28.129 127.829  18.498  1.00  0.00    -0.264 N 
ATOM     10  H5  UNL     1      27.142 127.816  18.753  1.00  0.00     0.190 HD
BRANCH   9  11
HETATM   11  N6  UNL     1      28.902 126.695  18.728  1.00  0.00    -0.298 N 
ATOM     12  H6  UNL     1      29.912 126.736  18.860  1.00  0.00     0.187 HD
BRANCH  11  13
HETATM   13  C8  UNL     1      28.166 125.462  18.765  1.00  0.00     0.050 A 
HETATM   14  C9  UNL     1      28.053 124.758  19.965  1.00  0.00     0.031 A 
HETATM   15  C10 UNL     1      27.356 123.591  20.018  1.00  0.00     0.005 A 
HETATM   16  C11 UNL     1      26.735 123.067  18.884  1.00  0.00     0.036 A 
HETATM   17  C12 UNL     1      26.836 123.753  17.688  1.00  0.00     0.105 A 
HETATM   18  C13 UNL     1      27.554 124.945  17.648  1.00  0.00     0.067 A 
BRANCH  17  19
HETATM   19  N7  UNL     1      26.211 123.281  16.502  1.00  0.00    -0.116 N 
HETATM   20  O4  UNL     1      25.912 122.076  16.439  1.00  0.00    -0.532 OA
HETATM   21  O5  UNL     1      25.932 124.077  15.437  1.00  0.00    -0.532 OA
ENDBRANCH  17  19
ENDBRANCH  11  13
ENDBRANCH   9  11
ENDBRANCH   3   7
BRANCH   1  22
HETATM   22  C4  UNL     1      27.226 133.479  16.358  1.00  0.00     0.223 C 
BRANCH  22  23
HETATM   23  C3  UNL     1      28.347 134.302  16.941  1.00  0.00     0.115 C 
HETATM   24  N3  UNL     1      29.346 134.656  16.148  1.00  0.00    -0.386 N 
ATOM     25  H32 UNL     1      30.104 135.213  16.543  1.00  0.00     0.157 HD
ATOM     26  H31 UNL     1      29.339 134.389  15.164  1.00  0.00     0.157 HD
BRANCH  23  27
HETATM   27  N2  UNL     1      28.358 134.669  18.291  1.00  0.00    -0.243 N 
ATOM     28  H2  UNL     1      29.050 134.301  18.943  1.00  0.00     0.196 HD
BRANCH  27  29
HETATM   29  O2  UNL     1      27.373 135.564  18.694  1.00  0.00    -0.180 OA
BRANCH  29  30
HETATM   30  C2  UNL     1      26.590 135.202  19.782  1.00  0.00     0.382 C 
HETATM   31  N1  UNL     1      26.129 133.873  19.929  1.00  0.00    -0.340 N 
HETATM   32  C1  UNL     1      25.319 133.542  21.083  1.00  0.00     0.151 C 
ATOM     33  H1  UNL     1      26.363 133.163  19.236  1.00  0.00     0.164 HD
HETATM   34  O1  UNL     1      26.299 136.083  20.634  1.00  0.00    -0.236 OA
ENDBRANCH  29  30
ENDBRANCH  27  29
ENDBRANCH  23  27
ENDBRANCH  22  23
ENDBRANCH   1  22
TORSDOF 9
ENDMDL
MODEL 5
REMARK VINA RESULT: -8.398097633      2.198      2.714
REMARK  9 active torsions:
REMARK  status: ('A' for Active; 'I' for Inactive)
REMARK       I    between atoms: N1_2  and  C2_4 
REMARK    1  A    between atoms: C2_4  and  O2_6 
REMARK    2  A    between atoms: O2_6  and  N2_7 
REMARK    3  A    between atoms: N2_7  and  C3_9 
REMARK    4  A    between atoms: C3_9  and  C4_13 
REMARK    5  A    between atoms: C4_13  and  N4_14 
REMARK    6  A    between atoms: C6_16  and  C7_17 
REMARK       I    between atoms: C7_17  and  N5_19 
REMARK    7  A    between atoms: N5_19  and  N6_21 
REMARK    8  A    between atoms: N6_21  and  C8_23 
REMARK    9  A    between atoms: C12_27  and  N7_28 
ROOT
HETATM    1  N4  UNL     1      26.831 132.910  16.988  1.00  0.00    -0.277 N 
HETATM    2  C5  UNL     1      27.765 131.937  16.827  1.00  0.00     0.144 A 
HETATM    3  C6  UNL     1      27.422 130.846  17.579  1.00  0.00     0.132 A 
HETATM    4  N8  UNL     1      26.277 131.164  18.195  1.00  0.00    -0.278 N 
ATOM      5  H8  UNL     1      25.754 130.563  18.832  1.00  0.00     0.184 HD
HETATM    6  N9  UNL     1      25.940 132.402  17.831  1.00  0.00    -0.020 NA
ENDROOT
BRANCH   3   7
HETATM    7  C7  UNL     1      28.169 129.621  17.718  1.00  0.00     0.289 C 
HETATM    8  O3  UNL     1      29.358 129.588  17.267  1.00  0.00    -0.264 OA
HETATM    9  N5  UNL     1      27.589 128.456  18.343  1.00  0.00    -0.264 N 
ATOM     10  H5  UNL     1      26.635 128.509  18.700  1.00  0.00     0.190 HD
BRANCH   9  11
HETATM   11  N6  UNL     1      28.294 127.263  18.473  1.00  0.00    -0.298 N 
ATOM     12  H6  UNL     1      29.185 127.202  18.965  1.00  0.00     0.187 HD
BRANCH  11  13
HETATM   13  C8  UNL     1      27.669 126.124  17.858  1.00  0.00     0.050 A 
HETATM   14  C9  UNL     1      27.656 124.898  18.525  1.00  0.00     0.031 A 
HETATM   15  C10 UNL     1      27.065 123.811  17.959  1.00  0.00     0.005 A 
HETATM   16  C11 UNL     1      26.457 123.888  16.706  1.00  0.00     0.036 A 
HETATM   17  C12 UNL     1      26.460 125.096  16.034  1.00  0.00     0.105 A 
HETATM   18  C13 UNL     1      27.070 126.200  16.624  1.00  0.00     0.067 A 
BRANCH  17  19
HETATM   19  N7  UNL     1      25.842 125.244  14.763  1.00  0.00    -0.116 N 
HETATM   20  O4  UNL     1      26.513 124.975  13.752  1.00  0.00    -0.532 OA
HETATM   21  O5  UNL     1      24.562 125.669  14.599  1.00  0.00    -0.532 OA
ENDBRANCH  17  19
ENDBRANCH  11  13
ENDBRANCH   9  11
ENDBRANCH   3   7
BRANCH   1  22
HETATM   22  C4  UNL     1      26.859 134.176  16.333  1.00  0.00     0.223 C 
BRANCH  22  23
HETATM   23  C3  UNL     1      26.096 135.175  17.166  1.00  0.00     0.115 C 
HETATM   24  N3  UNL     1      24.805 135.341  16.924  1.00  0.00    -0.386 N 
ATOM     25  H32 UNL     1      24.290 136.017  17.487  1.00  0.00     0.157 HD
ATOM     26  H31 UNL     1      24.345 134.789  16.200  1.00  0.00     0.157 HD
BRANCH  23  27
HETATM   27  N2  UNL     1      26.728 135.932  18.158  1.00  0.00    -0.243 N 
ATOM     28  H2  UNL     1      27.697 136.234  18.069  1.00  0.00     0.196 HD
BRANCH  27  29
HETATM   29  O2  UNL     1      25.960 136.251  19.273  1.00  0.00    -0.180 OA
BRANCH  29  30
HETATM   30  C2  UNL     1      25.957 135.345  20.324  1.00  0.00     0.382 C 
HETATM   31  N1  UNL     1      25.050 134.260  20.341  1.00  0.00    -0.340 N 
HETATM   32  C1  UNL     1      25.088 133.338  21.457  1.00  0.00     0.151 C 
ATOM     33  H1  UNL     1      24.382 134.130  19.581  1.00  0.00     0.164 HD
HETATM   34  O1  UNL     1      26.780 135.511  21.264  1.00  0.00    -0.236 OA
ENDBRANCH  29  30
ENDBRANCH  27  29
ENDBRANCH  23  27
ENDBRANCH  22  23
ENDBRANCH   1  22
TORSDOF 9
ENDMDL
