MODEL 1
REMARK VINA RESULT: -8.273361683      0.000      0.000
REMARK  8 active torsions:
REMARK  status: ('A' for Active; 'I' for Inactive)
REMARK    1  A    between atoms: C2_2  and  C3_3 
REMARK    2  A    between atoms: C3_3  and  C4_4 
REMARK    3  A    between atoms: C4_4  and  N1_5 
REMARK    4  A    between atoms: C5_6  and  N2_7 
REMARK    5  A    between atoms: C7_13  and  C8_14 
REMARK    6  A    between atoms: C8_14  and  N4_16 
REMARK    7  A    between atoms: C8_14  and  C16_27 
REMARK    8  A    between atoms: N4_16  and  N5_17 
ROOT
HETATM    1  C8  UNL     1     -38.238 -14.531 377.402  1.00  0.00     0.147 C 
HETATM    2  C9  UNL     1     -37.441 -15.635 377.908  1.00  0.00     0.051 C 
ENDROOT
BRANCH   1   3
HETATM    3  C7  UNL     1     -38.105 -14.053 376.026  1.00  0.00     0.118 A 
HETATM    4  N1  UNL     1     -37.185 -13.984 375.087  1.00  0.00    -0.315 N 
HETATM    5  C5  UNL     1     -37.684 -13.387 373.976  1.00  0.00     0.193 A 
HETATM    6  C6  UNL     1     -39.002 -13.075 374.273  1.00  0.00     0.144 A 
HETATM    7  N3  UNL     1     -39.240 -13.475 375.488  1.00  0.00    -0.350 N 
ATOM      8  H3  UNL     1     -40.132 -13.376 375.972  1.00  0.00     0.166 HD
BRANCH   4   9
HETATM    9  C4  UNL     1     -35.837 -14.465 375.243  1.00  0.00     0.132 C 
BRANCH   9  10
HETATM   10  C3  UNL     1     -34.928 -13.378 375.777  1.00  0.00     0.020 C 
BRANCH  10  11
HETATM   11  C2  UNL     1     -33.587 -13.426 375.061  1.00  0.00    -0.003 C 
HETATM   12  C1  UNL     1     -33.670 -14.158 373.743  1.00  0.00     0.005 C 
ENDBRANCH  10  11
ENDBRANCH   9  10
ENDBRANCH   4   9
BRANCH   5  13
HETATM   13  N2  UNL     1     -37.035 -13.121 372.762  1.00  0.00    -0.096 N 
HETATM   14  O1  UNL     1     -36.413 -12.017 372.651  1.00  0.00    -0.530 OA
HETATM   15  O2  UNL     1     -37.002 -13.924 371.679  1.00  0.00    -0.530 OA
ENDBRANCH   5  13
ENDBRANCH   1   3
BRANCH   1  16
HETATM   16  N4  UNL     1     -39.625 -15.013 377.485  1.00  0.00    -0.117 NA
BRANCH  16  17
HETATM   17  N5  UNL     1     -39.846 -16.222 376.792  1.00  0.00    -0.311 N 
HETATM   18  C10 UNL     1     -40.530 -17.167 377.329  1.00  0.00     0.000 C 
HETATM   19  C11 UNL     1     -40.741 -18.411 376.582  1.00  0.00     0.059 C 
HETATM   20  C15 UNL     1     -41.119 -17.043 378.688  1.00  0.00     0.059 C 
HETATM   21  C12 UNL     1     -42.143 -18.948 376.702  1.00  0.00     0.084 C 
HETATM   22  C13 UNL     1     -42.756 -18.726 378.046  1.00  0.00     0.244 C 
HETATM   23  F1  UNL     1     -42.267 -19.609 379.005  1.00  0.00    -0.206 F 
HETATM   24  F2  UNL     1     -44.117 -19.007 377.936  1.00  0.00    -0.206 F 
HETATM   25  C14 UNL     1     -42.601 -17.315 378.557  1.00  0.00     0.084 C 
ATOM     26  H5  UNL     1     -39.459 -16.346 375.857  1.00  0.00     0.181 HD
ENDBRANCH  16  17
ENDBRANCH   1  16
BRANCH   1  27
HETATM   27  C16 UNL     1     -38.149 -13.307 378.280  1.00  0.00     0.049 A 
HETATM   28  N6  UNL     1     -37.544 -12.170 377.927  1.00  0.00    -0.361 N 
HETATM   29  C17 UNL     1     -37.642 -11.259 378.917  1.00  0.00     0.006 A 
ATOM     30  H6  UNL     1     -37.074 -12.013 377.035  1.00  0.00     0.165 HD
HETATM   31  C18 UNL     1     -37.090  -9.860 378.906  1.00  0.00     0.068 C 
HETATM   32  C19 UNL     1     -38.346 -11.872 379.929  1.00  0.00     0.033 A 
HETATM   33  C20 UNL     1     -38.667 -13.151 379.541  1.00  0.00    -0.035 A 
HETATM   34  C21 UNL     1     -39.413 -14.155 380.317  1.00  0.00     0.050 C 
ENDBRANCH   1  27
TORSDOF 8
ENDMDL
MODEL 2
REMARK VINA RESULT: -8.216109895      1.264      1.632
REMARK  8 active torsions:
REMARK  status: ('A' for Active; 'I' for Inactive)
REMARK    1  A    between atoms: C2_2  and  C3_3 
REMARK    2  A    between atoms: C3_3  and  C4_4 
REMARK    3  A    between atoms: C4_4  and  N1_5 
REMARK    4  A    between atoms: C5_6  and  N2_7 
REMARK    5  A    between atoms: C7_13  and  C8_14 
REMARK    6  A    between atoms: C8_14  and  N4_16 
REMARK    7  A    between atoms: C8_14  and  C16_27 
REMARK    8  A    between atoms: N4_16  and  N5_17 
ROOT
HETATM    1  C8  UNL     1     -37.934 -15.094 377.147  1.00  0.00     0.147 C 
HETATM    2  C9  UNL     1     -36.850 -16.014 377.447  1.00  0.00     0.051 C 
ENDROOT
BRANCH   1   3
HETATM    3  C7  UNL     1     -38.003 -14.373 375.877  1.00  0.00     0.118 A 
HETATM    4  N1  UNL     1     -37.201 -14.014 374.897  1.00  0.00    -0.315 N 
HETATM    5  C5  UNL     1     -37.881 -13.312 373.958  1.00  0.00     0.193 A 
HETATM    6  C6  UNL     1     -39.191 -13.246 374.409  1.00  0.00     0.144 A 
HETATM    7  N3  UNL     1     -39.251 -13.878 375.545  1.00  0.00    -0.350 N 
ATOM      8  H3  UNL     1     -40.094 -13.991 376.108  1.00  0.00     0.166 HD
BRANCH   4   9
HETATM    9  C4  UNL     1     -35.794 -14.319 374.856  1.00  0.00     0.132 C 
BRANCH   9  10
HETATM   10  C3  UNL     1     -34.986 -13.264 375.580  1.00  0.00     0.020 C 
BRANCH  10  11
HETATM   11  C2  UNL     1     -33.506 -13.611 375.517  1.00  0.00    -0.003 C 
HETATM   12  C1  UNL     1     -32.786 -12.845 374.433  1.00  0.00     0.005 C 
ENDBRANCH  10  11
ENDBRANCH   9  10
ENDBRANCH   4   9
BRANCH   5  13
HETATM   13  N2  UNL     1     -37.400 -12.752 372.766  1.00  0.00    -0.096 N 
HETATM   14  O1  UNL     1     -37.366 -13.494 371.734  1.00  0.00    -0.530 OA
HETATM   15  O2  UNL     1     -36.960 -11.489 372.595  1.00  0.00    -0.530 OA
ENDBRANCH   5  13
ENDBRANCH   1   3
BRANCH   1  16
HETATM   16  N4  UNL     1     -39.139 -15.936 377.153  1.00  0.00    -0.117 NA
BRANCH  16  17
HETATM   17  N5  UNL     1     -39.037 -17.075 376.326  1.00  0.00    -0.311 N 
HETATM   18  C10 UNL     1     -40.039 -17.865 376.176  1.00  0.00     0.000 C 
HETATM   19  C11 UNL     1     -39.899 -19.040 375.310  1.00  0.00     0.059 C 
HETATM   20  C15 UNL     1     -41.341 -17.628 376.853  1.00  0.00     0.059 C 
HETATM   21  C12 UNL     1     -41.104 -19.286 374.440  1.00  0.00     0.084 C 
HETATM   22  C13 UNL     1     -42.399 -18.950 375.103  1.00  0.00     0.244 C 
HETATM   23  F1  UNL     1     -42.790 -19.914 376.027  1.00  0.00    -0.206 F 
HETATM   24  F2  UNL     1     -43.385 -18.952 374.118  1.00  0.00    -0.206 F 
HETATM   25  C14 UNL     1     -42.402 -17.599 375.776  1.00  0.00     0.084 C 
ATOM     26  H5  UNL     1     -38.161 -17.272 375.844  1.00  0.00     0.181 HD
ENDBRANCH  16  17
ENDBRANCH   1  16
BRANCH   1  27
HETATM   27  C16 UNL     1     -38.123 -14.057 378.228  1.00  0.00     0.049 A 
HETATM   28  N6  UNL     1     -37.629 -12.817 378.174  1.00  0.00    -0.361 N 
HETATM   29  C17 UNL     1     -37.976 -12.127 379.280  1.00  0.00     0.006 A 
ATOM     30  H6  UNL     1     -37.070 -12.445 377.407  1.00  0.00     0.165 HD
HETATM   31  C18 UNL     1     -37.615 -10.701 379.597  1.00  0.00     0.068 C 
HETATM   32  C19 UNL     1     -38.722 -12.990 380.049  1.00  0.00     0.033 A 
HETATM   33  C20 UNL     1     -38.820 -14.199 379.401  1.00  0.00    -0.035 A 
HETATM   34  C21 UNL     1     -39.525 -15.403 379.867  1.00  0.00     0.050 C 
ENDBRANCH   1  27
TORSDOF 8
ENDMDL
MODEL 3
REMARK VINA RESULT: -8.029911169      1.487      2.074
REMARK  8 active torsions:
REMARK  status: ('A' for Active; 'I' for Inactive)
REMARK    1  A    between atoms: C2_2  and  C3_3 
REMARK    2  A    between atoms: C3_3  and  C4_4 
REMARK    3  A    between atoms: C4_4  and  N1_5 
REMARK    4  A    between atoms: C5_6  and  N2_7 
REMARK    5  A    between atoms: C7_13  and  C8_14 
REMARK    6  A    between atoms: C8_14  and  N4_16 
REMARK    7  A    between atoms: C8_14  and  C16_27 
REMARK    8  A    between atoms: N4_16  and  N5_17 
ROOT
HETATM    1  C8  UNL     1     -37.867 -15.369 377.156  1.00  0.00     0.147 C 
HETATM    2  C9  UNL     1     -36.769 -16.294 377.378  1.00  0.00     0.051 C 
ENDROOT
BRANCH   1   3
HETATM    3  C7  UNL     1     -37.993 -14.607 375.914  1.00  0.00     0.118 A 
HETATM    4  N1  UNL     1     -37.239 -14.229 374.903  1.00  0.00    -0.315 N 
HETATM    5  C5  UNL     1     -37.958 -13.489 374.024  1.00  0.00     0.193 A 
HETATM    6  C6  UNL     1     -39.240 -13.419 374.547  1.00  0.00     0.144 A 
HETATM    7  N3  UNL     1     -39.249 -14.085 375.665  1.00  0.00    -0.350 N 
ATOM      8  H3  UNL     1     -40.063 -14.205 376.269  1.00  0.00     0.166 HD
BRANCH   4   9
HETATM    9  C4  UNL     1     -35.841 -14.551 374.776  1.00  0.00     0.132 C 
BRANCH   9  10
HETATM   10  C3  UNL     1     -34.992 -13.298 374.757  1.00  0.00     0.020 C 
BRANCH  10  11
HETATM   11  C2  UNL     1     -33.546 -13.647 375.074  1.00  0.00    -0.003 C 
HETATM   12  C1  UNL     1     -32.570 -12.787 374.307  1.00  0.00     0.005 C 
ENDBRANCH  10  11
ENDBRANCH   9  10
ENDBRANCH   4   9
BRANCH   5  13
HETATM   13  N2  UNL     1     -37.533 -12.899 372.825  1.00  0.00    -0.096 N 
HETATM   14  O1  UNL     1     -37.381 -11.636 372.807  1.00  0.00    -0.530 OA
HETATM   15  O2  UNL     1     -37.263 -13.539 371.669  1.00  0.00    -0.530 OA
ENDBRANCH   5  13
ENDBRANCH   1   3
BRANCH   1  16
HETATM   16  N4  UNL     1     -39.069 -16.214 377.187  1.00  0.00    -0.117 NA
BRANCH  16  17
HETATM   17  N5  UNL     1     -39.032 -17.283 376.267  1.00  0.00    -0.311 N 
HETATM   18  C10 UNL     1     -40.059 -18.035 376.098  1.00  0.00     0.000 C 
HETATM   19  C11 UNL     1     -39.989 -19.138 375.134  1.00  0.00     0.059 C 
HETATM   20  C15 UNL     1     -41.325 -17.825 376.849  1.00  0.00     0.059 C 
HETATM   21  C12 UNL     1     -41.235 -19.284 374.302  1.00  0.00     0.084 C 
HETATM   22  C13 UNL     1     -42.491 -18.973 375.048  1.00  0.00     0.244 C 
HETATM   23  F1  UNL     1     -42.868 -20.002 375.906  1.00  0.00    -0.206 F 
HETATM   24  F2  UNL     1     -43.519 -18.872 374.110  1.00  0.00    -0.206 F 
HETATM   25  C14 UNL     1     -42.430 -17.683 375.827  1.00  0.00     0.084 C 
ATOM     26  H5  UNL     1     -38.183 -17.460 375.731  1.00  0.00     0.181 HD
ENDBRANCH  16  17
ENDBRANCH   1  16
BRANCH   1  27
HETATM   27  C16 UNL     1     -38.010 -14.368 378.276  1.00  0.00     0.049 A 
HETATM   28  N6  UNL     1     -39.078 -14.280 379.075  1.00  0.00    -0.361 N 
HETATM   29  C17 UNL     1     -38.904 -13.299 379.984  1.00  0.00     0.006 A 
ATOM     30  H6  UNL     1     -39.906 -14.872 379.007  1.00  0.00     0.165 HD
HETATM   31  C18 UNL     1     -39.876 -12.888 381.056  1.00  0.00     0.068 C 
HETATM   32  C19 UNL     1     -37.665 -12.758 379.728  1.00  0.00     0.033 A 
HETATM   33  C20 UNL     1     -37.098 -13.418 378.663  1.00  0.00    -0.035 A 
HETATM   34  C21 UNL     1     -35.782 -13.162 378.056  1.00  0.00     0.050 C 
ENDBRANCH   1  27
TORSDOF 8
ENDMDL
MODEL 4
REMARK VINA RESULT: -7.855294522      1.187      1.963
REMARK  8 active torsions:
REMARK  status: ('A' for Active; 'I' for Inactive)
REMARK    1  A    between atoms: C2_2  and  C3_3 
REMARK    2  A    between atoms: C3_3  and  C4_4 
REMARK    3  A    between atoms: C4_4  and  N1_5 
REMARK    4  A    between atoms: C5_6  and  N2_7 
REMARK    5  A    between atoms: C7_13  and  C8_14 
REMARK    6  A    between atoms: C8_14  and  N4_16 
REMARK    7  A    between atoms: C8_14  and  C16_27 
REMARK    8  A    between atoms: N4_16  and  N5_17 
ROOT
HETATM    1  C8  UNL     1     -38.680 -15.289 376.022  1.00  0.00     0.147 C 
HETATM    2  C9  UNL     1     -38.141 -16.637 375.970  1.00  0.00     0.051 C 
ENDROOT
BRANCH   1   3
HETATM    3  C7  UNL     1     -38.349 -14.288 375.009  1.00  0.00     0.118 A 
HETATM    4  N1  UNL     1     -37.280 -13.741 374.470  1.00  0.00    -0.315 N 
HETATM    5  C5  UNL     1     -37.635 -12.813 373.547  1.00  0.00     0.193 A 
HETATM    6  C6  UNL     1     -39.021 -12.804 373.532  1.00  0.00     0.144 A 
HETATM    7  N3  UNL     1     -39.433 -13.682 374.400  1.00  0.00    -0.350 N 
ATOM      8  H3  UNL     1     -40.410 -13.892 374.602  1.00  0.00     0.166 HD
BRANCH   4   9
HETATM    9  C4  UNL     1     -35.930 -14.081 374.835  1.00  0.00     0.132 C 
BRANCH   9  10
HETATM   10  C3  UNL     1     -35.349 -13.058 375.789  1.00  0.00     0.020 C 
BRANCH  10  11
HETATM   11  C2  UNL     1     -34.870 -13.747 377.058  1.00  0.00    -0.003 C 
HETATM   12  C1  UNL     1     -34.919 -15.252 376.944  1.00  0.00     0.005 C 
ENDBRANCH  10  11
ENDBRANCH   9  10
ENDBRANCH   4   9
BRANCH   5  13
HETATM   13  N2  UNL     1     -36.805 -12.009 372.753  1.00  0.00    -0.096 N 
HETATM   14  O1  UNL     1     -37.082 -10.770 372.671  1.00  0.00    -0.530 OA
HETATM   15  O2  UNL     1     -35.726 -12.416 372.054  1.00  0.00    -0.530 OA
ENDBRANCH   5  13
ENDBRANCH   1   3
BRANCH   1  16
HETATM   16  N4  UNL     1     -40.133 -15.471 375.892  1.00  0.00    -0.117 NA
BRANCH  16  17
HETATM   17  N5  UNL     1     -40.815 -15.467 377.127  1.00  0.00    -0.311 N 
HETATM   18  C10 UNL     1     -41.656 -16.395 377.410  1.00  0.00     0.000 C 
HETATM   19  C11 UNL     1     -42.350 -16.362 378.702  1.00  0.00     0.059 C 
HETATM   20  C15 UNL     1     -41.953 -17.508 376.471  1.00  0.00     0.059 C 
HETATM   21  C12 UNL     1     -42.457 -17.715 379.357  1.00  0.00     0.084 C 
HETATM   22  C13 UNL     1     -42.657 -18.833 378.388  1.00  0.00     0.244 C 
HETATM   23  F1  UNL     1     -43.961 -18.893 377.905  1.00  0.00    -0.206 F 
HETATM   24  F2  UNL     1     -42.458 -20.027 379.082  1.00  0.00    -0.206 F 
HETATM   25  C14 UNL     1     -41.704 -18.799 377.218  1.00  0.00     0.084 C 
ATOM     26  H5  UNL     1     -40.640 -14.721 377.799  1.00  0.00     0.181 HD
ENDBRANCH  16  17
ENDBRANCH   1  16
BRANCH   1  27
HETATM   27  C16 UNL     1     -38.442 -14.626 377.357  1.00  0.00     0.049 A 
HETATM   28  N6  UNL     1     -38.388 -13.304 377.541  1.00  0.00    -0.361 N 
HETATM   29  C17 UNL     1     -38.175 -13.020 378.843  1.00  0.00     0.006 A 
ATOM     30  H6  UNL     1     -38.493 -12.608 376.803  1.00  0.00     0.165 HD
HETATM   31  C18 UNL     1     -38.051 -11.651 379.453  1.00  0.00     0.068 C 
HETATM   32  C19 UNL     1     -38.095 -14.232 379.488  1.00  0.00     0.033 A 
HETATM   33  C20 UNL     1     -38.261 -15.242 378.570  1.00  0.00    -0.035 A 
HETATM   34  C21 UNL     1     -38.245 -16.691 378.827  1.00  0.00     0.050 C 
ENDBRANCH   1  27
TORSDOF 8
ENDMDL
MODEL 5
REMARK VINA RESULT: -7.777140503      4.586      7.954
REMARK  8 active torsions:
REMARK  status: ('A' for Active; 'I' for Inactive)
REMARK    1  A    between atoms: C2_2  and  C3_3 
REMARK    2  A    between atoms: C3_3  and  C4_4 
REMARK    3  A    between atoms: C4_4  and  N1_5 
REMARK    4  A    between atoms: C5_6  and  N2_7 
REMARK    5  A    between atoms: C7_13  and  C8_14 
REMARK    6  A    between atoms: C8_14  and  N4_16 
REMARK    7  A    between atoms: C8_14  and  C16_27 
REMARK    8  A    between atoms: N4_16  and  N5_17 
ROOT
HETATM    1  C8  UNL     1     -36.863 -14.736 376.242  1.00  0.00     0.147 C 
HETATM    2  C9  UNL     1     -35.839 -15.756 376.389  1.00  0.00     0.051 C 
ENDROOT
BRANCH   1   3
HETATM    3  C7  UNL     1     -37.287 -13.903 377.367  1.00  0.00     0.118 A 
HETATM    4  N1  UNL     1     -37.977 -14.022 378.482  1.00  0.00    -0.315 N 
HETATM    5  C5  UNL     1     -38.043 -12.833 379.129  1.00  0.00     0.193 A 
HETATM    6  C6  UNL     1     -37.339 -11.933 378.343  1.00  0.00     0.144 A 
HETATM    7  N3  UNL     1     -36.896 -12.578 377.303  1.00  0.00    -0.350 N 
ATOM      8  H3  UNL     1     -36.341 -12.168 376.552  1.00  0.00     0.166 HD
BRANCH   4   9
HETATM    9  C4  UNL     1     -38.585 -15.249 378.926  1.00  0.00     0.132 C 
BRANCH   9  10
HETATM   10  C3  UNL     1     -40.069 -15.263 378.626  1.00  0.00     0.020 C 
BRANCH  10  11
HETATM   11  C2  UNL     1     -40.857 -15.427 379.916  1.00  0.00    -0.003 C 
HETATM   12  C1  UNL     1     -42.145 -14.638 379.902  1.00  0.00     0.005 C 
ENDBRANCH  10  11
ENDBRANCH   9  10
ENDBRANCH   4   9
BRANCH   5  13
HETATM   13  N2  UNL     1     -38.680 -12.532 380.342  1.00  0.00    -0.096 N 
HETATM   14  O1  UNL     1     -38.063 -12.805 381.420  1.00  0.00    -0.530 OA
HETATM   15  O2  UNL     1     -39.900 -11.974 380.489  1.00  0.00    -0.530 OA
ENDBRANCH   5  13
ENDBRANCH   1   3
BRANCH   1  16
HETATM   16  N4  UNL     1     -36.293 -13.782 375.280  1.00  0.00    -0.117 NA
BRANCH  16  17
HETATM   17  N5  UNL     1     -35.020 -14.156 374.800  1.00  0.00    -0.311 N 
HETATM   18  C10 UNL     1     -34.694 -13.940 373.577  1.00  0.00     0.000 C 
HETATM   19  C11 UNL     1     -33.363 -14.341 373.110  1.00  0.00     0.059 C 
HETATM   20  C15 UNL     1     -35.623 -13.294 372.613  1.00  0.00     0.059 C 
HETATM   21  C12 UNL     1     -32.714 -13.321 372.211  1.00  0.00     0.084 C 
HETATM   22  C13 UNL     1     -33.678 -12.612 371.318  1.00  0.00     0.244 C 
HETATM   23  F1  UNL     1     -34.082 -13.396 370.242  1.00  0.00    -0.206 F 
HETATM   24  F2  UNL     1     -33.006 -11.525 370.759  1.00  0.00    -0.206 F 
HETATM   25  C14 UNL     1     -34.902 -12.097 372.035  1.00  0.00     0.084 C 
ATOM     26  H5  UNL     1     -34.353 -14.601 375.430  1.00  0.00     0.181 HD
ENDBRANCH  16  17
ENDBRANCH   1  16
BRANCH   1  27
HETATM   27  C16 UNL     1     -38.128 -15.277 375.622  1.00  0.00     0.049 A 
HETATM   28  N6  UNL     1     -38.492 -16.562 375.655  1.00  0.00    -0.361 N 
HETATM   29  C17 UNL     1     -39.674 -16.730 375.026  1.00  0.00     0.006 A 
ATOM     30  H6  UNL     1     -37.954 -17.309 376.093  1.00  0.00     0.165 HD
HETATM   31  C18 UNL     1     -40.418 -18.025 374.849  1.00  0.00     0.068 C 
HETATM   32  C19 UNL     1     -40.053 -15.482 374.587  1.00  0.00     0.033 A 
HETATM   33  C20 UNL     1     -39.094 -14.568 374.954  1.00  0.00    -0.035 A 
HETATM   34  C21 UNL     1     -39.096 -13.121 374.685  1.00  0.00     0.050 C 
ENDBRANCH   1  27
TORSDOF 8
ENDMDL
