MODEL 1
REMARK VINA RESULT: -7.968601893      0.000      0.000
REMARK  9 active torsions:
REMARK  status: ('A' for Active; 'I' for Inactive)
REMARK    1  A    between atoms: O1_2  and  C2_3 
REMARK    2  A    between atoms: C4_5  and  C5_6 
REMARK    3  A    between atoms: C5_6  and  N2_11 
REMARK    4  A    between atoms: N1_7  and  O2_9 
REMARK    5  A    between atoms: N2_11  and  C6_13 
REMARK    6  A    between atoms: C12_19  and  O3_20 
REMARK    7  A    between atoms: O3_20  and  C13_21 
REMARK    8  A    between atoms: C19_29  and  O4_30 
REMARK    9  A    between atoms: C21_32  and  O5_33 
ROOT
HETATM    1  C2  UNL     1     -41.487 -18.017 377.278  1.00  0.00     0.105 A 
HETATM    2  C3  UNL     1     -40.185 -17.797 376.931  1.00  0.00     0.058 A 
HETATM    3  C4  UNL     1     -39.364 -16.903 377.632  1.00  0.00     0.048 A 
HETATM    4  C12 UNL     1     -39.924 -16.244 378.703  1.00  0.00     0.119 A 
HETATM    5  C19 UNL     1     -41.236 -16.449 379.075  1.00  0.00     0.139 A 
HETATM    6  C21 UNL     1     -42.009 -17.342 378.348  1.00  0.00     0.138 A 
ENDROOT
BRANCH   3   7
HETATM    7  C5  UNL     1     -38.016 -16.738 377.125  1.00  0.00     0.134 C 
HETATM    8  N1  UNL     1     -36.965 -17.003 377.846  1.00  0.00    -0.252 N 
ATOM      9  H1  UNL     1     -37.074 -17.340 378.804  1.00  0.00     0.196 HD
BRANCH   8  10
HETATM   10  O2  UNL     1     -35.697 -16.829 377.313  1.00  0.00    -0.288 OA
ATOM     11  H2  UNL     1     -35.234 -17.569 376.939  1.00  0.00     0.244 HD
ENDBRANCH   8  10
BRANCH   7  12
HETATM   12  N2  UNL     1     -37.789 -16.331 375.778  1.00  0.00    -0.370 N 
ATOM     13  H2  UNL     1     -37.483 -17.020 375.091  1.00  0.00     0.161 HD
BRANCH  12  14
HETATM   14  C6  UNL     1     -37.990 -14.943 375.366  1.00  0.00     0.083 C 
HETATM   15  C7  UNL     1     -36.798 -14.539 374.511  1.00  0.00     0.025 C 
HETATM   16  C8  UNL     1     -37.191 -13.663 373.349  1.00  0.00     0.002 C 
HETATM   17  C9  UNL     1     -38.220 -12.632 373.698  1.00  0.00     0.000 C 
HETATM   18  C10 UNL     1     -39.432 -13.303 374.278  1.00  0.00     0.002 C 
HETATM   19  C11 UNL     1     -39.209 -14.788 374.500  1.00  0.00     0.025 C 
ENDBRANCH  12  14
ENDBRANCH   7  12
ENDBRANCH   3   7
BRANCH   4  20
HETATM   20  O3  UNL     1     -39.193 -15.364 379.438  1.00  0.00    -0.342 OA
BRANCH  20  21
HETATM   21  C13 UNL     1     -38.935 -14.019 379.328  1.00  0.00     0.129 C 
HETATM   22  C14 UNL     1     -39.198 -13.269 380.608  1.00  0.00     0.038 C 
HETATM   23  C15 UNL     1     -39.191 -11.776 380.246  1.00  0.00     0.081 C 
HETATM   24  C16 UNL     1     -37.929 -11.328 379.613  1.00  0.00     0.243 C 
HETATM   25  F1  UNL     1     -36.922 -11.075 380.554  1.00  0.00    -0.206 F 
HETATM   26  F2  UNL     1     -38.166 -10.124 378.970  1.00  0.00    -0.206 F 
HETATM   27  C17 UNL     1     -37.388 -12.288 378.584  1.00  0.00     0.081 C 
HETATM   28  C18 UNL     1     -37.468 -13.716 379.018  1.00  0.00     0.038 C 
ENDBRANCH  20  21
ENDBRANCH   4  20
BRANCH   1  29
HETATM   29  O1  UNL     1     -42.299 -18.915 376.568  1.00  0.00    -0.353 OA
HETATM   30  C1  UNL     1     -42.722 -18.496 375.260  1.00  0.00     0.210 C 
ENDBRANCH   1  29
BRANCH   5  31
HETATM   31  O4  UNL     1     -41.894 -15.847 380.131  1.00  0.00    -0.351 OA
HETATM   32  C20 UNL     1     -42.474 -14.550 380.015  1.00  0.00     0.210 C 
ENDBRANCH   5  31
BRANCH   6  33
HETATM   33  O5  UNL     1     -43.358 -17.579 378.693  1.00  0.00    -0.351 OA
HETATM   34  C22 UNL     1     -43.697 -18.685 379.529  1.00  0.00     0.210 C 
ENDBRANCH   6  33
TORSDOF 9
ENDMDL
MODEL 2
REMARK VINA RESULT: -7.647050128      2.104      2.781
REMARK  9 active torsions:
REMARK  status: ('A' for Active; 'I' for Inactive)
REMARK    1  A    between atoms: O1_2  and  C2_3 
REMARK    2  A    between atoms: C4_5  and  C5_6 
REMARK    3  A    between atoms: C5_6  and  N2_11 
REMARK    4  A    between atoms: N1_7  and  O2_9 
REMARK    5  A    between atoms: N2_11  and  C6_13 
REMARK    6  A    between atoms: C12_19  and  O3_20 
REMARK    7  A    between atoms: O3_20  and  C13_21 
REMARK    8  A    between atoms: C19_29  and  O4_30 
REMARK    9  A    between atoms: C21_32  and  O5_33 
ROOT
HETATM    1  C2  UNL     1     -42.298 -17.648 375.444  1.00  0.00     0.105 A 
HETATM    2  C3  UNL     1     -41.363 -16.828 374.879  1.00  0.00     0.058 A 
HETATM    3  C4  UNL     1     -40.390 -16.166 375.638  1.00  0.00     0.048 A 
HETATM    4  C12 UNL     1     -40.404 -16.375 376.999  1.00  0.00     0.119 A 
HETATM    5  C19 UNL     1     -41.336 -17.199 377.595  1.00  0.00     0.139 A 
HETATM    6  C21 UNL     1     -42.282 -17.830 376.801  1.00  0.00     0.138 A 
ENDROOT
BRANCH   3   7
HETATM    7  C5  UNL     1     -39.490 -15.295 374.908  1.00  0.00     0.134 C 
HETATM    8  N1  UNL     1     -39.901 -14.216 374.307  1.00  0.00    -0.252 N 
ATOM      9  H1  UNL     1     -40.889 -13.959 374.338  1.00  0.00     0.196 HD
BRANCH   8  10
HETATM   10  O2  UNL     1     -38.999 -13.417 373.623  1.00  0.00    -0.288 OA
ATOM     11  H2  UNL     1     -38.373 -12.889 374.104  1.00  0.00     0.244 HD
ENDBRANCH   8  10
BRANCH   7  12
HETATM   12  N2  UNL     1     -38.089 -15.559 374.875  1.00  0.00    -0.370 N 
ATOM     13  H2  UNL     1     -37.730 -16.284 374.254  1.00  0.00     0.161 HD
BRANCH  12  14
HETATM   14  C6  UNL     1     -37.161 -14.807 375.717  1.00  0.00     0.083 C 
HETATM   15  C7  UNL     1     -36.426 -15.806 376.599  1.00  0.00     0.025 C 
HETATM   16  C8  UNL     1     -34.974 -15.452 376.787  1.00  0.00     0.002 C 
HETATM   17  C9  UNL     1     -34.735 -13.988 376.991  1.00  0.00     0.000 C 
HETATM   18  C10 UNL     1     -35.316 -13.216 375.841  1.00  0.00     0.002 C 
HETATM   19  C11 UNL     1     -36.110 -14.105 374.902  1.00  0.00     0.025 C 
ENDBRANCH  12  14
ENDBRANCH   7  12
ENDBRANCH   3   7
BRANCH   4  20
HETATM   20  O3  UNL     1     -39.489 -15.774 377.805  1.00  0.00    -0.342 OA
BRANCH  20  21
HETATM   21  C13 UNL     1     -39.524 -14.671 378.622  1.00  0.00     0.129 C 
HETATM   22  C14 UNL     1     -39.644 -15.029 380.081  1.00  0.00     0.038 C 
HETATM   23  C15 UNL     1     -40.002 -13.730 380.820  1.00  0.00     0.081 C 
HETATM   24  C16 UNL     1     -39.015 -12.644 380.615  1.00  0.00     0.243 C 
HETATM   25  F1  UNL     1     -37.897 -12.776 381.449  1.00  0.00    -0.206 F 
HETATM   26  F2  UNL     1     -39.611 -11.441 380.959  1.00  0.00    -0.206 F 
HETATM   27  C17 UNL     1     -38.534 -12.516 379.191  1.00  0.00     0.081 C 
HETATM   28  C18 UNL     1     -38.244 -13.836 378.552  1.00  0.00     0.038 C 
ENDBRANCH  20  21
ENDBRANCH   4  20
BRANCH   1  29
HETATM   29  O1  UNL     1     -43.269 -18.305 374.673  1.00  0.00    -0.353 OA
HETATM   30  C1  UNL     1     -42.856 -19.519 374.026  1.00  0.00     0.210 C 
ENDBRANCH   1  29
BRANCH   5  31
HETATM   31  O4  UNL     1     -41.438 -17.482 378.944  1.00  0.00    -0.351 OA
HETATM   32  C20 UNL     1     -42.426 -16.869 379.769  1.00  0.00     0.210 C 
ENDBRANCH   5  31
BRANCH   6  33
HETATM   33  O5  UNL     1     -43.255 -18.679 377.372  1.00  0.00    -0.351 OA
HETATM   34  C22 UNL     1     -42.950 -20.052 377.616  1.00  0.00     0.210 C 
ENDBRANCH   6  33
TORSDOF 9
ENDMDL
MODEL 3
REMARK VINA RESULT: -7.608191697      2.441      5.878
REMARK  9 active torsions:
REMARK  status: ('A' for Active; 'I' for Inactive)
REMARK    1  A    between atoms: O1_2  and  C2_3 
REMARK    2  A    between atoms: C4_5  and  C5_6 
REMARK    3  A    between atoms: C5_6  and  N2_11 
REMARK    4  A    between atoms: N1_7  and  O2_9 
REMARK    5  A    between atoms: N2_11  and  C6_13 
REMARK    6  A    between atoms: C12_19  and  O3_20 
REMARK    7  A    between atoms: O3_20  and  C13_21 
REMARK    8  A    between atoms: C19_29  and  O4_30 
REMARK    9  A    between atoms: C21_32  and  O5_33 
ROOT
HETATM    1  C2  UNL     1     -41.947 -17.120 375.708  1.00  0.00     0.105 A 
HETATM    2  C3  UNL     1     -42.566 -16.904 376.906  1.00  0.00     0.058 A 
HETATM    3  C4  UNL     1     -41.884 -16.397 378.021  1.00  0.00     0.048 A 
HETATM    4  C12 UNL     1     -40.545 -16.114 377.864  1.00  0.00     0.119 A 
HETATM    5  C19 UNL     1     -39.898 -16.322 376.664  1.00  0.00     0.139 A 
HETATM    6  C21 UNL     1     -40.615 -16.829 375.590  1.00  0.00     0.138 A 
ENDROOT
BRANCH   3   7
HETATM    7  C5  UNL     1     -42.658 -16.259 379.238  1.00  0.00     0.134 C 
HETATM    8  N1  UNL     1     -42.355 -15.391 380.161  1.00  0.00    -0.252 N 
ATOM      9  H1  UNL     1     -41.548 -14.779 380.040  1.00  0.00     0.196 HD
BRANCH   8  10
HETATM   10  O2  UNL     1     -43.129 -15.300 381.307  1.00  0.00    -0.288 OA
ATOM     11  H2  UNL     1     -42.792 -14.852 382.073  1.00  0.00     0.244 HD
ENDBRANCH   8  10
BRANCH   7  12
HETATM   12  N2  UNL     1     -43.834 -17.038 379.445  1.00  0.00    -0.370 N 
ATOM     13  H2  UNL     1     -44.746 -16.637 379.229  1.00  0.00     0.161 HD
BRANCH  12  14
HETATM   14  C6  UNL     1     -43.751 -18.402 379.963  1.00  0.00     0.083 C 
HETATM   15  C7  UNL     1     -44.929 -18.611 380.904  1.00  0.00     0.025 C 
HETATM   16  C8  UNL     1     -45.524 -19.990 380.788  1.00  0.00     0.002 C 
HETATM   17  C9  UNL     1     -44.501 -21.075 380.651  1.00  0.00     0.000 C 
HETATM   18  C10 UNL     1     -43.614 -20.789 379.473  1.00  0.00     0.002 C 
HETATM   19  C11 UNL     1     -43.893 -19.425 378.869  1.00  0.00     0.025 C 
ENDBRANCH  12  14
ENDBRANCH   7  12
ENDBRANCH   3   7
BRANCH   4  20
HETATM   20  O3  UNL     1     -39.814 -15.615 378.895  1.00  0.00    -0.342 OA
BRANCH  20  21
HETATM   21  C13 UNL     1     -39.309 -14.371 379.185  1.00  0.00     0.129 C 
HETATM   22  C14 UNL     1     -39.547 -13.965 380.617  1.00  0.00     0.038 C 
HETATM   23  C15 UNL     1     -39.237 -12.462 380.700  1.00  0.00     0.081 C 
HETATM   24  C16 UNL     1     -37.863 -12.119 380.268  1.00  0.00     0.243 C 
HETATM   25  F1  UNL     1     -36.916 -12.339 381.277  1.00  0.00    -0.206 F 
HETATM   26  F2  UNL     1     -37.819 -10.762 379.990  1.00  0.00    -0.206 F 
HETATM   27  C17 UNL     1     -37.413 -12.846 379.026  1.00  0.00     0.081 C 
HETATM   28  C18 UNL     1     -37.789 -14.293 379.029  1.00  0.00     0.038 C 
ENDBRANCH  20  21
ENDBRANCH   4  20
BRANCH   1  29
HETATM   29  O1  UNL     1     -42.641 -17.629 374.600  1.00  0.00    -0.353 OA
HETATM   30  C1  UNL     1     -43.397 -18.831 374.816  1.00  0.00     0.210 C 
ENDBRANCH   1  29
BRANCH   5  31
HETATM   31  O4  UNL     1     -38.565 -16.071 376.396  1.00  0.00    -0.351 OA
HETATM   32  C20 UNL     1     -37.558 -17.059 376.597  1.00  0.00     0.210 C 
ENDBRANCH   5  31
BRANCH   6  33
HETATM   33  O5  UNL     1     -39.989 -17.059 374.346  1.00  0.00    -0.351 OA
HETATM   34  C22 UNL     1     -39.766 -15.973 373.447  1.00  0.00     0.210 C 
ENDBRANCH   6  33
TORSDOF 9
ENDMDL
MODEL 4
REMARK VINA RESULT: -7.493346149      1.439      1.944
REMARK  9 active torsions:
REMARK  status: ('A' for Active; 'I' for Inactive)
REMARK    1  A    between atoms: O1_2  and  C2_3 
REMARK    2  A    between atoms: C4_5  and  C5_6 
REMARK    3  A    between atoms: C5_6  and  N2_11 
REMARK    4  A    between atoms: N1_7  and  O2_9 
REMARK    5  A    between atoms: N2_11  and  C6_13 
REMARK    6  A    between atoms: C12_19  and  O3_20 
REMARK    7  A    between atoms: O3_20  and  C13_21 
REMARK    8  A    between atoms: C19_29  and  O4_30 
REMARK    9  A    between atoms: C21_32  and  O5_33 
ROOT
HETATM    1  C2  UNL     1     -41.074 -18.043 375.029  1.00  0.00     0.105 A 
HETATM    2  C3  UNL     1     -39.759 -17.749 375.251  1.00  0.00     0.058 A 
HETATM    3  C4  UNL     1     -39.310 -17.177 376.448  1.00  0.00     0.048 A 
HETATM    4  C12 UNL     1     -40.257 -16.920 377.415  1.00  0.00     0.119 A 
HETATM    5  C19 UNL     1     -41.591 -17.209 377.217  1.00  0.00     0.139 A 
HETATM    6  C21 UNL     1     -41.986 -17.771 376.013  1.00  0.00     0.138 A 
ENDROOT
BRANCH   3   7
HETATM    7  C5  UNL     1     -37.894 -16.880 376.527  1.00  0.00     0.134 C 
HETATM    8  N1  UNL     1     -37.174 -17.193 377.566  1.00  0.00    -0.252 N 
ATOM      9  H1  UNL     1     -37.605 -17.663 378.363  1.00  0.00     0.196 HD
BRANCH   8  10
HETATM   10  O2  UNL     1     -35.822 -16.886 377.590  1.00  0.00    -0.288 OA
ATOM     11  H2  UNL     1     -35.177 -17.579 377.508  1.00  0.00     0.244 HD
ENDBRANCH   8  10
BRANCH   7  12
HETATM   12  N2  UNL     1     -37.214 -16.281 375.426  1.00  0.00    -0.370 N 
ATOM     13  H2  UNL     1     -36.617 -16.856 374.832  1.00  0.00     0.161 HD
BRANCH  12  14
HETATM   14  C6  UNL     1     -37.359 -14.856 375.137  1.00  0.00     0.083 C 
HETATM   15  C7  UNL     1     -35.969 -14.294 374.874  1.00  0.00     0.025 C 
HETATM   16  C8  UNL     1     -35.958 -13.275 373.765  1.00  0.00     0.002 C 
HETATM   17  C9  UNL     1     -37.126 -12.338 373.800  1.00  0.00     0.000 C 
HETATM   18  C10 UNL     1     -38.405 -13.124 373.773  1.00  0.00     0.002 C 
HETATM   19  C11 UNL     1     -38.158 -14.618 373.886  1.00  0.00     0.025 C 
ENDBRANCH  12  14
ENDBRANCH   7  12
ENDBRANCH   3   7
BRANCH   4  20
HETATM   20  O3  UNL     1     -39.902 -16.371 378.607  1.00  0.00    -0.342 OA
BRANCH  20  21
HETATM   21  C13 UNL     1     -39.799 -15.080 379.065  1.00  0.00     0.129 C 
HETATM   22  C14 UNL     1     -40.259 -14.929 380.492  1.00  0.00     0.038 C 
HETATM   23  C15 UNL     1     -40.400 -13.420 380.746  1.00  0.00     0.081 C 
HETATM   24  C16 UNL     1     -39.151 -12.662 380.503  1.00  0.00     0.243 C 
HETATM   25  F1  UNL     1     -38.266 -12.732 381.587  1.00  0.00    -0.206 F 
HETATM   26  F2  UNL     1     -39.474 -11.323 380.357  1.00  0.00    -0.206 F 
HETATM   27  C17 UNL     1     -38.412 -13.084 379.258  1.00  0.00     0.081 C 
HETATM   28  C18 UNL     1     -38.358 -14.568 379.087  1.00  0.00     0.038 C 
ENDBRANCH  20  21
ENDBRANCH   4  20
BRANCH   1  29
HETATM   29  O1  UNL     1     -41.510 -18.615 373.824  1.00  0.00    -0.353 OA
HETATM   30  C1  UNL     1     -40.920 -19.875 373.465  1.00  0.00     0.210 C 
ENDBRANCH   1  29
BRANCH   5  31
HETATM   31  O4  UNL     1     -42.619 -16.997 378.117  1.00  0.00    -0.351 OA
HETATM   32  C20 UNL     1     -42.827 -17.856 379.235  1.00  0.00     0.210 C 
ENDBRANCH   5  31
BRANCH   6  33
HETATM   33  O5  UNL     1     -43.343 -18.080 375.769  1.00  0.00    -0.351 OA
HETATM   34  C22 UNL     1     -43.822 -19.407 375.982  1.00  0.00     0.210 C 
ENDBRANCH   6  33
TORSDOF 9
ENDMDL
MODEL 5
REMARK VINA RESULT: -7.384421298      2.414      5.626
REMARK  9 active torsions:
REMARK  status: ('A' for Active; 'I' for Inactive)
REMARK    1  A    between atoms: O1_2  and  C2_3 
REMARK    2  A    between atoms: C4_5  and  C5_6 
REMARK    3  A    between atoms: C5_6  and  N2_11 
REMARK    4  A    between atoms: N1_7  and  O2_9 
REMARK    5  A    between atoms: N2_11  and  C6_13 
REMARK    6  A    between atoms: C12_19  and  O3_20 
REMARK    7  A    between atoms: O3_20  and  C13_21 
REMARK    8  A    between atoms: C19_29  and  O4_30 
REMARK    9  A    between atoms: C21_32  and  O5_33 
ROOT
HETATM    1  C2  UNL     1     -41.914 -17.086 375.707  1.00  0.00     0.105 A 
HETATM    2  C3  UNL     1     -42.399 -16.883 376.968  1.00  0.00     0.058 A 
HETATM    3  C4  UNL     1     -41.604 -16.374 378.004  1.00  0.00     0.048 A 
HETATM    4  C12 UNL     1     -40.294 -16.076 377.702  1.00  0.00     0.119 A 
HETATM    5  C19 UNL     1     -39.780 -16.271 376.437  1.00  0.00     0.139 A 
HETATM    6  C21 UNL     1     -40.605 -16.780 375.446  1.00  0.00     0.138 A 
ENDROOT
BRANCH   3   7
HETATM    7  C5  UNL     1     -42.241 -16.251 379.300  1.00  0.00     0.134 C 
HETATM    8  N1  UNL     1     -42.436 -15.097 379.872  1.00  0.00    -0.252 N 
ATOM      9  H1  UNL     1     -42.136 -14.240 379.407  1.00  0.00     0.196 HD
BRANCH   8  10
HETATM   10  O2  UNL     1     -43.051 -15.035 381.113  1.00  0.00    -0.288 OA
ATOM     11  H2  UNL     1     -42.695 -14.474 381.791  1.00  0.00     0.244 HD
ENDBRANCH   8  10
BRANCH   7  12
HETATM   12  N2  UNL     1     -42.741 -17.401 379.977  1.00  0.00    -0.370 N 
ATOM     13  H2  UNL     1     -42.517 -17.539 380.963  1.00  0.00     0.161 HD
BRANCH  12  14
HETATM   14  C6  UNL     1     -43.568 -18.384 379.282  1.00  0.00     0.083 C 
HETATM   15  C7  UNL     1     -42.790 -19.691 379.234  1.00  0.00     0.025 C 
HETATM   16  C8  UNL     1     -43.671 -20.896 379.438  1.00  0.00     0.002 C 
HETATM   17  C9  UNL     1     -44.985 -20.806 378.725  1.00  0.00     0.000 C 
HETATM   18  C10 UNL     1     -45.704 -19.556 379.147  1.00  0.00     0.002 C 
HETATM   19  C11 UNL     1     -44.841 -18.673 380.029  1.00  0.00     0.025 C 
ENDBRANCH  12  14
ENDBRANCH   7  12
ENDBRANCH   3   7
BRANCH   4  20
HETATM   20  O3  UNL     1     -39.459 -15.573 378.650  1.00  0.00    -0.342 OA
BRANCH  20  21
HETATM   21  C13 UNL     1     -39.067 -14.303 378.992  1.00  0.00     0.129 C 
HETATM   22  C14 UNL     1     -39.356 -13.972 380.434  1.00  0.00     0.038 C 
HETATM   23  C15 UNL     1     -39.179 -12.452 380.575  1.00  0.00     0.081 C 
HETATM   24  C16 UNL     1     -37.835 -11.975 380.176  1.00  0.00     0.243 C 
HETATM   25  F1  UNL     1     -36.885 -12.150 381.190  1.00  0.00    -0.206 F 
HETATM   26  F2  UNL     1     -37.906 -10.610 379.948  1.00  0.00    -0.206 F 
HETATM   27  C17 UNL     1     -37.310 -12.614 378.916  1.00  0.00     0.081 C 
HETATM   28  C18 UNL     1     -37.558 -14.087 378.861  1.00  0.00     0.038 C 
ENDBRANCH  20  21
ENDBRANCH   4  20
BRANCH   1  29
HETATM   29  O1  UNL     1     -42.720 -17.597 374.679  1.00  0.00    -0.353 OA
HETATM   30  C1  UNL     1     -43.426 -18.815 374.966  1.00  0.00     0.210 C 
ENDBRANCH   1  29
BRANCH   5  31
HETATM   31  O4  UNL     1     -38.487 -16.003 376.026  1.00  0.00    -0.351 OA
HETATM   32  C20 UNL     1     -37.395 -16.847 376.383  1.00  0.00     0.210 C 
ENDBRANCH   5  31
BRANCH   6  33
HETATM   33  O5  UNL     1     -40.117 -16.997 374.139  1.00  0.00    -0.351 OA
HETATM   34  C22 UNL     1     -39.873 -15.888 373.275  1.00  0.00     0.210 C 
ENDBRANCH   6  33
TORSDOF 9
ENDMDL
