MODEL 1
REMARK VINA RESULT: -7.581380849      0.000      0.000
REMARK  11 active torsions:
REMARK  status: ('A' for Active; 'I' for Inactive)
REMARK    1  A    between atoms: O1_2  and  C2_3 
REMARK    2  A    between atoms: C2_3  and  C3_5 
REMARK    3  A    between atoms: C3_5  and  C4_6 
REMARK    4  A    between atoms: C4_6  and  C5_7 
REMARK    5  A    between atoms: C5_7  and  C6_8 
REMARK    6  A    between atoms: C6_8  and  C7_9 
REMARK    7  A    between atoms: C9_11  and  S1_12 
REMARK    8  A    between atoms: S1_12  and  N1_15 
REMARK    9  A    between atoms: N1_15  and  C10_17 
REMARK   10  A    between atoms: C10_17  and  C13_20 
REMARK   11  A    between atoms: C17_24  and  N2_25 
ROOT
HETATM    1  C7  UNL     1       1.097  -6.738 -28.633  1.00  0.00    -0.015 A 
HETATM    2  C8  UNL     1       0.077  -7.161 -27.808  1.00  0.00     0.039 A 
HETATM    3  C9  UNL     1      -0.901  -6.259 -27.371  1.00  0.00     0.123 A 
HETATM    4  C17 UNL     1      -0.740  -4.963 -27.833  1.00  0.00     0.123 A 
HETATM    5  N3  UNL     1       0.263  -4.575 -28.639  1.00  0.00    -0.330 N 
ATOM      6  H3  UNL     1       0.309  -3.600 -28.937  1.00  0.00     0.168 HD
HETATM    7  C18 UNL     1       1.209  -5.432 -29.066  1.00  0.00     0.124 A 
HETATM    8  N4  UNL     1       2.248  -4.965 -29.918  1.00  0.00    -0.082 NA
ENDROOT
BRANCH   3   9
HETATM    9  S1  UNL     1      -2.199  -6.757 -26.318  1.00  0.00     0.263 S 
HETATM   10  O3  UNL     1      -2.205  -5.781 -25.167  1.00  0.00    -0.200 OA
HETATM   11  O4  UNL     1      -3.545  -6.505 -27.025  1.00  0.00    -0.200 OA
BRANCH   9  12
HETATM   12  N1  UNL     1      -2.165  -8.369 -25.870  1.00  0.00    -0.305 N 
ATOM     13  H1  UNL     1      -2.699  -9.056 -26.403  1.00  0.00     0.173 HD
BRANCH  12  14
HETATM   14  C10 UNL     1      -1.396  -8.783 -24.755  1.00  0.00     0.040 C 
HETATM   15  C11 UNL     1      -2.303  -9.118 -23.572  1.00  0.00     0.039 C 
HETATM   16  C12 UNL     1      -0.344  -7.789 -24.354  1.00  0.00     0.039 C 
BRANCH  14  17
HETATM   17  C13 UNL     1      -0.718 -10.093 -25.168  1.00  0.00    -0.026 C 
HETATM   18  C14 UNL     1      -1.307 -10.623 -26.439  1.00  0.00     0.017 C 
HETATM   19  C15 UNL     1      -0.929 -11.138 -24.069  1.00  0.00     0.017 C 
HETATM   20  C16 UNL     1       0.763  -9.907 -25.352  1.00  0.00     0.017 C 
ENDBRANCH  14  17
ENDBRANCH  12  14
ENDBRANCH   9  12
ENDBRANCH   3   9
BRANCH   4  21
HETATM   21  N2  UNL     1      -1.623  -4.085 -27.444  1.00  0.00    -0.384 N 
ATOM     22  H22 UNL     1      -2.299  -4.341 -26.724  1.00  0.00     0.157 HD
ATOM     23  H21 UNL     1      -1.593  -3.170 -27.894  1.00  0.00     0.157 HD
ENDBRANCH   4  21
BRANCH   1  24
HETATM   24  C6  UNL     1       2.136  -7.683 -29.102  1.00  0.00     0.042 C 
BRANCH  24  25
HETATM   25  C5  UNL     1       1.749  -9.123 -28.817  1.00  0.00     0.005 C 
BRANCH  25  26
HETATM   26  C4  UNL     1       2.952  -9.943 -28.415  1.00  0.00     0.010 C 
BRANCH  26  27
HETATM   27  C3  UNL     1       4.062  -9.027 -27.998  1.00  0.00     0.111 C 
BRANCH  27  28
HETATM   28  C2  UNL     1       5.287  -9.173 -28.777  1.00  0.00     0.258 C 
HETATM   29  O2  UNL     1       6.111 -10.078 -28.485  1.00  0.00    -0.265 OA
BRANCH  28  30
HETATM   30  O1  UNL     1       5.633  -8.364 -29.856  1.00  0.00    -0.326 OA
HETATM   31  C1  UNL     1       5.081  -8.598 -31.144  1.00  0.00     0.213 C 
ENDBRANCH  28  30
ENDBRANCH  27  28
ENDBRANCH  26  27
ENDBRANCH  25  26
ENDBRANCH  24  25
ENDBRANCH   1  24
TORSDOF 11
ENDMDL
MODEL 2
REMARK VINA RESULT: -7.329560915      2.884      4.628
REMARK  11 active torsions:
REMARK  status: ('A' for Active; 'I' for Inactive)
REMARK    1  A    between atoms: O1_2  and  C2_3 
REMARK    2  A    between atoms: C2_3  and  C3_5 
REMARK    3  A    between atoms: C3_5  and  C4_6 
REMARK    4  A    between atoms: C4_6  and  C5_7 
REMARK    5  A    between atoms: C5_7  and  C6_8 
REMARK    6  A    between atoms: C6_8  and  C7_9 
REMARK    7  A    between atoms: C9_11  and  S1_12 
REMARK    8  A    between atoms: S1_12  and  N1_15 
REMARK    9  A    between atoms: N1_15  and  C10_17 
REMARK   10  A    between atoms: C10_17  and  C13_20 
REMARK   11  A    between atoms: C17_24  and  N2_25 
ROOT
HETATM    1  C7  UNL     1       3.296  -8.641 -28.476  1.00  0.00    -0.015 A 
HETATM    2  C8  UNL     1       1.949  -8.503 -28.218  1.00  0.00     0.039 A 
HETATM    3  C9  UNL     1       1.304  -9.379 -27.337  1.00  0.00     0.123 A 
HETATM    4  C17 UNL     1       2.122 -10.350 -26.782  1.00  0.00     0.123 A 
HETATM    5  N3  UNL     1       3.434 -10.463 -27.049  1.00  0.00    -0.330 N 
ATOM      6  H3  UNL     1       3.969 -11.205 -26.596  1.00  0.00     0.168 HD
HETATM    7  C18 UNL     1       4.066  -9.628 -27.894  1.00  0.00     0.124 A 
HETATM    8  N4  UNL     1       5.458  -9.795 -28.139  1.00  0.00    -0.082 NA
ENDROOT
BRANCH   3   9
HETATM    9  S1  UNL     1      -0.401  -9.241 -26.995  1.00  0.00     0.263 S 
HETATM   10  O3  UNL     1      -1.040 -10.504 -27.518  1.00  0.00    -0.200 OA
HETATM   11  O4  UNL     1      -0.617  -9.319 -25.470  1.00  0.00    -0.200 OA
BRANCH   9  12
HETATM   12  N1  UNL     1      -1.114  -7.823 -27.527  1.00  0.00    -0.305 N 
ATOM     13  H1  UNL     1      -1.312  -7.695 -28.519  1.00  0.00     0.173 HD
BRANCH  12  14
HETATM   14  C10 UNL     1      -1.443  -6.801 -26.604  1.00  0.00     0.040 C 
HETATM   15  C11 UNL     1      -0.299  -6.583 -25.613  1.00  0.00     0.039 C 
HETATM   16  C12 UNL     1      -2.735  -7.044 -25.879  1.00  0.00     0.039 C 
BRANCH  14  17
HETATM   17  C13 UNL     1      -1.561  -5.510 -27.422  1.00  0.00    -0.026 C 
HETATM   18  C14 UNL     1      -2.719  -5.582 -28.369  1.00  0.00     0.017 C 
HETATM   19  C15 UNL     1      -0.282  -5.315 -28.242  1.00  0.00     0.017 C 
HETATM   20  C16 UNL     1      -1.728  -4.312 -26.530  1.00  0.00     0.017 C 
ENDBRANCH  14  17
ENDBRANCH  12  14
ENDBRANCH   9  12
ENDBRANCH   3   9
BRANCH   4  21
HETATM   21  N2  UNL     1       1.562 -11.195 -25.961  1.00  0.00    -0.384 N 
ATOM     22  H22 UNL     1       1.147 -10.850 -25.096  1.00  0.00     0.157 HD
ATOM     23  H21 UNL     1       1.574 -12.178 -26.233  1.00  0.00     0.157 HD
ENDBRANCH   4  21
BRANCH   1  24
HETATM   24  C6  UNL     1       3.989  -7.720 -29.406  1.00  0.00     0.042 C 
BRANCH  24  25
HETATM   25  C5  UNL     1       3.841  -8.169 -30.849  1.00  0.00     0.005 C 
BRANCH  25  26
HETATM   26  C4  UNL     1       5.174  -8.566 -31.437  1.00  0.00     0.010 C 
BRANCH  26  27
HETATM   27  C3  UNL     1       5.024  -9.858 -32.181  1.00  0.00     0.111 C 
BRANCH  27  28
HETATM   28  C2  UNL     1       5.648 -11.004 -31.529  1.00  0.00     0.258 C 
HETATM   29  O2  UNL     1       4.951 -11.782 -30.828  1.00  0.00    -0.265 OA
BRANCH  28  30
HETATM   30  O1  UNL     1       7.000 -11.321 -31.623  1.00  0.00    -0.326 OA
HETATM   31  C1  UNL     1       7.924 -10.858 -30.646  1.00  0.00     0.213 C 
ENDBRANCH  28  30
ENDBRANCH  27  28
ENDBRANCH  26  27
ENDBRANCH  25  26
ENDBRANCH  24  25
ENDBRANCH   1  24
TORSDOF 11
ENDMDL
MODEL 3
REMARK VINA RESULT: -7.286311785      2.495      6.123
REMARK  11 active torsions:
REMARK  status: ('A' for Active; 'I' for Inactive)
REMARK    1  A    between atoms: O1_2  and  C2_3 
REMARK    2  A    between atoms: C2_3  and  C3_5 
REMARK    3  A    between atoms: C3_5  and  C4_6 
REMARK    4  A    between atoms: C4_6  and  C5_7 
REMARK    5  A    between atoms: C5_7  and  C6_8 
REMARK    6  A    between atoms: C6_8  and  C7_9 
REMARK    7  A    between atoms: C9_11  and  S1_12 
REMARK    8  A    between atoms: S1_12  and  N1_15 
REMARK    9  A    between atoms: N1_15  and  C10_17 
REMARK   10  A    between atoms: C10_17  and  C13_20 
REMARK   11  A    between atoms: C17_24  and  N2_25 
ROOT
HETATM    1  C7  UNL     1       1.350  -6.560 -28.669  1.00  0.00    -0.015 A 
HETATM    2  C8  UNL     1       1.865  -7.756 -28.218  1.00  0.00     0.039 A 
HETATM    3  C9  UNL     1       3.084  -8.235 -28.714  1.00  0.00     0.123 A 
HETATM    4  C17 UNL     1       3.685  -7.418 -29.658  1.00  0.00     0.123 A 
HETATM    5  N3  UNL     1       3.163  -6.254 -30.081  1.00  0.00    -0.330 N 
ATOM      6  H3  UNL     1       3.671  -5.709 -30.778  1.00  0.00     0.168 HD
HETATM    7  C18 UNL     1       1.993  -5.784 -29.612  1.00  0.00     0.124 A 
HETATM    8  N4  UNL     1       1.488  -4.544 -30.095  1.00  0.00    -0.082 NA
ENDROOT
BRANCH   3   9
HETATM    9  S1  UNL     1       3.760  -9.749 -28.174  1.00  0.00     0.263 S 
HETATM   10  O3  UNL     1       3.718 -10.677 -29.364  1.00  0.00    -0.200 OA
HETATM   11  O4  UNL     1       5.266  -9.561 -27.904  1.00  0.00    -0.200 OA
BRANCH   9  12
HETATM   12  N1  UNL     1       3.076 -10.368 -26.778  1.00  0.00    -0.305 N 
ATOM     13  H1  UNL     1       3.510 -10.182 -25.874  1.00  0.00     0.173 HD
BRANCH  12  14
HETATM   14  C10 UNL     1       1.898 -11.151 -26.848  1.00  0.00     0.040 C 
HETATM   15  C11 UNL     1       2.243 -12.636 -26.952  1.00  0.00     0.039 C 
HETATM   16  C12 UNL     1       0.975 -10.741 -27.959  1.00  0.00     0.039 C 
BRANCH  14  17
HETATM   17  C13 UNL     1       1.182 -10.963 -25.506  1.00  0.00    -0.026 C 
HETATM   18  C14 UNL     1       1.824 -11.794 -24.437  1.00  0.00     0.017 C 
HETATM   19  C15 UNL     1      -0.277 -11.407 -25.646  1.00  0.00     0.017 C 
HETATM   20  C16 UNL     1       1.189  -9.521 -25.080  1.00  0.00     0.017 C 
ENDBRANCH  14  17
ENDBRANCH  12  14
ENDBRANCH   9  12
ENDBRANCH   3   9
BRANCH   4  21
HETATM   21  N2  UNL     1       4.819  -7.828 -30.155  1.00  0.00    -0.384 N 
ATOM     22  H22 UNL     1       5.675  -7.319 -29.934  1.00  0.00     0.157 HD
ATOM     23  H21 UNL     1       4.788  -8.651 -30.758  1.00  0.00     0.157 HD
ENDBRANCH   4  21
BRANCH   1  24
HETATM   24  C6  UNL     1       0.062  -6.044 -28.151  1.00  0.00     0.042 C 
BRANCH  24  25
HETATM   25  C5  UNL     1      -0.281  -6.654 -26.803  1.00  0.00     0.005 C 
BRANCH  25  26
HETATM   26  C4  UNL     1      -1.478  -7.569 -26.907  1.00  0.00     0.010 C 
BRANCH  26  27
HETATM   27  C3  UNL     1      -2.554  -7.089 -25.982  1.00  0.00     0.111 C 
BRANCH  27  28
HETATM   28  C2  UNL     1      -3.307  -5.942 -26.477  1.00  0.00     0.258 C 
HETATM   29  O2  UNL     1      -3.985  -6.045 -27.532  1.00  0.00    -0.265 OA
BRANCH  28  30
HETATM   30  O1  UNL     1      -3.338  -4.696 -25.856  1.00  0.00    -0.326 OA
HETATM   31  C1  UNL     1      -2.251  -3.790 -25.991  1.00  0.00     0.213 C 
ENDBRANCH  28  30
ENDBRANCH  27  28
ENDBRANCH  26  27
ENDBRANCH  25  26
ENDBRANCH  24  25
ENDBRANCH   1  24
TORSDOF 11
ENDMDL
MODEL 4
REMARK VINA RESULT: -7.254923806      2.345      5.987
REMARK  11 active torsions:
REMARK  status: ('A' for Active; 'I' for Inactive)
REMARK    1  A    between atoms: O1_2  and  C2_3 
REMARK    2  A    between atoms: C2_3  and  C3_5 
REMARK    3  A    between atoms: C3_5  and  C4_6 
REMARK    4  A    between atoms: C4_6  and  C5_7 
REMARK    5  A    between atoms: C5_7  and  C6_8 
REMARK    6  A    between atoms: C6_8  and  C7_9 
REMARK    7  A    between atoms: C9_11  and  S1_12 
REMARK    8  A    between atoms: S1_12  and  N1_15 
REMARK    9  A    between atoms: N1_15  and  C10_17 
REMARK   10  A    between atoms: C10_17  and  C13_20 
REMARK   11  A    between atoms: C17_24  and  N2_25 
ROOT
HETATM    1  C7  UNL     1       0.994  -6.252 -28.786  1.00  0.00    -0.015 A 
HETATM    2  C8  UNL     1       1.280  -7.590 -28.622  1.00  0.00     0.039 A 
HETATM    3  C9  UNL     1       2.580  -8.068 -28.832  1.00  0.00     0.123 A 
HETATM    4  C17 UNL     1       3.499  -7.100 -29.203  1.00  0.00     0.123 A 
HETATM    5  N3  UNL     1       3.196  -5.799 -29.354  1.00  0.00    -0.330 N 
ATOM      6  H3  UNL     1       3.932  -5.148 -29.628  1.00  0.00     0.168 HD
HETATM    7  C18 UNL     1       1.951  -5.328 -29.157  1.00  0.00     0.124 A 
HETATM    8  N4  UNL     1       1.687  -3.942 -29.332  1.00  0.00    -0.082 NA
ENDROOT
BRANCH   3   9
HETATM    9  S1  UNL     1       2.976  -9.756 -28.644  1.00  0.00     0.263 S 
HETATM   10  O3  UNL     1       3.430 -10.235 -30.000  1.00  0.00    -0.200 OA
HETATM   11  O4  UNL     1       4.236  -9.883 -27.764  1.00  0.00    -0.200 OA
BRANCH   9  12
HETATM   12  N1  UNL     1       1.779 -10.686 -27.936  1.00  0.00    -0.305 N 
ATOM     13  H1  UNL     1       1.124 -11.204 -28.523  1.00  0.00     0.173 HD
BRANCH  12  14
HETATM   14  C10 UNL     1       1.671 -10.757 -26.526  1.00  0.00     0.040 C 
HETATM   15  C11 UNL     1       2.542  -9.689 -25.866  1.00  0.00     0.039 C 
HETATM   16  C12 UNL     1       1.986 -12.117 -25.972  1.00  0.00     0.039 C 
BRANCH  14  17
HETATM   17  C13 UNL     1       0.218 -10.402 -26.191  1.00  0.00    -0.026 C 
HETATM   18  C14 UNL     1      -0.605 -10.288 -27.438  1.00  0.00     0.017 C 
HETATM   19  C15 UNL     1       0.183  -9.053 -25.468  1.00  0.00     0.017 C 
HETATM   20  C16 UNL     1      -0.401 -11.431 -25.286  1.00  0.00     0.017 C 
ENDBRANCH  14  17
ENDBRANCH  12  14
ENDBRANCH   9  12
ENDBRANCH   3   9
BRANCH   4  21
HETATM   21  N2  UNL     1       4.722  -7.499 -29.417  1.00  0.00    -0.384 N 
ATOM     22  H22 UNL     1       4.895  -8.231 -30.107  1.00  0.00     0.157 HD
ATOM     23  H21 UNL     1       5.457  -7.053 -28.868  1.00  0.00     0.157 HD
ENDBRANCH   4  21
BRANCH   1  24
HETATM   24  C6  UNL     1      -0.377  -5.736 -28.567  1.00  0.00     0.042 C 
BRANCH  24  25
HETATM   25  C5  UNL     1      -0.562  -5.230 -27.148  1.00  0.00     0.005 C 
BRANCH  25  26
HETATM   26  C4  UNL     1      -1.628  -4.162 -27.084  1.00  0.00     0.010 C 
BRANCH  26  27
HETATM   27  C3  UNL     1      -2.676  -4.564 -26.093  1.00  0.00     0.111 C 
BRANCH  27  28
HETATM   28  C2  UNL     1      -3.094  -5.958 -26.190  1.00  0.00     0.258 C 
HETATM   29  O2  UNL     1      -3.895  -6.311 -27.094  1.00  0.00    -0.265 OA
BRANCH  28  30
HETATM   30  O1  UNL     1      -2.664  -6.969 -25.335  1.00  0.00    -0.326 OA
HETATM   31  C1  UNL     1      -3.158  -8.295 -25.472  1.00  0.00     0.213 C 
ENDBRANCH  28  30
ENDBRANCH  27  28
ENDBRANCH  26  27
ENDBRANCH  25  26
ENDBRANCH  24  25
ENDBRANCH   1  24
TORSDOF 11
ENDMDL
MODEL 5
REMARK VINA RESULT: -7.234197723      3.098      4.843
REMARK  11 active torsions:
REMARK  status: ('A' for Active; 'I' for Inactive)
REMARK    1  A    between atoms: O1_2  and  C2_3 
REMARK    2  A    between atoms: C2_3  and  C3_5 
REMARK    3  A    between atoms: C3_5  and  C4_6 
REMARK    4  A    between atoms: C4_6  and  C5_7 
REMARK    5  A    between atoms: C5_7  and  C6_8 
REMARK    6  A    between atoms: C6_8  and  C7_9 
REMARK    7  A    between atoms: C9_11  and  S1_12 
REMARK    8  A    between atoms: S1_12  and  N1_15 
REMARK    9  A    between atoms: N1_15  and  C10_17 
REMARK   10  A    between atoms: C10_17  and  C13_20 
REMARK   11  A    between atoms: C17_24  and  N2_25 
ROOT
HETATM    1  C7  UNL     1       3.268  -8.663 -28.518  1.00  0.00    -0.015 A 
HETATM    2  C8  UNL     1       1.926  -8.515 -28.239  1.00  0.00     0.039 A 
HETATM    3  C9  UNL     1       1.287  -9.386 -27.348  1.00  0.00     0.123 A 
HETATM    4  C17 UNL     1       2.106 -10.362 -26.805  1.00  0.00     0.123 A 
HETATM    5  N3  UNL     1       3.413 -10.485 -27.091  1.00  0.00    -0.330 N 
ATOM      6  H3  UNL     1       3.949 -11.232 -26.647  1.00  0.00     0.168 HD
HETATM    7  C18 UNL     1       4.039  -9.655 -27.946  1.00  0.00     0.124 A 
HETATM    8  N4  UNL     1       5.425  -9.833 -28.212  1.00  0.00    -0.082 NA
ENDROOT
BRANCH   3   9
HETATM    9  S1  UNL     1      -0.411  -9.235 -26.981  1.00  0.00     0.263 S 
HETATM   10  O3  UNL     1      -1.066 -10.497 -27.487  1.00  0.00    -0.200 OA
HETATM   11  O4  UNL     1      -0.604  -9.302 -25.453  1.00  0.00    -0.200 OA
BRANCH   9  12
HETATM   12  N1  UNL     1      -1.123  -7.816 -27.511  1.00  0.00    -0.305 N 
ATOM     13  H1  UNL     1      -1.326  -7.689 -28.503  1.00  0.00     0.173 HD
BRANCH  12  14
HETATM   14  C10 UNL     1      -1.445  -6.791 -26.588  1.00  0.00     0.040 C 
HETATM   15  C11 UNL     1      -0.290  -6.564 -25.613  1.00  0.00     0.039 C 
HETATM   16  C12 UNL     1      -2.726  -7.039 -25.845  1.00  0.00     0.039 C 
BRANCH  14  17
HETATM   17  C13 UNL     1      -1.581  -5.505 -27.409  1.00  0.00    -0.026 C 
HETATM   18  C14 UNL     1      -2.736  -5.597 -28.359  1.00  0.00     0.017 C 
HETATM   19  C15 UNL     1      -0.304  -5.291 -28.226  1.00  0.00     0.017 C 
HETATM   20  C16 UNL     1      -1.770  -4.307 -26.520  1.00  0.00     0.017 C 
ENDBRANCH  14  17
ENDBRANCH  12  14
ENDBRANCH   9  12
ENDBRANCH   3   9
BRANCH   4  21
HETATM   21  N2  UNL     1       1.552 -11.203 -25.976  1.00  0.00    -0.384 N 
ATOM     22  H22 UNL     1       0.549 -11.142 -25.799  1.00  0.00     0.157 HD
ATOM     23  H21 UNL     1       2.165 -11.888 -25.535  1.00  0.00     0.157 HD
ENDBRANCH   4  21
BRANCH   1  24
HETATM   24  C6  UNL     1       3.954  -7.748 -29.458  1.00  0.00     0.042 C 
BRANCH  24  25
HETATM   25  C5  UNL     1       3.783  -8.198 -30.898  1.00  0.00     0.005 C 
BRANCH  25  26
HETATM   26  C4  UNL     1       5.121  -8.391 -31.572  1.00  0.00     0.010 C 
BRANCH  26  27
HETATM   27  C3  UNL     1       5.125  -9.698 -32.304  1.00  0.00     0.111 C 
BRANCH  27  28
HETATM   28  C2  UNL     1       5.826  -9.669 -33.583  1.00  0.00     0.258 C 
HETATM   29  O2  UNL     1       7.072  -9.846 -33.620  1.00  0.00    -0.265 OA
BRANCH  28  30
HETATM   30  O1  UNL     1       5.208  -9.456 -34.813  1.00  0.00    -0.326 OA
HETATM   31  C1  UNL     1       5.980  -9.191 -35.976  1.00  0.00     0.213 C 
ENDBRANCH  28  30
ENDBRANCH  27  28
ENDBRANCH  26  27
ENDBRANCH  25  26
ENDBRANCH  24  25
ENDBRANCH   1  24
TORSDOF 11
ENDMDL
