MODEL 1
REMARK VINA RESULT: -7.397189059      0.000      0.000
REMARK  16 active torsions:
REMARK  status: ('A' for Active; 'I' for Inactive)
REMARK    1  A    between atoms: C2_2  and  C3_3 
REMARK    2  A    between atoms: C4_4  and  C5_5 
REMARK    3  A    between atoms: C5_5  and  C6_6 
REMARK    4  A    between atoms: C7_7  and  O1_8 
REMARK    5  A    between atoms: C9_11  and  O2_12 
REMARK    6  A    between atoms: C10_14  and  C11_15 
REMARK    7  A    between atoms: C13_17  and  C14_18 
REMARK    8  A    between atoms: C14_18  and  C16_20 
REMARK    9  A    between atoms: C16_20  and  C17_21 
REMARK   10  A    between atoms: C17_21  and  C18_22 
REMARK   11  A    between atoms: C17_21  and  N2_32 
REMARK   12  A    between atoms: C18_22  and  C19_23 
REMARK   13  A    between atoms: C19_23  and  C20_24 
REMARK   14  A    between atoms: C20_24  and  O3_25 
REMARK   15  A    between atoms: C21_27  and  C22_28 
REMARK   16  A    between atoms: N2_32  and  N3_33 
REMARK       I    between atoms: N3_33  and  C25_35 
ROOT
HETATM    1  C22 UNL     1      13.367  35.696 -14.446  1.00  0.00     0.013 C 
HETATM    2  C23 UNL     1      14.165  35.809 -15.485  1.00  0.00     0.093 C 
HETATM    3  C24 UNL     1      13.996  35.062 -16.692  1.00  0.00     0.087 C 
HETATM    4  N1  UNL     1      13.845  34.440 -17.663  1.00  0.00    -0.192 NA
ENDROOT
BRANCH   1   5
HETATM    5  C21 UNL     1      13.554  36.468 -13.221  1.00  0.00     0.037 C 
HETATM    6  C20 UNL     1      13.800  35.883 -12.088  1.00  0.00     0.062 C 
BRANCH   6   7
HETATM    7  C19 UNL     1      14.018  36.433 -10.767  1.00  0.00     0.017 C 
BRANCH   7   8
HETATM    8  C18 UNL     1      13.096  37.381 -10.158  1.00  0.00     0.104 C 
BRANCH   8   9
HETATM    9  C17 UNL     1      13.712  38.341  -9.142  1.00  0.00     0.113 C 
BRANCH   9  10
HETATM   10  C16 UNL     1      14.603  39.353  -9.651  1.00  0.00     0.049 C 
BRANCH  10  11
HETATM   11  C14 UNL     1      14.436  40.499 -10.255  1.00  0.00    -0.059 C 
HETATM   12  C15 UNL     1      14.932  41.711  -9.476  1.00  0.00     0.048 C 
BRANCH  11  13
HETATM   13  C13 UNL     1      13.846  40.743 -11.545  1.00  0.00     0.009 C 
HETATM   14  C11 UNL     1      14.230  41.335 -12.625  1.00  0.00    -0.076 C 
HETATM   15  C12 UNL     1      15.558  41.928 -12.814  1.00  0.00     0.044 C 
BRANCH  14  16
HETATM   16  C10 UNL     1      13.326  41.408 -13.810  1.00  0.00     0.050 C 
HETATM   17  C6  UNL     1      13.976  40.930 -15.094  1.00  0.00     0.028 C 
HETATM   18  C7  UNL     1      12.876  41.268 -16.107  1.00  0.00     0.125 C 
HETATM   19  C8  UNL     1      12.365  42.596 -15.631  1.00  0.00     0.064 C 
HETATM   20  C9  UNL     1      12.995  42.820 -14.237  1.00  0.00     0.129 C 
BRANCH  17  21
HETATM   21  C5  UNL     1      14.224  39.468 -15.180  1.00  0.00     0.035 C 
BRANCH  21  22
HETATM   22  C4  UNL     1      15.669  39.266 -15.550  1.00  0.00    -0.030 C 
HETATM   23  C3  UNL     1      16.610  38.830 -14.770  1.00  0.00    -0.031 C 
BRANCH  23  24
HETATM   24  C2  UNL     1      16.529  38.427 -13.365  1.00  0.00     0.022 C 
HETATM   25  C1  UNL     1      17.161  37.056 -13.124  1.00  0.00     0.009 C 
ENDBRANCH  23  24
ENDBRANCH  21  22
ENDBRANCH  17  21
BRANCH  18  26
HETATM   26  O1  UNL     1      13.377  41.342 -17.409  1.00  0.00    -0.395 OA
ATOM     27  H1  UNL     1      12.766  41.768 -17.998  1.00  0.00     0.210 HD
ENDBRANCH  18  26
BRANCH  20  28
HETATM   28  O2  UNL     1      12.100  43.472 -13.416  1.00  0.00    -0.395 OA
ATOM     29  H2  UNL     1      12.536  43.753 -12.619  1.00  0.00     0.210 HD
ENDBRANCH  20  28
ENDBRANCH  14  16
ENDBRANCH  11  13
ENDBRANCH  10  11
ENDBRANCH   9  10
BRANCH   9  30
HETATM   30  N2  UNL     1      13.476  38.156  -7.980  1.00  0.00    -0.326 NA
BRANCH  30  31
HETATM   31  N3  UNL     1      12.866  37.970  -6.827  1.00  0.00    -0.187 N 
HETATM   32  C25 UNL     1      11.529  38.225  -6.421  1.00  0.00     0.357 C 
HETATM   33  N4  UNL     1      11.098  37.946  -5.124  1.00  0.00    -0.038 NA
HETATM   34  O4  UNL     1      10.724  38.708  -7.241  1.00  0.00    -0.248 OA
ATOM     35  H3  UNL     1      13.459  37.573  -6.098  1.00  0.00     0.206 HD
ENDBRANCH  30  31
ENDBRANCH   9  30
ENDBRANCH   8   9
ENDBRANCH   7   8
ENDBRANCH   6   7
BRANCH   6  36
HETATM   36  O3  UNL     1      13.865  34.460 -12.152  1.00  0.00    -0.361 OA
ATOM     37  H3  UNL     1      14.608  34.123 -12.640  1.00  0.00     0.217 HD
ENDBRANCH   6  36
ENDBRANCH   1   5
TORSDOF 16
ENDMDL
MODEL 2
REMARK VINA RESULT: -7.268444875      2.474      3.896
REMARK  16 active torsions:
REMARK  status: ('A' for Active; 'I' for Inactive)
REMARK    1  A    between atoms: C2_2  and  C3_3 
REMARK    2  A    between atoms: C4_4  and  C5_5 
REMARK    3  A    between atoms: C5_5  and  C6_6 
REMARK    4  A    between atoms: C7_7  and  O1_8 
REMARK    5  A    between atoms: C9_11  and  O2_12 
REMARK    6  A    between atoms: C10_14  and  C11_15 
REMARK    7  A    between atoms: C13_17  and  C14_18 
REMARK    8  A    between atoms: C14_18  and  C16_20 
REMARK    9  A    between atoms: C16_20  and  C17_21 
REMARK   10  A    between atoms: C17_21  and  C18_22 
REMARK   11  A    between atoms: C17_21  and  N2_32 
REMARK   12  A    between atoms: C18_22  and  C19_23 
REMARK   13  A    between atoms: C19_23  and  C20_24 
REMARK   14  A    between atoms: C20_24  and  O3_25 
REMARK   15  A    between atoms: C21_27  and  C22_28 
REMARK   16  A    between atoms: N2_32  and  N3_33 
REMARK       I    between atoms: N3_33  and  C25_35 
ROOT
HETATM    1  C22 UNL     1      14.264  35.916 -14.445  1.00  0.00     0.013 C 
HETATM    2  C23 UNL     1      15.329  36.245 -15.142  1.00  0.00     0.093 C 
HETATM    3  C24 UNL     1      15.808  35.488 -16.255  1.00  0.00     0.087 C 
HETATM    4  N1  UNL     1      16.184  34.854 -17.154  1.00  0.00    -0.192 NA
ENDROOT
BRANCH   1   5
HETATM    5  C21 UNL     1      13.789  36.702 -13.310  1.00  0.00     0.037 C 
HETATM    6  C20 UNL     1      13.606  36.160 -12.146  1.00  0.00     0.062 C 
BRANCH   6   7
HETATM    7  C19 UNL     1      13.150  36.732 -10.896  1.00  0.00     0.017 C 
BRANCH   7   8
HETATM    8  C18 UNL     1      14.074  37.168  -9.858  1.00  0.00     0.104 C 
BRANCH   8   9
HETATM    9  C17 UNL     1      13.551  38.260  -8.926  1.00  0.00     0.113 C 
BRANCH   9  10
HETATM   10  C16 UNL     1      13.520  39.605  -9.442  1.00  0.00     0.049 C 
BRANCH  10  11
HETATM   11  C14 UNL     1      14.431  40.486  -9.755  1.00  0.00    -0.059 C 
HETATM   12  C15 UNL     1      14.231  41.862  -9.132  1.00  0.00     0.048 C 
BRANCH  11  13
HETATM   13  C13 UNL     1      15.579  40.310 -10.605  1.00  0.00     0.009 C 
HETATM   14  C11 UNL     1      15.755  40.108 -11.867  1.00  0.00    -0.076 C 
HETATM   15  C12 UNL     1      14.672  40.058 -12.854  1.00  0.00     0.044 C 
BRANCH  14  16
HETATM   16  C10 UNL     1      17.132  39.959 -12.424  1.00  0.00     0.050 C 
HETATM   17  C6  UNL     1      17.471  40.997 -13.476  1.00  0.00     0.028 C 
HETATM   18  C7  UNL     1      18.842  40.488 -13.938  1.00  0.00     0.125 C 
HETATM   19  C8  UNL     1      18.665  38.999 -13.965  1.00  0.00     0.064 C 
HETATM   20  C9  UNL     1      17.316  38.716 -13.266  1.00  0.00     0.129 C 
BRANCH  17  21
HETATM   21  C5  UNL     1      17.659  42.381 -12.971  1.00  0.00     0.035 C 
BRANCH  21  22
HETATM   22  C4  UNL     1      18.529  42.310 -11.744  1.00  0.00    -0.030 C 
HETATM   23  C3  UNL     1      18.311  42.904 -10.611  1.00  0.00    -0.031 C 
BRANCH  23  24
HETATM   24  C2  UNL     1      17.199  43.776 -10.227  1.00  0.00     0.022 C 
HETATM   25  C1  UNL     1      17.246  44.147  -8.744  1.00  0.00     0.009 C 
ENDBRANCH  23  24
ENDBRANCH  21  22
ENDBRANCH  17  21
BRANCH  18  26
HETATM   26  O1  UNL     1      19.183  40.993 -15.195  1.00  0.00    -0.395 OA
ATOM     27  H1  UNL     1      20.120  40.954 -15.347  1.00  0.00     0.210 HD
ENDBRANCH  18  26
BRANCH  20  28
HETATM   28  O2  UNL     1      17.396  37.543 -12.546  1.00  0.00    -0.395 OA
ATOM     29  H2  UNL     1      16.524  37.255 -12.299  1.00  0.00     0.210 HD
ENDBRANCH  20  28
ENDBRANCH  14  16
ENDBRANCH  11  13
ENDBRANCH  10  11
ENDBRANCH   9  10
BRANCH   9  30
HETATM   30  N2  UNL     1      13.263  37.948  -7.803  1.00  0.00    -0.326 NA
BRANCH  30  31
HETATM   31  N3  UNL     1      12.721  37.898  -6.604  1.00  0.00    -0.187 N 
HETATM   32  C25 UNL     1      11.406  38.199  -6.155  1.00  0.00     0.357 C 
HETATM   33  N4  UNL     1      11.051  38.075  -4.812  1.00  0.00    -0.038 NA
HETATM   34  O4  UNL     1      10.554  38.581  -6.980  1.00  0.00    -0.248 OA
ATOM     35  H3  UNL     1      13.356  37.590  -5.867  1.00  0.00     0.206 HD
ENDBRANCH  30  31
ENDBRANCH   9  30
ENDBRANCH   8   9
ENDBRANCH   7   8
ENDBRANCH   6   7
BRANCH   6  36
HETATM   36  O3  UNL     1      13.901  34.766 -12.082  1.00  0.00    -0.361 OA
ATOM     37  H3  UNL     1      13.486  34.246 -12.760  1.00  0.00     0.217 HD
ENDBRANCH   6  36
ENDBRANCH   1   5
TORSDOF 16
ENDMDL
MODEL 3
REMARK VINA RESULT: -7.250657027      2.743      5.006
REMARK  16 active torsions:
REMARK  status: ('A' for Active; 'I' for Inactive)
REMARK    1  A    between atoms: C2_2  and  C3_3 
REMARK    2  A    between atoms: C4_4  and  C5_5 
REMARK    3  A    between atoms: C5_5  and  C6_6 
REMARK    4  A    between atoms: C7_7  and  O1_8 
REMARK    5  A    between atoms: C9_11  and  O2_12 
REMARK    6  A    between atoms: C10_14  and  C11_15 
REMARK    7  A    between atoms: C13_17  and  C14_18 
REMARK    8  A    between atoms: C14_18  and  C16_20 
REMARK    9  A    between atoms: C16_20  and  C17_21 
REMARK   10  A    between atoms: C17_21  and  C18_22 
REMARK   11  A    between atoms: C17_21  and  N2_32 
REMARK   12  A    between atoms: C18_22  and  C19_23 
REMARK   13  A    between atoms: C19_23  and  C20_24 
REMARK   14  A    between atoms: C20_24  and  O3_25 
REMARK   15  A    between atoms: C21_27  and  C22_28 
REMARK   16  A    between atoms: N2_32  and  N3_33 
REMARK       I    between atoms: N3_33  and  C25_35 
ROOT
HETATM    1  C22 UNL     1      14.104  36.242 -14.437  1.00  0.00     0.013 C 
HETATM    2  C23 UNL     1      15.272  36.091 -15.019  1.00  0.00     0.093 C 
HETATM    3  C24 UNL     1      15.447  35.433 -16.276  1.00  0.00     0.087 C 
HETATM    4  N1  UNL     1      15.567  34.889 -17.297  1.00  0.00    -0.192 NA
ENDROOT
BRANCH   1   5
HETATM    5  C21 UNL     1      13.944  36.918 -13.152  1.00  0.00     0.037 C 
HETATM    6  C20 UNL     1      13.384  36.324 -12.144  1.00  0.00     0.062 C 
BRANCH   6   7
HETATM    7  C19 UNL     1      13.122  36.787 -10.798  1.00  0.00     0.017 C 
BRANCH   7   8
HETATM    8  C18 UNL     1      14.194  37.116  -9.868  1.00  0.00     0.104 C 
BRANCH   8   9
HETATM    9  C17 UNL     1      13.972  38.369  -9.023  1.00  0.00     0.113 C 
BRANCH   9  10
HETATM   10  C16 UNL     1      14.304  39.635  -9.626  1.00  0.00     0.049 C 
BRANCH  10  11
HETATM   11  C14 UNL     1      13.679  40.463 -10.420  1.00  0.00    -0.059 C 
HETATM   12  C15 UNL     1      13.902  40.215 -11.906  1.00  0.00     0.048 C 
BRANCH  11  13
HETATM   13  C13 UNL     1      12.823  41.561 -10.058  1.00  0.00     0.009 C 
HETATM   14  C11 UNL     1      12.711  42.791 -10.432  1.00  0.00    -0.076 C 
HETATM   15  C12 UNL     1      13.512  43.406 -11.494  1.00  0.00     0.044 C 
BRANCH  14  16
HETATM   16  C10 UNL     1      11.681  43.679  -9.816  1.00  0.00     0.050 C 
HETATM   17  C6  UNL     1      11.945  43.982  -8.354  1.00  0.00     0.028 C 
HETATM   18  C7  UNL     1      10.671  44.757  -7.995  1.00  0.00     0.125 C 
HETATM   19  C8  UNL     1       9.596  44.009  -8.725  1.00  0.00     0.064 C 
HETATM   20  C9  UNL     1      10.325  43.027  -9.669  1.00  0.00     0.129 C 
BRANCH  17  21
HETATM   21  C5  UNL     1      13.099  44.877  -8.084  1.00  0.00     0.035 C 
BRANCH  21  22
HETATM   22  C4  UNL     1      13.964  44.213  -7.046  1.00  0.00    -0.030 C 
HETATM   23  C3  UNL     1      15.085  43.594  -7.259  1.00  0.00    -0.031 C 
BRANCH  23  24
HETATM   24  C2  UNL     1      15.792  43.377  -8.522  1.00  0.00     0.022 C 
HETATM   25  C1  UNL     1      17.038  44.256  -8.641  1.00  0.00     0.009 C 
ENDBRANCH  23  24
ENDBRANCH  21  22
ENDBRANCH  17  21
BRANCH  18  26
HETATM   26  O1  UNL     1      10.448  44.774  -6.616  1.00  0.00    -0.395 OA
ATOM     27  H1  UNL     1       9.624  45.194  -6.398  1.00  0.00     0.210 HD
ENDBRANCH  18  26
BRANCH  20  28
HETATM   28  O2  UNL     1       9.621  42.897 -10.848  1.00  0.00    -0.395 OA
ATOM     29  H2  UNL     1       8.756  43.278 -10.753  1.00  0.00     0.210 HD
ENDBRANCH  20  28
ENDBRANCH  14  16
ENDBRANCH  11  13
ENDBRANCH  10  11
ENDBRANCH   9  10
BRANCH   9  30
HETATM   30  N2  UNL     1      13.601  38.225  -7.890  1.00  0.00    -0.326 NA
BRANCH  30  31
HETATM   31  N3  UNL     1      12.885  37.956  -6.818  1.00  0.00    -0.187 N 
HETATM   32  C25 UNL     1      11.525  38.230  -6.506  1.00  0.00     0.357 C 
HETATM   33  N4  UNL     1      10.971  37.848  -5.285  1.00  0.00    -0.038 NA
HETATM   34  O4  UNL     1      10.816  38.823  -7.341  1.00  0.00    -0.248 OA
ATOM     35  H3  UNL     1      13.395  37.466  -6.084  1.00  0.00     0.206 HD
ENDBRANCH  30  31
ENDBRANCH   9  30
ENDBRANCH   8   9
ENDBRANCH   7   8
ENDBRANCH   6   7
BRANCH   6  36
HETATM   36  O3  UNL     1      12.949  34.990 -12.403  1.00  0.00    -0.361 OA
ATOM     37  H3  UNL     1      13.590  34.449 -12.850  1.00  0.00     0.217 HD
ENDBRANCH   6  36
ENDBRANCH   1   5
TORSDOF 16
ENDMDL
MODEL 4
REMARK VINA RESULT: -7.228205538      2.556      4.146
REMARK  16 active torsions:
REMARK  status: ('A' for Active; 'I' for Inactive)
REMARK    1  A    between atoms: C2_2  and  C3_3 
REMARK    2  A    between atoms: C4_4  and  C5_5 
REMARK    3  A    between atoms: C5_5  and  C6_6 
REMARK    4  A    between atoms: C7_7  and  O1_8 
REMARK    5  A    between atoms: C9_11  and  O2_12 
REMARK    6  A    between atoms: C10_14  and  C11_15 
REMARK    7  A    between atoms: C13_17  and  C14_18 
REMARK    8  A    between atoms: C14_18  and  C16_20 
REMARK    9  A    between atoms: C16_20  and  C17_21 
REMARK   10  A    between atoms: C17_21  and  C18_22 
REMARK   11  A    between atoms: C17_21  and  N2_32 
REMARK   12  A    between atoms: C18_22  and  C19_23 
REMARK   13  A    between atoms: C19_23  and  C20_24 
REMARK   14  A    between atoms: C20_24  and  O3_25 
REMARK   15  A    between atoms: C21_27  and  C22_28 
REMARK   16  A    between atoms: N2_32  and  N3_33 
REMARK       I    between atoms: N3_33  and  C25_35 
ROOT
HETATM    1  C22 UNL     1      13.898  36.001 -13.047  1.00  0.00     0.013 C 
HETATM    2  C23 UNL     1      14.227  36.659 -14.136  1.00  0.00     0.093 C 
HETATM    3  C24 UNL     1      14.663  36.023 -15.340  1.00  0.00     0.087 C 
HETATM    4  N1  UNL     1      15.022  35.486 -16.307  1.00  0.00    -0.192 NA
ENDROOT
BRANCH   1   5
HETATM    5  C21 UNL     1      13.453  36.667 -11.826  1.00  0.00     0.037 C 
HETATM    6  C20 UNL     1      14.233  36.770 -10.794  1.00  0.00     0.062 C 
BRANCH   6   7
HETATM    7  C19 UNL     1      14.013  37.378  -9.498  1.00  0.00     0.017 C 
BRANCH   7   8
HETATM    8  C18 UNL     1      12.717  37.909  -9.099  1.00  0.00     0.104 C 
BRANCH   8   9
HETATM    9  C17 UNL     1      12.720  38.785  -7.848  1.00  0.00     0.113 C 
BRANCH   9  10
HETATM   10  C16 UNL     1      13.110  40.163  -8.011  1.00  0.00     0.049 C 
BRANCH  10  11
HETATM   11  C14 UNL     1      13.363  40.927  -9.040  1.00  0.00    -0.059 C 
HETATM   12  C15 UNL     1      12.226  41.857  -9.441  1.00  0.00     0.048 C 
BRANCH  11  13
HETATM   13  C13 UNL     1      14.569  40.986  -9.823  1.00  0.00     0.009 C 
HETATM   14  C11 UNL     1      14.872  40.724 -11.050  1.00  0.00    -0.076 C 
HETATM   15  C12 UNL     1      13.906  40.297 -12.066  1.00  0.00     0.044 C 
BRANCH  14  16
HETATM   16  C10 UNL     1      16.273  40.897 -11.536  1.00  0.00     0.050 C 
HETATM   17  C6  UNL     1      16.485  42.182 -12.313  1.00  0.00     0.028 C 
HETATM   18  C7  UNL     1      17.931  41.986 -12.785  1.00  0.00     0.125 C 
HETATM   19  C8  UNL     1      17.982  40.531 -13.146  1.00  0.00     0.064 C 
HETATM   20  C9  UNL     1      16.669  39.913 -12.613  1.00  0.00     0.129 C 
BRANCH  17  21
HETATM   21  C5  UNL     1      16.447  43.430 -11.509  1.00  0.00     0.035 C 
BRANCH  21  22
HETATM   22  C4  UNL     1      17.355  43.242 -10.322  1.00  0.00    -0.030 C 
HETATM   23  C3  UNL     1      17.149  43.680  -9.118  1.00  0.00    -0.031 C 
BRANCH  23  24
HETATM   24  C2  UNL     1      16.017  44.450  -8.600  1.00  0.00     0.022 C 
HETATM   25  C1  UNL     1      15.243  43.683  -7.527  1.00  0.00     0.009 C 
ENDBRANCH  23  24
ENDBRANCH  21  22
ENDBRANCH  17  21
BRANCH  18  26
HETATM   26  O1  UNL     1      18.233  42.802 -13.878  1.00  0.00    -0.395 OA
ATOM     27  H1  UNL     1      18.967  42.465 -14.378  1.00  0.00     0.210 HD
ENDBRANCH  18  26
BRANCH  20  28
HETATM   28  O2  UNL     1      16.901  38.632 -12.162  1.00  0.00    -0.395 OA
ATOM     29  H2  UNL     1      16.209  38.052 -12.460  1.00  0.00     0.210 HD
ENDBRANCH  20  28
ENDBRANCH  14  16
ENDBRANCH  11  13
ENDBRANCH  10  11
ENDBRANCH   9  10
BRANCH   9  30
HETATM   30  N2  UNL     1      12.467  38.263  -6.797  1.00  0.00    -0.326 NA
BRANCH  30  31
HETATM   31  N3  UNL     1      11.877  37.889  -5.680  1.00  0.00    -0.187 N 
HETATM   32  C25 UNL     1      10.771  38.435  -4.974  1.00  0.00     0.357 C 
HETATM   33  N4  UNL     1      10.314  37.864  -3.787  1.00  0.00    -0.038 NA
HETATM   34  O4  UNL     1      10.199  39.446  -5.427  1.00  0.00    -0.248 OA
ATOM     35  H3  UNL     1      12.288  37.063  -5.245  1.00  0.00     0.206 HD
ENDBRANCH  30  31
ENDBRANCH   9  30
ENDBRANCH   8   9
ENDBRANCH   7   8
ENDBRANCH   6   7
BRANCH   6  36
HETATM   36  O3  UNL     1      15.524  36.186 -10.959  1.00  0.00    -0.361 OA
ATOM     37  H3  UNL     1      15.739  35.959 -11.856  1.00  0.00     0.217 HD
ENDBRANCH   6  36
ENDBRANCH   1   5
TORSDOF 16
ENDMDL
MODEL 5
REMARK VINA RESULT: -7.202655260      2.655      4.518
REMARK  16 active torsions:
REMARK  status: ('A' for Active; 'I' for Inactive)
REMARK    1  A    between atoms: C2_2  and  C3_3 
REMARK    2  A    between atoms: C4_4  and  C5_5 
REMARK    3  A    between atoms: C5_5  and  C6_6 
REMARK    4  A    between atoms: C7_7  and  O1_8 
REMARK    5  A    between atoms: C9_11  and  O2_12 
REMARK    6  A    between atoms: C10_14  and  C11_15 
REMARK    7  A    between atoms: C13_17  and  C14_18 
REMARK    8  A    between atoms: C14_18  and  C16_20 
REMARK    9  A    between atoms: C16_20  and  C17_21 
REMARK   10  A    between atoms: C17_21  and  C18_22 
REMARK   11  A    between atoms: C17_21  and  N2_32 
REMARK   12  A    between atoms: C18_22  and  C19_23 
REMARK   13  A    between atoms: C19_23  and  C20_24 
REMARK   14  A    between atoms: C20_24  and  O3_25 
REMARK   15  A    between atoms: C21_27  and  C22_28 
REMARK   16  A    between atoms: N2_32  and  N3_33 
REMARK       I    between atoms: N3_33  and  C25_35 
ROOT
HETATM    1  C22 UNL     1      13.532  37.394 -11.266  1.00  0.00     0.013 C 
HETATM    2  C23 UNL     1      13.163  36.401 -12.043  1.00  0.00     0.093 C 
HETATM    3  C24 UNL     1      13.794  36.099 -13.290  1.00  0.00     0.087 C 
HETATM    4  N1  UNL     1      14.317  35.875 -14.304  1.00  0.00    -0.192 NA
ENDROOT
BRANCH   1   5
HETATM    5  C21 UNL     1      12.876  37.687  -9.994  1.00  0.00     0.037 C 
HETATM    6  C20 UNL     1      13.560  37.835  -8.902  1.00  0.00     0.062 C 
BRANCH   6   7
HETATM    7  C19 UNL     1      13.134  38.126  -7.549  1.00  0.00     0.017 C 
BRANCH   7   8
HETATM    8  C18 UNL     1      11.759  38.482  -7.228  1.00  0.00     0.104 C 
BRANCH   8   9
HETATM    9  C17 UNL     1      11.569  39.842  -6.558  1.00  0.00     0.113 C 
BRANCH   9  10
HETATM   10  C16 UNL     1      12.414  40.919  -7.007  1.00  0.00     0.049 C 
BRANCH  10  11
HETATM   11  C14 UNL     1      12.449  41.670  -8.076  1.00  0.00    -0.059 C 
HETATM   12  C15 UNL     1      11.516  42.874  -8.042  1.00  0.00     0.048 C 
BRANCH  11  13
HETATM   13  C13 UNL     1      13.250  41.491  -9.258  1.00  0.00     0.009 C 
HETATM   14  C11 UNL     1      14.398  41.926  -9.654  1.00  0.00    -0.076 C 
HETATM   15  C12 UNL     1      15.282  42.775  -8.850  1.00  0.00     0.044 C 
BRANCH  14  16
HETATM   16  C10 UNL     1      14.937  41.530 -10.989  1.00  0.00     0.050 C 
HETATM   17  C6  UNL     1      13.866  41.066 -11.957  1.00  0.00     0.028 C 
HETATM   18  C7  UNL     1      14.735  40.601 -13.132  1.00  0.00     0.125 C 
HETATM   19  C8  UNL     1      15.893  39.926 -12.460  1.00  0.00     0.064 C 
HETATM   20  C9  UNL     1      15.774  40.271 -10.957  1.00  0.00     0.129 C 
BRANCH  17  21
HETATM   21  C5  UNL     1      12.961  42.127 -12.467  1.00  0.00     0.035 C 
BRANCH  21  22
HETATM   22  C4  UNL     1      13.788  43.362 -12.705  1.00  0.00    -0.030 C 
HETATM   23  C3  UNL     1      13.600  44.530 -12.171  1.00  0.00    -0.031 C 
BRANCH  23  24
HETATM   24  C2  UNL     1      12.568  44.953 -11.222  1.00  0.00     0.022 C 
HETATM   25  C1  UNL     1      13.166  45.633  -9.990  1.00  0.00     0.009 C 
ENDBRANCH  23  24
ENDBRANCH  21  22
ENDBRANCH  17  21
BRANCH  18  26
HETATM   26  O1  UNL     1      14.042  39.727 -13.973  1.00  0.00    -0.395 OA
ATOM     27  H1  UNL     1      14.393  39.736 -14.856  1.00  0.00     0.210 HD
ENDBRANCH  18  26
BRANCH  20  28
HETATM   28  O2  UNL     1      17.029  40.430 -10.410  1.00  0.00    -0.395 OA
ATOM     29  H2  UNL     1      17.065  41.239  -9.912  1.00  0.00     0.210 HD
ENDBRANCH  20  28
ENDBRANCH  14  16
ENDBRANCH  11  13
ENDBRANCH  10  11
ENDBRANCH   9  10
BRANCH   9  30
HETATM   30  N2  UNL     1      10.782  39.918  -5.655  1.00  0.00    -0.326 NA
BRANCH  30  31
HETATM   31  N3  UNL     1      10.109  39.707  -4.542  1.00  0.00    -0.187 N 
HETATM   32  C25 UNL     1       9.201  38.677  -4.176  1.00  0.00     0.357 C 
HETATM   33  N4  UNL     1       8.593  38.658  -2.921  1.00  0.00    -0.038 NA
HETATM   34  O4  UNL     1       8.942  37.773  -4.995  1.00  0.00    -0.248 OA
ATOM     35  H3  UNL     1      10.268  40.405  -3.816  1.00  0.00     0.206 HD
ENDBRANCH  30  31
ENDBRANCH   9  30
ENDBRANCH   8   9
ENDBRANCH   7   8
ENDBRANCH   6   7
BRANCH   6  36
HETATM   36  O3  UNL     1      14.971  37.686  -9.056  1.00  0.00    -0.361 OA
ATOM     37  H3  UNL     1      15.422  38.479  -9.323  1.00  0.00     0.217 HD
ENDBRANCH   6  36
ENDBRANCH   1   5
TORSDOF 16
ENDMDL
