MODEL 1
REMARK VINA RESULT: -8.667467277      0.000      0.000
REMARK  17 active torsions:
REMARK  status: ('A' for Active; 'I' for Inactive)
REMARK       I    between atoms: C2_2  and  N1_4 
REMARK    1  A    between atoms: N1_4  and  C3_5 
REMARK    2  A    between atoms: C3_5  and  C5_7 
REMARK    3  A    between atoms: C3_5  and  C12_15 
REMARK    4  A    between atoms: C5_7  and  C6_8 
REMARK    5  A    between atoms: C7_9  and  C8_10 
REMARK    6  A    between atoms: C8_10  and  N2_11 
REMARK       I    between atoms: C12_15  and  N3_17 
REMARK    7  A    between atoms: N3_17  and  C13_18 
REMARK    8  A    between atoms: C13_18  and  C14_19 
REMARK    9  A    between atoms: C14_19  and  N4_20 
REMARK   10  A    between atoms: C18_24  and  C19_25 
REMARK       I    between atoms: C19_25  and  N5_26 
REMARK   11  A    between atoms: C21_31  and  C22_32 
REMARK   12  A    between atoms: C22_32  and  O4_33 
REMARK   13  A    between atoms: N6_35  and  C23_37 
REMARK   14  A    between atoms: C23_37  and  C24_38 
REMARK   15  A    between atoms: C32_46  and  C33_47 
REMARK   16  A    between atoms: C33_47  and  C34_49 
REMARK   17  A    between atoms: C35_50  and  C36_51 
ROOT
HETATM    1  N4  UNL     1      10.919   2.010   1.557  1.00  0.00    -0.053 N 
HETATM    2  C15 UNL     1      10.891   1.696   0.191  1.00  0.00     0.274 C 
HETATM    3  C16 UNL     1       9.661   1.536   2.171  1.00  0.00     0.243 C 
HETATM    4  C17 UNL     1       9.527   2.027   3.587  1.00  0.00     0.068 C 
HETATM    5  C18 UNL     1      10.705   1.539   4.389  1.00  0.00    -0.009 C 
HETATM    6  C20 UNL     1      11.995   1.798   3.721  1.00  0.00     0.082 C 
HETATM    7  C21 UNL     1      12.037   1.381   2.217  1.00  0.00     0.268 C 
ENDROOT
BRANCH   7   8
HETATM    8  C22 UNL     1      12.202  -0.055   2.195  1.00  0.00     0.143 C 
HETATM    9  N6  UNL     1      11.640  -1.212   1.806  1.00  0.00    -0.372 N 
ATOM     10  H6  UNL     1      10.782  -1.126   1.260  1.00  0.00     0.161 HD
BRANCH   8  11
HETATM   11  O4  UNL     1      13.415  -0.380   2.877  1.00  0.00    -0.348 OA
ATOM     12  H4  UNL     1      13.198  -0.901   3.641  1.00  0.00     0.219 HD
ENDBRANCH   8  11
BRANCH   9  13
HETATM   13  C23 UNL     1      12.088  -2.561   2.056  1.00  0.00     0.131 C 
BRANCH  13  14
HETATM   14  C24 UNL     1      11.120  -3.624   1.622  1.00  0.00    -0.012 C 
HETATM   15  C25 UNL     1      11.749  -4.774   0.982  1.00  0.00     0.016 C 
HETATM   16  C26 UNL     1      10.701  -5.707   0.400  1.00  0.00    -0.013 C 
HETATM   17  C27 UNL     1       9.827  -5.010  -0.625  1.00  0.00     0.009 C 
HETATM   18  C31 UNL     1       9.782  -6.130   1.515  1.00  0.00     0.010 C 
HETATM   19  C28 UNL     1       9.155  -3.847   0.076  1.00  0.00    -0.013 C 
HETATM   20  C29 UNL     1       8.248  -4.290   1.217  1.00  0.00     0.010 C 
HETATM   21  C39 UNL     1      10.216  -2.918   0.542  1.00  0.00     0.016 C 
HETATM   22  C30 UNL     1       9.152  -4.977   2.223  1.00  0.00    -0.001 C 
HETATM   23  C32 UNL     1      10.117  -3.919   2.722  1.00  0.00     0.083 C 
BRANCH  23  24
HETATM   24  C33 UNL     1      10.676  -4.230   4.023  1.00  0.00     0.207 C 
HETATM   25  O5  UNL     1      10.518  -3.458   5.037  1.00  0.00    -0.283 OA
BRANCH  24  26
HETATM   26  C34 UNL     1      11.456  -5.422   4.321  1.00  0.00    -0.028 C 
HETATM   27  C35 UNL     1      12.099  -6.428   4.527  1.00  0.00    -0.094 C 
BRANCH  27  28
HETATM   28  C36 UNL     1      12.893  -7.674   4.727  1.00  0.00     0.057 C 
HETATM   29  C37 UNL     1      13.344  -7.725   6.170  1.00  0.00     0.023 C 
HETATM   30  C38 UNL     1      14.006  -7.658   3.734  1.00  0.00     0.023 C 
ENDBRANCH  27  28
ENDBRANCH  24  26
ENDBRANCH  23  24
ENDBRANCH  13  14
ENDBRANCH   9  13
ENDBRANCH   7   8
BRANCH   1  31
HETATM   31  C14 UNL     1      10.979   3.427   1.777  1.00  0.00     0.297 C 
BRANCH  31  32
HETATM   32  C13 UNL     1      11.734   4.301   0.810  1.00  0.00     0.187 C 
BRANCH  32  33
HETATM   33  N3  UNL     1      12.440   5.182   1.537  1.00  0.00    -0.383 NA
HETATM   34  C12 UNL     1      13.191   6.073   2.331  1.00  0.00     0.333 C 
HETATM   35  O2  UNL     1      13.849   5.996   3.269  1.00  0.00    -0.253 OA
BRANCH  34  36
HETATM   36  C3  UNL     1      12.964   7.555   1.743  1.00  0.00     0.190 C 
HETATM   37  C4  UNL     1      11.543   7.859   1.939  1.00  0.00     0.067 C 
BRANCH  36  38
HETATM   38  N1  UNL     1      13.926   8.286   2.468  1.00  0.00    -0.393 NA
HETATM   39  C2  UNL     1      14.843   8.980   3.154  1.00  0.00     0.283 C 
HETATM   40  C1  UNL     1      14.507   9.300   4.627  1.00  0.00     0.134 C 
HETATM   41  O1  UNL     1      15.967   9.417   2.739  1.00  0.00    -0.258 OA
ENDBRANCH  36  38
BRANCH  36  42
HETATM   42  C5  UNL     1      13.373   7.545   0.304  1.00  0.00     0.083 C 
BRANCH  42  43
HETATM   43  C6  UNL     1      14.813   7.330   0.070  1.00  0.00    -0.025 C 
HETATM   44  C7  UNL     1      15.584   8.052  -0.632  1.00  0.00    -0.003 C 
BRANCH  44  45
HETATM   45  C8  UNL     1      17.084   7.623  -0.736  1.00  0.00     0.263 C 
BRANCH  45  46
HETATM   46  N2  UNL     1      17.855   8.772  -1.102  1.00  0.00    -0.075 N 
HETATM   47  C9  UNL     1      17.124   9.644  -2.007  1.00  0.00     0.272 C 
HETATM   48  C10 UNL     1      19.062   8.337  -1.762  1.00  0.00     0.272 C 
HETATM   49  C11 UNL     1      18.288   9.512   0.081  1.00  0.00     0.272 C 
ENDBRANCH  45  46
ENDBRANCH  44  45
ENDBRANCH  42  43
ENDBRANCH  36  42
ENDBRANCH  34  36
ENDBRANCH  32  33
ENDBRANCH  31  32
ENDBRANCH   1  31
BRANCH   5  50
HETATM   50  C19 UNL     1      10.534   0.223   5.016  1.00  0.00     0.241 C 
HETATM   51  N5  UNL     1       9.320  -0.420   5.123  1.00  0.00    -0.366 N 
ATOM     52  H52 UNL     1       8.488   0.036   4.750  1.00  0.00     0.159 HD
ATOM     53  H51 UNL     1       9.202  -1.334   5.559  1.00  0.00     0.159 HD
HETATM   54  O3  UNL     1      11.565  -0.341   5.478  1.00  0.00    -0.269 OA
ENDBRANCH   5  50
TORSDOF 17
ENDMDL
MODEL 2
REMARK VINA RESULT: -8.536901286      1.902      3.688
REMARK  17 active torsions:
REMARK  status: ('A' for Active; 'I' for Inactive)
REMARK       I    between atoms: C2_2  and  N1_4 
REMARK    1  A    between atoms: N1_4  and  C3_5 
REMARK    2  A    between atoms: C3_5  and  C5_7 
REMARK    3  A    between atoms: C3_5  and  C12_15 
REMARK    4  A    between atoms: C5_7  and  C6_8 
REMARK    5  A    between atoms: C7_9  and  C8_10 
REMARK    6  A    between atoms: C8_10  and  N2_11 
REMARK       I    between atoms: C12_15  and  N3_17 
REMARK    7  A    between atoms: N3_17  and  C13_18 
REMARK    8  A    between atoms: C13_18  and  C14_19 
REMARK    9  A    between atoms: C14_19  and  N4_20 
REMARK   10  A    between atoms: C18_24  and  C19_25 
REMARK       I    between atoms: C19_25  and  N5_26 
REMARK   11  A    between atoms: C21_31  and  C22_32 
REMARK   12  A    between atoms: C22_32  and  O4_33 
REMARK   13  A    between atoms: N6_35  and  C23_37 
REMARK   14  A    between atoms: C23_37  and  C24_38 
REMARK   15  A    between atoms: C32_46  and  C33_47 
REMARK   16  A    between atoms: C33_47  and  C34_49 
REMARK   17  A    between atoms: C35_50  and  C36_51 
ROOT
HETATM    1  N4  UNL     1      10.888   1.746   1.331  1.00  0.00    -0.053 N 
HETATM    2  C15 UNL     1      10.881   1.330  -0.007  1.00  0.00     0.274 C 
HETATM    3  C16 UNL     1       9.626   1.307   1.964  1.00  0.00     0.243 C 
HETATM    4  C17 UNL     1       9.470   1.903   3.338  1.00  0.00     0.068 C 
HETATM    5  C18 UNL     1      10.641   1.486   4.188  1.00  0.00    -0.009 C 
HETATM    6  C20 UNL     1      11.938   1.705   3.519  1.00  0.00     0.082 C 
HETATM    7  C21 UNL     1      12.003   1.177   2.051  1.00  0.00     0.268 C 
ENDROOT
BRANCH   7   8
HETATM    8  C22 UNL     1      12.179  -0.255   2.139  1.00  0.00     0.143 C 
HETATM    9  N6  UNL     1      11.654  -1.442   1.792  1.00  0.00    -0.372 N 
ATOM     10  H6  UNL     1      10.835  -1.403   1.183  1.00  0.00     0.161 HD
BRANCH   8  11
HETATM   11  O4  UNL     1      13.343  -0.518   2.924  1.00  0.00    -0.348 OA
ATOM     12  H4  UNL     1      13.107  -1.128   3.614  1.00  0.00     0.219 HD
ENDBRANCH   8  11
BRANCH   9  13
HETATM   13  C23 UNL     1      12.092  -2.766   2.164  1.00  0.00     0.131 C 
BRANCH  13  14
HETATM   14  C24 UNL     1      11.219  -3.874   1.650  1.00  0.00    -0.012 C 
HETATM   15  C25 UNL     1      11.953  -4.960   1.010  1.00  0.00     0.016 C 
HETATM   16  C26 UNL     1      11.000  -5.938   0.347  1.00  0.00    -0.013 C 
HETATM   17  C27 UNL     1      10.135  -5.266  -0.702  1.00  0.00     0.009 C 
HETATM   18  C31 UNL     1      10.056  -6.456   1.399  1.00  0.00     0.010 C 
HETATM   19  C28 UNL     1       9.353  -4.171  -0.003  1.00  0.00    -0.013 C 
HETATM   20  C29 UNL     1       8.421  -4.709   1.075  1.00  0.00     0.010 C 
HETATM   21  C39 UNL     1      10.327  -3.193   0.545  1.00  0.00     0.016 C 
HETATM   22  C30 UNL     1       9.316  -5.369   2.107  1.00  0.00    -0.001 C 
HETATM   23  C32 UNL     1      10.183  -4.268   2.686  1.00  0.00     0.083 C 
BRANCH  23  24
HETATM   24  C33 UNL     1      10.695  -4.584   4.005  1.00  0.00     0.207 C 
HETATM   25  O5  UNL     1      10.272  -3.992   5.063  1.00  0.00    -0.283 OA
BRANCH  24  26
HETATM   26  C34 UNL     1      11.716  -5.586   4.274  1.00  0.00    -0.028 C 
HETATM   27  C35 UNL     1      12.594  -6.387   4.510  1.00  0.00    -0.094 C 
BRANCH  27  28
HETATM   28  C36 UNL     1      13.699  -7.335   4.829  1.00  0.00     0.057 C 
HETATM   29  C37 UNL     1      13.858  -8.291   3.666  1.00  0.00     0.023 C 
HETATM   30  C38 UNL     1      13.365  -7.992   6.125  1.00  0.00     0.023 C 
ENDBRANCH  27  28
ENDBRANCH  24  26
ENDBRANCH  23  24
ENDBRANCH  13  14
ENDBRANCH   9  13
ENDBRANCH   7   8
BRANCH   1  31
HETATM   31  C14 UNL     1      10.934   3.176   1.446  1.00  0.00     0.297 C 
BRANCH  31  32
HETATM   32  C13 UNL     1      11.537   3.993   0.333  1.00  0.00     0.187 C 
BRANCH  32  33
HETATM   33  N3  UNL     1      12.406   4.849   0.894  1.00  0.00    -0.383 NA
HETATM   34  C12 UNL     1      13.354   5.717   1.475  1.00  0.00     0.333 C 
HETATM   35  O2  UNL     1      14.495   5.731   1.608  1.00  0.00    -0.253 OA
BRANCH  34  36
HETATM   36  C3  UNL     1      12.546   6.935   2.151  1.00  0.00     0.190 C 
HETATM   37  C4  UNL     1      11.738   6.343   3.222  1.00  0.00     0.067 C 
BRANCH  36  38
HETATM   38  N1  UNL     1      13.600   7.806   2.491  1.00  0.00    -0.393 NA
HETATM   39  C2  UNL     1      14.602   8.633   2.811  1.00  0.00     0.283 C 
HETATM   40  C1  UNL     1      14.564   9.251   4.226  1.00  0.00     0.134 C 
HETATM   41  O1  UNL     1      15.592   8.981   2.086  1.00  0.00    -0.258 OA
ENDBRANCH  36  38
BRANCH  36  42
HETATM   42  C5  UNL     1      11.725   7.589   1.084  1.00  0.00     0.083 C 
BRANCH  42  43
HETATM   43  C6  UNL     1      10.335   7.891   1.470  1.00  0.00    -0.025 C 
HETATM   44  C7  UNL     1       9.441   8.412   0.737  1.00  0.00    -0.003 C 
BRANCH  44  45
HETATM   45  C8  UNL     1       8.029   8.642   1.368  1.00  0.00     0.263 C 
BRANCH  45  46
HETATM   46  N2  UNL     1       7.354   9.647   0.605  1.00  0.00    -0.075 N 
HETATM   47  C9  UNL     1       6.449  10.432   1.430  1.00  0.00     0.272 C 
HETATM   48  C10 UNL     1       6.586   9.010  -0.437  1.00  0.00     0.272 C 
HETATM   49  C11 UNL     1       8.310  10.519  -0.075  1.00  0.00     0.272 C 
ENDBRANCH  45  46
ENDBRANCH  44  45
ENDBRANCH  42  43
ENDBRANCH  36  42
ENDBRANCH  34  36
ENDBRANCH  32  33
ENDBRANCH  31  32
ENDBRANCH   1  31
BRANCH   5  50
HETATM   50  C19 UNL     1      10.472   0.220   4.910  1.00  0.00     0.241 C 
HETATM   51  N5  UNL     1       9.268  -0.441   5.022  1.00  0.00    -0.366 N 
ATOM     52  H52 UNL     1       8.442  -0.034   4.584  1.00  0.00     0.159 HD
ATOM     53  H51 UNL     1       9.151  -1.321   5.525  1.00  0.00     0.159 HD
HETATM   54  O3  UNL     1      11.495  -0.283   5.452  1.00  0.00    -0.269 OA
ENDBRANCH   5  50
TORSDOF 17
ENDMDL
MODEL 3
REMARK VINA RESULT: -8.506894357      1.082      1.578
REMARK  17 active torsions:
REMARK  status: ('A' for Active; 'I' for Inactive)
REMARK       I    between atoms: C2_2  and  N1_4 
REMARK    1  A    between atoms: N1_4  and  C3_5 
REMARK    2  A    between atoms: C3_5  and  C5_7 
REMARK    3  A    between atoms: C3_5  and  C12_15 
REMARK    4  A    between atoms: C5_7  and  C6_8 
REMARK    5  A    between atoms: C7_9  and  C8_10 
REMARK    6  A    between atoms: C8_10  and  N2_11 
REMARK       I    between atoms: C12_15  and  N3_17 
REMARK    7  A    between atoms: N3_17  and  C13_18 
REMARK    8  A    between atoms: C13_18  and  C14_19 
REMARK    9  A    between atoms: C14_19  and  N4_20 
REMARK   10  A    between atoms: C18_24  and  C19_25 
REMARK       I    between atoms: C19_25  and  N5_26 
REMARK   11  A    between atoms: C21_31  and  C22_32 
REMARK   12  A    between atoms: C22_32  and  O4_33 
REMARK   13  A    between atoms: N6_35  and  C23_37 
REMARK   14  A    between atoms: C23_37  and  C24_38 
REMARK   15  A    between atoms: C32_46  and  C33_47 
REMARK   16  A    between atoms: C33_47  and  C34_49 
REMARK   17  A    between atoms: C35_50  and  C36_51 
ROOT
HETATM    1  N4  UNL     1      11.501   2.210   1.669  1.00  0.00    -0.053 N 
HETATM    2  C15 UNL     1      11.630   1.872   0.315  1.00  0.00     0.274 C 
HETATM    3  C16 UNL     1      10.149   1.819   2.121  1.00  0.00     0.243 C 
HETATM    4  C17 UNL     1       9.863   2.344   3.502  1.00  0.00     0.068 C 
HETATM    5  C18 UNL     1      10.898   1.805   4.455  1.00  0.00    -0.009 C 
HETATM    6  C20 UNL     1      12.276   1.978   3.956  1.00  0.00     0.082 C 
HETATM    7  C21 UNL     1      12.487   1.531   2.476  1.00  0.00     0.268 C 
ENDROOT
BRANCH   7   8
HETATM    8  C22 UNL     1      12.568   0.088   2.491  1.00  0.00     0.143 C 
HETATM    9  N6  UNL     1      11.932  -1.045   2.149  1.00  0.00    -0.372 N 
ATOM     10  H6  UNL     1      11.067  -0.925   1.622  1.00  0.00     0.161 HD
BRANCH   8  11
HETATM   11  O4  UNL     1      13.777  -0.287   3.154  1.00  0.00    -0.348 OA
ATOM     12  H4  UNL     1      13.626  -1.106   3.612  1.00  0.00     0.219 HD
ENDBRANCH   8  11
BRANCH   9  13
HETATM   13  C23 UNL     1      12.309  -2.410   2.428  1.00  0.00     0.131 C 
BRANCH  13  14
HETATM   14  C24 UNL     1      11.407  -3.438   1.806  1.00  0.00    -0.012 C 
HETATM   15  C25 UNL     1      12.118  -4.521   1.133  1.00  0.00     0.016 C 
HETATM   16  C26 UNL     1      11.151  -5.407   0.368  1.00  0.00    -0.013 C 
HETATM   17  C27 UNL     1      10.371  -4.629  -0.674  1.00  0.00     0.009 C 
HETATM   18  C31 UNL     1      10.134  -5.938   1.342  1.00  0.00     0.010 C 
HETATM   19  C28 UNL     1       9.611  -3.539   0.057  1.00  0.00    -0.013 C 
HETATM   20  C29 UNL     1       8.603  -4.092   1.056  1.00  0.00     0.010 C 
HETATM   21  C39 UNL     1      10.604  -2.647   0.708  1.00  0.00     0.016 C 
HETATM   22  C30 UNL     1       9.415  -4.859   2.083  1.00  0.00    -0.001 C 
HETATM   23  C32 UNL     1      10.306  -3.841   2.769  1.00  0.00     0.083 C 
BRANCH  23  24
HETATM   24  C33 UNL     1      10.739  -4.263   4.087  1.00  0.00     0.207 C 
HETATM   25  O5  UNL     1      10.476  -3.581   5.143  1.00  0.00    -0.283 OA
BRANCH  24  26
HETATM   26  C34 UNL     1      11.495  -5.476   4.356  1.00  0.00    -0.028 C 
HETATM   27  C35 UNL     1      12.125  -6.495   4.537  1.00  0.00    -0.094 C 
BRANCH  27  28
HETATM   28  C36 UNL     1      12.911  -7.751   4.706  1.00  0.00     0.057 C 
HETATM   29  C37 UNL     1      13.392  -7.822   6.139  1.00  0.00     0.023 C 
HETATM   30  C38 UNL     1      14.002  -7.736   3.689  1.00  0.00     0.023 C 
ENDBRANCH  27  28
ENDBRANCH  24  26
ENDBRANCH  23  24
ENDBRANCH  13  14
ENDBRANCH   9  13
ENDBRANCH   7   8
BRANCH   1  31
HETATM   31  C14 UNL     1      11.615   3.625   1.879  1.00  0.00     0.297 C 
BRANCH  31  32
HETATM   32  C13 UNL     1      11.893   4.533   0.710  1.00  0.00     0.187 C 
BRANCH  32  33
HETATM   33  N3  UNL     1      13.212   4.787   0.708  1.00  0.00    -0.383 NA
HETATM   34  C12 UNL     1      14.603   5.015   0.732  1.00  0.00     0.333 C 
HETATM   35  O2  UNL     1      15.529   4.455   1.118  1.00  0.00    -0.253 OA
BRANCH  34  36
HETATM   36  C3  UNL     1      14.867   6.470   0.096  1.00  0.00     0.190 C 
HETATM   37  C4  UNL     1      14.089   6.520  -1.146  1.00  0.00     0.067 C 
BRANCH  36  38
HETATM   38  N1  UNL     1      14.499   7.307   1.168  1.00  0.00    -0.393 NA
HETATM   39  C2  UNL     1      14.153   8.103   2.187  1.00  0.00     0.283 C 
HETATM   40  C1  UNL     1      12.716   7.942   2.733  1.00  0.00     0.134 C 
HETATM   41  O1  UNL     1      14.865   8.988   2.768  1.00  0.00    -0.258 OA
ENDBRANCH  36  38
BRANCH  36  42
HETATM   42  C5  UNL     1      16.341   6.614  -0.123  1.00  0.00     0.083 C 
BRANCH  42  43
HETATM   43  C6  UNL     1      16.786   7.977  -0.465  1.00  0.00    -0.025 C 
HETATM   44  C7  UNL     1      17.980   8.406  -0.469  1.00  0.00    -0.003 C 
BRANCH  44  45
HETATM   45  C8  UNL     1      18.212   9.900  -0.868  1.00  0.00     0.263 C 
BRANCH  45  46
HETATM   46  N2  UNL     1      19.522  10.281  -0.439  1.00  0.00    -0.075 N 
HETATM   47  C9  UNL     1      20.551   9.775  -1.334  1.00  0.00     0.272 C 
HETATM   48  C10 UNL     1      19.760   9.745   0.879  1.00  0.00     0.272 C 
HETATM   49  C11 UNL     1      19.630  11.733  -0.308  1.00  0.00     0.272 C 
ENDBRANCH  45  46
ENDBRANCH  44  45
ENDBRANCH  42  43
ENDBRANCH  36  42
ENDBRANCH  34  36
ENDBRANCH  32  33
ENDBRANCH  31  32
ENDBRANCH   1  31
BRANCH   5  50
HETATM   50  C19 UNL     1      10.572   0.513   5.070  1.00  0.00     0.241 C 
HETATM   51  N5  UNL     1       9.284   0.084   5.307  1.00  0.00    -0.366 N 
ATOM     52  H52 UNL     1       8.507   0.692   5.047  1.00  0.00     0.159 HD
ATOM     53  H51 UNL     1       9.057  -0.813   5.735  1.00  0.00     0.159 HD
HETATM   54  O3  UNL     1      11.533  -0.238   5.393  1.00  0.00    -0.269 OA
ENDBRANCH   5  50
TORSDOF 17
ENDMDL
MODEL 4
REMARK VINA RESULT: -8.487530923      2.161      3.898
REMARK  17 active torsions:
REMARK  status: ('A' for Active; 'I' for Inactive)
REMARK       I    between atoms: C2_2  and  N1_4 
REMARK    1  A    between atoms: N1_4  and  C3_5 
REMARK    2  A    between atoms: C3_5  and  C5_7 
REMARK    3  A    between atoms: C3_5  and  C12_15 
REMARK    4  A    between atoms: C5_7  and  C6_8 
REMARK    5  A    between atoms: C7_9  and  C8_10 
REMARK    6  A    between atoms: C8_10  and  N2_11 
REMARK       I    between atoms: C12_15  and  N3_17 
REMARK    7  A    between atoms: N3_17  and  C13_18 
REMARK    8  A    between atoms: C13_18  and  C14_19 
REMARK    9  A    between atoms: C14_19  and  N4_20 
REMARK   10  A    between atoms: C18_24  and  C19_25 
REMARK       I    between atoms: C19_25  and  N5_26 
REMARK   11  A    between atoms: C21_31  and  C22_32 
REMARK   12  A    between atoms: C22_32  and  O4_33 
REMARK   13  A    between atoms: N6_35  and  C23_37 
REMARK   14  A    between atoms: C23_37  and  C24_38 
REMARK   15  A    between atoms: C32_46  and  C33_47 
REMARK   16  A    between atoms: C33_47  and  C34_49 
REMARK   17  A    between atoms: C35_50  and  C36_51 
ROOT
HETATM    1  N4  UNL     1      10.849   1.326   1.168  1.00  0.00    -0.053 N 
HETATM    2  C15 UNL     1      10.894   0.824  -0.139  1.00  0.00     0.274 C 
HETATM    3  C16 UNL     1       9.598   0.862   1.805  1.00  0.00     0.243 C 
HETATM    4  C17 UNL     1       9.380   1.536   3.132  1.00  0.00     0.068 C 
HETATM    5  C18 UNL     1      10.552   1.241   4.031  1.00  0.00    -0.009 C 
HETATM    6  C20 UNL     1      11.850   1.486   3.373  1.00  0.00     0.082 C 
HETATM    7  C21 UNL     1      11.976   0.867   1.945  1.00  0.00     0.268 C 
ENDROOT
BRANCH   7   8
HETATM    8  C22 UNL     1      12.226  -0.545   2.131  1.00  0.00     0.143 C 
HETATM    9  N6  UNL     1      11.755  -1.778   1.881  1.00  0.00    -0.372 N 
ATOM     10  H6  UNL     1      10.926  -1.824   1.288  1.00  0.00     0.161 HD
BRANCH   8  11
HETATM   11  O4  UNL     1      13.415  -0.693   2.909  1.00  0.00    -0.348 OA
ATOM     12  H4  UNL     1      13.244  -1.322   3.601  1.00  0.00     0.219 HD
ENDBRANCH   8  11
BRANCH   9  13
HETATM   13  C23 UNL     1      12.267  -3.048   2.338  1.00  0.00     0.131 C 
BRANCH  13  14
HETATM   14  C24 UNL     1      11.295  -4.186   2.212  1.00  0.00    -0.012 C 
HETATM   15  C25 UNL     1      11.220  -4.757   0.871  1.00  0.00     0.016 C 
HETATM   16  C26 UNL     1      10.086  -5.762   0.775  1.00  0.00    -0.013 C 
HETATM   17  C27 UNL     1       8.744  -5.136   1.102  1.00  0.00     0.009 C 
HETATM   18  C31 UNL     1      10.316  -6.826   1.815  1.00  0.00     0.010 C 
HETATM   19  C28 UNL     1       8.836  -4.590   2.514  1.00  0.00    -0.013 C 
HETATM   20  C29 UNL     1       9.093  -5.675   3.551  1.00  0.00     0.010 C 
HETATM   21  C39 UNL     1       9.893  -3.546   2.531  1.00  0.00     0.016 C 
HETATM   22  C30 UNL     1      10.441  -6.276   3.198  1.00  0.00    -0.001 C 
HETATM   23  C32 UNL     1      11.460  -5.163   3.361  1.00  0.00     0.083 C 
BRANCH  23  24
HETATM   24  C33 UNL     1      12.805  -5.655   3.587  1.00  0.00     0.207 C 
HETATM   25  O5  UNL     1      13.828  -5.135   3.012  1.00  0.00    -0.283 OA
BRANCH  24  26
HETATM   26  C34 UNL     1      13.139  -6.762   4.471  1.00  0.00    -0.028 C 
HETATM   27  C35 UNL     1      13.424  -7.709   5.171  1.00  0.00    -0.094 C 
BRANCH  27  28
HETATM   28  C36 UNL     1      13.796  -8.898   5.990  1.00  0.00     0.057 C 
HETATM   29  C37 UNL     1      12.722  -9.949   5.819  1.00  0.00     0.023 C 
HETATM   30  C38 UNL     1      13.986  -8.432   7.394  1.00  0.00     0.023 C 
ENDBRANCH  27  28
ENDBRANCH  24  26
ENDBRANCH  23  24
ENDBRANCH  13  14
ENDBRANCH   9  13
ENDBRANCH   7   8
BRANCH   1  31
HETATM   31  C14 UNL     1      10.817   2.761   1.188  1.00  0.00     0.297 C 
BRANCH  31  32
HETATM   32  C13 UNL     1      11.609   3.538   0.169  1.00  0.00     0.187 C 
BRANCH  32  33
HETATM   33  N3  UNL     1      12.374   4.413   0.842  1.00  0.00    -0.383 NA
HETATM   34  C12 UNL     1      13.213   5.300   1.546  1.00  0.00     0.333 C 
HETATM   35  O2  UNL     1      14.322   5.332   1.847  1.00  0.00    -0.253 OA
BRANCH  34  36
HETATM   36  C3  UNL     1      12.298   6.514   2.078  1.00  0.00     0.190 C 
HETATM   37  C4  UNL     1      11.457   5.954   3.141  1.00  0.00     0.067 C 
BRANCH  36  38
HETATM   38  N1  UNL     1      13.279   7.468   2.413  1.00  0.00    -0.393 NA
HETATM   39  C2  UNL     1      14.212   8.374   2.729  1.00  0.00     0.283 C 
HETATM   40  C1  UNL     1      14.045   9.096   4.084  1.00  0.00     0.134 C 
HETATM   41  O1  UNL     1      15.230   8.722   2.043  1.00  0.00    -0.258 OA
ENDBRANCH  36  38
BRANCH  36  42
HETATM   42  C5  UNL     1      11.513   7.039   0.917  1.00  0.00     0.083 C 
BRANCH  42  43
HETATM   43  C6  UNL     1      10.138   7.461   1.240  1.00  0.00    -0.025 C 
HETATM   44  C7  UNL     1       9.575   8.542   0.891  1.00  0.00    -0.003 C 
BRANCH  44  45
HETATM   45  C8  UNL     1       8.100   8.775   1.355  1.00  0.00     0.263 C 
BRANCH  45  46
HETATM   46  N2  UNL     1       7.491   9.714   0.464  1.00  0.00    -0.075 N 
HETATM   47  C9  UNL     1       8.474  10.606  -0.131  1.00  0.00     0.272 C 
HETATM   48  C10 UNL     1       6.538  10.510   1.199  1.00  0.00     0.272 C 
HETATM   49  C11 UNL     1       6.726   9.030  -0.577  1.00  0.00     0.272 C 
ENDBRANCH  45  46
ENDBRANCH  44  45
ENDBRANCH  42  43
ENDBRANCH  36  42
ENDBRANCH  34  36
ENDBRANCH  32  33
ENDBRANCH  31  32
ENDBRANCH   1  31
BRANCH   5  50
HETATM   50  C19 UNL     1      10.434   0.017   4.832  1.00  0.00     0.241 C 
HETATM   51  N5  UNL     1       9.271  -0.714   4.944  1.00  0.00    -0.366 N 
ATOM     52  H52 UNL     1       8.440  -0.394   4.447  1.00  0.00     0.159 HD
ATOM     53  H51 UNL     1       9.190  -1.564   5.501  1.00  0.00     0.159 HD
HETATM   54  O3  UNL     1      11.463  -0.378   5.447  1.00  0.00    -0.269 OA
ENDBRANCH   5  50
TORSDOF 17
ENDMDL
MODEL 5
REMARK VINA RESULT: -8.368759136      1.266      1.850
REMARK  17 active torsions:
REMARK  status: ('A' for Active; 'I' for Inactive)
REMARK       I    between atoms: C2_2  and  N1_4 
REMARK    1  A    between atoms: N1_4  and  C3_5 
REMARK    2  A    between atoms: C3_5  and  C5_7 
REMARK    3  A    between atoms: C3_5  and  C12_15 
REMARK    4  A    between atoms: C5_7  and  C6_8 
REMARK    5  A    between atoms: C7_9  and  C8_10 
REMARK    6  A    between atoms: C8_10  and  N2_11 
REMARK       I    between atoms: C12_15  and  N3_17 
REMARK    7  A    between atoms: N3_17  and  C13_18 
REMARK    8  A    between atoms: C13_18  and  C14_19 
REMARK    9  A    between atoms: C14_19  and  N4_20 
REMARK   10  A    between atoms: C18_24  and  C19_25 
REMARK       I    between atoms: C19_25  and  N5_26 
REMARK   11  A    between atoms: C21_31  and  C22_32 
REMARK   12  A    between atoms: C22_32  and  O4_33 
REMARK   13  A    between atoms: N6_35  and  C23_37 
REMARK   14  A    between atoms: C23_37  and  C24_38 
REMARK   15  A    between atoms: C32_46  and  C33_47 
REMARK   16  A    between atoms: C33_47  and  C34_49 
REMARK   17  A    between atoms: C35_50  and  C36_51 
ROOT
HETATM    1  N4  UNL     1      11.122   2.182   1.682  1.00  0.00    -0.053 N 
HETATM    2  C15 UNL     1      11.149   1.905   0.309  1.00  0.00     0.274 C 
HETATM    3  C16 UNL     1       9.829   1.719   2.227  1.00  0.00     0.243 C 
HETATM    4  C17 UNL     1       9.642   2.176   3.649  1.00  0.00     0.068 C 
HETATM    5  C18 UNL     1      10.772   1.642   4.488  1.00  0.00    -0.009 C 
HETATM    6  C20 UNL     1      12.096   1.890   3.885  1.00  0.00     0.082 C 
HETATM    7  C21 UNL     1      12.197   1.512   2.374  1.00  0.00     0.268 C 
ENDROOT
BRANCH   7   8
HETATM    8  C22 UNL     1      12.333   0.073   2.319  1.00  0.00     0.143 C 
HETATM    9  N6  UNL     1      11.765  -1.061   1.876  1.00  0.00    -0.372 N 
ATOM     10  H6  UNL     1      10.933  -0.942   1.298  1.00  0.00     0.161 HD
BRANCH   8  11
HETATM   11  O4  UNL     1      13.509  -0.295   3.043  1.00  0.00    -0.348 OA
ATOM     12  H4  UNL     1      14.055  -0.826   2.476  1.00  0.00     0.219 HD
ENDBRANCH   8  11
BRANCH   9  13
HETATM   13  C23 UNL     1      12.174  -2.425   2.108  1.00  0.00     0.131 C 
BRANCH  13  14
HETATM   14  C24 UNL     1      11.199  -3.455   1.615  1.00  0.00    -0.012 C 
HETATM   15  C25 UNL     1      11.825  -4.600   0.962  1.00  0.00     0.016 C 
HETATM   16  C26 UNL     1      10.778  -5.494   0.322  1.00  0.00    -0.013 C 
HETATM   17  C27 UNL     1       9.952  -4.752  -0.711  1.00  0.00     0.009 C 
HETATM   18  C31 UNL     1       9.816  -5.929   1.394  1.00  0.00     0.010 C 
HETATM   19  C28 UNL     1       9.281  -3.594   0.002  1.00  0.00    -0.013 C 
HETATM   20  C29 UNL     1       8.329  -4.049   1.100  1.00  0.00     0.010 C 
HETATM   21  C39 UNL     1      10.345  -2.701   0.527  1.00  0.00     0.016 C 
HETATM   22  C30 UNL     1       9.186  -4.783   2.115  1.00  0.00    -0.001 C 
HETATM   23  C32 UNL     1      10.156  -3.759   2.673  1.00  0.00     0.083 C 
BRANCH  23  24
HETATM   24  C33 UNL     1      10.666  -4.117   3.982  1.00  0.00     0.207 C 
HETATM   25  O5  UNL     1      10.471  -3.381   5.016  1.00  0.00    -0.283 OA
BRANCH  24  26
HETATM   26  C34 UNL     1      11.433  -5.321   4.266  1.00  0.00    -0.028 C 
HETATM   27  C35 UNL     1      12.066  -6.336   4.459  1.00  0.00    -0.094 C 
BRANCH  27  28
HETATM   28  C36 UNL     1      12.852  -7.589   4.645  1.00  0.00     0.057 C 
HETATM   29  C37 UNL     1      13.255  -7.688   6.099  1.00  0.00     0.023 C 
HETATM   30  C38 UNL     1      13.996  -7.544   3.689  1.00  0.00     0.023 C 
ENDBRANCH  27  28
ENDBRANCH  24  26
ENDBRANCH  23  24
ENDBRANCH  13  14
ENDBRANCH   9  13
ENDBRANCH   7   8
BRANCH   1  31
HETATM   31  C14 UNL     1      11.201   3.591   1.943  1.00  0.00     0.297 C 
BRANCH  31  32
HETATM   32  C13 UNL     1      10.451   4.556   1.063  1.00  0.00     0.187 C 
BRANCH  32  33
HETATM   33  N3  UNL     1      11.234   5.634   0.895  1.00  0.00    -0.383 NA
HETATM   34  C12 UNL     1      12.034   6.774   0.678  1.00  0.00     0.333 C 
HETATM   35  O2  UNL     1      12.074   7.626  -0.092  1.00  0.00    -0.253 OA
BRANCH  34  36
HETATM   36  C3  UNL     1      13.194   6.773   1.795  1.00  0.00     0.190 C 
HETATM   37  C4  UNL     1      12.511   6.768   3.092  1.00  0.00     0.067 C 
BRANCH  36  38
HETATM   38  N1  UNL     1      13.941   5.642   1.410  1.00  0.00    -0.393 NA
HETATM   39  C2  UNL     1      14.654   4.568   1.047  1.00  0.00     0.283 C 
HETATM   40  C1  UNL     1      14.292   3.926  -0.310  1.00  0.00     0.134 C 
HETATM   41  O1  UNL     1      15.599   4.001   1.689  1.00  0.00    -0.258 OA
ENDBRANCH  36  38
BRANCH  36  42
HETATM   42  C5  UNL     1      14.041   7.987   1.577  1.00  0.00     0.083 C 
BRANCH  42  43
HETATM   43  C6  UNL     1      15.192   7.788   0.677  1.00  0.00    -0.025 C 
HETATM   44  C7  UNL     1      16.266   8.462   0.658  1.00  0.00    -0.003 C 
BRANCH  44  45
HETATM   45  C8  UNL     1      17.353   8.064  -0.393  1.00  0.00     0.263 C 
BRANCH  45  46
HETATM   46  N2  UNL     1      18.424   9.010  -0.311  1.00  0.00    -0.075 N 
HETATM   47  C9  UNL     1      18.403   9.739   0.947  1.00  0.00     0.272 C 
HETATM   48  C10 UNL     1      18.298   9.958  -1.391  1.00  0.00     0.272 C 
HETATM   49  C11 UNL     1      19.717   8.355  -0.500  1.00  0.00     0.272 C 
ENDBRANCH  45  46
ENDBRANCH  44  45
ENDBRANCH  42  43
ENDBRANCH  36  42
ENDBRANCH  34  36
ENDBRANCH  32  33
ENDBRANCH  31  32
ENDBRANCH   1  31
BRANCH   5  50
HETATM   50  C19 UNL     1      10.547   0.314   5.071  1.00  0.00     0.241 C 
HETATM   51  N5  UNL     1       9.313  -0.297   5.125  1.00  0.00    -0.366 N 
ATOM     52  H52 UNL     1       8.504   0.193   4.743  1.00  0.00     0.159 HD
ATOM     53  H51 UNL     1       9.156  -1.220   5.531  1.00  0.00     0.159 HD
HETATM   54  O3  UNL     1      11.547  -0.293   5.544  1.00  0.00    -0.269 OA
ENDBRANCH   5  50
TORSDOF 17
ENDMDL
