MODEL 1
REMARK VINA RESULT: -7.695255435      0.000      0.000
REMARK  17 active torsions:
REMARK  status: ('A' for Active; 'I' for Inactive)
REMARK    1  A    between atoms: C2_2  and  C3_3 
REMARK    2  A    between atoms: C3_3  and  C4_4 
REMARK    3  A    between atoms: C4_4  and  C5_5 
REMARK    4  A    between atoms: C5_5  and  C6_6 
REMARK    5  A    between atoms: C6_6  and  C7_7 
REMARK    6  A    between atoms: C7_7  and  C8_8 
REMARK    7  A    between atoms: C8_8  and  O1_9 
REMARK    8  A    between atoms: C8_8  and  C9_11 
REMARK    9  A    between atoms: C10_12  and  C11_13 
REMARK   10  A    between atoms: C13_15  and  O2_16 
REMARK   11  A    between atoms: C14_18  and  O3_19 
REMARK   12  A    between atoms: C16_22  and  C17_23 
REMARK   13  A    between atoms: C17_23  and  C18_24 
REMARK   14  A    between atoms: C18_24  and  C19_25 
REMARK   15  A    between atoms: C20_27  and  C21_28 
REMARK   16  A    between atoms: C21_28  and  O5_29 
REMARK   17  A    between atoms: C22_31  and  O6_32 
ROOT
HETATM    1  C11 UNL     1      12.187  39.768  -7.710  1.00  0.00     0.014 C 
HETATM    2  C12 UNL     1      12.535  41.012  -6.933  1.00  0.00     0.043 C 
HETATM    3  C13 UNL     1      12.278  42.241  -7.729  1.00  0.00     0.147 C 
HETATM    4  C14 UNL     1      13.062  42.126  -9.015  1.00  0.00     0.147 C 
HETATM    5  C15 UNL     1      13.870  40.834  -9.043  1.00  0.00     0.039 C 
HETATM    6  C16 UNL     1      12.846  39.718  -9.104  1.00  0.00    -0.004 C 
ENDROOT
BRANCH   6   7
HETATM    7  C17 UNL     1      13.374  38.393  -9.396  1.00  0.00     0.008 C 
BRANCH   7   8
HETATM    8  C18 UNL     1      13.063  37.571 -10.558  1.00  0.00     0.033 C 
BRANCH   8   9
HETATM    9  C19 UNL     1      13.850  37.696 -11.803  1.00  0.00     0.128 C 
HETATM   10  O4  UNL     1      13.202  36.987 -12.878  1.00  0.00    -0.375 OA
HETATM   11  C20 UNL     1      14.046  37.273 -13.954  1.00  0.00     0.174 C 
HETATM   12  C22 UNL     1      15.447  37.265 -13.442  1.00  0.00     0.155 C 
HETATM   13  C23 UNL     1      15.188  37.056 -11.926  1.00  0.00     0.042 C 
HETATM   14  C24 UNL     1      15.237  35.600 -11.607  1.00  0.00     0.015 C 
BRANCH  11  15
HETATM   15  C21 UNL     1      13.915  36.329 -15.108  1.00  0.00     0.198 C 
BRANCH  15  16
HETATM   16  O5  UNL     1      13.335  35.157 -14.700  1.00  0.00    -0.398 OA
ATOM     17  H5  UNL     1      12.467  35.070 -15.075  1.00  0.00     0.209 HD
ENDBRANCH  15  16
ENDBRANCH  11  15
BRANCH  12  18
HETATM   18  O6  UNL     1      16.236  36.236 -13.905  1.00  0.00    -0.392 OA
ATOM     19  H6  UNL     1      17.133  36.474 -14.111  1.00  0.00     0.210 HD
ENDBRANCH  12  18
ENDBRANCH   8   9
ENDBRANCH   7   8
ENDBRANCH   6   7
BRANCH   1  20
HETATM   20  C10 UNL     1      12.596  38.642  -6.852  1.00  0.00    -0.023 C 
HETATM   21  C9  UNL     1      11.845  38.274  -5.844  1.00  0.00     0.001 C 
BRANCH  21  22
HETATM   22  C8  UNL     1      10.560  38.896  -5.443  1.00  0.00     0.140 C 
BRANCH  22  23
HETATM   23  C7  UNL     1      10.601  39.190  -3.966  1.00  0.00     0.036 C 
BRANCH  23  24
HETATM   24  C6  UNL     1       9.150  39.553  -3.555  1.00  0.00     0.003 C 
BRANCH  24  25
HETATM   25  C5  UNL     1       9.259  40.050  -2.150  1.00  0.00     0.000 C 
BRANCH  25  26
HETATM   26  C4  UNL     1      10.372  39.548  -1.345  1.00  0.00     0.000 C 
BRANCH  26  27
HETATM   27  C3  UNL     1      10.243  38.488  -0.351  1.00  0.00    -0.000 C 
BRANCH  27  28
HETATM   28  C2  UNL     1       9.170  37.478  -0.424  1.00  0.00    -0.005 C 
HETATM   29  C1  UNL     1       9.765  36.318  -1.291  1.00  0.00     0.005 C 
ENDBRANCH  27  28
ENDBRANCH  26  27
ENDBRANCH  25  26
ENDBRANCH  24  25
ENDBRANCH  23  24
ENDBRANCH  22  23
BRANCH  22  30
HETATM   30  O1  UNL     1       9.477  38.068  -5.759  1.00  0.00    -0.392 OA
ATOM     31  H1  UNL     1       9.666  37.538  -6.525  1.00  0.00     0.210 HD
ENDBRANCH  22  30
ENDBRANCH  21  22
ENDBRANCH   1  20
BRANCH   4  32
HETATM   32  O3  UNL     1      12.142  42.055 -10.081  1.00  0.00    -0.393 OA
ATOM     33  H3  UNL     1      11.780  41.177 -10.098  1.00  0.00     0.210 HD
ENDBRANCH   4  32
BRANCH   3  34
HETATM   34  O2  UNL     1      12.726  43.372  -7.049  1.00  0.00    -0.393 OA
ATOM     35  H2  UNL     1      12.024  44.003  -6.946  1.00  0.00     0.210 HD
ENDBRANCH   3  34
TORSDOF 17
ENDMDL
MODEL 2
REMARK VINA RESULT: -7.405479852      1.328      1.838
REMARK  17 active torsions:
REMARK  status: ('A' for Active; 'I' for Inactive)
REMARK    1  A    between atoms: C2_2  and  C3_3 
REMARK    2  A    between atoms: C3_3  and  C4_4 
REMARK    3  A    between atoms: C4_4  and  C5_5 
REMARK    4  A    between atoms: C5_5  and  C6_6 
REMARK    5  A    between atoms: C6_6  and  C7_7 
REMARK    6  A    between atoms: C7_7  and  C8_8 
REMARK    7  A    between atoms: C8_8  and  O1_9 
REMARK    8  A    between atoms: C8_8  and  C9_11 
REMARK    9  A    between atoms: C10_12  and  C11_13 
REMARK   10  A    between atoms: C13_15  and  O2_16 
REMARK   11  A    between atoms: C14_18  and  O3_19 
REMARK   12  A    between atoms: C16_22  and  C17_23 
REMARK   13  A    between atoms: C17_23  and  C18_24 
REMARK   14  A    between atoms: C18_24  and  C19_25 
REMARK   15  A    between atoms: C20_27  and  C21_28 
REMARK   16  A    between atoms: C21_28  and  O5_29 
REMARK   17  A    between atoms: C22_31  and  O6_32 
ROOT
HETATM    1  C11 UNL     1      12.558  40.846  -8.359  1.00  0.00     0.014 C 
HETATM    2  C12 UNL     1      12.790  42.019  -7.442  1.00  0.00     0.043 C 
HETATM    3  C13 UNL     1      12.229  43.274  -8.009  1.00  0.00     0.147 C 
HETATM    4  C14 UNL     1      12.848  43.476  -9.372  1.00  0.00     0.147 C 
HETATM    5  C15 UNL     1      13.852  42.371  -9.681  1.00  0.00     0.039 C 
HETATM    6  C16 UNL     1      13.031  41.102  -9.805  1.00  0.00    -0.004 C 
ENDROOT
BRANCH   6   7
HETATM    7  C17 UNL     1      13.732  39.948 -10.349  1.00  0.00     0.008 C 
BRANCH   7   8
HETATM    8  C18 UNL     1      14.158  39.763 -11.730  1.00  0.00     0.033 C 
BRANCH   8   9
HETATM    9  C19 UNL     1      13.780  38.545 -12.478  1.00  0.00     0.128 C 
HETATM   10  O4  UNL     1      13.953  37.376 -11.652  1.00  0.00    -0.375 OA
HETATM   11  C20 UNL     1      13.495  36.362 -12.496  1.00  0.00     0.174 C 
HETATM   12  C22 UNL     1      13.941  36.693 -13.881  1.00  0.00     0.155 C 
HETATM   13  C23 UNL     1      14.587  38.084 -13.640  1.00  0.00     0.042 C 
HETATM   14  C24 UNL     1      16.047  37.918 -13.386  1.00  0.00     0.015 C 
BRANCH  11  15
HETATM   15  C21 UNL     1      13.959  34.990 -12.121  1.00  0.00     0.198 C 
BRANCH  15  16
HETATM   16  O5  UNL     1      13.058  34.050 -12.547  1.00  0.00    -0.398 OA
ATOM     17  H5  UNL     1      12.905  33.407 -11.865  1.00  0.00     0.209 HD
ENDBRANCH  15  16
ENDBRANCH  11  15
BRANCH  12  18
HETATM   18  O6  UNL     1      14.889  35.846 -14.411  1.00  0.00    -0.392 OA
ATOM     19  H6  UNL     1      15.551  36.265 -14.948  1.00  0.00     0.210 HD
ENDBRANCH  12  18
ENDBRANCH   8   9
ENDBRANCH   7   8
ENDBRANCH   6   7
BRANCH   1  20
HETATM   20  C10 UNL     1      13.258  39.712  -7.730  1.00  0.00    -0.023 C 
HETATM   21  C9  UNL     1      12.636  38.950  -6.865  1.00  0.00     0.001 C 
BRANCH  21  22
HETATM   22  C8  UNL     1      11.231  39.107  -6.420  1.00  0.00     0.140 C 
BRANCH  22  23
HETATM   23  C7  UNL     1      11.122  38.657  -4.986  1.00  0.00     0.036 C 
BRANCH  23  24
HETATM   24  C6  UNL     1       9.909  39.416  -4.384  1.00  0.00     0.003 C 
BRANCH  24  25
HETATM   25  C5  UNL     1       9.159  38.387  -3.603  1.00  0.00     0.000 C 
BRANCH  25  26
HETATM   26  C4  UNL     1       9.913  37.608  -2.622  1.00  0.00     0.000 C 
BRANCH  26  27
HETATM   27  C3  UNL     1       9.296  36.712  -1.649  1.00  0.00    -0.000 C 
BRANCH  27  28
HETATM   28  C2  UNL     1       8.803  37.196  -0.346  1.00  0.00    -0.005 C 
HETATM   29  C1  UNL     1       9.759  38.374   0.036  1.00  0.00     0.005 C 
ENDBRANCH  27  28
ENDBRANCH  26  27
ENDBRANCH  25  26
ENDBRANCH  24  25
ENDBRANCH  23  24
ENDBRANCH  22  23
BRANCH  22  30
HETATM   30  O1  UNL     1      10.357  38.383  -7.239  1.00  0.00    -0.392 OA
ATOM     31  H1  UNL     1      10.435  38.658  -8.146  1.00  0.00     0.210 HD
ENDBRANCH  22  30
ENDBRANCH  21  22
ENDBRANCH   1  20
BRANCH   4  32
HETATM   32  O3  UNL     1      11.823  43.377 -10.335  1.00  0.00    -0.393 OA
ATOM     33  H3  UNL     1      11.878  44.138 -10.901  1.00  0.00     0.210 HD
ENDBRANCH   4  32
BRANCH   3  34
HETATM   34  O2  UNL     1      12.565  44.368  -7.215  1.00  0.00    -0.393 OA
ATOM     35  H2  UNL     1      12.044  44.379  -6.420  1.00  0.00     0.210 HD
ENDBRANCH   3  34
TORSDOF 17
ENDMDL
MODEL 3
REMARK VINA RESULT: -7.314282448      3.080      6.739
REMARK  17 active torsions:
REMARK  status: ('A' for Active; 'I' for Inactive)
REMARK    1  A    between atoms: C2_2  and  C3_3 
REMARK    2  A    between atoms: C3_3  and  C4_4 
REMARK    3  A    between atoms: C4_4  and  C5_5 
REMARK    4  A    between atoms: C5_5  and  C6_6 
REMARK    5  A    between atoms: C6_6  and  C7_7 
REMARK    6  A    between atoms: C7_7  and  C8_8 
REMARK    7  A    between atoms: C8_8  and  O1_9 
REMARK    8  A    between atoms: C8_8  and  C9_11 
REMARK    9  A    between atoms: C10_12  and  C11_13 
REMARK   10  A    between atoms: C13_15  and  O2_16 
REMARK   11  A    between atoms: C14_18  and  O3_19 
REMARK   12  A    between atoms: C16_22  and  C17_23 
REMARK   13  A    between atoms: C17_23  and  C18_24 
REMARK   14  A    between atoms: C18_24  and  C19_25 
REMARK   15  A    between atoms: C20_27  and  C21_28 
REMARK   16  A    between atoms: C21_28  and  O5_29 
REMARK   17  A    between atoms: C22_31  and  O6_32 
ROOT
HETATM    1  C11 UNL     1      13.055  40.325  -8.440  1.00  0.00     0.014 C 
HETATM    2  C12 UNL     1      11.919  41.081  -7.800  1.00  0.00     0.043 C 
HETATM    3  C13 UNL     1      11.693  40.642  -6.398  1.00  0.00     0.147 C 
HETATM    4  C14 UNL     1      11.454  39.151  -6.419  1.00  0.00     0.147 C 
HETATM    5  C15 UNL     1      11.482  38.616  -7.846  1.00  0.00     0.039 C 
HETATM    6  C16 UNL     1      12.912  38.794  -8.316  1.00  0.00    -0.004 C 
ENDROOT
BRANCH   6   7
HETATM    7  C17 UNL     1      13.253  38.124  -9.563  1.00  0.00     0.008 C 
BRANCH   7   8
HETATM    8  C18 UNL     1      14.220  37.048  -9.734  1.00  0.00     0.033 C 
BRANCH   8   9
HETATM    9  C19 UNL     1      15.013  36.936 -10.977  1.00  0.00     0.128 C 
HETATM   10  O4  UNL     1      14.794  38.089 -11.815  1.00  0.00    -0.375 OA
HETATM   11  C20 UNL     1      15.658  37.832 -12.882  1.00  0.00     0.174 C 
HETATM   12  C22 UNL     1      15.613  36.365 -13.153  1.00  0.00     0.155 C 
HETATM   13  C23 UNL     1      14.697  35.895 -11.991  1.00  0.00     0.042 C 
HETATM   14  C24 UNL     1      13.280  35.857 -12.457  1.00  0.00     0.015 C 
BRANCH  11  15
HETATM   15  C21 UNL     1      15.341  38.595 -14.130  1.00  0.00     0.198 C 
BRANCH  15  16
HETATM   16  O5  UNL     1      14.003  38.881 -14.185  1.00  0.00    -0.398 OA
ATOM     17  H5  UNL     1      13.687  38.809 -15.078  1.00  0.00     0.209 HD
ENDBRANCH  15  16
ENDBRANCH  11  15
BRANCH  12  18
HETATM   18  O6  UNL     1      15.035  36.006 -14.350  1.00  0.00    -0.392 OA
ATOM     19  H6  UNL     1      14.106  36.192 -14.424  1.00  0.00     0.210 HD
ENDBRANCH  12  18
ENDBRANCH   8   9
ENDBRANCH   7   8
ENDBRANCH   6   7
BRANCH   1  20
HETATM   20  C10 UNL     1      13.088  40.777  -9.842  1.00  0.00    -0.023 C 
HETATM   21  C9  UNL     1      14.220  41.136 -10.393  1.00  0.00     0.001 C 
BRANCH  21  22
HETATM   22  C8  UNL     1      15.547  41.143  -9.731  1.00  0.00     0.140 C 
BRANCH  22  23
HETATM   23  C7  UNL     1      16.066  42.558  -9.697  1.00  0.00     0.036 C 
BRANCH  23  24
HETATM   24  C6  UNL     1      15.439  43.220  -8.442  1.00  0.00     0.003 C 
BRANCH  24  25
HETATM   25  C5  UNL     1      16.412  44.280  -8.038  1.00  0.00     0.000 C 
BRANCH  25  26
HETATM   26  C4  UNL     1      17.587  44.470  -8.887  1.00  0.00     0.000 C 
BRANCH  26  27
HETATM   27  C3  UNL     1      18.737  45.286  -8.511  1.00  0.00    -0.000 C 
BRANCH  27  28
HETATM   28  C2  UNL     1      20.043  45.151  -9.184  1.00  0.00    -0.005 C 
HETATM   29  C1  UNL     1      19.897  43.891 -10.101  1.00  0.00     0.005 C 
ENDBRANCH  27  28
ENDBRANCH  26  27
ENDBRANCH  25  26
ENDBRANCH  24  25
ENDBRANCH  23  24
ENDBRANCH  22  23
BRANCH  22  30
HETATM   30  O1  UNL     1      16.445  40.296 -10.389  1.00  0.00    -0.392 OA
ATOM     31  H1  UNL     1      15.987  39.708 -10.979  1.00  0.00     0.210 HD
ENDBRANCH  22  30
ENDBRANCH  21  22
ENDBRANCH   1  20
BRANCH   4  32
HETATM   32  O3  UNL     1      12.517  38.530  -5.730  1.00  0.00    -0.393 OA
ATOM     33  H3  UNL     1      13.196  38.325  -6.362  1.00  0.00     0.210 HD
ENDBRANCH   4  32
BRANCH   3  34
HETATM   34  O2  UNL     1      10.560  41.254  -5.866  1.00  0.00    -0.393 OA
ATOM     35  H2  UNL     1      10.297  40.830  -5.057  1.00  0.00     0.210 HD
ENDBRANCH   3  34
TORSDOF 17
ENDMDL
MODEL 4
REMARK VINA RESULT: -7.266424823      3.008      5.876
REMARK  17 active torsions:
REMARK  status: ('A' for Active; 'I' for Inactive)
REMARK    1  A    between atoms: C2_2  and  C3_3 
REMARK    2  A    between atoms: C3_3  and  C4_4 
REMARK    3  A    between atoms: C4_4  and  C5_5 
REMARK    4  A    between atoms: C5_5  and  C6_6 
REMARK    5  A    between atoms: C6_6  and  C7_7 
REMARK    6  A    between atoms: C7_7  and  C8_8 
REMARK    7  A    between atoms: C8_8  and  O1_9 
REMARK    8  A    between atoms: C8_8  and  C9_11 
REMARK    9  A    between atoms: C10_12  and  C11_13 
REMARK   10  A    between atoms: C13_15  and  O2_16 
REMARK   11  A    between atoms: C14_18  and  O3_19 
REMARK   12  A    between atoms: C16_22  and  C17_23 
REMARK   13  A    between atoms: C17_23  and  C18_24 
REMARK   14  A    between atoms: C18_24  and  C19_25 
REMARK   15  A    between atoms: C20_27  and  C21_28 
REMARK   16  A    between atoms: C21_28  and  O5_29 
REMARK   17  A    between atoms: C22_31  and  O6_32 
ROOT
HETATM    1  C11 UNL     1      13.002  40.358  -8.451  1.00  0.00     0.014 C 
HETATM    2  C12 UNL     1      11.865  41.108  -7.805  1.00  0.00     0.043 C 
HETATM    3  C13 UNL     1      11.672  40.694  -6.390  1.00  0.00     0.147 C 
HETATM    4  C14 UNL     1      11.456  39.199  -6.378  1.00  0.00     0.147 C 
HETATM    5  C15 UNL     1      11.466  38.637  -7.795  1.00  0.00     0.039 C 
HETATM    6  C16 UNL     1      12.885  38.827  -8.295  1.00  0.00    -0.004 C 
ENDROOT
BRANCH   6   7
HETATM    7  C17 UNL     1      13.213  38.139  -9.535  1.00  0.00     0.008 C 
BRANCH   7   8
HETATM    8  C18 UNL     1      14.224  37.105  -9.713  1.00  0.00     0.033 C 
BRANCH   8   9
HETATM    9  C19 UNL     1      15.046  37.058 -10.940  1.00  0.00     0.128 C 
HETATM   10  O4  UNL     1      14.790  38.216 -11.760  1.00  0.00    -0.375 OA
HETATM   11  C20 UNL     1      15.687  38.022 -12.813  1.00  0.00     0.174 C 
HETATM   12  C22 UNL     1      15.717  36.561 -13.115  1.00  0.00     0.155 C 
HETATM   13  C23 UNL     1      14.801  36.024 -11.982  1.00  0.00     0.042 C 
HETATM   14  C24 UNL     1      13.397  35.930 -12.479  1.00  0.00     0.015 C 
BRANCH  11  15
HETATM   15  C21 UNL     1      15.360  38.796 -14.052  1.00  0.00     0.198 C 
BRANCH  15  16
HETATM   16  O5  UNL     1      14.006  38.977 -14.155  1.00  0.00    -0.398 OA
ATOM     17  H5  UNL     1      13.591  38.186 -14.477  1.00  0.00     0.209 HD
ENDBRANCH  15  16
ENDBRANCH  11  15
BRANCH  12  18
HETATM   18  O6  UNL     1      15.181  36.201 -14.331  1.00  0.00    -0.392 OA
ATOM     19  H6  UNL     1      14.251  36.006 -14.322  1.00  0.00     0.210 HD
ENDBRANCH  12  18
ENDBRANCH   8   9
ENDBRANCH   7   8
ENDBRANCH   6   7
BRANCH   1  20
HETATM   20  C10 UNL     1      13.001  40.783  -9.861  1.00  0.00    -0.023 C 
HETATM   21  C9  UNL     1      14.087  41.274 -10.403  1.00  0.00     0.001 C 
BRANCH  21  22
HETATM   22  C8  UNL     1      15.390  41.464  -9.722  1.00  0.00     0.140 C 
BRANCH  22  23
HETATM   23  C7  UNL     1      15.978  42.783 -10.154  1.00  0.00     0.036 C 
BRANCH  23  24
HETATM   24  C6  UNL     1      16.342  43.543  -8.851  1.00  0.00     0.003 C 
BRANCH  24  25
HETATM   25  C5  UNL     1      15.169  43.343  -7.947  1.00  0.00     0.000 C 
BRANCH  25  26
HETATM   26  C4  UNL     1      14.270  44.480  -7.752  1.00  0.00     0.000 C 
BRANCH  26  27
HETATM   27  C3  UNL     1      12.959  44.596  -8.382  1.00  0.00    -0.000 C 
BRANCH  27  28
HETATM   28  C2  UNL     1      12.806  44.745  -9.841  1.00  0.00    -0.005 C 
HETATM   29  C1  UNL     1      11.416  44.103 -10.169  1.00  0.00     0.005 C 
ENDBRANCH  27  28
ENDBRANCH  26  27
ENDBRANCH  25  26
ENDBRANCH  24  25
ENDBRANCH  23  24
ENDBRANCH  22  23
BRANCH  22  30
HETATM   30  O1  UNL     1      16.267  40.410 -10.003  1.00  0.00    -0.392 OA
ATOM     31  H1  UNL     1      16.183  40.130 -10.907  1.00  0.00     0.210 HD
ENDBRANCH  22  30
ENDBRANCH  21  22
ENDBRANCH   1  20
BRANCH   4  32
HETATM   32  O3  UNL     1      12.541  38.608  -5.697  1.00  0.00    -0.393 OA
ATOM     33  H3  UNL     1      13.323  39.109  -5.901  1.00  0.00     0.210 HD
ENDBRANCH   4  32
BRANCH   3  34
HETATM   34  O2  UNL     1      10.540  41.298  -5.849  1.00  0.00    -0.393 OA
ATOM     35  H2  UNL     1       9.997  40.658  -5.403  1.00  0.00     0.210 HD
ENDBRANCH   3  34
TORSDOF 17
ENDMDL
MODEL 5
REMARK VINA RESULT: -7.256608019      1.286      1.791
REMARK  17 active torsions:
REMARK  status: ('A' for Active; 'I' for Inactive)
REMARK    1  A    between atoms: C2_2  and  C3_3 
REMARK    2  A    between atoms: C3_3  and  C4_4 
REMARK    3  A    between atoms: C4_4  and  C5_5 
REMARK    4  A    between atoms: C5_5  and  C6_6 
REMARK    5  A    between atoms: C6_6  and  C7_7 
REMARK    6  A    between atoms: C7_7  and  C8_8 
REMARK    7  A    between atoms: C8_8  and  O1_9 
REMARK    8  A    between atoms: C8_8  and  C9_11 
REMARK    9  A    between atoms: C10_12  and  C11_13 
REMARK   10  A    between atoms: C13_15  and  O2_16 
REMARK   11  A    between atoms: C14_18  and  O3_19 
REMARK   12  A    between atoms: C16_22  and  C17_23 
REMARK   13  A    between atoms: C17_23  and  C18_24 
REMARK   14  A    between atoms: C18_24  and  C19_25 
REMARK   15  A    between atoms: C20_27  and  C21_28 
REMARK   16  A    between atoms: C21_28  and  O5_29 
REMARK   17  A    between atoms: C22_31  and  O6_32 
ROOT
HETATM    1  C11 UNL     1      12.491  40.888  -8.714  1.00  0.00     0.014 C 
HETATM    2  C12 UNL     1      12.488  41.987  -7.683  1.00  0.00     0.043 C 
HETATM    3  C13 UNL     1      11.791  43.202  -8.183  1.00  0.00     0.147 C 
HETATM    4  C14 UNL     1      12.467  43.619  -9.468  1.00  0.00     0.147 C 
HETATM    5  C15 UNL     1      13.638  42.698  -9.790  1.00  0.00     0.039 C 
HETATM    6  C16 UNL     1      13.019  41.347 -10.089  1.00  0.00    -0.004 C 
ENDROOT
BRANCH   6   7
HETATM    7  C17 UNL     1      13.915  40.358 -10.672  1.00  0.00     0.008 C 
BRANCH   7   8
HETATM    8  C18 UNL     1      13.953  39.937 -12.066  1.00  0.00     0.033 C 
BRANCH   8   9
HETATM    9  C19 UNL     1      14.641  38.689 -12.458  1.00  0.00     0.128 C 
HETATM   10  O4  UNL     1      13.996  38.100 -13.606  1.00  0.00    -0.375 OA
HETATM   11  C20 UNL     1      14.812  36.994 -13.853  1.00  0.00     0.174 C 
HETATM   12  C22 UNL     1      15.226  36.436 -12.533  1.00  0.00     0.155 C 
HETATM   13  C23 UNL     1      14.605  37.490 -11.578  1.00  0.00     0.042 C 
HETATM   14  C24 UNL     1      13.246  37.041 -11.156  1.00  0.00     0.015 C 
BRANCH  11  15
HETATM   15  C21 UNL     1      14.170  35.928 -14.684  1.00  0.00     0.198 C 
BRANCH  15  16
HETATM   16  O5  UNL     1      12.844  35.809 -14.363  1.00  0.00    -0.398 OA
ATOM     17  H5  UNL     1      12.671  34.955 -13.985  1.00  0.00     0.209 HD
ENDBRANCH  15  16
ENDBRANCH  11  15
BRANCH  12  18
HETATM   18  O6  UNL     1      14.706  35.197 -12.230  1.00  0.00    -0.392 OA
ATOM     19  H6  UNL     1      14.289  35.130 -11.379  1.00  0.00     0.210 HD
ENDBRANCH  12  18
ENDBRANCH   8   9
ENDBRANCH   7   8
ENDBRANCH   6   7
BRANCH   1  20
HETATM   20  C10 UNL     1      13.303  39.806  -8.131  1.00  0.00    -0.023 C 
HETATM   21  C9  UNL     1      12.797  39.023  -7.211  1.00  0.00     0.001 C 
BRANCH  21  22
HETATM   22  C8  UNL     1      11.424  39.106  -6.657  1.00  0.00     0.140 C 
BRANCH  22  23
HETATM   23  C7  UNL     1      11.420  38.507  -5.274  1.00  0.00     0.036 C 
BRANCH  23  24
HETATM   24  C6  UNL     1      10.063  38.901  -4.634  1.00  0.00     0.003 C 
BRANCH  24  25
HETATM   25  C5  UNL     1      10.249  38.681  -3.168  1.00  0.00     0.000 C 
BRANCH  25  26
HETATM   26  C4  UNL     1       9.637  37.489  -2.585  1.00  0.00     0.000 C 
BRANCH  26  27
HETATM   27  C3  UNL     1       9.856  37.053  -1.210  1.00  0.00    -0.000 C 
BRANCH  27  28
HETATM   28  C2  UNL     1       9.001  37.514  -0.101  1.00  0.00    -0.005 C 
HETATM   29  C1  UNL     1       9.759  38.738   0.513  1.00  0.00     0.005 C 
ENDBRANCH  27  28
ENDBRANCH  26  27
ENDBRANCH  25  26
ENDBRANCH  24  25
ENDBRANCH  23  24
ENDBRANCH  22  23
BRANCH  22  30
HETATM   30  O1  UNL     1      10.503  38.456  -7.486  1.00  0.00    -0.392 OA
ATOM     31  H1  UNL     1      10.920  38.153  -8.285  1.00  0.00     0.210 HD
ENDBRANCH  22  30
ENDBRANCH  21  22
ENDBRANCH   1  20
BRANCH   4  32
HETATM   32  O3  UNL     1      11.534  43.474 -10.516  1.00  0.00    -0.393 OA
ATOM     33  H3  UNL     1      11.959  43.004 -11.224  1.00  0.00     0.210 HD
ENDBRANCH   4  32
BRANCH   3  34
HETATM   34  O2  UNL     1      11.911  44.250  -7.272  1.00  0.00    -0.393 OA
ATOM     35  H2  UNL     1      11.082  44.702  -7.169  1.00  0.00     0.210 HD
ENDBRANCH   3  34
TORSDOF 17
ENDMDL
