MODEL 1
REMARK VINA RESULT: -6.954525719      0.000      0.000
REMARK  8 active torsions:
REMARK  status: ('A' for Active; 'I' for Inactive)
REMARK    1  A    between atoms: C1_2  and  C2_4 
REMARK    2  A    between atoms: C2_4  and  C3_5 
REMARK    3  A    between atoms: C2_4  and  N2_17 
REMARK    4  A    between atoms: C3_5  and  C4_6 
REMARK    5  A    between atoms: C4_6  and  C5_7 
REMARK    6  A    between atoms: C9_11  and  C10_12 
REMARK       I    between atoms: N2_17  and  C11_19 
REMARK    7  A    between atoms: C11_19  and  C12_21 
REMARK    8  A    between atoms: C12_21  and  O6_22 
ROOT
HETATM    1  C2  UNL     1     107.016  20.431  13.727  1.00  0.00     0.185 C 
ENDROOT
BRANCH   1   2
HETATM    2  C1  UNL     1     106.214  21.562  13.224  1.00  0.00     0.196 C 
HETATM    3  O1  UNL     1     106.334  22.716  13.769  1.00  0.00    -0.646 OA
HETATM    4  O2  UNL     1     105.306  21.510  12.185  1.00  0.00    -0.646 OA
ENDBRANCH   1   2
BRANCH   1   5
HETATM    5  C3  UNL     1     106.230  19.414  14.515  1.00  0.00     0.038 C 
BRANCH   5   6
HETATM    6  C4  UNL     1     105.666  18.295  13.737  1.00  0.00     0.027 C 
BRANCH   6   7
HETATM    7  C5  UNL     1     104.181  18.106  13.867  1.00  0.00     0.077 C 
HETATM    8  C6  UNL     1     103.526  19.374  14.299  1.00  0.00     0.025 C 
HETATM    9  C7  UNL     1     102.070  19.225  14.593  1.00  0.00     0.004 C 
HETATM   10  C8  UNL     1     101.669  17.819  14.945  1.00  0.00     0.036 C 
HETATM   11  C9  UNL     1     102.806  17.023  15.534  1.00  0.00     0.179 C 
HETATM   12  N1  UNL     1     103.972  16.991  14.741  1.00  0.00    -0.404 N 
ATOM     13  H1  UNL     1     104.633  16.215  14.788  1.00  0.00     0.154 HD
BRANCH  11  14
HETATM   14  C10 UNL     1     103.110  17.437  16.927  1.00  0.00     0.196 C 
HETATM   15  O3  UNL     1     102.210  17.325  17.797  1.00  0.00    -0.646 OA
HETATM   16  O4  UNL     1     104.328  17.943  17.347  1.00  0.00    -0.646 OA
ENDBRANCH  11  14
ENDBRANCH   6   7
ENDBRANCH   5   6
ENDBRANCH   1   5
BRANCH   1  17
HETATM   17  N2  UNL     1     107.782  19.802  12.670  1.00  0.00    -0.344 N 
HETATM   18  C11 UNL     1     109.079  20.235  12.290  1.00  0.00     0.253 C 
HETATM   19  O5  UNL     1     109.556  21.215  12.922  1.00  0.00    -0.270 OA
ATOM     20  H2  UNL     1     107.369  19.010  12.175  1.00  0.00     0.163 HD
BRANCH  18  21
HETATM   21  C12 UNL     1     109.851  19.577  11.201  1.00  0.00     0.138 C 
HETATM   22  C13 UNL     1     110.909  20.495  10.706  1.00  0.00     0.048 C 
HETATM   23  C14 UNL     1     112.034  19.924   9.975  1.00  0.00     0.004 C 
HETATM   24  C15 UNL     1     111.946  18.516   9.522  1.00  0.00     0.000 C 
HETATM   25  C16 UNL     1     110.647  18.115   8.913  1.00  0.00     0.000 C 
HETATM   26  C17 UNL     1     109.642  19.211   8.794  1.00  0.00     0.004 C 
HETATM   27  C18 UNL     1     108.881  19.306  10.081  1.00  0.00     0.048 C 
BRANCH  21  28
HETATM   28  O6  UNL     1     110.392  18.413  11.729  1.00  0.00    -0.380 OA
ATOM     29  H6  UNL     1     110.812  18.646  12.548  1.00  0.00     0.211 HD
ENDBRANCH  21  28
ENDBRANCH  18  21
ENDBRANCH   1  17
TORSDOF 8
ENDMDL
MODEL 2
REMARK VINA RESULT: -6.948044371      2.855      8.700
REMARK  8 active torsions:
REMARK  status: ('A' for Active; 'I' for Inactive)
REMARK    1  A    between atoms: C1_2  and  C2_4 
REMARK    2  A    between atoms: C2_4  and  C3_5 
REMARK    3  A    between atoms: C2_4  and  N2_17 
REMARK    4  A    between atoms: C3_5  and  C4_6 
REMARK    5  A    between atoms: C4_6  and  C5_7 
REMARK    6  A    between atoms: C9_11  and  C10_12 
REMARK       I    between atoms: N2_17  and  C11_19 
REMARK    7  A    between atoms: C11_19  and  C12_21 
REMARK    8  A    between atoms: C12_21  and  O6_22 
ROOT
HETATM    1  C2  UNL     1     109.905  20.163  11.623  1.00  0.00     0.185 C 
ENDROOT
BRANCH   1   2
HETATM    2  C1  UNL     1     109.996  21.588  11.250  1.00  0.00     0.196 C 
HETATM    3  O1  UNL     1     110.664  21.930  10.212  1.00  0.00    -0.646 OA
HETATM    4  O2  UNL     1     109.412  22.640  11.930  1.00  0.00    -0.646 OA
ENDBRANCH   1   2
BRANCH   1   5
HETATM    5  C3  UNL     1     111.215  19.549  12.049  1.00  0.00     0.038 C 
BRANCH   5   6
HETATM    6  C4  UNL     1     111.995  18.897  10.979  1.00  0.00     0.027 C 
BRANCH   6   7
HETATM    7  C5  UNL     1     113.439  19.304  10.900  1.00  0.00     0.077 C 
HETATM    8  C6  UNL     1     114.186  18.828  12.100  1.00  0.00     0.025 C 
HETATM    9  C7  UNL     1     115.594  19.322  12.164  1.00  0.00     0.004 C 
HETATM   10  C8  UNL     1     115.822  20.587  11.382  1.00  0.00     0.036 C 
HETATM   11  C9  UNL     1     114.569  21.414  11.239  1.00  0.00     0.179 C 
HETATM   12  N1  UNL     1     113.468  20.721  10.694  1.00  0.00    -0.404 N 
ATOM     13  H1  UNL     1     112.731  21.203  10.181  1.00  0.00     0.154 HD
BRANCH  11  14
HETATM   14  C10 UNL     1     114.206  22.094  12.507  1.00  0.00     0.196 C 
HETATM   15  O3  UNL     1     112.998  22.366  12.720  1.00  0.00    -0.646 OA
HETATM   16  O4  UNL     1     115.112  22.457  13.490  1.00  0.00    -0.646 OA
ENDBRANCH  11  14
ENDBRANCH   6   7
ENDBRANCH   5   6
ENDBRANCH   1   5
BRANCH   1  17
HETATM   17  N2  UNL     1     108.868  19.930  12.608  1.00  0.00    -0.344 N 
HETATM   18  C11 UNL     1     107.526  19.621  12.261  1.00  0.00     0.253 C 
HETATM   19  O5  UNL     1     107.261  19.556  11.031  1.00  0.00    -0.270 OA
ATOM     20  H2  UNL     1     109.113  19.990  13.597  1.00  0.00     0.163 HD
BRANCH  18  21
HETATM   21  C12 UNL     1     106.474  19.384  13.286  1.00  0.00     0.138 C 
HETATM   22  C13 UNL     1     105.779  18.100  13.007  1.00  0.00     0.048 C 
HETATM   23  C14 UNL     1     105.040  17.464  14.091  1.00  0.00     0.004 C 
HETATM   24  C15 UNL     1     104.783  18.239  15.328  1.00  0.00     0.000 C 
HETATM   25  C16 UNL     1     104.341  19.648  15.125  1.00  0.00     0.000 C 
HETATM   26  C17 UNL     1     104.161  20.053  13.701  1.00  0.00     0.004 C 
HETATM   27  C18 UNL     1     105.482  20.510  13.162  1.00  0.00     0.048 C 
BRANCH  21  28
HETATM   28  O6  UNL     1     107.104  19.364  14.522  1.00  0.00    -0.380 OA
ATOM     29  H6  UNL     1     107.490  18.502  14.625  1.00  0.00     0.211 HD
ENDBRANCH  21  28
ENDBRANCH  18  21
ENDBRANCH   1  17
TORSDOF 8
ENDMDL
MODEL 3
REMARK VINA RESULT: -6.917218351      1.952      8.037
REMARK  8 active torsions:
REMARK  status: ('A' for Active; 'I' for Inactive)
REMARK    1  A    between atoms: C1_2  and  C2_4 
REMARK    2  A    between atoms: C2_4  and  C3_5 
REMARK    3  A    between atoms: C2_4  and  N2_17 
REMARK    4  A    between atoms: C3_5  and  C4_6 
REMARK    5  A    between atoms: C4_6  and  C5_7 
REMARK    6  A    between atoms: C9_11  and  C10_12 
REMARK       I    between atoms: N2_17  and  C11_19 
REMARK    7  A    between atoms: C11_19  and  C12_21 
REMARK    8  A    between atoms: C12_21  and  O6_22 
ROOT
HETATM    1  C2  UNL     1     106.287  20.531  12.632  1.00  0.00     0.185 C 
ENDROOT
BRANCH   1   2
HETATM    2  C1  UNL     1     105.740  21.742  11.992  1.00  0.00     0.196 C 
HETATM    3  O1  UNL     1     105.611  22.818  12.676  1.00  0.00    -0.646 OA
HETATM    4  O2  UNL     1     105.332  21.847  10.676  1.00  0.00    -0.646 OA
ENDBRANCH   1   2
BRANCH   1   5
HETATM    5  C3  UNL     1     107.648  20.718  13.254  1.00  0.00     0.038 C 
BRANCH   5   6
HETATM    6  C4  UNL     1     108.694  21.252  12.360  1.00  0.00     0.027 C 
BRANCH   6   7
HETATM    7  C5  UNL     1     110.017  20.544  12.426  1.00  0.00     0.077 C 
HETATM    8  C6  UNL     1     111.049  21.283  11.644  1.00  0.00     0.025 C 
HETATM    9  C7  UNL     1     112.353  20.562  11.541  1.00  0.00     0.004 C 
HETATM   10  C8  UNL     1     112.231  19.073  11.726  1.00  0.00     0.036 C 
HETATM   11  C9  UNL     1     110.866  18.553  11.350  1.00  0.00     0.179 C 
HETATM   12  N1  UNL     1     109.794  19.193  12.006  1.00  0.00    -0.404 N 
ATOM     13  H1  UNL     1     108.907  18.719  12.172  1.00  0.00     0.154 HD
BRANCH  11  14
HETATM   14  C10 UNL     1     110.666  18.531   9.880  1.00  0.00     0.196 C 
HETATM   15  O3  UNL     1     111.477  17.883   9.172  1.00  0.00    -0.646 OA
HETATM   16  O4  UNL     1     109.637  19.179   9.218  1.00  0.00    -0.646 OA
ENDBRANCH  11  14
ENDBRANCH   6   7
ENDBRANCH   5   6
ENDBRANCH   1   5
BRANCH   1  17
HETATM   17  N2  UNL     1     105.352  19.950  13.574  1.00  0.00    -0.344 N 
HETATM   18  C11 UNL     1     105.112  18.554  13.667  1.00  0.00     0.253 C 
HETATM   19  O5  UNL     1     105.760  17.815  12.879  1.00  0.00    -0.270 OA
ATOM     20  H2  UNL     1     104.841  20.574  14.200  1.00  0.00     0.163 HD
BRANCH  18  21
HETATM   21  C12 UNL     1     104.147  17.975  14.641  1.00  0.00     0.138 C 
HETATM   22  C13 UNL     1     102.862  18.719  14.579  1.00  0.00     0.048 C 
HETATM   23  C14 UNL     1     101.664  18.073  15.104  1.00  0.00     0.004 C 
HETATM   24  C15 UNL     1     101.816  16.842  15.913  1.00  0.00     0.000 C 
HETATM   25  C16 UNL     1     102.906  16.868  16.930  1.00  0.00     0.000 C 
HETATM   26  C17 UNL     1     103.646  18.160  17.026  1.00  0.00     0.004 C 
HETATM   27  C18 UNL     1     104.748  18.158  16.011  1.00  0.00     0.048 C 
BRANCH  21  28
HETATM   28  O6  UNL     1     103.980  16.639  14.308  1.00  0.00    -0.380 OA
ATOM     29  H6  UNL     1     103.124  16.556  13.905  1.00  0.00     0.211 HD
ENDBRANCH  21  28
ENDBRANCH  18  21
ENDBRANCH   1  17
TORSDOF 8
ENDMDL
MODEL 4
REMARK VINA RESULT: -6.901702222      2.816      8.643
REMARK  8 active torsions:
REMARK  status: ('A' for Active; 'I' for Inactive)
REMARK    1  A    between atoms: C1_2  and  C2_4 
REMARK    2  A    between atoms: C2_4  and  C3_5 
REMARK    3  A    between atoms: C2_4  and  N2_17 
REMARK    4  A    between atoms: C3_5  and  C4_6 
REMARK    5  A    between atoms: C4_6  and  C5_7 
REMARK    6  A    between atoms: C9_11  and  C10_12 
REMARK       I    between atoms: N2_17  and  C11_19 
REMARK    7  A    between atoms: C11_19  and  C12_21 
REMARK    8  A    between atoms: C12_21  and  O6_22 
ROOT
HETATM    1  C2  UNL     1     109.640  20.293  11.686  1.00  0.00     0.185 C 
ENDROOT
BRANCH   1   2
HETATM    2  C1  UNL     1     109.619  21.710  11.276  1.00  0.00     0.196 C 
HETATM    3  O1  UNL     1     110.486  22.140  10.437  1.00  0.00    -0.646 OA
HETATM    4  O2  UNL     1     108.726  22.666  11.721  1.00  0.00    -0.646 OA
ENDBRANCH   1   2
BRANCH   1   5
HETATM    5  C3  UNL     1     110.977  19.813  12.193  1.00  0.00     0.038 C 
BRANCH   5   6
HETATM    6  C4  UNL     1     111.750  18.967  11.264  1.00  0.00     0.027 C 
BRANCH   6   7
HETATM    7  C5  UNL     1     113.185  19.367  11.076  1.00  0.00     0.077 C 
HETATM    8  C6  UNL     1     114.013  18.913  12.230  1.00  0.00     0.025 C 
HETATM    9  C7  UNL     1     115.423  19.403  12.184  1.00  0.00     0.004 C 
HETATM   10  C8  UNL     1     115.599  20.651  11.362  1.00  0.00     0.036 C 
HETATM   11  C9  UNL     1     114.340  21.479  11.291  1.00  0.00     0.179 C 
HETATM   12  N1  UNL     1     113.203  20.779  10.839  1.00  0.00    -0.404 N 
ATOM     13  H1  UNL     1     112.432  21.254  10.369  1.00  0.00     0.154 HD
BRANCH  11  14
HETATM   14  C10 UNL     1     114.069  22.187  12.568  1.00  0.00     0.196 C 
HETATM   15  O3  UNL     1     112.900  22.587  12.796  1.00  0.00    -0.646 OA
HETATM   16  O4  UNL     1     115.020  22.442  13.541  1.00  0.00    -0.646 OA
ENDBRANCH  11  14
ENDBRANCH   6   7
ENDBRANCH   5   6
ENDBRANCH   1   5
BRANCH   1  17
HETATM   17  N2  UNL     1     108.579  19.988  12.625  1.00  0.00    -0.344 N 
HETATM   18  C11 UNL     1     107.290  19.550  12.221  1.00  0.00     0.253 C 
HETATM   19  O5  UNL     1     107.095  19.433  10.983  1.00  0.00    -0.270 OA
ATOM     20  H2  UNL     1     108.767  20.093  13.622  1.00  0.00     0.163 HD
BRANCH  18  21
HETATM   21  C12 UNL     1     106.212  19.242  13.200  1.00  0.00     0.138 C 
HETATM   22  C13 UNL     1     105.155  20.284  13.132  1.00  0.00     0.048 C 
HETATM   23  C14 UNL     1     103.835  19.966  13.661  1.00  0.00     0.004 C 
HETATM   24  C15 UNL     1     103.673  18.742  14.480  1.00  0.00     0.000 C 
HETATM   25  C16 UNL     1     104.736  18.502  15.497  1.00  0.00     0.000 C 
HETATM   26  C17 UNL     1     105.778  19.566  15.583  1.00  0.00     0.004 C 
HETATM   27  C18 UNL     1     106.842  19.278  14.568  1.00  0.00     0.048 C 
BRANCH  21  28
HETATM   28  O6  UNL     1     105.713  17.988  12.877  1.00  0.00    -0.380 OA
ATOM     29  H6  UNL     1     105.396  18.035  11.983  1.00  0.00     0.211 HD
ENDBRANCH  21  28
ENDBRANCH  18  21
ENDBRANCH   1  17
TORSDOF 8
ENDMDL
MODEL 5
REMARK VINA RESULT: -6.872789907      1.915      7.870
REMARK  8 active torsions:
REMARK  status: ('A' for Active; 'I' for Inactive)
REMARK    1  A    between atoms: C1_2  and  C2_4 
REMARK    2  A    between atoms: C2_4  and  C3_5 
REMARK    3  A    between atoms: C2_4  and  N2_17 
REMARK    4  A    between atoms: C3_5  and  C4_6 
REMARK    5  A    between atoms: C4_6  and  C5_7 
REMARK    6  A    between atoms: C9_11  and  C10_12 
REMARK       I    between atoms: N2_17  and  C11_19 
REMARK    7  A    between atoms: C11_19  and  C12_21 
REMARK    8  A    between atoms: C12_21  and  O6_22 
ROOT
HETATM    1  C2  UNL     1     105.503  20.809  12.577  1.00  0.00     0.185 C 
ENDROOT
BRANCH   1   2
HETATM    2  C1  UNL     1     104.741  21.912  11.961  1.00  0.00     0.196 C 
HETATM    3  O1  UNL     1     105.302  22.655  11.081  1.00  0.00    -0.646 OA
HETATM    4  O2  UNL     1     103.432  22.247  12.245  1.00  0.00    -0.646 OA
ENDBRANCH   1   2
BRANCH   1   5
HETATM    5  C3  UNL     1     106.853  21.211  13.114  1.00  0.00     0.038 C 
BRANCH   5   6
HETATM    6  C4  UNL     1     108.001  20.427  12.617  1.00  0.00     0.027 C 
BRANCH   6   7
HETATM    7  C5  UNL     1     108.291  20.575  11.151  1.00  0.00     0.077 C 
HETATM    8  C6  UNL     1     107.581  19.525  10.366  1.00  0.00     0.025 C 
HETATM    9  C7  UNL     1     107.939  19.517   8.916  1.00  0.00     0.004 C 
HETATM   10  C8  UNL     1     109.282  20.130   8.626  1.00  0.00     0.036 C 
HETATM   11  C9  UNL     1     110.224  20.044   9.800  1.00  0.00     0.179 C 
HETATM   12  N1  UNL     1     109.715  20.581  11.001  1.00  0.00    -0.404 N 
ATOM     13  H1  UNL     1     110.329  20.955  11.724  1.00  0.00     0.154 HD
BRANCH  11  14
HETATM   14  C10 UNL     1     110.737  18.665  10.000  1.00  0.00     0.196 C 
HETATM   15  O3  UNL     1     110.991  18.281  11.169  1.00  0.00    -0.646 OA
HETATM   16  O4  UNL     1     110.961  17.756   8.980  1.00  0.00    -0.646 OA
ENDBRANCH  11  14
ENDBRANCH   6   7
ENDBRANCH   5   6
ENDBRANCH   1   5
BRANCH   1  17
HETATM   17  N2  UNL     1     104.723  20.110  13.579  1.00  0.00    -0.344 N 
HETATM   18  C11 UNL     1     104.715  18.696  13.707  1.00  0.00     0.253 C 
HETATM   19  O5  UNL     1     105.430  18.051  12.895  1.00  0.00    -0.270 OA
ATOM     20  H2  UNL     1     104.152  20.660  14.222  1.00  0.00     0.163 HD
BRANCH  18  21
HETATM   21  C12 UNL     1     103.907  17.996  14.743  1.00  0.00     0.138 C 
HETATM   22  C13 UNL     1     102.537  18.571  14.788  1.00  0.00     0.048 C 
HETATM   23  C14 UNL     1     101.474  17.778  15.391  1.00  0.00     0.004 C 
HETATM   24  C15 UNL     1     101.840  16.571  16.169  1.00  0.00     0.000 C 
HETATM   25  C16 UNL     1     102.992  16.730  17.101  1.00  0.00     0.000 C 
HETATM   26  C17 UNL     1     103.569  18.104  17.160  1.00  0.00     0.004 C 
HETATM   27  C18 UNL     1     104.582  18.246  16.065  1.00  0.00     0.048 C 
BRANCH  21  28
HETATM   28  O6  UNL     1     103.884  16.651  14.403  1.00  0.00    -0.380 OA
ATOM     29  H6  UNL     1     102.975  16.413  14.264  1.00  0.00     0.211 HD
ENDBRANCH  21  28
ENDBRANCH  18  21
ENDBRANCH   1  17
TORSDOF 8
ENDMDL
