MODEL 1
REMARK VINA RESULT: -11.521265913      0.000      0.000
REMARK  8 active torsions:
REMARK  status: ('A' for Active; 'I' for Inactive)
REMARK    1  A    between atoms: N1_2  and  C3_4 
REMARK    2  A    between atoms: C7_10  and  N3_11 
REMARK       I    between atoms: N3_11  and  C8_13 
REMARK       I    between atoms: C8_13  and  N4_15 
REMARK    3  A    between atoms: N4_15  and  C9_17 
REMARK    4  A    between atoms: C12_20  and  C13_21 
REMARK    5  A    between atoms: C13_21  and  C14_22 
REMARK       I    between atoms: C14_22  and  N5_24 
REMARK    6  A    between atoms: C18_30  and  C19_31 
REMARK    7  A    between atoms: C19_31  and  C20_32 
REMARK    8  A    between atoms: N6_42  and  C30_43 
ROOT
HETATM    1  N3  UNL     1      35.865  21.498  20.652  1.00  0.00    -0.309 N 
ATOM      2  H3  UNL     1      35.105  21.518  19.971  1.00  0.00     0.170 HD
HETATM    3  C8  UNL     1      36.253  22.714  21.261  1.00  0.00     0.325 C 
HETATM    4  O1  UNL     1      37.178  22.678  22.104  1.00  0.00    -0.247 OA
HETATM    5  N4  UNL     1      35.583  23.893  20.889  1.00  0.00    -0.309 N 
ATOM      6  H4  UNL     1      34.844  23.796  20.193  1.00  0.00     0.170 HD
ENDROOT
BRANCH   5   7
HETATM    7  C9  UNL     1      35.823  25.192  21.373  1.00  0.00     0.036 A 
HETATM    8  C10 UNL     1      36.403  26.140  20.524  1.00  0.00     0.030 A 
HETATM    9  C11 UNL     1      36.677  27.414  20.958  1.00  0.00     0.010 A 
HETATM   10  C12 UNL     1      36.404  27.825  22.230  1.00  0.00    -0.049 A 
HETATM   11  C26 UNL     1      35.834  26.905  23.076  1.00  0.00     0.010 A 
HETATM   12  C27 UNL     1      35.552  25.608  22.641  1.00  0.00     0.030 A 
BRANCH  10  13
HETATM   13  C13 UNL     1      36.703  29.216  22.700  1.00  0.00     0.141 C 
BRANCH  13  14
HETATM   14  C14 UNL     1      38.142  29.529  22.519  1.00  0.00     0.224 C 
HETATM   15  O2  UNL     1      38.655  29.325  21.390  1.00  0.00    -0.273 OA
HETATM   16  N5  UNL     1      38.903  30.038  23.580  1.00  0.00    -0.341 N 
HETATM   17  C15 UNL     1      38.421  30.302  24.911  1.00  0.00     0.132 C 
HETATM   18  C18 UNL     1      40.328  30.398  23.491  1.00  0.00     0.159 C 
HETATM   19  C16 UNL     1      39.480  31.132  25.596  1.00  0.00     0.101 C 
HETATM   20  C17 UNL     1      40.604  31.325  24.594  1.00  0.00     0.265 C 
HETATM   21  F1  UNL     1      40.409  32.670  24.146  1.00  0.00    -0.204 F 
HETATM   22  F2  UNL     1      41.843  31.342  25.136  1.00  0.00    -0.204 F 
BRANCH  18  23
HETATM   23  C19 UNL     1      41.190  29.265  23.166  1.00  0.00     0.036 C 
BRANCH  23  24
HETATM   24  C20 UNL     1      40.670  27.898  23.006  1.00  0.00    -0.012 C 
HETATM   25  C21 UNL     1      41.815  27.060  22.388  1.00  0.00     0.005 C 
HETATM   26  C22 UNL     1      42.474  26.165  23.386  1.00  0.00     0.000 C 
HETATM   27  C23 UNL     1      41.563  25.093  23.932  1.00  0.00     0.000 C 
HETATM   28  C24 UNL     1      40.158  25.652  23.961  1.00  0.00     0.000 C 
HETATM   29  C25 UNL     1      40.319  27.161  24.293  1.00  0.00     0.005 C 
ENDBRANCH  23  24
ENDBRANCH  18  23
ENDBRANCH  13  14
ENDBRANCH  10  13
ENDBRANCH   5   7
BRANCH   1  30
HETATM   30  C7  UNL     1      36.477  20.252  20.940  1.00  0.00     0.038 A 
HETATM   31  C6  UNL     1      37.350  20.029  21.975  1.00  0.00     0.032 A 
HETATM   32  C5  UNL     1      37.854  18.751  22.165  1.00  0.00     0.034 A 
HETATM   33  C4  UNL     1      37.523  17.684  21.362  1.00  0.00     0.061 A 
HETATM   34  N2  UNL     1      38.032  16.472  21.580  1.00  0.00    -0.336 N 
HETATM   35  C29 UNL     1      36.636  17.891  20.300  1.00  0.00     0.071 A 
HETATM   36  C3  UNL     1      37.727  15.424  20.816  1.00  0.00     0.173 A 
ATOM     37  H2  UNL     1      38.678  16.342  22.359  1.00  0.00     0.168 HD
HETATM   38  C31 UNL     1      36.852  15.627  19.769  1.00  0.00     0.296 A 
HETATM   39  N6  UNL     1      36.306  16.853  19.507  1.00  0.00    -0.252 N 
HETATM   40  O3  UNL     1      36.529  14.683  19.020  1.00  0.00    -0.264 OA
HETATM   41  C28 UNL     1      36.150  19.147  20.128  1.00  0.00     0.061 A 
BRANCH  36  42
HETATM   42  N1  UNL     1      38.259  14.119  21.033  1.00  0.00    -0.371 N 
HETATM   43  C1  UNL     1      37.388  13.101  21.562  1.00  0.00     0.150 C 
HETATM   44  C2  UNL     1      39.636  13.787  20.738  1.00  0.00     0.150 C 
ENDBRANCH  36  42
BRANCH  39  45
HETATM   45  C30 UNL     1      35.395  17.059  18.421  1.00  0.00     0.468 C 
HETATM   46  F3  UNL     1      35.931  16.844  17.171  1.00  0.00    -0.190 F 
HETATM   47  F4  UNL     1      34.152  16.478  18.600  1.00  0.00    -0.190 F 
ENDBRANCH  39  45
ENDBRANCH   1  30
TORSDOF 8
ENDMDL
MODEL 2
REMARK VINA RESULT: -11.372117899      0.569      1.127
REMARK  8 active torsions:
REMARK  status: ('A' for Active; 'I' for Inactive)
REMARK    1  A    between atoms: N1_2  and  C3_4 
REMARK    2  A    between atoms: C7_10  and  N3_11 
REMARK       I    between atoms: N3_11  and  C8_13 
REMARK       I    between atoms: C8_13  and  N4_15 
REMARK    3  A    between atoms: N4_15  and  C9_17 
REMARK    4  A    between atoms: C12_20  and  C13_21 
REMARK    5  A    between atoms: C13_21  and  C14_22 
REMARK       I    between atoms: C14_22  and  N5_24 
REMARK    6  A    between atoms: C18_30  and  C19_31 
REMARK    7  A    between atoms: C19_31  and  C20_32 
REMARK    8  A    between atoms: N6_42  and  C30_43 
ROOT
HETATM    1  N3  UNL     1      35.910  21.555  20.596  1.00  0.00    -0.309 N 
ATOM      2  H3  UNL     1      35.161  21.577  19.904  1.00  0.00     0.170 HD
HETATM    3  C8  UNL     1      36.296  22.770  21.209  1.00  0.00     0.325 C 
HETATM    4  O1  UNL     1      37.207  22.730  22.066  1.00  0.00    -0.247 OA
HETATM    5  N4  UNL     1      35.637  23.952  20.825  1.00  0.00    -0.309 N 
ATOM      6  H4  UNL     1      34.908  23.857  20.118  1.00  0.00     0.170 HD
ENDROOT
BRANCH   5   7
HETATM    7  C9  UNL     1      35.876  25.250  21.310  1.00  0.00     0.036 A 
HETATM    8  C10 UNL     1      35.301  25.642  22.523  1.00  0.00     0.030 A 
HETATM    9  C11 UNL     1      35.486  26.906  23.026  1.00  0.00     0.010 A 
HETATM   10  C12 UNL     1      36.235  27.845  22.378  1.00  0.00    -0.049 A 
HETATM   11  C26 UNL     1      36.806  27.476  21.185  1.00  0.00     0.010 A 
HETATM   12  C27 UNL     1      36.622  26.192  20.668  1.00  0.00     0.030 A 
BRANCH  10  13
HETATM   13  C13 UNL     1      36.436  29.224  22.931  1.00  0.00     0.141 C 
BRANCH  13  14
HETATM   14  C14 UNL     1      37.771  29.748  22.550  1.00  0.00     0.224 C 
HETATM   15  O2  UNL     1      38.039  29.853  21.326  1.00  0.00    -0.273 OA
HETATM   16  N5  UNL     1      38.702  30.116  23.530  1.00  0.00    -0.341 N 
HETATM   17  C15 UNL     1      38.504  30.031  24.953  1.00  0.00     0.132 C 
HETATM   18  C18 UNL     1      40.039  30.665  23.250  1.00  0.00     0.159 C 
HETATM   19  C16 UNL     1      39.616  30.827  25.593  1.00  0.00     0.101 C 
HETATM   20  C17 UNL     1      40.474  31.368  24.463  1.00  0.00     0.265 C 
HETATM   21  F1  UNL     1      40.079  32.740  24.386  1.00  0.00    -0.204 F 
HETATM   22  F2  UNL     1      41.797  31.428  24.741  1.00  0.00    -0.204 F 
BRANCH  18  23
HETATM   23  C19 UNL     1      40.898  29.745  22.510  1.00  0.00     0.036 C 
BRANCH  23  24
HETATM   24  C20 UNL     1      41.518  28.567  23.137  1.00  0.00    -0.012 C 
HETATM   25  C21 UNL     1      40.463  27.435  23.089  1.00  0.00     0.005 C 
HETATM   26  C22 UNL     1      40.760  26.418  22.036  1.00  0.00     0.000 C 
HETATM   27  C23 UNL     1      42.032  25.646  22.282  1.00  0.00     0.000 C 
HETATM   28  C24 UNL     1      43.000  26.567  22.993  1.00  0.00     0.000 C 
HETATM   29  C25 UNL     1      42.726  27.983  22.415  1.00  0.00     0.005 C 
ENDBRANCH  23  24
ENDBRANCH  18  23
ENDBRANCH  13  14
ENDBRANCH  10  13
ENDBRANCH   5   7
BRANCH   1  30
HETATM   30  C7  UNL     1      36.511  20.306  20.896  1.00  0.00     0.038 A 
HETATM   31  C6  UNL     1      37.391  20.087  21.926  1.00  0.00     0.032 A 
HETATM   32  C5  UNL     1      37.883  18.807  22.129  1.00  0.00     0.034 A 
HETATM   33  C4  UNL     1      37.534  17.733  21.343  1.00  0.00     0.061 A 
HETATM   34  N2  UNL     1      38.031  16.518  21.573  1.00  0.00    -0.336 N 
HETATM   35  C29 UNL     1      36.639  17.935  20.286  1.00  0.00     0.071 A 
HETATM   36  C3  UNL     1      37.707  15.463  20.825  1.00  0.00     0.173 A 
ATOM     37  H2  UNL     1      38.682  16.391  22.348  1.00  0.00     0.168 HD
HETATM   38  C31 UNL     1      36.826  15.662  19.784  1.00  0.00     0.296 A 
HETATM   39  N6  UNL     1      36.290  16.890  19.510  1.00  0.00    -0.252 N 
HETATM   40  O3  UNL     1      36.486  14.712  19.050  1.00  0.00    -0.264 OA
HETATM   41  C28 UNL     1      36.165  19.193  20.102  1.00  0.00     0.061 A 
BRANCH  36  42
HETATM   42  N1  UNL     1      38.228  14.155  21.056  1.00  0.00    -0.371 N 
HETATM   43  C1  UNL     1      37.337  13.141  21.558  1.00  0.00     0.150 C 
HETATM   44  C2  UNL     1      39.611  13.818  20.800  1.00  0.00     0.150 C 
ENDBRANCH  36  42
BRANCH  39  45
HETATM   45  C30 UNL     1      35.373  17.092  18.430  1.00  0.00     0.468 C 
HETATM   46  F3  UNL     1      35.895  16.854  17.177  1.00  0.00    -0.190 F 
HETATM   47  F4  UNL     1      34.124  16.526  18.627  1.00  0.00    -0.190 F 
ENDBRANCH  39  45
ENDBRANCH   1  30
TORSDOF 8
ENDMDL
MODEL 3
REMARK VINA RESULT: -11.217849689      1.782      2.646
REMARK  8 active torsions:
REMARK  status: ('A' for Active; 'I' for Inactive)
REMARK    1  A    between atoms: N1_2  and  C3_4 
REMARK    2  A    between atoms: C7_10  and  N3_11 
REMARK       I    between atoms: N3_11  and  C8_13 
REMARK       I    between atoms: C8_13  and  N4_15 
REMARK    3  A    between atoms: N4_15  and  C9_17 
REMARK    4  A    between atoms: C12_20  and  C13_21 
REMARK    5  A    between atoms: C13_21  and  C14_22 
REMARK       I    between atoms: C14_22  and  N5_24 
REMARK    6  A    between atoms: C18_30  and  C19_31 
REMARK    7  A    between atoms: C19_31  and  C20_32 
REMARK    8  A    between atoms: N6_42  and  C30_43 
ROOT
HETATM    1  N3  UNL     1      35.977  21.521  20.523  1.00  0.00    -0.309 N 
ATOM      2  H3  UNL     1      35.302  21.565  19.759  1.00  0.00     0.170 HD
HETATM    3  C8  UNL     1      36.289  22.716  21.214  1.00  0.00     0.325 C 
HETATM    4  O1  UNL     1      37.110  22.649  22.156  1.00  0.00    -0.247 OA
HETATM    5  N4  UNL     1      35.664  23.907  20.806  1.00  0.00    -0.309 N 
ATOM      6  H4  UNL     1      35.011  23.834  20.026  1.00  0.00     0.170 HD
ENDROOT
BRANCH   5   7
HETATM    7  C9  UNL     1      35.842  25.189  21.358  1.00  0.00     0.036 A 
HETATM    8  C10 UNL     1      35.338  25.458  22.635  1.00  0.00     0.030 A 
HETATM    9  C11 UNL     1      35.466  26.700  23.206  1.00  0.00     0.010 A 
HETATM   10  C12 UNL     1      36.088  27.734  22.568  1.00  0.00    -0.049 A 
HETATM   11  C26 UNL     1      36.588  27.486  21.313  1.00  0.00     0.010 A 
HETATM   12  C27 UNL     1      36.461  26.225  20.727  1.00  0.00     0.030 A 
BRANCH  10  13
HETATM   13  C13 UNL     1      36.228  29.088  23.195  1.00  0.00     0.141 C 
BRANCH  13  14
HETATM   14  C14 UNL     1      37.647  29.521  23.190  1.00  0.00     0.224 C 
HETATM   15  O2  UNL     1      38.470  28.862  23.876  1.00  0.00    -0.273 OA
HETATM   16  N5  UNL     1      38.054  30.632  22.440  1.00  0.00    -0.341 N 
HETATM   17  C15 UNL     1      37.200  31.458  21.628  1.00  0.00     0.132 C 
HETATM   18  C18 UNL     1      39.440  31.122  22.355  1.00  0.00     0.159 C 
HETATM   19  C16 UNL     1      38.107  32.305  20.768  1.00  0.00     0.101 C 
HETATM   20  C17 UNL     1      39.533  31.931  21.134  1.00  0.00     0.265 C 
HETATM   21  F1  UNL     1      39.938  31.100  20.042  1.00  0.00    -0.204 F 
HETATM   22  F2  UNL     1      40.410  32.960  21.099  1.00  0.00    -0.204 F 
BRANCH  18  23
HETATM   23  C19 UNL     1      39.979  31.556  23.642  1.00  0.00     0.036 C 
BRANCH  23  24
HETATM   24  C20 UNL     1      41.335  31.201  24.088  1.00  0.00    -0.012 C 
HETATM   25  C21 UNL     1      41.767  29.972  23.252  1.00  0.00     0.005 C 
HETATM   26  C22 UNL     1      42.743  30.322  22.177  1.00  0.00     0.000 C 
HETATM   27  C23 UNL     1      44.067  30.821  22.702  1.00  0.00     0.000 C 
HETATM   28  C24 UNL     1      43.803  31.551  24.000  1.00  0.00     0.000 C 
HETATM   29  C25 UNL     1      42.420  32.236  23.817  1.00  0.00     0.005 C 
ENDBRANCH  23  24
ENDBRANCH  18  23
ENDBRANCH  13  14
ENDBRANCH  10  13
ENDBRANCH   5   7
BRANCH   1  30
HETATM   30  C7  UNL     1      36.555  20.265  20.838  1.00  0.00     0.038 A 
HETATM   31  C6  UNL     1      37.421  20.041  21.879  1.00  0.00     0.032 A 
HETATM   32  C5  UNL     1      37.890  18.754  22.096  1.00  0.00     0.034 A 
HETATM   33  C4  UNL     1      37.531  17.679  21.315  1.00  0.00     0.061 A 
HETATM   34  N2  UNL     1      38.006  16.459  21.559  1.00  0.00    -0.336 N 
HETATM   35  C29 UNL     1      36.650  17.888  20.247  1.00  0.00     0.071 A 
HETATM   36  C3  UNL     1      37.673  15.403  20.817  1.00  0.00     0.173 A 
ATOM     37  H2  UNL     1      38.647  16.328  22.342  1.00  0.00     0.168 HD
HETATM   38  C31 UNL     1      36.805  15.608  19.765  1.00  0.00     0.296 A 
HETATM   39  N6  UNL     1      36.292  16.843  19.477  1.00  0.00    -0.252 N 
HETATM   40  O3  UNL     1      36.457  14.658  19.036  1.00  0.00    -0.264 OA
HETATM   41  C28 UNL     1      36.199  19.152  20.049  1.00  0.00     0.061 A 
BRANCH  36  42
HETATM   42  N1  UNL     1      38.169  14.089  21.063  1.00  0.00    -0.371 N 
HETATM   43  C1  UNL     1      39.570  13.832  20.846  1.00  0.00     0.150 C 
HETATM   44  C2  UNL     1      37.317  13.015  21.524  1.00  0.00     0.150 C 
ENDBRANCH  36  42
BRANCH  39  45
HETATM   45  C30 UNL     1      35.389  17.051  18.386  1.00  0.00     0.468 C 
HETATM   46  F3  UNL     1      35.922  16.802  17.140  1.00  0.00    -0.190 F 
HETATM   47  F4  UNL     1      34.132  16.500  18.571  1.00  0.00    -0.190 F 
ENDBRANCH  39  45
ENDBRANCH   1  30
TORSDOF 8
ENDMDL
MODEL 4
REMARK VINA RESULT: -11.174941291      1.903      2.919
REMARK  8 active torsions:
REMARK  status: ('A' for Active; 'I' for Inactive)
REMARK    1  A    between atoms: N1_2  and  C3_4 
REMARK    2  A    between atoms: C7_10  and  N3_11 
REMARK       I    between atoms: N3_11  and  C8_13 
REMARK       I    between atoms: C8_13  and  N4_15 
REMARK    3  A    between atoms: N4_15  and  C9_17 
REMARK    4  A    between atoms: C12_20  and  C13_21 
REMARK    5  A    between atoms: C13_21  and  C14_22 
REMARK       I    between atoms: C14_22  and  N5_24 
REMARK    6  A    between atoms: C18_30  and  C19_31 
REMARK    7  A    between atoms: C19_31  and  C20_32 
REMARK    8  A    between atoms: N6_42  and  C30_43 
ROOT
HETATM    1  N3  UNL     1      35.918  21.170  20.536  1.00  0.00    -0.309 N 
ATOM      2  H3  UNL     1      35.205  21.206  19.807  1.00  0.00     0.170 HD
HETATM    3  C8  UNL     1      36.248  22.368  21.212  1.00  0.00     0.325 C 
HETATM    4  O1  UNL     1      37.116  22.312  22.113  1.00  0.00    -0.247 OA
HETATM    5  N4  UNL     1      35.587  23.552  20.839  1.00  0.00    -0.309 N 
ATOM      6  H4  UNL     1      34.897  23.471  20.093  1.00  0.00     0.170 HD
ENDROOT
BRANCH   5   7
HETATM    7  C9  UNL     1      35.775  24.835  21.384  1.00  0.00     0.036 A 
HETATM    8  C10 UNL     1      36.343  25.837  20.590  1.00  0.00     0.030 A 
HETATM    9  C11 UNL     1      36.568  27.098  21.084  1.00  0.00     0.010 A 
HETATM   10  C12 UNL     1      36.255  27.444  22.367  1.00  0.00    -0.049 A 
HETATM   11  C26 UNL     1      35.697  26.470  23.160  1.00  0.00     0.010 A 
HETATM   12  C27 UNL     1      35.465  25.186  22.663  1.00  0.00     0.030 A 
BRANCH  10  13
HETATM   13  C13 UNL     1      36.501  28.822  22.903  1.00  0.00     0.141 C 
BRANCH  13  14
HETATM   14  C14 UNL     1      37.942  29.164  22.820  1.00  0.00     0.224 C 
HETATM   15  O2  UNL     1      38.777  28.317  23.228  1.00  0.00    -0.273 OA
HETATM   16  N5  UNL     1      38.355  30.398  22.301  1.00  0.00    -0.341 N 
HETATM   17  C15 UNL     1      37.489  31.440  21.815  1.00  0.00     0.132 C 
HETATM   18  C18 UNL     1      39.760  30.818  22.158  1.00  0.00     0.159 C 
HETATM   19  C16 UNL     1      38.365  32.416  21.066  1.00  0.00     0.101 C 
HETATM   20  C17 UNL     1      39.786  31.888  21.154  1.00  0.00     0.265 C 
HETATM   21  F1  UNL     1      40.000  31.320  19.859  1.00  0.00    -0.204 F 
HETATM   22  F2  UNL     1      40.736  32.846  21.248  1.00  0.00    -0.204 F 
BRANCH  18  23
HETATM   23  C19 UNL     1      40.469  30.902  23.432  1.00  0.00     0.036 C 
BRANCH  23  24
HETATM   24  C20 UNL     1      40.278  32.020  24.369  1.00  0.00    -0.012 C 
HETATM   25  C21 UNL     1      39.174  31.581  25.360  1.00  0.00     0.005 C 
HETATM   26  C22 UNL     1      39.721  31.199  26.697  1.00  0.00     0.000 C 
HETATM   27  C23 UNL     1      40.365  32.346  27.437  1.00  0.00     0.000 C 
HETATM   28  C24 UNL     1      40.970  33.276  26.409  1.00  0.00     0.000 C 
HETATM   29  C25 UNL     1      41.468  32.357  25.260  1.00  0.00     0.005 C 
ENDBRANCH  23  24
ENDBRANCH  18  23
ENDBRANCH  13  14
ENDBRANCH  10  13
ENDBRANCH   5   7
BRANCH   1  30
HETATM   30  C7  UNL     1      36.528  19.922  20.819  1.00  0.00     0.038 A 
HETATM   31  C6  UNL     1      37.401  19.694  21.853  1.00  0.00     0.032 A 
HETATM   32  C5  UNL     1      37.903  18.414  22.038  1.00  0.00     0.034 A 
HETATM   33  C4  UNL     1      37.570  17.351  21.231  1.00  0.00     0.061 A 
HETATM   34  N2  UNL     1      38.076  16.137  21.444  1.00  0.00    -0.336 N 
HETATM   35  C29 UNL     1      36.682  17.563  20.170  1.00  0.00     0.071 A 
HETATM   36  C3  UNL     1      37.768  15.092  20.677  1.00  0.00     0.173 A 
ATOM     37  H2  UNL     1      38.722  16.003  22.223  1.00  0.00     0.168 HD
HETATM   38  C31 UNL     1      36.894  15.301  19.631  1.00  0.00     0.296 A 
HETATM   39  N6  UNL     1      36.349  16.528  19.374  1.00  0.00    -0.252 N 
HETATM   40  O3  UNL     1      36.568  14.360  18.879  1.00  0.00    -0.264 OA
HETATM   41  C28 UNL     1      36.199  18.820  20.003  1.00  0.00     0.061 A 
BRANCH  36  42
HETATM   42  N1  UNL     1      38.298  13.785  20.889  1.00  0.00    -0.371 N 
HETATM   43  C1  UNL     1      39.724  13.600  20.806  1.00  0.00     0.150 C 
HETATM   44  C2  UNL     1      37.454  12.648  21.188  1.00  0.00     0.150 C 
ENDBRANCH  36  42
BRANCH  39  45
HETATM   45  C30 UNL     1      35.439  16.741  18.289  1.00  0.00     0.468 C 
HETATM   46  F3  UNL     1      35.902  16.328  17.059  1.00  0.00    -0.190 F 
HETATM   47  F4  UNL     1      34.137  16.351  18.551  1.00  0.00    -0.190 F 
ENDBRANCH  39  45
ENDBRANCH   1  30
TORSDOF 8
ENDMDL
MODEL 5
REMARK VINA RESULT: -10.904181587      1.041      1.720
REMARK  8 active torsions:
REMARK  status: ('A' for Active; 'I' for Inactive)
REMARK    1  A    between atoms: N1_2  and  C3_4 
REMARK    2  A    between atoms: C7_10  and  N3_11 
REMARK       I    between atoms: N3_11  and  C8_13 
REMARK       I    between atoms: C8_13  and  N4_15 
REMARK    3  A    between atoms: N4_15  and  C9_17 
REMARK    4  A    between atoms: C12_20  and  C13_21 
REMARK    5  A    between atoms: C13_21  and  C14_22 
REMARK       I    between atoms: C14_22  and  N5_24 
REMARK    6  A    between atoms: C18_30  and  C19_31 
REMARK    7  A    between atoms: C19_31  and  C20_32 
REMARK    8  A    between atoms: N6_42  and  C30_43 
ROOT
HETATM    1  N3  UNL     1      35.850  21.382  20.634  1.00  0.00    -0.309 N 
ATOM      2  H3  UNL     1      35.076  21.400  19.970  1.00  0.00     0.170 HD
HETATM    3  C8  UNL     1      36.250  22.600  21.232  1.00  0.00     0.325 C 
HETATM    4  O1  UNL     1      37.193  22.567  22.054  1.00  0.00    -0.247 OA
HETATM    5  N4  UNL     1      35.570  23.777  20.872  1.00  0.00    -0.309 N 
ATOM      6  H4  UNL     1      34.816  23.677  20.193  1.00  0.00     0.170 HD
ENDROOT
BRANCH   5   7
HETATM    7  C9  UNL     1      35.818  25.077  21.348  1.00  0.00     0.036 A 
HETATM    8  C10 UNL     1      36.403  26.017  20.493  1.00  0.00     0.030 A 
HETATM    9  C11 UNL     1      36.686  27.291  20.919  1.00  0.00     0.010 A 
HETATM   10  C12 UNL     1      36.417  27.711  22.189  1.00  0.00    -0.049 A 
HETATM   11  C26 UNL     1      35.843  26.800  23.042  1.00  0.00     0.010 A 
HETATM   12  C27 UNL     1      35.552  25.502  22.615  1.00  0.00     0.030 A 
BRANCH  10  13
HETATM   13  C13 UNL     1      36.725  29.104  22.651  1.00  0.00     0.141 C 
BRANCH  13  14
HETATM   14  C14 UNL     1      38.178  29.383  22.530  1.00  0.00     0.224 C 
HETATM   15  O2  UNL     1      38.751  29.081  21.453  1.00  0.00    -0.273 OA
HETATM   16  N5  UNL     1      38.884  29.968  23.589  1.00  0.00    -0.341 N 
HETATM   17  C15 UNL     1      38.332  30.346  24.863  1.00  0.00     0.132 C 
HETATM   18  C18 UNL     1      40.318  30.302  23.555  1.00  0.00     0.159 C 
HETATM   19  C16 UNL     1      39.362  31.217  25.540  1.00  0.00     0.101 C 
HETATM   20  C17 UNL     1      40.546  31.314  24.593  1.00  0.00     0.265 C 
HETATM   21  F1  UNL     1      40.400  32.619  24.027  1.00  0.00    -0.204 F 
HETATM   22  F2  UNL     1      41.751  31.360  25.205  1.00  0.00    -0.204 F 
BRANCH  18  23
HETATM   23  C19 UNL     1      41.179  29.136  23.375  1.00  0.00     0.036 C 
BRANCH  23  24
HETATM   24  C20 UNL     1      42.146  29.033  22.271  1.00  0.00    -0.012 C 
HETATM   25  C21 UNL     1      42.878  30.394  22.199  1.00  0.00     0.005 C 
HETATM   26  C22 UNL     1      44.260  30.333  22.762  1.00  0.00     0.000 C 
HETATM   27  C23 UNL     1      45.192  29.438  21.984  1.00  0.00     0.000 C 
HETATM   28  C24 UNL     1      44.369  28.310  21.402  1.00  0.00     0.000 C 
HETATM   29  C25 UNL     1      43.265  28.015  22.455  1.00  0.00     0.005 C 
ENDBRANCH  23  24
ENDBRANCH  18  23
ENDBRANCH  13  14
ENDBRANCH  10  13
ENDBRANCH   5   7
BRANCH   1  30
HETATM   30  C7  UNL     1      36.470  20.137  20.912  1.00  0.00     0.038 A 
HETATM   31  C6  UNL     1      37.359  19.915  21.934  1.00  0.00     0.032 A 
HETATM   32  C5  UNL     1      37.869  18.639  22.114  1.00  0.00     0.034 A 
HETATM   33  C4  UNL     1      37.531  17.572  21.313  1.00  0.00     0.061 A 
HETATM   34  N2  UNL     1      38.046  16.361  21.522  1.00  0.00    -0.336 N 
HETATM   35  C29 UNL     1      36.628  17.778  20.264  1.00  0.00     0.071 A 
HETATM   36  C3  UNL     1      37.733  15.313  20.760  1.00  0.00     0.173 A 
ATOM     37  H2  UNL     1      38.703  16.232  22.292  1.00  0.00     0.168 HD
HETATM   38  C31 UNL     1      36.844  15.516  19.727  1.00  0.00     0.296 A 
HETATM   39  N6  UNL     1      36.290  16.740  19.475  1.00  0.00    -0.252 N 
HETATM   40  O3  UNL     1      36.513  14.572  18.980  1.00  0.00    -0.264 OA
HETATM   41  C28 UNL     1      36.136  19.032  20.102  1.00  0.00     0.061 A 
BRANCH  36  42
HETATM   42  N1  UNL     1      38.273  14.010  20.968  1.00  0.00    -0.371 N 
HETATM   43  C1  UNL     1      39.697  13.830  20.853  1.00  0.00     0.150 C 
HETATM   44  C2  UNL     1      37.441  12.872  21.292  1.00  0.00     0.150 C 
ENDBRANCH  36  42
BRANCH  39  45
HETATM   45  C30 UNL     1      35.364  16.946  18.402  1.00  0.00     0.468 C 
HETATM   46  F3  UNL     1      35.860  16.661  17.149  1.00  0.00    -0.190 F 
HETATM   47  F4  UNL     1      34.101  16.426  18.630  1.00  0.00    -0.190 F 
ENDBRANCH  39  45
ENDBRANCH   1  30
TORSDOF 8
ENDMDL
