MODEL 1
REMARK VINA RESULT: -7.412284031      0.000      0.000
REMARK  14 active torsions:
REMARK  status: ('A' for Active; 'I' for Inactive)
REMARK    1  A    between atoms: C2_2  and  C3_3 
REMARK    2  A    between atoms: C3_3  and  N1_4 
REMARK       I    between atoms: N1_4  and  C4_5 
REMARK    3  A    between atoms: N1_4  and  C16_20 
REMARK    4  A    between atoms: C4_5  and  C5_7 
REMARK       I    between atoms: N2_11  and  C9_12 
REMARK    5  A    between atoms: C9_12  and  C10_14 
REMARK    6  A    between atoms: C16_20  and  C17_21 
REMARK    7  A    between atoms: C16_20  and  C19_23 
REMARK       I    between atoms: C19_23  and  N3_25 
REMARK    8  A    between atoms: N3_25  and  C20_27 
REMARK    9  A    between atoms: C20_27  and  C21_28 
REMARK   10  A    between atoms: C20_27  and  C25_36 
REMARK   11  A    between atoms: C21_28  and  C22_29 
REMARK   12  A    between atoms: C22_29  and  C23_30 
REMARK   13  A    between atoms: C23_30  and  N4_31 
REMARK   14  A    between atoms: C25_36  and  N7_37 
ROOT
HETATM    1  C16 UNL     1       7.451   6.978  21.713  1.00  0.00     0.178 C 
ENDROOT
BRANCH   1   2
HETATM    2  N1  UNL     1       7.395   6.863  20.211  1.00  0.00    -0.337 N 
HETATM    3  C4  UNL     1       6.716   5.725  19.737  1.00  0.00     0.243 C 
HETATM    4  O1  UNL     1       6.196   4.941  20.616  1.00  0.00    -0.271 OA
BRANCH   2   5
HETATM    5  C3  UNL     1       8.049   7.856  19.436  1.00  0.00     0.126 C 
BRANCH   5   6
HETATM    6  C2  UNL     1       7.311   8.973  18.835  1.00  0.00     0.015 C 
HETATM    7  C1  UNL     1       7.335  10.293  19.489  1.00  0.00     0.006 C 
ENDBRANCH   5   6
ENDBRANCH   2   5
BRANCH   3   8
HETATM    8  C5  UNL     1       6.516   5.286  18.347  1.00  0.00     0.179 C 
HETATM    9  C6  UNL     1       5.152   5.736  17.903  1.00  0.00     0.037 C 
HETATM   10  C7  UNL     1       4.240   4.639  18.335  1.00  0.00     0.022 C 
HETATM   11  C8  UNL     1       5.094   3.422  17.998  1.00  0.00     0.127 C 
HETATM   12  N2  UNL     1       6.428   3.806  18.306  1.00  0.00    -0.338 N 
HETATM   13  C9  UNL     1       7.507   2.912  18.549  1.00  0.00     0.224 C 
HETATM   14  O2  UNL     1       8.646   3.442  18.823  1.00  0.00    -0.273 OA
BRANCH  13  15
HETATM   15  C10 UNL     1       7.372   1.455  18.500  1.00  0.00     0.078 C 
HETATM   16  C11 UNL     1       8.695   0.757  18.766  1.00  0.00     0.014 C 
HETATM   17  C12 UNL     1       9.657   0.920  17.618  1.00  0.00     0.001 C 
HETATM   18  C13 UNL     1       9.055   0.799  16.263  1.00  0.00     0.000 C 
HETATM   19  C14 UNL     1       7.736   1.569  16.115  1.00  0.00     0.001 C 
HETATM   20  C15 UNL     1       6.823   0.984  17.170  1.00  0.00     0.014 C 
ENDBRANCH  13  15
ENDBRANCH   3   8
ENDBRANCH   1   2
BRANCH   1  21
HETATM   21  C17 UNL     1       8.492   7.926  22.127  1.00  0.00     0.030 C 
HETATM   22  C18 UNL     1       8.634   8.156  23.610  1.00  0.00     0.007 C 
ENDBRANCH   1  21
BRANCH   1  23
HETATM   23  C19 UNL     1       6.097   7.193  22.213  1.00  0.00     0.241 C 
HETATM   24  O3  UNL     1       5.510   8.249  21.753  1.00  0.00    -0.271 OA
HETATM   25  N3  UNL     1       5.363   6.434  23.105  1.00  0.00    -0.353 N 
ATOM     26  H3  UNL     1       5.778   5.593  23.507  1.00  0.00     0.163 HD
BRANCH  25  27
HETATM   27  C20 UNL     1       4.000   6.817  23.484  1.00  0.00     0.102 C 
BRANCH  27  28
HETATM   28  C21 UNL     1       3.099   5.609  23.526  1.00  0.00     0.028 C 
BRANCH  28  29
HETATM   29  C22 UNL     1       3.028   4.888  22.212  1.00  0.00     0.022 C 
BRANCH  29  30
HETATM   30  C23 UNL     1       3.118   3.412  22.414  1.00  0.00     0.122 C 
BRANCH  30  31
HETATM   31  N4  UNL     1       4.523   3.039  22.397  1.00  0.00    -0.367 N 
HETATM   32  C24 UNL     1       4.895   2.025  21.666  1.00  0.00     0.196 C 
HETATM   33  N5  UNL     1       6.274   1.659  21.648  1.00  0.00    -0.067 NA
HETATM   34  N6  UNL     1       3.981   1.274  20.892  1.00  0.00    -0.067 NA
ATOM     35  H4  UNL     1       5.207   3.562  22.946  1.00  0.00     0.161 HD
ENDBRANCH  30  31
ENDBRANCH  29  30
ENDBRANCH  28  29
ENDBRANCH  27  28
BRANCH  27  36
HETATM   36  C25 UNL     1       3.998   7.527  24.819  1.00  0.00     0.147 C 
BRANCH  36  37
HETATM   37  N7  UNL     1       2.663   7.813  25.279  1.00  0.00    -0.365 N 
HETATM   38  C26 UNL     1       2.085   8.949  25.097  1.00  0.00     0.197 C 
HETATM   39  N8  UNL     1       0.764   9.153  25.580  1.00  0.00    -0.067 NA
HETATM   40  N9  UNL     1       2.718  10.019  24.425  1.00  0.00    -0.067 NA
ATOM     41  H7  UNL     1       2.151   7.081  25.772  1.00  0.00     0.161 HD
ENDBRANCH  36  37
ENDBRANCH  27  36
ENDBRANCH  25  27
ENDBRANCH   1  23
TORSDOF 14
ENDMDL
MODEL 2
REMARK VINA RESULT: -7.261095215      1.080      1.467
REMARK  14 active torsions:
REMARK  status: ('A' for Active; 'I' for Inactive)
REMARK    1  A    between atoms: C2_2  and  C3_3 
REMARK    2  A    between atoms: C3_3  and  N1_4 
REMARK       I    between atoms: N1_4  and  C4_5 
REMARK    3  A    between atoms: N1_4  and  C16_20 
REMARK    4  A    between atoms: C4_5  and  C5_7 
REMARK       I    between atoms: N2_11  and  C9_12 
REMARK    5  A    between atoms: C9_12  and  C10_14 
REMARK    6  A    between atoms: C16_20  and  C17_21 
REMARK    7  A    between atoms: C16_20  and  C19_23 
REMARK       I    between atoms: C19_23  and  N3_25 
REMARK    8  A    between atoms: N3_25  and  C20_27 
REMARK    9  A    between atoms: C20_27  and  C21_28 
REMARK   10  A    between atoms: C20_27  and  C25_36 
REMARK   11  A    between atoms: C21_28  and  C22_29 
REMARK   12  A    between atoms: C22_29  and  C23_30 
REMARK   13  A    between atoms: C23_30  and  N4_31 
REMARK   14  A    between atoms: C25_36  and  N7_37 
ROOT
HETATM    1  C16 UNL     1       7.428   7.007  21.760  1.00  0.00     0.178 C 
ENDROOT
BRANCH   1   2
HETATM    2  N1  UNL     1       7.378   6.878  20.259  1.00  0.00    -0.337 N 
HETATM    3  C4  UNL     1       6.686   5.744  19.793  1.00  0.00     0.243 C 
HETATM    4  O1  UNL     1       6.151   4.977  20.677  1.00  0.00    -0.271 OA
BRANCH   2   5
HETATM    5  C3  UNL     1       8.049   7.854  19.478  1.00  0.00     0.126 C 
BRANCH   5   6
HETATM    6  C2  UNL     1       7.335   8.992  18.888  1.00  0.00     0.015 C 
HETATM    7  C1  UNL     1       7.445  10.321  19.515  1.00  0.00     0.006 C 
ENDBRANCH   5   6
ENDBRANCH   2   5
BRANCH   3   8
HETATM    8  C5  UNL     1       6.487   5.294  18.406  1.00  0.00     0.179 C 
HETATM    9  C6  UNL     1       5.127   5.747  17.955  1.00  0.00     0.037 C 
HETATM   10  C7  UNL     1       4.208   4.659  18.395  1.00  0.00     0.022 C 
HETATM   11  C8  UNL     1       5.057   3.434  18.071  1.00  0.00     0.127 C 
HETATM   12  N2  UNL     1       6.392   3.815  18.380  1.00  0.00    -0.338 N 
HETATM   13  C9  UNL     1       7.466   2.917  18.633  1.00  0.00     0.224 C 
HETATM   14  O2  UNL     1       8.607   3.444  18.905  1.00  0.00    -0.273 OA
BRANCH  13  15
HETATM   15  C10 UNL     1       7.323   1.460  18.597  1.00  0.00     0.078 C 
HETATM   16  C11 UNL     1       8.648   0.757  18.844  1.00  0.00     0.014 C 
HETATM   17  C12 UNL     1       9.589   0.909  17.678  1.00  0.00     0.001 C 
HETATM   18  C13 UNL     1       8.963   0.780  16.335  1.00  0.00     0.000 C 
HETATM   19  C14 UNL     1       7.645   1.555  16.205  1.00  0.00     0.001 C 
HETATM   20  C15 UNL     1       6.749   0.982  17.281  1.00  0.00     0.014 C 
ENDBRANCH  13  15
ENDBRANCH   3   8
ENDBRANCH   1   2
BRANCH   1  21
HETATM   21  C17 UNL     1       8.493   7.931  22.171  1.00  0.00     0.030 C 
HETATM   22  C18 UNL     1       8.574   8.243  23.643  1.00  0.00     0.007 C 
ENDBRANCH   1  21
BRANCH   1  23
HETATM   23  C19 UNL     1       6.078   7.267  22.249  1.00  0.00     0.241 C 
HETATM   24  O3  UNL     1       5.551   8.371  21.829  1.00  0.00    -0.271 OA
HETATM   25  N3  UNL     1       5.292   6.506  23.093  1.00  0.00    -0.353 N 
ATOM     26  H3  UNL     1       5.657   5.627  23.462  1.00  0.00     0.163 HD
BRANCH  25  27
HETATM   27  C20 UNL     1       3.943   6.938  23.469  1.00  0.00     0.102 C 
BRANCH  27  28
HETATM   28  C21 UNL     1       2.991   5.769  23.477  1.00  0.00     0.028 C 
BRANCH  28  29
HETATM   29  C22 UNL     1       2.713   5.231  22.104  1.00  0.00     0.022 C 
BRANCH  29  30
HETATM   30  C23 UNL     1       2.805   3.742  22.091  1.00  0.00     0.122 C 
BRANCH  30  31
HETATM   31  N4  UNL     1       1.551   3.209  22.599  1.00  0.00    -0.367 N 
HETATM   32  C24 UNL     1       1.568   2.501  23.695  1.00  0.00     0.196 C 
HETATM   33  N5  UNL     1       0.338   1.977  24.194  1.00  0.00    -0.067 NA
HETATM   34  N6  UNL     1       2.761   2.234  24.405  1.00  0.00    -0.067 NA
ATOM     35  H4  UNL     1       0.674   3.384  22.107  1.00  0.00     0.161 HD
ENDBRANCH  30  31
ENDBRANCH  29  30
ENDBRANCH  28  29
ENDBRANCH  27  28
BRANCH  27  36
HETATM   36  C25 UNL     1       3.958   7.620  24.818  1.00  0.00     0.147 C 
BRANCH  36  37
HETATM   37  N7  UNL     1       2.630   7.916  25.291  1.00  0.00    -0.365 N 
HETATM   38  C26 UNL     1       2.034   9.034  25.061  1.00  0.00     0.197 C 
HETATM   39  N8  UNL     1       0.722   9.250  25.561  1.00  0.00    -0.067 NA
HETATM   40  N9  UNL     1       2.640  10.073  24.318  1.00  0.00    -0.067 NA
ATOM     41  H7  UNL     1       2.137   7.206  25.834  1.00  0.00     0.161 HD
ENDBRANCH  36  37
ENDBRANCH  27  36
ENDBRANCH  25  27
ENDBRANCH   1  23
TORSDOF 14
ENDMDL
MODEL 3
REMARK VINA RESULT: -7.184142242      2.143      5.168
REMARK  14 active torsions:
REMARK  status: ('A' for Active; 'I' for Inactive)
REMARK    1  A    between atoms: C2_2  and  C3_3 
REMARK    2  A    between atoms: C3_3  and  N1_4 
REMARK       I    between atoms: N1_4  and  C4_5 
REMARK    3  A    between atoms: N1_4  and  C16_20 
REMARK    4  A    between atoms: C4_5  and  C5_7 
REMARK       I    between atoms: N2_11  and  C9_12 
REMARK    5  A    between atoms: C9_12  and  C10_14 
REMARK    6  A    between atoms: C16_20  and  C17_21 
REMARK    7  A    between atoms: C16_20  and  C19_23 
REMARK       I    between atoms: C19_23  and  N3_25 
REMARK    8  A    between atoms: N3_25  and  C20_27 
REMARK    9  A    between atoms: C20_27  and  C21_28 
REMARK   10  A    between atoms: C20_27  and  C25_36 
REMARK   11  A    between atoms: C21_28  and  C22_29 
REMARK   12  A    between atoms: C22_29  and  C23_30 
REMARK   13  A    between atoms: C23_30  and  N4_31 
REMARK   14  A    between atoms: C25_36  and  N7_37 
ROOT
HETATM    1  C16 UNL     1       6.031   5.715  19.732  1.00  0.00     0.178 C 
ENDROOT
BRANCH   1   2
HETATM    2  N1  UNL     1       5.664   4.256  19.822  1.00  0.00    -0.337 N 
HETATM    3  C4  UNL     1       6.500   3.397  19.083  1.00  0.00     0.243 C 
HETATM    4  O1  UNL     1       7.486   3.933  18.454  1.00  0.00    -0.271 OA
BRANCH   2   5
HETATM    5  C3  UNL     1       4.521   3.896  20.581  1.00  0.00     0.126 C 
BRANCH   5   6
HETATM    6  C2  UNL     1       4.639   3.191  21.863  1.00  0.00     0.015 C 
HETATM    7  C1  UNL     1       4.327   1.752  21.930  1.00  0.00     0.006 C 
ENDBRANCH   5   6
ENDBRANCH   2   5
BRANCH   3   8
HETATM    8  C5  UNL     1       6.402   1.938  18.916  1.00  0.00     0.179 C 
HETATM    9  C6  UNL     1       7.566   1.304  19.624  1.00  0.00     0.037 C 
HETATM   10  C7  UNL     1       8.661   1.303  18.612  1.00  0.00     0.022 C 
HETATM   11  C8  UNL     1       7.876   0.929  17.359  1.00  0.00     0.127 C 
HETATM   12  N2  UNL     1       6.624   1.591  17.492  1.00  0.00    -0.338 N 
HETATM   13  C9  UNL     1       5.730   1.884  16.425  1.00  0.00     0.224 C 
HETATM   14  O2  UNL     1       4.644   2.498  16.734  1.00  0.00    -0.273 OA
BRANCH  13  15
HETATM   15  C10 UNL     1       5.995   1.522  15.031  1.00  0.00     0.078 C 
HETATM   16  C11 UNL     1       4.992   2.160  14.083  1.00  0.00     0.014 C 
HETATM   17  C12 UNL     1       3.627   1.538  14.210  1.00  0.00     0.001 C 
HETATM   18  C13 UNL     1       3.614   0.057  14.358  1.00  0.00     0.000 C 
HETATM   19  C14 UNL     1       4.654  -0.459  15.361  1.00  0.00     0.001 C 
HETATM   20  C15 UNL     1       5.984   0.023  14.826  1.00  0.00     0.014 C 
ENDBRANCH  13  15
ENDBRANCH   3   8
ENDBRANCH   1   2
BRANCH   1  21
HETATM   21  C17 UNL     1       5.001   6.471  19.008  1.00  0.00     0.030 C 
HETATM   22  C18 UNL     1       5.057   6.403  17.504  1.00  0.00     0.007 C 
ENDBRANCH   1  21
BRANCH   1  23
HETATM   23  C19 UNL     1       6.407   6.182  21.062  1.00  0.00     0.241 C 
HETATM   24  O3  UNL     1       7.592   5.834  21.445  1.00  0.00    -0.271 OA
HETATM   25  N3  UNL     1       5.678   6.936  21.963  1.00  0.00    -0.353 N 
ATOM     26  H3  UNL     1       4.734   7.234  21.718  1.00  0.00     0.163 HD
BRANCH  25  27
HETATM   27  C20 UNL     1       6.238   7.313  23.264  1.00  0.00     0.102 C 
BRANCH  27  28
HETATM   28  C21 UNL     1       6.871   8.680  23.196  1.00  0.00     0.028 C 
BRANCH  28  29
HETATM   29  C22 UNL     1       8.336   8.662  23.519  1.00  0.00     0.022 C 
BRANCH  29  30
HETATM   30  C23 UNL     1       9.119   9.365  22.462  1.00  0.00     0.122 C 
BRANCH  30  31
HETATM   31  N4  UNL     1       8.991   8.608  21.227  1.00  0.00    -0.367 N 
HETATM   32  C24 UNL     1       8.596   9.227  20.149  1.00  0.00     0.196 C 
HETATM   33  N5  UNL     1       8.470   8.484  18.937  1.00  0.00    -0.067 NA
HETATM   34  N6  UNL     1       8.288  10.607  20.138  1.00  0.00    -0.067 NA
ATOM     35  H4  UNL     1       9.205   7.610  21.204  1.00  0.00     0.161 HD
ENDBRANCH  30  31
ENDBRANCH  29  30
ENDBRANCH  28  29
ENDBRANCH  27  28
BRANCH  27  36
HETATM   36  C25 UNL     1       5.171   7.275  24.334  1.00  0.00     0.147 C 
BRANCH  36  37
HETATM   37  N7  UNL     1       4.589   8.572  24.566  1.00  0.00    -0.365 N 
HETATM   38  C26 UNL     1       3.381   8.737  24.981  1.00  0.00     0.197 C 
HETATM   39  N8  UNL     1       2.879  10.050  25.187  1.00  0.00    -0.067 NA
HETATM   40  N9  UNL     1       2.519   7.649  25.246  1.00  0.00    -0.067 NA
ATOM     41  H7  UNL     1       5.160   9.399  24.394  1.00  0.00     0.161 HD
ENDBRANCH  36  37
ENDBRANCH  27  36
ENDBRANCH  25  27
ENDBRANCH   1  23
TORSDOF 14
ENDMDL
MODEL 4
REMARK VINA RESULT: -7.174799588      1.195      3.897
REMARK  14 active torsions:
REMARK  status: ('A' for Active; 'I' for Inactive)
REMARK    1  A    between atoms: C2_2  and  C3_3 
REMARK    2  A    between atoms: C3_3  and  N1_4 
REMARK       I    between atoms: N1_4  and  C4_5 
REMARK    3  A    between atoms: N1_4  and  C16_20 
REMARK    4  A    between atoms: C4_5  and  C5_7 
REMARK       I    between atoms: N2_11  and  C9_12 
REMARK    5  A    between atoms: C9_12  and  C10_14 
REMARK    6  A    between atoms: C16_20  and  C17_21 
REMARK    7  A    between atoms: C16_20  and  C19_23 
REMARK       I    between atoms: C19_23  and  N3_25 
REMARK    8  A    between atoms: N3_25  and  C20_27 
REMARK    9  A    between atoms: C20_27  and  C21_28 
REMARK   10  A    between atoms: C20_27  and  C25_36 
REMARK   11  A    between atoms: C21_28  and  C22_29 
REMARK   12  A    between atoms: C22_29  and  C23_30 
REMARK   13  A    between atoms: C23_30  and  N4_31 
REMARK   14  A    between atoms: C25_36  and  N7_37 
ROOT
HETATM    1  C16 UNL     1       7.926   7.647  21.559  1.00  0.00     0.178 C 
ENDROOT
BRANCH   1   2
HETATM    2  N1  UNL     1       7.500   7.473  20.123  1.00  0.00    -0.337 N 
HETATM    3  C4  UNL     1       6.923   6.223  19.833  1.00  0.00     0.243 C 
HETATM    4  O1  UNL     1       6.791   5.394  20.809  1.00  0.00    -0.271 OA
BRANCH   2   5
HETATM    5  C3  UNL     1       7.751   8.534  19.214  1.00  0.00     0.126 C 
BRANCH   5   6
HETATM    6  C2  UNL     1       6.706   9.495  18.846  1.00  0.00     0.015 C 
HETATM    7  C1  UNL     1       6.730  10.849  19.427  1.00  0.00     0.006 C 
ENDBRANCH   5   6
ENDBRANCH   2   5
BRANCH   3   8
HETATM    8  C5  UNL     1       6.444   5.709  18.539  1.00  0.00     0.179 C 
HETATM    9  C6  UNL     1       5.069   6.264  18.294  1.00  0.00     0.037 C 
HETATM   10  C7  UNL     1       4.153   5.299  18.967  1.00  0.00     0.022 C 
HETATM   11  C8  UNL     1       4.824   3.980  18.598  1.00  0.00     0.127 C 
HETATM   12  N2  UNL     1       6.221   4.247  18.644  1.00  0.00    -0.338 N 
HETATM   13  C9  UNL     1       7.242   3.267  18.779  1.00  0.00     0.224 C 
HETATM   14  O2  UNL     1       8.454   3.696  18.810  1.00  0.00    -0.273 OA
BRANCH  13  15
HETATM   15  C10 UNL     1       6.972   1.832  18.881  1.00  0.00     0.078 C 
HETATM   16  C11 UNL     1       8.233   1.041  19.189  1.00  0.00     0.014 C 
HETATM   17  C12 UNL     1       9.171   0.999  18.011  1.00  0.00     0.001 C 
HETATM   18  C13 UNL     1       8.521   0.801  16.688  1.00  0.00     0.000 C 
HETATM   19  C14 UNL     1       7.274   1.673  16.490  1.00  0.00     0.001 C 
HETATM   20  C15 UNL     1       6.343   1.285  17.617  1.00  0.00     0.014 C 
ENDBRANCH  13  15
ENDBRANCH   3   8
ENDBRANCH   1   2
BRANCH   1  21
HETATM   21  C17 UNL     1       8.842   8.786  21.699  1.00  0.00     0.030 C 
HETATM   22  C18 UNL     1       9.183   9.199  23.107  1.00  0.00     0.007 C 
ENDBRANCH   1  21
BRANCH   1  23
HETATM   23  C19 UNL     1       6.736   7.625  22.402  1.00  0.00     0.241 C 
HETATM   24  O3  UNL     1       5.861   8.537  22.132  1.00  0.00    -0.271 OA
HETATM   25  N3  UNL     1       6.419   6.773  23.444  1.00  0.00    -0.353 N 
ATOM     26  H3  UNL     1       7.074   6.037  23.707  1.00  0.00     0.163 HD
BRANCH  25  27
HETATM   27  C20 UNL     1       5.156   6.909  24.176  1.00  0.00     0.102 C 
BRANCH  27  28
HETATM   28  C21 UNL     1       4.840   8.361  24.430  1.00  0.00     0.028 C 
BRANCH  28  29
HETATM   29  C22 UNL     1       3.689   8.552  25.374  1.00  0.00     0.022 C 
BRANCH  29  30
HETATM   30  C23 UNL     1       2.664   9.459  24.780  1.00  0.00     0.122 C 
BRANCH  30  31
HETATM   31  N4  UNL     1       3.020   9.693  23.390  1.00  0.00    -0.367 N 
HETATM   32  C24 UNL     1       2.157  10.286  22.612  1.00  0.00     0.196 C 
HETATM   33  N5  UNL     1       2.505  10.516  21.248  1.00  0.00    -0.067 NA
HETATM   34  N6  UNL     1       0.888  10.709  23.072  1.00  0.00    -0.067 NA
ATOM     35  H4  UNL     1       3.927   9.398  23.028  1.00  0.00     0.161 HD
ENDBRANCH  30  31
ENDBRANCH  29  30
ENDBRANCH  28  29
ENDBRANCH  27  28
BRANCH  27  36
HETATM   36  C25 UNL     1       4.028   6.243  23.421  1.00  0.00     0.147 C 
BRANCH  36  37
HETATM   37  N7  UNL     1       4.483   5.109  22.657  1.00  0.00    -0.365 N 
HETATM   38  C26 UNL     1       3.991   3.926  22.794  1.00  0.00     0.197 C 
HETATM   39  N8  UNL     1       4.494   2.858  22.003  1.00  0.00    -0.067 NA
HETATM   40  N9  UNL     1       2.955   3.642  23.712  1.00  0.00    -0.067 NA
ATOM     41  H7  UNL     1       5.230   5.248  21.977  1.00  0.00     0.161 HD
ENDBRANCH  36  37
ENDBRANCH  27  36
ENDBRANCH  25  27
ENDBRANCH   1  23
TORSDOF 14
ENDMDL
MODEL 5
REMARK VINA RESULT: -7.038130776      1.423      3.032
REMARK  14 active torsions:
REMARK  status: ('A' for Active; 'I' for Inactive)
REMARK    1  A    between atoms: C2_2  and  C3_3 
REMARK    2  A    between atoms: C3_3  and  N1_4 
REMARK       I    between atoms: N1_4  and  C4_5 
REMARK    3  A    between atoms: N1_4  and  C16_20 
REMARK    4  A    between atoms: C4_5  and  C5_7 
REMARK       I    between atoms: N2_11  and  C9_12 
REMARK    5  A    between atoms: C9_12  and  C10_14 
REMARK    6  A    between atoms: C16_20  and  C17_21 
REMARK    7  A    between atoms: C16_20  and  C19_23 
REMARK       I    between atoms: C19_23  and  N3_25 
REMARK    8  A    between atoms: N3_25  and  C20_27 
REMARK    9  A    between atoms: C20_27  and  C21_28 
REMARK   10  A    between atoms: C20_27  and  C25_36 
REMARK   11  A    between atoms: C21_28  and  C22_29 
REMARK   12  A    between atoms: C22_29  and  C23_30 
REMARK   13  A    between atoms: C23_30  and  N4_31 
REMARK   14  A    between atoms: C25_36  and  N7_37 
ROOT
HETATM    1  C16 UNL     1       7.423   6.996  21.605  1.00  0.00     0.178 C 
ENDROOT
BRANCH   1   2
HETATM    2  N1  UNL     1       7.326   6.879  20.106  1.00  0.00    -0.337 N 
HETATM    3  C4  UNL     1       6.777   5.666  19.649  1.00  0.00     0.243 C 
HETATM    4  O1  UNL     1       6.392   4.821  20.541  1.00  0.00    -0.271 OA
BRANCH   2   5
HETATM    5  C3  UNL     1       7.821   7.947  19.314  1.00  0.00     0.126 C 
BRANCH   5   6
HETATM    6  C2  UNL     1       6.956   9.051  18.884  1.00  0.00     0.015 C 
HETATM    7  C1  UNL     1       7.164  10.397  19.448  1.00  0.00     0.006 C 
ENDBRANCH   5   6
ENDBRANCH   2   5
BRANCH   3   8
HETATM    8  C5  UNL     1       6.581   5.208  18.264  1.00  0.00     0.179 C 
HETATM    9  C6  UNL     1       5.219   5.652  17.810  1.00  0.00     0.037 C 
HETATM   10  C7  UNL     1       4.305   4.561  18.254  1.00  0.00     0.022 C 
HETATM   11  C8  UNL     1       5.161   3.339  17.935  1.00  0.00     0.127 C 
HETATM   12  N2  UNL     1       6.494   3.729  18.243  1.00  0.00    -0.338 N 
HETATM   13  C9  UNL     1       7.573   2.838  18.501  1.00  0.00     0.224 C 
HETATM   14  O2  UNL     1       8.711   3.372  18.771  1.00  0.00    -0.273 OA
BRANCH  13  15
HETATM   15  C10 UNL     1       7.438   1.381  18.471  1.00  0.00     0.078 C 
HETATM   16  C11 UNL     1       8.760   0.686  18.750  1.00  0.00     0.014 C 
HETATM   17  C12 UNL     1       9.726   0.835  17.604  1.00  0.00     0.001 C 
HETATM   18  C13 UNL     1       9.130   0.695  16.248  1.00  0.00     0.000 C 
HETATM   19  C14 UNL     1       7.811   1.462  16.086  1.00  0.00     0.001 C 
HETATM   20  C15 UNL     1       6.894   0.892  17.145  1.00  0.00     0.014 C 
ENDBRANCH  13  15
ENDBRANCH   3   8
ENDBRANCH   1   2
BRANCH   1  21
HETATM   21  C17 UNL     1       8.477   7.944  21.989  1.00  0.00     0.030 C 
HETATM   22  C18 UNL     1       8.682   8.151  23.468  1.00  0.00     0.007 C 
ENDBRANCH   1  21
BRANCH   1  23
HETATM   23  C19 UNL     1       6.084   7.215  22.142  1.00  0.00     0.241 C 
HETATM   24  O3  UNL     1       5.677   8.442  22.103  1.00  0.00    -0.271 OA
HETATM   25  N3  UNL     1       5.199   6.301  22.684  1.00  0.00    -0.353 N 
ATOM     26  H3  UNL     1       5.469   5.320  22.746  1.00  0.00     0.163 HD
BRANCH  25  27
HETATM   27  C20 UNL     1       3.881   6.719  23.170  1.00  0.00     0.102 C 
BRANCH  27  28
HETATM   28  C21 UNL     1       2.831   5.701  22.805  1.00  0.00     0.028 C 
BRANCH  28  29
HETATM   29  C22 UNL     1       1.445   6.276  22.777  1.00  0.00     0.022 C 
BRANCH  29  30
HETATM   30  C23 UNL     1       1.350   7.378  21.776  1.00  0.00     0.122 C 
BRANCH  30  31
HETATM   31  N4  UNL     1       0.777   8.540  22.436  1.00  0.00    -0.367 N 
HETATM   32  C24 UNL     1       1.380   9.690  22.318  1.00  0.00     0.196 C 
HETATM   33  N5  UNL     1       0.819  10.831  22.966  1.00  0.00    -0.067 NA
HETATM   34  N6  UNL     1       2.572   9.847  21.573  1.00  0.00    -0.067 NA
ATOM     35  H4  UNL     1      -0.081   8.457  22.982  1.00  0.00     0.161 HD
ENDBRANCH  30  31
ENDBRANCH  29  30
ENDBRANCH  28  29
ENDBRANCH  27  28
BRANCH  27  36
HETATM   36  C25 UNL     1       3.911   6.940  24.666  1.00  0.00     0.147 C 
BRANCH  36  37
HETATM   37  N7  UNL     1       4.060   8.332  25.005  1.00  0.00    -0.365 N 
HETATM   38  C26 UNL     1       3.082   9.064  25.415  1.00  0.00     0.197 C 
HETATM   39  N8  UNL     1       3.310  10.431  25.730  1.00  0.00    -0.067 NA
HETATM   40  N9  UNL     1       1.772   8.557  25.567  1.00  0.00    -0.067 NA
ATOM     41  H7  UNL     1       4.982   8.758  24.917  1.00  0.00     0.161 HD
ENDBRANCH  36  37
ENDBRANCH  27  36
ENDBRANCH  25  27
ENDBRANCH   1  23
TORSDOF 14
ENDMDL
