MODEL 1
REMARK VINA RESULT: -8.086338597      0.000      0.000
REMARK  16 active torsions:
REMARK  status: ('A' for Active; 'I' for Inactive)
REMARK    1  A    between atoms: N1_2  and  C2_3 
REMARK    2  A    between atoms: N1_2  and  C14_24 
REMARK    3  A    between atoms: C4_5  and  C5_6 
REMARK       I    between atoms: C5_6  and  N2_8 
REMARK    4  A    between atoms: N2_8  and  C6_10 
REMARK    5  A    between atoms: C6_10  and  C7_11 
REMARK    6  A    between atoms: C7_11  and  N3_12 
REMARK    7  A    between atoms: C11_16  and  C12_17 
REMARK    8  A    between atoms: C12_17  and  O2_18 
REMARK    9  A    between atoms: C17_29  and  C18_30 
REMARK   10  A    between atoms: C18_30  and  C19_31 
REMARK   11  A    between atoms: C19_31  and  C20_32 
REMARK   12  A    between atoms: C20_32  and  C21_33 
REMARK   13  A    between atoms: C21_33  and  C22_34 
REMARK   14  A    between atoms: C22_34  and  C23_35 
REMARK   15  A    between atoms: C23_35  and  C24_36 
REMARK   16  A    between atoms: C24_36  and  C25_37 
ROOT
HETATM    1  C1  UNL     1       6.150   7.500  22.532  1.00  0.00     0.144 C 
HETATM    2  N1  UNL     1       5.739   7.759  21.198  1.00  0.00    -0.396 N 
ENDROOT
BRANCH   2   3
HETATM    3  C2  UNL     1       6.747   8.187  20.298  1.00  0.00     0.172 C 
HETATM    4  C3  UNL     1       6.066   9.018  19.217  1.00  0.00     0.050 C 
HETATM    5  C4  UNL     1       7.119  10.026  18.732  1.00  0.00     0.105 C 
HETATM    6  C11 UNL     1       7.153  11.068  19.862  1.00  0.00     0.121 C 
HETATM    7  N4  UNL     1       7.704  10.382  21.004  1.00  0.00    -0.352 N 
HETATM    8  C13 UNL     1       7.832   8.972  20.952  1.00  0.00     0.240 C 
ATOM      9  H4  UNL     1       7.996  10.901  21.833  1.00  0.00     0.163 HD
HETATM   10  O3  UNL     1       8.856   8.401  21.457  1.00  0.00    -0.271 OA
BRANCH   5  11
HETATM   11  C5  UNL     1       6.734  10.581  17.437  1.00  0.00     0.224 C 
HETATM   12  O1  UNL     1       5.652  11.275  17.438  1.00  0.00    -0.273 OA
HETATM   13  N2  UNL     1       7.431  10.429  16.231  1.00  0.00    -0.359 N 
ATOM     14  H2  UNL     1       8.287   9.875  16.211  1.00  0.00     0.162 HD
BRANCH  13  15
HETATM   15  C6  UNL     1       6.955  11.047  15.019  1.00  0.00     0.150 C 
BRANCH  15  16
HETATM   16  C7  UNL     1       7.344  10.364  13.759  1.00  0.00     0.255 C 
BRANCH  16  17
HETATM   17  N3  UNL     1       6.286  10.083  12.838  1.00  0.00    -0.077 N 
HETATM   18  C8  UNL     1       5.395   9.034  13.211  1.00  0.00     0.271 C 
HETATM   19  C9  UNL     1       6.945   9.698  11.577  1.00  0.00     0.271 C 
HETATM   20  C10 UNL     1       5.505  11.266  12.512  1.00  0.00     0.271 C 
ENDBRANCH  16  17
ENDBRANCH  15  16
ENDBRANCH  13  15
ENDBRANCH   5  11
BRANCH   6  21
HETATM   21  C12 UNL     1       7.900  12.303  19.493  1.00  0.00     0.190 C 
BRANCH  21  22
HETATM   22  O2  UNL     1       8.178  13.025  20.675  1.00  0.00    -0.399 OA
ATOM     23  H2  UNL     1       7.355  13.331  21.040  1.00  0.00     0.209 HD
ENDBRANCH  21  22
ENDBRANCH   6  21
ENDBRANCH   2   3
BRANCH   2  24
HETATM   24  C14 UNL     1       4.821   6.797  20.672  1.00  0.00     0.120 A 
HETATM   25  C15 UNL     1       3.859   6.262  21.730  1.00  0.00     0.153 A 
HETATM   26  N5  UNL     1       4.372   4.948  21.506  1.00  0.00    -0.343 N 
HETATM   27  C16 UNL     1       4.499   3.550  21.710  1.00  0.00     0.224 C 
HETATM   28  C28 UNL     1       5.240   5.424  20.394  1.00  0.00     0.111 A 
HETATM   29  O4  UNL     1       4.468   3.101  22.908  1.00  0.00    -0.273 OA
HETATM   30  C17 UNL     1       4.660   2.589  20.608  1.00  0.00     0.078 C 
HETATM   31  C26 UNL     1       4.800   3.246  19.261  1.00  0.00     0.016 C 
HETATM   32  C27 UNL     1       4.578   4.735  19.207  1.00  0.00     0.028 C 
BRANCH  30  33
HETATM   33  C18 UNL     1       5.896   1.686  20.796  1.00  0.00     0.014 C 
BRANCH  33  34
HETATM   34  C19 UNL     1       6.938   2.175  19.770  1.00  0.00     0.001 C 
BRANCH  34  35
HETATM   35  C20 UNL     1       7.705   1.047  19.190  1.00  0.00     0.000 C 
BRANCH  35  36
HETATM   36  C21 UNL     1       8.371   1.270  17.876  1.00  0.00     0.000 C 
BRANCH  36  37
HETATM   37  C22 UNL     1       9.845   1.206  17.880  1.00  0.00     0.000 C 
BRANCH  37  38
HETATM   38  C23 UNL     1      10.541  -0.093  17.747  1.00  0.00     0.007 C 
BRANCH  38  39
HETATM   39  C24 UNL     1       9.988  -0.891  16.544  1.00  0.00     0.072 C 
BRANCH  39  40
HETATM   40  C25 UNL     1      10.836  -2.067  16.300  1.00  0.00     0.086 C 
HETATM   41  N6  UNL     1      12.116  -1.933  16.285  1.00  0.00    -0.391 N 
ATOM     42  H62 UNL     1      12.481  -0.992  16.432  1.00  0.00     0.157 HD
ATOM     43  H61 UNL     1      12.705  -2.748  16.116  1.00  0.00     0.157 HD
HETATM   44  N7  UNL     1      10.322  -3.395  16.093  1.00  0.00    -0.088 NA
ENDBRANCH  39  40
ENDBRANCH  38  39
ENDBRANCH  37  38
ENDBRANCH  36  37
ENDBRANCH  35  36
ENDBRANCH  34  35
ENDBRANCH  33  34
ENDBRANCH  30  33
ENDBRANCH   2  24
TORSDOF 16
ENDMDL
MODEL 2
REMARK VINA RESULT: -8.034706364      0.953      1.384
REMARK  16 active torsions:
REMARK  status: ('A' for Active; 'I' for Inactive)
REMARK    1  A    between atoms: N1_2  and  C2_3 
REMARK    2  A    between atoms: N1_2  and  C14_24 
REMARK    3  A    between atoms: C4_5  and  C5_6 
REMARK       I    between atoms: C5_6  and  N2_8 
REMARK    4  A    between atoms: N2_8  and  C6_10 
REMARK    5  A    between atoms: C6_10  and  C7_11 
REMARK    6  A    between atoms: C7_11  and  N3_12 
REMARK    7  A    between atoms: C11_16  and  C12_17 
REMARK    8  A    between atoms: C12_17  and  O2_18 
REMARK    9  A    between atoms: C17_29  and  C18_30 
REMARK   10  A    between atoms: C18_30  and  C19_31 
REMARK   11  A    between atoms: C19_31  and  C20_32 
REMARK   12  A    between atoms: C20_32  and  C21_33 
REMARK   13  A    between atoms: C21_33  and  C22_34 
REMARK   14  A    between atoms: C22_34  and  C23_35 
REMARK   15  A    between atoms: C23_35  and  C24_36 
REMARK   16  A    between atoms: C24_36  and  C25_37 
ROOT
HETATM    1  C1  UNL     1       6.591   7.344  22.885  1.00  0.00     0.144 C 
HETATM    2  N1  UNL     1       6.027   7.876  21.696  1.00  0.00    -0.396 N 
ENDROOT
BRANCH   2   3
HETATM    3  C2  UNL     1       6.939   8.276  20.689  1.00  0.00     0.172 C 
HETATM    4  C3  UNL     1       6.143   9.032  19.631  1.00  0.00     0.050 C 
HETATM    5  C4  UNL     1       7.122  10.035  19.002  1.00  0.00     0.105 C 
HETATM    6  C11 UNL     1       7.228  11.138  20.067  1.00  0.00     0.121 C 
HETATM    7  N4  UNL     1       7.896  10.527  21.190  1.00  0.00    -0.352 N 
HETATM    8  C13 UNL     1       8.057   9.119  21.201  1.00  0.00     0.240 C 
ATOM      9  H4  UNL     1       8.246  11.097  21.961  1.00  0.00     0.163 HD
HETATM   10  O3  UNL     1       9.136   8.600  21.641  1.00  0.00    -0.271 OA
BRANCH   5  11
HETATM   11  C5  UNL     1       6.609  10.510  17.719  1.00  0.00     0.224 C 
HETATM   12  O1  UNL     1       5.532  11.208  17.784  1.00  0.00    -0.273 OA
HETATM   13  N2  UNL     1       7.184  10.280  16.462  1.00  0.00    -0.359 N 
ATOM     14  H2  UNL     1       8.034   9.722  16.391  1.00  0.00     0.162 HD
BRANCH  13  15
HETATM   15  C6  UNL     1       6.589  10.824  15.267  1.00  0.00     0.150 C 
BRANCH  15  16
HETATM   16  C7  UNL     1       7.344  10.584  14.012  1.00  0.00     0.255 C 
BRANCH  16  17
HETATM   17  N3  UNL     1       6.628   9.943  12.953  1.00  0.00    -0.077 N 
HETATM   18  C8  UNL     1       7.425   9.316  11.950  1.00  0.00     0.271 C 
HETATM   19  C9  UNL     1       5.831  11.002  12.309  1.00  0.00     0.271 C 
HETATM   20  C10 UNL     1       5.654   8.981  13.444  1.00  0.00     0.271 C 
ENDBRANCH  16  17
ENDBRANCH  15  16
ENDBRANCH  13  15
ENDBRANCH   5  11
BRANCH   6  21
HETATM   21  C12 UNL     1       7.907  12.366  19.569  1.00  0.00     0.190 C 
BRANCH  21  22
HETATM   22  O2  UNL     1       8.230  13.178  20.680  1.00  0.00    -0.399 OA
ATOM     23  H2  UNL     1       8.989  12.804  21.113  1.00  0.00     0.209 HD
ENDBRANCH  21  22
ENDBRANCH   6  21
ENDBRANCH   2   3
BRANCH   2  24
HETATM   24  C14 UNL     1       4.874   7.170  21.230  1.00  0.00     0.120 A 
HETATM   25  C15 UNL     1       3.851   6.918  22.334  1.00  0.00     0.153 A 
HETATM   26  N5  UNL     1       4.004   5.513  22.131  1.00  0.00    -0.343 N 
HETATM   27  C16 UNL     1       3.779   4.133  22.370  1.00  0.00     0.224 C 
HETATM   28  C28 UNL     1       4.919   5.730  20.977  1.00  0.00     0.111 A 
HETATM   29  O4  UNL     1       3.683   3.730  23.581  1.00  0.00    -0.273 OA
HETATM   30  C17 UNL     1       3.647   3.142  21.291  1.00  0.00     0.078 C 
HETATM   31  C26 UNL     1       3.895   3.716  19.922  1.00  0.00     0.016 C 
HETATM   32  C27 UNL     1       4.058   5.211  19.833  1.00  0.00     0.028 C 
BRANCH  30  33
HETATM   33  C18 UNL     1       4.619   1.958  21.463  1.00  0.00     0.014 C 
BRANCH  33  34
HETATM   34  C19 UNL     1       5.377   1.833  20.127  1.00  0.00     0.001 C 
BRANCH  34  35
HETATM   35  C20 UNL     1       6.845   1.895  20.322  1.00  0.00     0.000 C 
BRANCH  35  36
HETATM   36  C21 UNL     1       7.609   2.878  19.504  1.00  0.00     0.000 C 
BRANCH  36  37
HETATM   37  C22 UNL     1       8.544   2.306  18.516  1.00  0.00     0.000 C 
BRANCH  37  38
HETATM   38  C23 UNL     1       8.811   0.851  18.488  1.00  0.00     0.007 C 
BRANCH  38  39
HETATM   39  C24 UNL     1      10.031   0.536  17.592  1.00  0.00     0.072 C 
BRANCH  39  40
HETATM   40  C25 UNL     1       9.635  -0.403  16.532  1.00  0.00     0.086 C 
HETATM   41  N6  UNL     1       8.634  -0.118  15.775  1.00  0.00    -0.391 N 
ATOM     42  H62 UNL     1       8.148   0.758  15.967  1.00  0.00     0.157 HD
ATOM     43  H61 UNL     1       8.359  -0.769  15.039  1.00  0.00     0.157 HD
HETATM   44  N7  UNL     1      10.321  -1.640  16.261  1.00  0.00    -0.088 NA
ENDBRANCH  39  40
ENDBRANCH  38  39
ENDBRANCH  37  38
ENDBRANCH  36  37
ENDBRANCH  35  36
ENDBRANCH  34  35
ENDBRANCH  33  34
ENDBRANCH  30  33
ENDBRANCH   2  24
TORSDOF 16
ENDMDL
MODEL 3
REMARK VINA RESULT: -7.901532750      1.999      2.384
REMARK  16 active torsions:
REMARK  status: ('A' for Active; 'I' for Inactive)
REMARK    1  A    between atoms: N1_2  and  C2_3 
REMARK    2  A    between atoms: N1_2  and  C14_24 
REMARK    3  A    between atoms: C4_5  and  C5_6 
REMARK       I    between atoms: C5_6  and  N2_8 
REMARK    4  A    between atoms: N2_8  and  C6_10 
REMARK    5  A    between atoms: C6_10  and  C7_11 
REMARK    6  A    between atoms: C7_11  and  N3_12 
REMARK    7  A    between atoms: C11_16  and  C12_17 
REMARK    8  A    between atoms: C12_17  and  O2_18 
REMARK    9  A    between atoms: C17_29  and  C18_30 
REMARK   10  A    between atoms: C18_30  and  C19_31 
REMARK   11  A    between atoms: C19_31  and  C20_32 
REMARK   12  A    between atoms: C20_32  and  C21_33 
REMARK   13  A    between atoms: C21_33  and  C22_34 
REMARK   14  A    between atoms: C22_34  and  C23_35 
REMARK   15  A    between atoms: C23_35  and  C24_36 
REMARK   16  A    between atoms: C24_36  and  C25_37 
ROOT
HETATM    1  C1  UNL     1       5.821   6.955  21.912  1.00  0.00     0.144 C 
HETATM    2  N1  UNL     1       5.568   7.087  20.522  1.00  0.00    -0.396 N 
ENDROOT
BRANCH   2   3
HETATM    3  C2  UNL     1       6.600   7.668  19.744  1.00  0.00     0.172 C 
HETATM    4  C3  UNL     1       5.940   8.619  18.753  1.00  0.00     0.050 C 
HETATM    5  C4  UNL     1       6.975   9.718  18.467  1.00  0.00     0.105 C 
HETATM    6  C11 UNL     1       6.913  10.594  19.729  1.00  0.00     0.121 C 
HETATM    7  N4  UNL     1       7.436   9.773  20.795  1.00  0.00    -0.352 N 
HETATM    8  C13 UNL     1       7.621   8.389  20.556  1.00  0.00     0.240 C 
ATOM      9  H4  UNL     1       7.666  10.181  21.701  1.00  0.00     0.163 HD
HETATM   10  O3  UNL     1       8.641   7.787  21.032  1.00  0.00    -0.271 OA
BRANCH   5  11
HETATM   11  C5  UNL     1       6.631  10.434  17.242  1.00  0.00     0.224 C 
HETATM   12  O1  UNL     1       5.609  11.209  17.328  1.00  0.00    -0.273 OA
HETATM   13  N2  UNL     1       7.310  10.355  16.018  1.00  0.00    -0.359 N 
ATOM     14  H2  UNL     1       8.118   9.740  15.930  1.00  0.00     0.162 HD
BRANCH  13  15
HETATM   15  C6  UNL     1       6.881  11.133  14.883  1.00  0.00     0.150 C 
BRANCH  15  16
HETATM   16  C7  UNL     1       5.994  10.427  13.925  1.00  0.00     0.255 C 
BRANCH  16  17
HETATM   17  N3  UNL     1       6.641   9.725  12.860  1.00  0.00    -0.077 N 
HETATM   18  C8  UNL     1       8.060   9.854  12.798  1.00  0.00     0.271 C 
HETATM   19  C9  UNL     1       6.076  10.277  11.615  1.00  0.00     0.271 C 
HETATM   20  C10 UNL     1       6.299   8.312  12.838  1.00  0.00     0.271 C 
ENDBRANCH  16  17
ENDBRANCH  15  16
ENDBRANCH  13  15
ENDBRANCH   5  11
BRANCH   6  21
HETATM   21  C12 UNL     1       7.629  11.890  19.574  1.00  0.00     0.190 C 
BRANCH  21  22
HETATM   22  O2  UNL     1       7.984  12.360  20.858  1.00  0.00    -0.399 OA
ATOM     23  H2  UNL     1       8.916  12.219  20.982  1.00  0.00     0.209 HD
ENDBRANCH  21  22
ENDBRANCH   6  21
ENDBRANCH   2   3
BRANCH   2  24
HETATM   24  C14 UNL     1       4.927   5.951  19.934  1.00  0.00     0.120 A 
HETATM   25  C15 UNL     1       4.243   5.061  20.968  1.00  0.00     0.153 A 
HETATM   26  N5  UNL     1       5.093   3.982  20.576  1.00  0.00    -0.343 N 
HETATM   27  C16 UNL     1       5.631   2.671  20.616  1.00  0.00     0.224 C 
HETATM   28  C28 UNL     1       5.700   4.794  19.486  1.00  0.00     0.111 A 
HETATM   29  O4  UNL     1       5.821   2.122  21.757  1.00  0.00    -0.273 OA
HETATM   30  C17 UNL     1       5.977   1.907  19.408  1.00  0.00     0.078 C 
HETATM   31  C26 UNL     1       5.819   2.699  18.138  1.00  0.00     0.016 C 
HETATM   32  C27 UNL     1       5.177   4.056  18.260  1.00  0.00     0.028 C 
BRANCH  30  33
HETATM   33  C18 UNL     1       7.430   1.393  19.438  1.00  0.00     0.014 C 
BRANCH  33  34
HETATM   34  C19 UNL     1       8.291   2.519  18.830  1.00  0.00     0.001 C 
BRANCH  34  35
HETATM   35  C20 UNL     1       9.498   1.982  18.157  1.00  0.00     0.000 C 
BRANCH  35  36
HETATM   36  C21 UNL     1       9.586   0.506  17.975  1.00  0.00     0.000 C 
BRANCH  36  37
HETATM   37  C22 UNL     1       9.242   0.001  16.631  1.00  0.00     0.000 C 
BRANCH  37  38
HETATM   38  C23 UNL     1       8.288   0.735  15.773  1.00  0.00     0.007 C 
BRANCH  38  39
HETATM   39  C24 UNL     1       6.896   0.063  15.801  1.00  0.00     0.072 C 
BRANCH  39  40
HETATM   40  C25 UNL     1       5.989   0.767  14.882  1.00  0.00     0.086 C 
HETATM   41  N6  UNL     1       6.469   1.346  13.838  1.00  0.00    -0.391 N 
ATOM     42  H62 UNL     1       7.480   1.297  13.710  1.00  0.00     0.157 HD
ATOM     43  H61 UNL     1       5.840   1.834  13.200  1.00  0.00     0.157 HD
HETATM   44  N7  UNL     1       4.562   0.835  15.063  1.00  0.00    -0.088 NA
ENDBRANCH  39  40
ENDBRANCH  38  39
ENDBRANCH  37  38
ENDBRANCH  36  37
ENDBRANCH  35  36
ENDBRANCH  34  35
ENDBRANCH  33  34
ENDBRANCH  30  33
ENDBRANCH   2  24
TORSDOF 16
ENDMDL
MODEL 4
REMARK VINA RESULT: -7.875900383      4.783      6.926
REMARK  16 active torsions:
REMARK  status: ('A' for Active; 'I' for Inactive)
REMARK    1  A    between atoms: N1_2  and  C2_3 
REMARK    2  A    between atoms: N1_2  and  C14_24 
REMARK    3  A    between atoms: C4_5  and  C5_6 
REMARK       I    between atoms: C5_6  and  N2_8 
REMARK    4  A    between atoms: N2_8  and  C6_10 
REMARK    5  A    between atoms: C6_10  and  C7_11 
REMARK    6  A    between atoms: C7_11  and  N3_12 
REMARK    7  A    between atoms: C11_16  and  C12_17 
REMARK    8  A    between atoms: C12_17  and  O2_18 
REMARK    9  A    between atoms: C17_29  and  C18_30 
REMARK   10  A    between atoms: C18_30  and  C19_31 
REMARK   11  A    between atoms: C19_31  and  C20_32 
REMARK   12  A    between atoms: C20_32  and  C21_33 
REMARK   13  A    between atoms: C21_33  and  C22_34 
REMARK   14  A    between atoms: C22_34  and  C23_35 
REMARK   15  A    between atoms: C23_35  and  C24_36 
REMARK   16  A    between atoms: C24_36  and  C25_37 
ROOT
HETATM    1  C1  UNL     1       0.796   3.013  21.418  1.00  0.00     0.144 C 
HETATM    2  N1  UNL     1       2.199   3.211  21.330  1.00  0.00    -0.396 N 
ENDROOT
BRANCH   2   3
HETATM    3  C2  UNL     1       2.860   3.591  22.525  1.00  0.00     0.172 C 
HETATM    4  C3  UNL     1       3.427   4.988  22.304  1.00  0.00     0.050 C 
HETATM    5  C4  UNL     1       3.461   5.654  23.688  1.00  0.00     0.105 C 
HETATM    6  C11 UNL     1       1.989   6.021  23.936  1.00  0.00     0.121 C 
HETATM    7  N4  UNL     1       1.296   4.764  24.078  1.00  0.00    -0.352 N 
HETATM    8  C13 UNL     1       1.975   3.572  23.724  1.00  0.00     0.240 C 
ATOM      9  H4  UNL     1       0.337   4.734  24.425  1.00  0.00     0.163 HD
HETATM   10  O3  UNL     1       1.823   2.515  24.423  1.00  0.00    -0.271 OA
BRANCH   5  11
HETATM   11  C5  UNL     1       4.356   6.809  23.675  1.00  0.00     0.224 C 
HETATM   12  O1  UNL     1       4.062   7.721  22.817  1.00  0.00    -0.273 OA
HETATM   13  N2  UNL     1       5.470   7.001  24.503  1.00  0.00    -0.359 N 
ATOM     14  H2  UNL     1       5.722   6.284  25.182  1.00  0.00     0.162 HD
BRANCH  13  15
HETATM   15  C6  UNL     1       6.266   8.199  24.405  1.00  0.00     0.150 C 
BRANCH  15  16
HETATM   16  C7  UNL     1       7.685   7.994  24.024  1.00  0.00     0.255 C 
BRANCH  16  17
HETATM   17  N3  UNL     1       8.026   8.289  22.666  1.00  0.00    -0.077 N 
HETATM   18  C8  UNL     1       9.332   8.821  22.452  1.00  0.00     0.271 C 
HETATM   19  C9  UNL     1       7.043   9.290  22.215  1.00  0.00     0.271 C 
HETATM   20  C10 UNL     1       7.837   7.148  21.786  1.00  0.00     0.271 C 
ENDBRANCH  16  17
ENDBRANCH  15  16
ENDBRANCH  13  15
ENDBRANCH   5  11
BRANCH   6  21
HETATM   21  C12 UNL     1       1.804   6.935  25.098  1.00  0.00     0.190 C 
BRANCH  21  22
HETATM   22  O2  UNL     1       0.595   6.594  25.744  1.00  0.00    -0.399 OA
ATOM     23  H2  UNL     1       0.331   7.325  26.292  1.00  0.00     0.209 HD
ENDBRANCH  21  22
ENDBRANCH   6  21
ENDBRANCH   2   3
BRANCH   2  24
HETATM   24  C14 UNL     1       2.880   2.229  20.543  1.00  0.00     0.120 A 
HETATM   25  C15 UNL     1       3.684   1.248  21.391  1.00  0.00     0.153 A 
HETATM   26  N5  UNL     1       4.873   1.677  20.728  1.00  0.00    -0.343 N 
HETATM   27  C16 UNL     1       6.264   1.720  20.451  1.00  0.00     0.224 C 
HETATM   28  C28 UNL     1       4.102   2.560  19.811  1.00  0.00     0.111 A 
HETATM   29  O4  UNL     1       7.084   1.674  21.432  1.00  0.00    -0.273 OA
HETATM   30  C17 UNL     1       6.809   1.810  19.088  1.00  0.00     0.078 C 
HETATM   31  C26 UNL     1       5.749   1.975  18.033  1.00  0.00     0.016 C 
HETATM   32  C27 UNL     1       4.317   1.846  18.483  1.00  0.00     0.028 C 
BRANCH  30  33
HETATM   33  C18 UNL     1       7.789   2.990  18.927  1.00  0.00     0.014 C 
BRANCH  33  34
HETATM   34  C19 UNL     1       9.115   2.376  18.438  1.00  0.00     0.001 C 
BRANCH  34  35
HETATM   35  C20 UNL     1       9.072   0.894  18.457  1.00  0.00     0.000 C 
BRANCH  35  36
HETATM   36  C21 UNL     1       9.854   0.169  17.417  1.00  0.00     0.000 C 
BRANCH  36  37
HETATM   37  C22 UNL     1       9.099  -0.256  16.222  1.00  0.00     0.000 C 
BRANCH  37  38
HETATM   38  C23 UNL     1       8.019   0.594  15.674  1.00  0.00     0.007 C 
BRANCH  38  39
HETATM   39  C24 UNL     1       6.722  -0.226  15.480  1.00  0.00     0.072 C 
BRANCH  39  40
HETATM   40  C25 UNL     1       5.805   0.505  14.593  1.00  0.00     0.086 C 
HETATM   41  N6  UNL     1       6.279   1.162  13.594  1.00  0.00    -0.391 N 
ATOM     42  H62 UNL     1       7.292   1.153  13.477  1.00  0.00     0.157 HD
ATOM     43  H61 UNL     1       5.643   1.669  12.978  1.00  0.00     0.157 HD
HETATM   44  N7  UNL     1       4.374   0.518  14.757  1.00  0.00    -0.088 NA
ENDBRANCH  39  40
ENDBRANCH  38  39
ENDBRANCH  37  38
ENDBRANCH  36  37
ENDBRANCH  35  36
ENDBRANCH  34  35
ENDBRANCH  33  34
ENDBRANCH  30  33
ENDBRANCH   2  24
TORSDOF 16
ENDMDL
MODEL 5
REMARK VINA RESULT: -7.843922838      1.647      2.172
REMARK  16 active torsions:
REMARK  status: ('A' for Active; 'I' for Inactive)
REMARK    1  A    between atoms: N1_2  and  C2_3 
REMARK    2  A    between atoms: N1_2  and  C14_24 
REMARK    3  A    between atoms: C4_5  and  C5_6 
REMARK       I    between atoms: C5_6  and  N2_8 
REMARK    4  A    between atoms: N2_8  and  C6_10 
REMARK    5  A    between atoms: C6_10  and  C7_11 
REMARK    6  A    between atoms: C7_11  and  N3_12 
REMARK    7  A    between atoms: C11_16  and  C12_17 
REMARK    8  A    between atoms: C12_17  and  O2_18 
REMARK    9  A    between atoms: C17_29  and  C18_30 
REMARK   10  A    between atoms: C18_30  and  C19_31 
REMARK   11  A    between atoms: C19_31  and  C20_32 
REMARK   12  A    between atoms: C20_32  and  C21_33 
REMARK   13  A    between atoms: C21_33  and  C22_34 
REMARK   14  A    between atoms: C22_34  and  C23_35 
REMARK   15  A    between atoms: C23_35  and  C24_36 
REMARK   16  A    between atoms: C24_36  and  C25_37 
ROOT
HETATM    1  C1  UNL     1       4.952   6.961  23.254  1.00  0.00     0.144 C 
HETATM    2  N1  UNL     1       4.484   6.673  21.946  1.00  0.00    -0.396 N 
ENDROOT
BRANCH   2   3
HETATM    3  C2  UNL     1       5.406   6.870  20.888  1.00  0.00     0.172 C 
HETATM    4  C3  UNL     1       5.003   8.153  20.169  1.00  0.00     0.050 C 
HETATM    5  C4  UNL     1       6.298   8.735  19.583  1.00  0.00     0.105 C 
HETATM    6  C11 UNL     1       6.995   9.346  20.810  1.00  0.00     0.121 C 
HETATM    7  N4  UNL     1       7.361   8.227  21.644  1.00  0.00    -0.352 N 
HETATM    8  C13 UNL     1       6.823   6.951  21.342  1.00  0.00     0.240 C 
ATOM      9  H4  UNL     1       7.993   8.352  22.435  1.00  0.00     0.163 HD
HETATM   10  O3  UNL     1       7.545   5.906  21.460  1.00  0.00    -0.271 OA
BRANCH   5  11
HETATM   11  C5  UNL     1       5.992   9.710  18.540  1.00  0.00     0.224 C 
HETATM   12  O1  UNL     1       5.154  10.626  18.874  1.00  0.00    -0.273 OA
HETATM   13  N2  UNL     1       6.528   9.733  17.245  1.00  0.00    -0.359 N 
ATOM     14  H2  UNL     1       7.188   9.010  16.961  1.00  0.00     0.162 HD
BRANCH  13  15
HETATM   15  C6  UNL     1       6.158  10.766  16.310  1.00  0.00     0.150 C 
BRANCH  15  16
HETATM   16  C7  UNL     1       7.102  10.975  15.184  1.00  0.00     0.255 C 
BRANCH  16  17
HETATM   17  N3  UNL     1       6.642  10.578  13.889  1.00  0.00    -0.077 N 
HETATM   18  C8  UNL     1       5.720   9.491  13.860  1.00  0.00     0.271 C 
HETATM   19  C9  UNL     1       7.847  10.177  13.141  1.00  0.00     0.271 C 
HETATM   20  C10 UNL     1       6.080  11.688  13.136  1.00  0.00     0.271 C 
ENDBRANCH  16  17
ENDBRANCH  15  16
ENDBRANCH  13  15
ENDBRANCH   5  11
BRANCH   6  21
HETATM   21  C12 UNL     1       8.146  10.220  20.451  1.00  0.00     0.190 C 
BRANCH  21  22
HETATM   22  O2  UNL     1       9.303   9.415  20.355  1.00  0.00    -0.399 OA
ATOM     23  H2  UNL     1      10.002   9.939  19.981  1.00  0.00     0.209 HD
ENDBRANCH  21  22
ENDBRANCH   6  21
ENDBRANCH   2   3
BRANCH   2  24
HETATM   24  C14 UNL     1       3.699   5.481  21.856  1.00  0.00     0.120 A 
HETATM   25  C15 UNL     1       4.132   4.413  22.857  1.00  0.00     0.153 A 
HETATM   26  N5  UNL     1       4.426   3.537  21.768  1.00  0.00    -0.343 N 
HETATM   27  C16 UNL     1       4.877   2.347  21.143  1.00  0.00     0.224 C 
HETATM   28  C28 UNL     1       3.906   4.517  20.775  1.00  0.00     0.111 A 
HETATM   29  O4  UNL     1       5.918   1.767  21.610  1.00  0.00    -0.273 OA
HETATM   30  C17 UNL     1       4.201   1.742  19.985  1.00  0.00     0.078 C 
HETATM   31  C26 UNL     1       3.064   2.575  19.458  1.00  0.00     0.016 C 
HETATM   32  C27 UNL     1       2.672   3.780  20.272  1.00  0.00     0.028 C 
BRANCH  30  33
HETATM   33  C18 UNL     1       5.165   1.502  18.805  1.00  0.00     0.014 C 
BRANCH  33  34
HETATM   34  C19 UNL     1       5.078   2.763  17.923  1.00  0.00     0.001 C 
BRANCH  34  35
HETATM   35  C20 UNL     1       6.423   3.267  17.555  1.00  0.00     0.000 C 
BRANCH  35  36
HETATM   36  C21 UNL     1       7.360   3.602  18.664  1.00  0.00     0.000 C 
BRANCH  36  37
HETATM   37  C22 UNL     1       8.634   2.858  18.679  1.00  0.00     0.000 C 
BRANCH  37  38
HETATM   38  C23 UNL     1       8.645   1.384  18.557  1.00  0.00     0.007 C 
BRANCH  38  39
HETATM   39  C24 UNL     1       9.876   0.910  17.751  1.00  0.00     0.072 C 
BRANCH  39  40
HETATM   40  C25 UNL     1       9.432   0.171  16.560  1.00  0.00     0.086 C 
HETATM   41  N6  UNL     1       8.654   0.746  15.712  1.00  0.00    -0.391 N 
ATOM     42  H62 UNL     1       8.368   1.701  15.924  1.00  0.00     0.157 HD
ATOM     43  H61 UNL     1       8.345   0.233  14.885  1.00  0.00     0.157 HD
HETATM   44  N7  UNL     1       9.835  -1.179  16.259  1.00  0.00    -0.088 NA
ENDBRANCH  39  40
ENDBRANCH  38  39
ENDBRANCH  37  38
ENDBRANCH  36  37
ENDBRANCH  35  36
ENDBRANCH  34  35
ENDBRANCH  33  34
ENDBRANCH  30  33
ENDBRANCH   2  24
TORSDOF 16
ENDMDL
