MODEL 1
REMARK VINA RESULT: -7.445990375      0.000      0.000
REMARK  9 active torsions:
REMARK  status: ('A' for Active; 'I' for Inactive)
REMARK    1  A    between atoms: C2_2  and  C4_4 
REMARK    2  A    between atoms: C4_4  and  O1_5 
REMARK    3  A    between atoms: C4_4  and  C19_24 
REMARK    4  A    between atoms: O1_5  and  C5_6 
REMARK    5  A    between atoms: C8_10  and  C9_11 
REMARK    6  A    between atoms: C10_12  and  C11_13 
REMARK    7  A    between atoms: C11_13  and  O2_14 
REMARK    8  A    between atoms: C11_13  and  C12_16 
REMARK    9  A    between atoms: C13_17  and  C14_18 
ROOT
HETATM    1  C5  UNL     1      15.495 -24.240  35.055  1.00  0.00     0.113 A 
HETATM    2  C6  UNL     1      15.020 -25.289  34.275  1.00  0.00     0.070 A 
HETATM    3 CL1  UNL     1      14.157 -25.043  32.771  1.00  0.00    -0.081 Cl
HETATM    4  C7  UNL     1      15.148 -26.615  34.660  1.00  0.00     0.038 A 
HETATM    5  C8  UNL     1      15.752 -26.970  35.843  1.00  0.00    -0.033 A 
HETATM    6  C17 UNL     1      16.217 -25.934  36.611  1.00  0.00     0.038 A 
HETATM    7  C18 UNL     1      16.099 -24.589  36.240  1.00  0.00     0.070 A 
HETATM    8 CL2  UNL     1      16.748 -23.401  37.377  1.00  0.00    -0.081 Cl
ENDROOT
BRANCH   1   9
HETATM    9  O1  UNL     1      15.354 -22.938  34.627  1.00  0.00    -0.335 OA
BRANCH   9  10
HETATM   10  C4  UNL     1      16.312 -22.168  34.028  1.00  0.00     0.196 C 
BRANCH  10  11
HETATM   11  C2  UNL     1      16.428 -20.741  34.488  1.00  0.00     0.014 C 
HETATM   12  C1  UNL     1      15.464 -20.427  35.608  1.00  0.00     0.012 C 
HETATM   13  C3  UNL     1      17.787 -20.293  34.914  1.00  0.00     0.012 C 
ENDBRANCH  10  11
BRANCH  10  14
HETATM   14  C19 UNL     1      16.277 -22.149  32.509  1.00  0.00     0.116 C 
HETATM   15  N1  UNL     1      17.088 -22.887  31.844  1.00  0.00    -0.389 N 
ATOM     16  H12 UNL     1      17.740 -23.492  32.345  1.00  0.00     0.157 HD
ATOM     17  H11 UNL     1      17.064 -22.874  30.824  1.00  0.00     0.157 HD
HETATM   18  N2  UNL     1      15.365 -21.303  31.808  1.00  0.00    -0.085 NA
ENDBRANCH  10  14
ENDBRANCH   9  10
ENDBRANCH   1   9
BRANCH   5  19
HETATM   19  C9  UNL     1      15.880 -28.371  36.239  1.00  0.00     0.010 C 
HETATM   20  C10 UNL     1      15.519 -29.390  35.515  1.00  0.00     0.009 C 
BRANCH  20  21
HETATM   21  C11 UNL     1      15.693 -30.762  36.013  1.00  0.00     0.163 C 
BRANCH  21  22
HETATM   22  O2  UNL     1      15.647 -31.713  34.997  1.00  0.00    -0.388 OA
ATOM     23  H2  UNL     1      14.789 -32.112  34.905  1.00  0.00     0.210 HD
ENDBRANCH  21  22
BRANCH  21  24
HETATM   24  C12 UNL     1      16.915 -30.916  36.831  1.00  0.00     0.005 C 
HETATM   25  C13 UNL     1      17.793 -31.889  36.618  1.00  0.00    -0.023 C 
BRANCH  25  26
HETATM   26  C14 UNL     1      19.020 -32.054  37.428  1.00  0.00     0.008 A 
HETATM   27  C15 UNL     1      18.907 -33.045  38.569  1.00  0.00     0.009 A 
HETATM   28  C16 UNL     1      19.106 -31.560  38.820  1.00  0.00     0.009 A 
ENDBRANCH  25  26
ENDBRANCH  21  24
ENDBRANCH  20  21
ENDBRANCH   5  19
TORSDOF 9
ENDMDL
MODEL 2
REMARK VINA RESULT: -7.416135669      0.099      1.826
REMARK  9 active torsions:
REMARK  status: ('A' for Active; 'I' for Inactive)
REMARK    1  A    between atoms: C2_2  and  C4_4 
REMARK    2  A    between atoms: C4_4  and  O1_5 
REMARK    3  A    between atoms: C4_4  and  C19_24 
REMARK    4  A    between atoms: O1_5  and  C5_6 
REMARK    5  A    between atoms: C8_10  and  C9_11 
REMARK    6  A    between atoms: C10_12  and  C11_13 
REMARK    7  A    between atoms: C11_13  and  O2_14 
REMARK    8  A    between atoms: C11_13  and  C12_16 
REMARK    9  A    between atoms: C13_17  and  C14_18 
ROOT
HETATM    1  C5  UNL     1      15.425 -24.268  34.947  1.00  0.00     0.113 A 
HETATM    2  C6  UNL     1      16.000 -24.619  36.164  1.00  0.00     0.070 A 
HETATM    3 CL1  UNL     1      16.693 -23.446  37.265  1.00  0.00    -0.081 Cl
HETATM    4  C7  UNL     1      16.118 -25.939  36.573  1.00  0.00     0.038 A 
HETATM    5  C8  UNL     1      15.673 -26.981  35.794  1.00  0.00    -0.033 A 
HETATM    6  C17 UNL     1      15.109 -26.632  34.595  1.00  0.00     0.038 A 
HETATM    7  C18 UNL     1      14.980 -25.306  34.163  1.00  0.00     0.070 A 
HETATM    8 CL2  UNL     1      14.238 -25.065  32.576  1.00  0.00    -0.081 Cl
ENDROOT
BRANCH   1   9
HETATM    9  O1  UNL     1      15.321 -22.943  34.586  1.00  0.00    -0.335 OA
BRANCH   9  10
HETATM   10  C4  UNL     1      16.286 -22.182  33.987  1.00  0.00     0.196 C 
BRANCH  10  11
HETATM   11  C2  UNL     1      16.398 -20.748  34.426  1.00  0.00     0.014 C 
HETATM   12  C1  UNL     1      15.423 -20.417  35.532  1.00  0.00     0.012 C 
HETATM   13  C3  UNL     1      17.753 -20.293  34.858  1.00  0.00     0.012 C 
ENDBRANCH  10  11
BRANCH  10  14
HETATM   14  C19 UNL     1      16.270 -22.187  32.467  1.00  0.00     0.116 C 
HETATM   15  N1  UNL     1      17.163 -22.845  31.823  1.00  0.00    -0.389 N 
ATOM     16  H12 UNL     1      17.867 -23.372  32.341  1.00  0.00     0.157 HD
ATOM     17  H11 UNL     1      17.152 -22.848  30.803  1.00  0.00     0.157 HD
HETATM   18  N2  UNL     1      15.285 -21.450  31.743  1.00  0.00    -0.085 NA
ENDBRANCH  10  14
ENDBRANCH   9  10
ENDBRANCH   1   9
BRANCH   5  19
HETATM   19  C9  UNL     1      15.803 -28.368  36.236  1.00  0.00     0.010 C 
HETATM   20  C10 UNL     1      15.508 -29.413  35.518  1.00  0.00     0.009 C 
BRANCH  20  21
HETATM   21  C11 UNL     1      15.678 -30.768  36.063  1.00  0.00     0.163 C 
BRANCH  21  22
HETATM   22  O2  UNL     1      15.598 -31.755  35.085  1.00  0.00    -0.388 OA
ATOM     23  H2  UNL     1      14.848 -32.328  35.200  1.00  0.00     0.210 HD
ENDBRANCH  21  22
BRANCH  21  24
HETATM   24  C12 UNL     1      16.916 -30.906  36.860  1.00  0.00     0.005 C 
HETATM   25  C13 UNL     1      17.760 -31.917  36.689  1.00  0.00    -0.023 C 
BRANCH  25  26
HETATM   26  C14 UNL     1      19.002 -32.067  37.479  1.00  0.00     0.008 A 
HETATM   27  C15 UNL     1      18.933 -33.089  38.596  1.00  0.00     0.009 A 
HETATM   28  C16 UNL     1      19.093 -31.606  38.881  1.00  0.00     0.009 A 
ENDBRANCH  25  26
ENDBRANCH  21  24
ENDBRANCH  20  21
ENDBRANCH   5  19
TORSDOF 9
ENDMDL
MODEL 3
REMARK VINA RESULT: -7.337247623      1.934      2.677
REMARK  9 active torsions:
REMARK  status: ('A' for Active; 'I' for Inactive)
REMARK    1  A    between atoms: C2_2  and  C4_4 
REMARK    2  A    between atoms: C4_4  and  O1_5 
REMARK    3  A    between atoms: C4_4  and  C19_24 
REMARK    4  A    between atoms: O1_5  and  C5_6 
REMARK    5  A    between atoms: C8_10  and  C9_11 
REMARK    6  A    between atoms: C10_12  and  C11_13 
REMARK    7  A    between atoms: C11_13  and  O2_14 
REMARK    8  A    between atoms: C11_13  and  C12_16 
REMARK    9  A    between atoms: C13_17  and  C14_18 
ROOT
HETATM    1  C5  UNL     1      14.868 -24.161  34.538  1.00  0.00     0.113 A 
HETATM    2  C6  UNL     1      14.647 -24.073  35.909  1.00  0.00     0.070 A 
HETATM    3 CL1  UNL     1      13.968 -22.653  36.676  1.00  0.00    -0.081 Cl
HETATM    4  C7  UNL     1      15.003 -25.090  36.782  1.00  0.00     0.038 A 
HETATM    5  C8  UNL     1      15.599 -26.249  36.341  1.00  0.00    -0.033 A 
HETATM    6  C17 UNL     1      15.817 -26.330  34.990  1.00  0.00     0.038 A 
HETATM    7  C18 UNL     1      15.466 -25.316  34.091  1.00  0.00     0.070 A 
HETATM    8 CL2  UNL     1      15.846 -25.607  32.389  1.00  0.00    -0.081 Cl
ENDROOT
BRANCH   1   9
HETATM    9  O1  UNL     1      14.490 -23.129  33.708  1.00  0.00    -0.335 OA
BRANCH   9  10
HETATM   10  C4  UNL     1      15.311 -22.383  32.908  1.00  0.00     0.196 C 
BRANCH  10  11
HETATM   11  C2  UNL     1      15.779 -21.061  33.451  1.00  0.00     0.014 C 
HETATM   12  C1  UNL     1      14.687 -20.342  34.208  1.00  0.00     0.012 C 
HETATM   13  C3  UNL     1      16.993 -21.096  34.319  1.00  0.00     0.012 C 
ENDBRANCH  10  11
BRANCH  10  14
HETATM   14  C19 UNL     1      14.797 -22.133  31.500  1.00  0.00     0.116 C 
HETATM   15  N1  UNL     1      14.004 -22.981  30.951  1.00  0.00    -0.389 N 
ATOM     16  H12 UNL     1      13.716 -23.808  31.475  1.00  0.00     0.157 HD
ATOM     17  H11 UNL     1      13.659 -22.812  30.006  1.00  0.00     0.157 HD
HETATM   18  N2  UNL     1      15.200 -20.977  30.767  1.00  0.00    -0.085 NA
ENDBRANCH  10  14
ENDBRANCH   9  10
ENDBRANCH   1   9
BRANCH   5  19
HETATM   19  C9  UNL     1      15.969 -27.313  37.270  1.00  0.00     0.010 C 
HETATM   20  C10 UNL     1      16.956 -27.258  38.117  1.00  0.00     0.009 C 
BRANCH  20  21
HETATM   21  C11 UNL     1      17.243 -28.391  39.009  1.00  0.00     0.163 C 
BRANCH  21  22
HETATM   22  O2  UNL     1      16.115 -28.835  39.694  1.00  0.00    -0.388 OA
ATOM     23  H2  UNL     1      15.998 -28.401  40.531  1.00  0.00     0.210 HD
ENDBRANCH  21  22
BRANCH  21  24
HETATM   24  C12 UNL     1      17.914 -29.507  38.308  1.00  0.00     0.005 C 
HETATM   25  C13 UNL     1      18.606 -30.437  38.955  1.00  0.00    -0.023 C 
BRANCH  25  26
HETATM   26  C14 UNL     1      19.282 -31.558  38.267  1.00  0.00     0.008 A 
HETATM   27  C15 UNL     1      18.422 -32.316  37.276  1.00  0.00     0.009 A 
HETATM   28  C16 UNL     1      18.933 -32.968  38.549  1.00  0.00     0.009 A 
ENDBRANCH  25  26
ENDBRANCH  21  24
ENDBRANCH  20  21
ENDBRANCH   5  19
TORSDOF 9
ENDMDL
MODEL 4
REMARK VINA RESULT: -7.236455795      1.575      1.813
REMARK  9 active torsions:
REMARK  status: ('A' for Active; 'I' for Inactive)
REMARK    1  A    between atoms: C2_2  and  C4_4 
REMARK    2  A    between atoms: C4_4  and  O1_5 
REMARK    3  A    between atoms: C4_4  and  C19_24 
REMARK    4  A    between atoms: O1_5  and  C5_6 
REMARK    5  A    between atoms: C8_10  and  C9_11 
REMARK    6  A    between atoms: C10_12  and  C11_13 
REMARK    7  A    between atoms: C11_13  and  O2_14 
REMARK    8  A    between atoms: C11_13  and  C12_16 
REMARK    9  A    between atoms: C13_17  and  C14_18 
ROOT
HETATM    1  C5  UNL     1      15.309 -24.109  35.151  1.00  0.00     0.113 A 
HETATM    2  C6  UNL     1      16.099 -25.030  34.472  1.00  0.00     0.070 A 
HETATM    3 CL1  UNL     1      16.971 -24.638  33.004  1.00  0.00    -0.081 Cl
HETATM    4  C7  UNL     1      16.212 -26.351  34.878  1.00  0.00     0.038 A 
HETATM    5  C8  UNL     1      15.542 -26.829  35.980  1.00  0.00    -0.033 A 
HETATM    6  C17 UNL     1      14.762 -25.919  36.646  1.00  0.00     0.038 A 
HETATM    7  C18 UNL     1      14.635 -24.581  36.253  1.00  0.00     0.070 A 
HETATM    8 CL2  UNL     1      13.567 -23.571  37.236  1.00  0.00    -0.081 Cl
ENDROOT
BRANCH   1   9
HETATM    9  O1  UNL     1      15.234 -22.804  34.716  1.00  0.00    -0.335 OA
BRANCH   9  10
HETATM   10  C4  UNL     1      15.110 -22.382  33.421  1.00  0.00     0.196 C 
BRANCH  10  11
HETATM   11  C2  UNL     1      15.890 -21.159  33.022  1.00  0.00     0.014 C 
HETATM   12  C1  UNL     1      17.211 -21.068  33.752  1.00  0.00     0.012 C 
HETATM   13  C3  UNL     1      16.160 -20.995  31.563  1.00  0.00     0.012 C 
ENDBRANCH  10  11
BRANCH  10  14
HETATM   14  C19 UNL     1      13.684 -22.183  32.934  1.00  0.00     0.116 C 
HETATM   15  N1  UNL     1      13.171 -23.020  32.108  1.00  0.00    -0.389 N 
ATOM     16  H12 UNL     1      13.723 -23.820  31.799  1.00  0.00     0.157 HD
ATOM     17  H11 UNL     1      12.214 -22.886  31.782  1.00  0.00     0.157 HD
HETATM   18  N2  UNL     1      12.912 -21.064  33.367  1.00  0.00    -0.085 NA
ENDBRANCH  10  14
ENDBRANCH   9  10
ENDBRANCH   1   9
BRANCH   5  19
HETATM   19  C9  UNL     1      15.668 -28.223  36.399  1.00  0.00     0.010 C 
HETATM   20  C10 UNL     1      15.497 -29.255  35.625  1.00  0.00     0.009 C 
BRANCH  20  21
HETATM   21  C11 UNL     1      15.647 -30.619  36.151  1.00  0.00     0.163 C 
BRANCH  21  22
HETATM   22  O2  UNL     1      15.494 -31.595  35.171  1.00  0.00    -0.388 OA
ATOM     23  H2  UNL     1      14.937 -32.313  35.450  1.00  0.00     0.210 HD
ENDBRANCH  21  22
BRANCH  21  24
HETATM   24  C12 UNL     1      16.915 -30.803  36.892  1.00  0.00     0.005 C 
HETATM   25  C13 UNL     1      17.713 -31.844  36.684  1.00  0.00    -0.023 C 
BRANCH  25  26
HETATM   26  C14 UNL     1      18.983 -32.039  37.416  1.00  0.00     0.008 A 
HETATM   27  C15 UNL     1      18.940 -33.091  38.507  1.00  0.00     0.009 A 
HETATM   28  C16 UNL     1      19.141 -31.619  38.826  1.00  0.00     0.009 A 
ENDBRANCH  25  26
ENDBRANCH  21  24
ENDBRANCH  20  21
ENDBRANCH   5  19
TORSDOF 9
ENDMDL
MODEL 5
REMARK VINA RESULT: -7.235286836      1.941      2.254
REMARK  9 active torsions:
REMARK  status: ('A' for Active; 'I' for Inactive)
REMARK    1  A    between atoms: C2_2  and  C4_4 
REMARK    2  A    between atoms: C4_4  and  O1_5 
REMARK    3  A    between atoms: C4_4  and  C19_24 
REMARK    4  A    between atoms: O1_5  and  C5_6 
REMARK    5  A    between atoms: C8_10  and  C9_11 
REMARK    6  A    between atoms: C10_12  and  C11_13 
REMARK    7  A    between atoms: C11_13  and  O2_14 
REMARK    8  A    between atoms: C11_13  and  C12_16 
REMARK    9  A    between atoms: C13_17  and  C14_18 
ROOT
HETATM    1  C5  UNL     1      14.778 -24.120  34.643  1.00  0.00     0.113 A 
HETATM    2  C6  UNL     1      15.369 -25.300  34.204  1.00  0.00     0.070 A 
HETATM    3 CL1  UNL     1      15.634 -25.659  32.510  1.00  0.00    -0.081 Cl
HETATM    4  C7  UNL     1      15.744 -26.309  35.077  1.00  0.00     0.038 A 
HETATM    5  C8  UNL     1      15.550 -26.202  36.434  1.00  0.00    -0.033 A 
HETATM    6  C17 UNL     1      14.964 -25.040  36.864  1.00  0.00     0.038 A 
HETATM    7  C18 UNL     1      14.579 -24.008  35.999  1.00  0.00     0.070 A 
HETATM    8 CL2  UNL     1      13.825 -22.594  36.749  1.00  0.00    -0.081 Cl
ENDROOT
BRANCH   1   9
HETATM    9  O1  UNL     1      14.430 -23.140  33.739  1.00  0.00    -0.335 OA
BRANCH   9  10
HETATM   10  C4  UNL     1      15.282 -22.417  32.952  1.00  0.00     0.196 C 
BRANCH  10  11
HETATM   11  C2  UNL     1      15.775 -21.106  33.501  1.00  0.00     0.014 C 
HETATM   12  C1  UNL     1      14.700 -20.376  34.273  1.00  0.00     0.012 C 
HETATM   13  C3  UNL     1      16.995 -21.167  34.360  1.00  0.00     0.012 C 
ENDBRANCH  10  11
BRANCH  10  14
HETATM   14  C19 UNL     1      14.796 -22.155  31.535  1.00  0.00     0.116 C 
HETATM   15  N1  UNL     1      14.013 -22.996  30.965  1.00  0.00    -0.389 N 
ATOM     16  H12 UNL     1      13.712 -23.826  31.477  1.00  0.00     0.157 HD
ATOM     17  H11 UNL     1      13.687 -22.820  30.014  1.00  0.00     0.157 HD
HETATM   18  N2  UNL     1      15.216 -20.994  30.820  1.00  0.00    -0.085 NA
ENDBRANCH  10  14
ENDBRANCH   9  10
ENDBRANCH   1   9
BRANCH   5  19
HETATM   19  C9  UNL     1      15.949 -27.273  37.345  1.00  0.00     0.010 C 
HETATM   20  C10 UNL     1      16.971 -27.230  38.148  1.00  0.00     0.009 C 
BRANCH  20  21
HETATM   21  C11 UNL     1      17.283 -28.369  39.025  1.00  0.00     0.163 C 
BRANCH  21  22
HETATM   22  O2  UNL     1      16.166 -28.850  39.701  1.00  0.00    -0.388 OA
ATOM     23  H2  UNL     1      16.312 -28.940  40.636  1.00  0.00     0.210 HD
ENDBRANCH  21  22
BRANCH  21  24
HETATM   24  C12 UNL     1      17.983 -29.459  38.309  1.00  0.00     0.005 C 
HETATM   25  C13 UNL     1      18.572 -30.462  38.948  1.00  0.00    -0.023 C 
BRANCH  25  26
HETATM   26  C14 UNL     1      19.274 -31.558  38.246  1.00  0.00     0.008 A 
HETATM   27  C15 UNL     1      18.429 -32.330  37.252  1.00  0.00     0.009 A 
HETATM   28  C16 UNL     1      18.966 -32.979  38.516  1.00  0.00     0.009 A 
ENDBRANCH  25  26
ENDBRANCH  21  24
ENDBRANCH  20  21
ENDBRANCH   5  19
TORSDOF 9
ENDMDL
