MODEL 1
REMARK VINA RESULT: -9.110392543      0.000      0.000
REMARK  8 active torsions:
REMARK  status: ('A' for Active; 'I' for Inactive)
REMARK    1  A    between atoms: C1_2  and  C2_4 
REMARK    2  A    between atoms: C5_7  and  C6_8 
REMARK    3  A    between atoms: C10_12  and  N1_13 
REMARK    4  A    between atoms: N1_13  and  C11_16 
REMARK    5  A    between atoms: C11_16  and  C12_17 
REMARK    6  A    between atoms: C12_17  and  O3_18 
REMARK    7  A    between atoms: C12_17  and  C13_20 
REMARK    8  A    between atoms: C13_20  and  C14_23 
ROOT
HETATM    1  C6  UNL     1      15.389 -26.632  41.509  1.00  0.00     0.020 C 
HETATM    2  C7  UNL     1      15.849 -25.263  41.227  1.00  0.00     0.009 C 
HETATM    3  C8  UNL     1      17.188 -25.124  40.590  1.00  0.00     0.003 C 
HETATM    4  C9  UNL     1      17.553 -26.193  39.623  1.00  0.00     0.033 C 
HETATM    5  C10 UNL     1      16.567 -27.294  39.457  1.00  0.00     0.186 C 
HETATM    6  C19 UNL     1      16.090 -27.748  40.798  1.00  0.00     0.042 C 
ENDROOT
BRANCH   5   7
HETATM    7  N1  UNL     1      15.511 -26.998  38.512  1.00  0.00    -0.068 N 
ATOM      8  H12 UNL     1      14.592 -27.045  38.952  1.00  0.00     0.277 HD
ATOM      9  H11 UNL     1      15.510 -26.012  38.251  1.00  0.00     0.277 HD
BRANCH   7  10
HETATM   10  C11 UNL     1      15.584 -27.850  37.352  1.00  0.00     0.270 C 
BRANCH  10  11
HETATM   11  C12 UNL     1      15.533 -29.317  37.718  1.00  0.00     0.216 C 
BRANCH  11  12
HETATM   12  O3  UNL     1      14.198 -29.679  37.748  1.00  0.00    -0.388 OA
ATOM     13  H3  UNL     1      13.696 -28.878  37.838  1.00  0.00     0.210 HD
ENDBRANCH  11  12
BRANCH  11  14
HETATM   14  C13 UNL     1      16.354 -30.121  36.724  1.00  0.00     0.274 C 
HETATM   15  F1  UNL     1      17.200 -29.171  36.102  1.00  0.00    -0.203 F 
HETATM   16  F2  UNL     1      15.618 -30.695  35.739  1.00  0.00    -0.203 F 
BRANCH  14  17
HETATM   17  C14 UNL     1      17.278 -31.042  37.440  1.00  0.00     0.061 C 
HETATM   18  C15 UNL     1      18.224 -30.237  38.336  1.00  0.00     0.011 C 
HETATM   19  C16 UNL     1      19.076 -31.392  38.877  1.00  0.00     0.001 C 
HETATM   20  C17 UNL     1      19.133 -32.413  37.730  1.00  0.00     0.001 C 
HETATM   21  C18 UNL     1      18.251 -31.805  36.616  1.00  0.00     0.011 C 
ENDBRANCH  14  17
ENDBRANCH  11  14
ENDBRANCH  10  11
ENDBRANCH   7  10
ENDBRANCH   5   7
BRANCH   1  22
HETATM   22  C5  UNL     1      15.436 -27.009  42.970  1.00  0.00    -0.054 A 
HETATM   23  C4  UNL     1      15.814 -26.099  43.938  1.00  0.00     0.008 A 
HETATM   24  C3  UNL     1      15.839 -26.439  45.268  1.00  0.00     0.019 A 
HETATM   25  C2  UNL     1      15.489 -27.697  45.695  1.00  0.00     0.040 A 
HETATM   26  C21 UNL     1      15.111 -28.612  44.735  1.00  0.00     0.019 A 
HETATM   27  C20 UNL     1      15.083 -28.274  43.380  1.00  0.00     0.008 A 
BRANCH  25  28
HETATM   28  C1  UNL     1      15.498 -28.069  47.120  1.00  0.00     0.209 C 
HETATM   29  O1  UNL     1      14.780 -27.443  47.937  1.00  0.00    -0.644 OA
HETATM   30  O2  UNL     1      16.285 -29.103  47.593  1.00  0.00    -0.644 OA
ENDBRANCH  25  28
ENDBRANCH   1  22
TORSDOF 8
ENDMDL
MODEL 2
REMARK VINA RESULT: -8.917577945      1.525      1.909
REMARK  8 active torsions:
REMARK  status: ('A' for Active; 'I' for Inactive)
REMARK    1  A    between atoms: C1_2  and  C2_4 
REMARK    2  A    between atoms: C5_7  and  C6_8 
REMARK    3  A    between atoms: C10_12  and  N1_13 
REMARK    4  A    between atoms: N1_13  and  C11_16 
REMARK    5  A    between atoms: C11_16  and  C12_17 
REMARK    6  A    between atoms: C12_17  and  O3_18 
REMARK    7  A    between atoms: C12_17  and  C13_20 
REMARK    8  A    between atoms: C13_20  and  C14_23 
ROOT
HETATM    1  C6  UNL     1      15.367 -27.765  42.422  1.00  0.00     0.020 C 
HETATM    2  C7  UNL     1      15.546 -26.346  42.768  1.00  0.00     0.009 C 
HETATM    3  C8  UNL     1      16.791 -25.690  42.283  1.00  0.00     0.003 C 
HETATM    4  C9  UNL     1      17.284 -26.149  40.957  1.00  0.00     0.033 C 
HETATM    5  C10 UNL     1      16.510 -27.243  40.311  1.00  0.00     0.186 C 
HETATM    6  C19 UNL     1      16.214 -28.310  41.314  1.00  0.00     0.042 C 
ENDROOT
BRANCH   5   7
HETATM    7  N1  UNL     1      15.358 -26.783  39.564  1.00  0.00    -0.068 N 
ATOM      8  H12 UNL     1      14.486 -27.023  40.038  1.00  0.00     0.277 HD
ATOM      9  H11 UNL     1      15.277 -25.767  39.591  1.00  0.00     0.277 HD
BRANCH   7  10
HETATM   10  C11 UNL     1      15.374 -27.275  38.210  1.00  0.00     0.270 C 
BRANCH  10  11
HETATM   11  C12 UNL     1      15.559 -28.775  38.149  1.00  0.00     0.216 C 
BRANCH  11  12
HETATM   12  O3  UNL     1      14.327 -29.321  37.835  1.00  0.00    -0.388 OA
ATOM     13  H3  UNL     1      14.326 -30.211  38.167  1.00  0.00     0.210 HD
ENDBRANCH  11  12
BRANCH  11  14
HETATM   14  C13 UNL     1      16.644 -29.116  37.142  1.00  0.00     0.274 C 
HETATM   15  F1  UNL     1      17.609 -28.090  37.289  1.00  0.00    -0.203 F 
HETATM   16  F2  UNL     1      16.227 -29.080  35.851  1.00  0.00    -0.203 F 
BRANCH  14  17
HETATM   17  C14 UNL     1      17.349 -30.363  37.543  1.00  0.00     0.061 C 
HETATM   18  C15 UNL     1      18.391 -30.048  38.620  1.00  0.00     0.011 C 
HETATM   19  C16 UNL     1      18.990 -31.450  38.786  1.00  0.00     0.001 C 
HETATM   20  C17 UNL     1      18.903 -32.087  37.390  1.00  0.00     0.001 C 
HETATM   21  C18 UNL     1      18.196 -31.025  36.517  1.00  0.00     0.011 C 
ENDBRANCH  14  17
ENDBRANCH  11  14
ENDBRANCH  10  11
ENDBRANCH   7  10
ENDBRANCH   5   7
BRANCH   1  22
HETATM   22  C5  UNL     1      15.579 -28.712  43.578  1.00  0.00    -0.054 A 
HETATM   23  C4  UNL     1      16.688 -28.617  44.395  1.00  0.00     0.008 A 
HETATM   24  C3  UNL     1      16.869 -29.469  45.457  1.00  0.00     0.019 A 
HETATM   25  C2  UNL     1      15.957 -30.452  45.754  1.00  0.00     0.040 A 
HETATM   26  C21 UNL     1      14.847 -30.554  44.942  1.00  0.00     0.019 A 
HETATM   27  C20 UNL     1      14.655 -29.692  43.860  1.00  0.00     0.008 A 
BRANCH  25  28
HETATM   28  C1  UNL     1      16.133 -31.362  46.899  1.00  0.00     0.209 C 
HETATM   29  O1  UNL     1      16.348 -30.896  48.043  1.00  0.00    -0.644 OA
HETATM   30  O2  UNL     1      16.068 -32.734  46.748  1.00  0.00    -0.644 OA
ENDBRANCH  25  28
ENDBRANCH   1  22
TORSDOF 8
ENDMDL
MODEL 3
REMARK VINA RESULT: -8.861298186      1.273      1.769
REMARK  8 active torsions:
REMARK  status: ('A' for Active; 'I' for Inactive)
REMARK    1  A    between atoms: C1_2  and  C2_4 
REMARK    2  A    between atoms: C5_7  and  C6_8 
REMARK    3  A    between atoms: C10_12  and  N1_13 
REMARK    4  A    between atoms: N1_13  and  C11_16 
REMARK    5  A    between atoms: C11_16  and  C12_17 
REMARK    6  A    between atoms: C12_17  and  O3_18 
REMARK    7  A    between atoms: C12_17  and  C13_20 
REMARK    8  A    between atoms: C13_20  and  C14_23 
ROOT
HETATM    1  C6  UNL     1      15.513 -27.250  42.988  1.00  0.00     0.020 C 
HETATM    2  C7  UNL     1      15.874 -25.853  42.698  1.00  0.00     0.009 C 
HETATM    3  C8  UNL     1      17.040 -25.634  41.799  1.00  0.00     0.003 C 
HETATM    4  C9  UNL     1      17.209 -26.635  40.712  1.00  0.00     0.033 C 
HETATM    5  C10 UNL     1      16.233 -27.757  40.694  1.00  0.00     0.186 C 
HETATM    6  C19 UNL     1      16.066 -28.300  42.076  1.00  0.00     0.042 C 
ENDROOT
BRANCH   5   7
HETATM    7  N1  UNL     1      14.991 -27.443  40.018  1.00  0.00    -0.068 N 
ATOM      8  H12 UNL     1      14.209 -27.967  40.411  1.00  0.00     0.277 HD
ATOM      9  H11 UNL     1      14.675 -26.499  40.238  1.00  0.00     0.277 HD
BRANCH   7  10
HETATM   10  C11 UNL     1      15.098 -27.645  38.595  1.00  0.00     0.270 C 
BRANCH  10  11
HETATM   11  C12 UNL     1      15.401 -29.085  38.244  1.00  0.00     0.216 C 
BRANCH  11  12
HETATM   12  O3  UNL     1      14.235 -29.631  37.738  1.00  0.00    -0.388 OA
ATOM     13  H3  UNL     1      14.479 -30.424  37.275  1.00  0.00     0.210 HD
ENDBRANCH  11  12
BRANCH  11  14
HETATM   14  C13 UNL     1      16.565 -29.139  37.269  1.00  0.00     0.274 C 
HETATM   15  F1  UNL     1      17.440 -28.110  37.693  1.00  0.00    -0.203 F 
HETATM   16  F2  UNL     1      16.222 -28.858  35.986  1.00  0.00    -0.203 F 
BRANCH  14  17
HETATM   17  C14 UNL     1      17.337 -30.397  37.454  1.00  0.00     0.061 C 
HETATM   18  C15 UNL     1      18.250 -30.272  38.677  1.00  0.00     0.011 C 
HETATM   19  C16 UNL     1      18.951 -31.633  38.589  1.00  0.00     0.001 C 
HETATM   20  C17 UNL     1      19.041 -31.936  37.085  1.00  0.00     0.001 C 
HETATM   21  C18 UNL     1      18.325 -30.750  36.400  1.00  0.00     0.011 C 
ENDBRANCH  14  17
ENDBRANCH  11  14
ENDBRANCH  10  11
ENDBRANCH   7  10
ENDBRANCH   5   7
BRANCH   1  22
HETATM   22  C5  UNL     1      15.883 -27.705  44.379  1.00  0.00    -0.054 A 
HETATM   23  C4  UNL     1      16.628 -28.849  44.590  1.00  0.00     0.008 A 
HETATM   24  C3  UNL     1      16.979 -29.250  45.855  1.00  0.00     0.019 A 
HETATM   25  C2  UNL     1      16.606 -28.534  46.966  1.00  0.00     0.040 A 
HETATM   26  C21 UNL     1      15.861 -27.391  46.764  1.00  0.00     0.019 A 
HETATM   27  C20 UNL     1      15.500 -26.976  45.480  1.00  0.00     0.008 A 
BRANCH  25  28
HETATM   28  C1  UNL     1      16.988 -28.948  48.327  1.00  0.00     0.209 C 
HETATM   29  O1  UNL     1      17.987 -28.432  48.882  1.00  0.00    -0.644 OA
HETATM   30  O2  UNL     1      16.266 -29.900  49.022  1.00  0.00    -0.644 OA
ENDBRANCH  25  28
ENDBRANCH   1  22
TORSDOF 8
ENDMDL
MODEL 4
REMARK VINA RESULT: -8.764017034      1.542      2.493
REMARK  8 active torsions:
REMARK  status: ('A' for Active; 'I' for Inactive)
REMARK    1  A    between atoms: C1_2  and  C2_4 
REMARK    2  A    between atoms: C5_7  and  C6_8 
REMARK    3  A    between atoms: C10_12  and  N1_13 
REMARK    4  A    between atoms: N1_13  and  C11_16 
REMARK    5  A    between atoms: C11_16  and  C12_17 
REMARK    6  A    between atoms: C12_17  and  O3_18 
REMARK    7  A    between atoms: C12_17  and  C13_20 
REMARK    8  A    between atoms: C13_20  and  C14_23 
ROOT
HETATM    1  C6  UNL     1      15.944 -27.744  41.326  1.00  0.00     0.020 C 
HETATM    2  C7  UNL     1      15.119 -26.783  40.577  1.00  0.00     0.009 C 
HETATM    3  C8  UNL     1      15.795 -25.543  40.106  1.00  0.00     0.003 C 
HETATM    4  C9  UNL     1      17.218 -25.701  39.702  1.00  0.00     0.033 C 
HETATM    5  C10 UNL     1      17.803 -27.058  39.874  1.00  0.00     0.186 C 
HETATM    6  C19 UNL     1      17.430 -27.600  41.215  1.00  0.00     0.042 C 
ENDROOT
BRANCH   5   7
HETATM    7  N1  UNL     1      17.538 -27.954  38.768  1.00  0.00    -0.068 N 
ATOM      8  H12 UNL     1      16.545 -28.180  38.700  1.00  0.00     0.277 HD
ATOM      9  H11 UNL     1      17.653 -27.484  37.870  1.00  0.00     0.277 HD
BRANCH   7  10
HETATM   10  C11 UNL     1      18.345 -29.145  38.847  1.00  0.00     0.270 C 
BRANCH  10  11
HETATM   11  C12 UNL     1      17.541 -30.399  38.582  1.00  0.00     0.216 C 
BRANCH  11  12
HETATM   12  O3  UNL     1      16.206 -30.052  38.687  1.00  0.00    -0.388 OA
ATOM     13  H3  UNL     1      15.878 -29.943  37.802  1.00  0.00     0.210 HD
ENDBRANCH  11  12
BRANCH  11  14
HETATM   14  C13 UNL     1      17.911 -30.966  37.222  1.00  0.00     0.274 C 
HETATM   15  F1  UNL     1      18.623 -32.157  37.509  1.00  0.00    -0.203 F 
HETATM   16  F2  UNL     1      18.747 -30.174  36.504  1.00  0.00    -0.203 F 
BRANCH  14  17
HETATM   17  C14 UNL     1      16.691 -31.416  36.499  1.00  0.00     0.061 C 
HETATM   18  C15 UNL     1      16.908 -32.824  35.939  1.00  0.00     0.011 C 
HETATM   19  C16 UNL     1      15.569 -32.998  35.212  1.00  0.00     0.001 C 
HETATM   20  C17 UNL     1      15.196 -31.588  34.726  1.00  0.00     0.001 C 
HETATM   21  C18 UNL     1      16.322 -30.676  35.264  1.00  0.00     0.011 C 
ENDBRANCH  14  17
ENDBRANCH  11  14
ENDBRANCH  10  11
ENDBRANCH   7  10
ENDBRANCH   5   7
BRANCH   1  22
HETATM   22  C5  UNL     1      15.664 -27.769  42.810  1.00  0.00    -0.054 A 
HETATM   23  C4  UNL     1      15.164 -28.897  43.431  1.00  0.00     0.008 A 
HETATM   24  C3  UNL     1      14.928 -28.923  44.783  1.00  0.00     0.019 A 
HETATM   25  C2  UNL     1      15.178 -27.831  45.578  1.00  0.00     0.040 A 
HETATM   26  C21 UNL     1      15.677 -26.700  44.965  1.00  0.00     0.019 A 
HETATM   27  C20 UNL     1      15.920 -26.666  43.590  1.00  0.00     0.008 A 
BRANCH  25  28
HETATM   28  C1  UNL     1      14.941 -27.852  47.032  1.00  0.00     0.209 C 
HETATM   29  O1  UNL     1      13.882 -27.373  47.502  1.00  0.00    -0.644 OA
HETATM   30  O2  UNL     1      15.865 -28.393  47.906  1.00  0.00    -0.644 OA
ENDBRANCH  25  28
ENDBRANCH   1  22
TORSDOF 8
ENDMDL
MODEL 5
REMARK VINA RESULT: -8.695565756      1.782      2.633
REMARK  8 active torsions:
REMARK  status: ('A' for Active; 'I' for Inactive)
REMARK    1  A    between atoms: C1_2  and  C2_4 
REMARK    2  A    between atoms: C5_7  and  C6_8 
REMARK    3  A    between atoms: C10_12  and  N1_13 
REMARK    4  A    between atoms: N1_13  and  C11_16 
REMARK    5  A    between atoms: C11_16  and  C12_17 
REMARK    6  A    between atoms: C12_17  and  O3_18 
REMARK    7  A    between atoms: C12_17  and  C13_20 
REMARK    8  A    between atoms: C13_20  and  C14_23 
ROOT
HETATM    1  C6  UNL     1      16.208 -28.182  42.120  1.00  0.00     0.020 C 
HETATM    2  C7  UNL     1      15.302 -27.042  41.913  1.00  0.00     0.009 C 
HETATM    3  C8  UNL     1      15.934 -25.701  41.771  1.00  0.00     0.003 C 
HETATM    4  C9  UNL     1      17.247 -25.680  41.074  1.00  0.00     0.033 C 
HETATM    5  C10 UNL     1      17.792 -27.001  40.660  1.00  0.00     0.186 C 
HETATM    6  C19 UNL     1      17.652 -27.977  41.782  1.00  0.00     0.042 C 
ENDROOT
BRANCH   5   7
HETATM    7  N1  UNL     1      17.284 -27.471  39.387  1.00  0.00    -0.068 N 
ATOM      8  H12 UNL     1      16.269 -27.568  39.403  1.00  0.00     0.277 HD
ATOM      9  H11 UNL     1      17.363 -26.754  38.666  1.00  0.00     0.277 HD
BRANCH   7  10
HETATM   10  C11 UNL     1      17.924 -28.698  38.983  1.00  0.00     0.270 C 
BRANCH  10  11
HETATM   11  C12 UNL     1      16.938 -29.699  38.424  1.00  0.00     0.216 C 
BRANCH  11  12
HETATM   12  O3  UNL     1      15.692 -29.360  38.921  1.00  0.00    -0.388 OA
ATOM     13  H3  UNL     1      15.064 -29.519  38.226  1.00  0.00     0.210 HD
ENDBRANCH  11  12
BRANCH  11  14
HETATM   14  C13 UNL     1      17.004 -29.689  36.906  1.00  0.00     0.274 C 
HETATM   15  F1  UNL     1      18.355 -29.987  36.601  1.00  0.00    -0.203 F 
HETATM   16  F2  UNL     1      16.735 -28.480  36.351  1.00  0.00    -0.203 F 
BRANCH  14  17
HETATM   17  C14 UNL     1      16.227 -30.828  36.346  1.00  0.00     0.061 C 
HETATM   18  C15 UNL     1      17.136 -32.050  36.187  1.00  0.00     0.011 C 
HETATM   19  C16 UNL     1      16.126 -33.013  35.550  1.00  0.00     0.001 C 
HETATM   20  C17 UNL     1      15.205 -32.120  34.705  1.00  0.00     0.001 C 
HETATM   21  C18 UNL     1      15.708 -30.681  34.961  1.00  0.00     0.011 C 
ENDBRANCH  14  17
ENDBRANCH  11  14
ENDBRANCH  10  11
ENDBRANCH   7  10
ENDBRANCH   5   7
BRANCH   1  22
HETATM   22  C5  UNL     1      16.209 -28.719  43.531  1.00  0.00    -0.054 A 
HETATM   23  C4  UNL     1      15.106 -29.358  44.061  1.00  0.00     0.008 A 
HETATM   24  C3  UNL     1      15.116 -29.861  45.338  1.00  0.00     0.019 A 
HETATM   25  C2  UNL     1      16.223 -29.753  46.145  1.00  0.00     0.040 A 
HETATM   26  C21 UNL     1      17.329 -29.115  45.623  1.00  0.00     0.019 A 
HETATM   27  C20 UNL     1      17.326 -28.600  44.325  1.00  0.00     0.008 A 
BRANCH  25  28
HETATM   28  C1  UNL     1      16.250 -30.301  47.512  1.00  0.00     0.209 C 
HETATM   29  O1  UNL     1      16.182 -31.540  47.692  1.00  0.00    -0.644 OA
HETATM   30  O2  UNL     1      16.353 -29.479  48.619  1.00  0.00    -0.644 OA
ENDBRANCH  25  28
ENDBRANCH   1  22
TORSDOF 8
ENDMDL
