MODEL 1
REMARK VINA RESULT: -8.969531094      0.000      0.000
REMARK  8 active torsions:
REMARK  status: ('A' for Active; 'I' for Inactive)
REMARK    1  A    between atoms: C4_4  and  C5_5 
REMARK    2  A    between atoms: C5_5  and  N1_6 
REMARK    3  A    between atoms: C5_5  and  C6_10 
REMARK    4  A    between atoms: C6_10  and  C7_11 
REMARK    5  A    between atoms: C8_13  and  N2_14 
REMARK       I    between atoms: N2_14  and  C9_16 
REMARK    6  A    between atoms: C9_16  and  C10_18 
REMARK    7  A    between atoms: C14_27  and  C15_28 
REMARK    8  A    between atoms: C16_29  and  C17_30 
ROOT
HETATM    1  C7  UNL     1      24.305 -27.686   1.824  1.00  0.00     0.015 A 
HETATM    2  S1  UNL     1      23.056 -28.866   1.532  1.00  0.00    -0.056 SA
HETATM    3  C8  UNL     1      23.219 -29.728   2.976  1.00  0.00     0.152 A 
HETATM    4  N4  UNL     1      24.193 -29.104   3.610  1.00  0.00    -0.336 N 
ATOM      5  H4  UNL     1      24.499 -29.426   4.528  1.00  0.00     0.168 HD
HETATM    6  C14 UNL     1      24.771 -28.049   3.042  1.00  0.00     0.047 A 
ENDROOT
BRANCH   1   7
HETATM    7  C6  UNL     1      24.668 -26.586   0.867  1.00  0.00     0.088 C 
BRANCH   7   8
HETATM    8  C5  UNL     1      25.766 -27.074  -0.071  1.00  0.00     0.247 C 
BRANCH   8   9
HETATM    9  C4  UNL     1      27.027 -27.274   0.677  1.00  0.00     0.109 A 
HETATM   10  C3  UNL     1      27.715 -26.385   1.474  1.00  0.00     0.063 A 
HETATM   11  C2  UNL     1      28.827 -27.036   1.946  1.00  0.00     0.031 A 
HETATM   12  C1  UNL     1      29.853 -26.439   2.850  1.00  0.00     0.070 C 
HETATM   13  N5  UNL     1      28.783 -28.267   1.434  1.00  0.00    -0.266 N 
HETATM   14  O3  UNL     1      27.709 -28.383   0.688  1.00  0.00    -0.240 OA
ATOM     15  H5  UNL     1      29.473 -29.001   1.596  1.00  0.00     0.194 HD
ENDBRANCH   8   9
BRANCH   8  16
HETATM   16  N1  UNL     1      25.978 -26.154  -1.163  1.00  0.00    -0.069 N 
ATOM     17  H13 UNL     1      26.888 -25.696  -1.104  1.00  0.00     0.275 HD
ATOM     18  H12 UNL     1      26.112 -26.639  -2.050  1.00  0.00     0.275 HD
ATOM     19  H11 UNL     1      25.214 -25.481  -1.207  1.00  0.00     0.275 HD
ENDBRANCH   8  16
ENDBRANCH   7   8
ENDBRANCH   1   7
BRANCH   6  20
HETATM   20  C15 UNL     1      25.871 -27.371   3.747  1.00  0.00     0.027 C 
HETATM   21  C16 UNL     1      25.898 -26.202   4.288  1.00  0.00    -0.017 C 
BRANCH  21  22
HETATM   22  C17 UNL     1      27.186 -25.716   4.976  1.00  0.00     0.042 C 
HETATM   23  C18 UNL     1      27.028 -25.946   6.478  1.00  0.00     0.011 C 
HETATM   24  C19 UNL     1      25.774 -25.330   6.982  1.00  0.00     0.001 C 
HETATM   25  C20 UNL     1      25.512 -23.940   6.542  1.00  0.00     0.003 C 
HETATM   26  C21 UNL     1      26.003 -23.597   5.174  1.00  0.00     0.038 C 
HETATM   27  C22 UNL     1      27.307 -24.217   4.808  1.00  0.00     0.177 C 
HETATM   28  F1  UNL     1      27.541 -23.959   3.468  1.00  0.00    -0.249 F 
ENDBRANCH  21  22
ENDBRANCH   6  20
BRANCH   3  29
HETATM   29  N2  UNL     1      22.540 -30.789   3.397  1.00  0.00    -0.302 N 
HETATM   30  C9  UNL     1      23.036 -32.090   3.269  1.00  0.00     0.276 C 
HETATM   31  O1  UNL     1      23.272 -32.551   2.119  1.00  0.00    -0.266 OA
ATOM     32  H2  UNL     1      21.626 -30.651   3.829  1.00  0.00     0.171 HD
BRANCH  30  33
HETATM   33  C10 UNL     1      23.277 -32.901   4.452  1.00  0.00     0.125 A 
HETATM   34  C11 UNL     1      24.364 -32.823   5.289  1.00  0.00     0.071 A 
HETATM   35  C12 UNL     1      24.173 -33.771   6.268  1.00  0.00     0.075 A 
HETATM   36  C13 UNL     1      25.129 -34.018   7.384  1.00  0.00     0.079 C 
HETATM   37  O2  UNL     1      23.039 -34.383   6.036  1.00  0.00    -0.242 OA
HETATM   38  N3  UNL     1      22.513 -33.873   4.969  1.00  0.00    -0.256 N 
ATOM     39  H3  UNL     1      21.623 -34.173   4.570  1.00  0.00     0.195 HD
ENDBRANCH  30  33
ENDBRANCH   3  29
TORSDOF 8
ENDMDL
MODEL 2
REMARK VINA RESULT: -8.928462901      3.625      7.510
REMARK  8 active torsions:
REMARK  status: ('A' for Active; 'I' for Inactive)
REMARK    1  A    between atoms: C4_4  and  C5_5 
REMARK    2  A    between atoms: C5_5  and  N1_6 
REMARK    3  A    between atoms: C5_5  and  C6_10 
REMARK    4  A    between atoms: C6_10  and  C7_11 
REMARK    5  A    between atoms: C8_13  and  N2_14 
REMARK       I    between atoms: N2_14  and  C9_16 
REMARK    6  A    between atoms: C9_16  and  C10_18 
REMARK    7  A    between atoms: C14_27  and  C15_28 
REMARK    8  A    between atoms: C16_29  and  C17_30 
ROOT
HETATM    1  C7  UNL     1      24.911 -29.032   3.151  1.00  0.00     0.015 A 
HETATM    2  S1  UNL     1      25.601 -27.470   3.495  1.00  0.00    -0.056 SA
HETATM    3  C8  UNL     1      25.730 -27.644   5.170  1.00  0.00     0.152 A 
HETATM    4  N4  UNL     1      25.254 -28.853   5.401  1.00  0.00    -0.336 N 
ATOM      5  H4  UNL     1      25.216 -29.218   6.353  1.00  0.00     0.168 HD
HETATM    6  C14 UNL     1      24.825 -29.591   4.381  1.00  0.00     0.047 A 
ENDROOT
BRANCH   1   7
HETATM    7  C6  UNL     1      24.550 -29.512   1.774  1.00  0.00     0.088 C 
BRANCH   7   8
HETATM    8  C5  UNL     1      25.818 -29.922   1.033  1.00  0.00     0.247 C 
BRANCH   8   9
HETATM    9  C4  UNL     1      26.269 -28.827   0.145  1.00  0.00     0.109 A 
HETATM   10  C3  UNL     1      25.768 -27.550   0.018  1.00  0.00     0.063 A 
HETATM   11  C2  UNL     1      26.520 -26.911  -0.937  1.00  0.00     0.031 A 
HETATM   12  C1  UNL     1      26.318 -25.502  -1.387  1.00  0.00     0.070 C 
HETATM   13  N5  UNL     1      27.429 -27.795  -1.349  1.00  0.00    -0.266 N 
HETATM   14  O3  UNL     1      27.259 -28.921  -0.694  1.00  0.00    -0.240 OA
ATOM     15  H5  UNL     1      28.141 -27.625  -2.060  1.00  0.00     0.194 HD
ENDBRANCH   8   9
BRANCH   8  16
HETATM   16  N1  UNL     1      25.618 -31.130   0.268  1.00  0.00    -0.069 N 
ATOM     17  H13 UNL     1      26.211 -31.158  -0.562  1.00  0.00     0.275 HD
ATOM     18  H12 UNL     1      25.991 -31.950   0.746  1.00  0.00     0.275 HD
ATOM     19  H11 UNL     1      24.631 -31.238   0.036  1.00  0.00     0.275 HD
ENDBRANCH   8  16
ENDBRANCH   7   8
ENDBRANCH   1   7
BRANCH   6  20
HETATM   20  C15 UNL     1      24.277 -30.930   4.650  1.00  0.00     0.027 C 
HETATM   21  C16 UNL     1      23.192 -31.471   4.218  1.00  0.00    -0.017 C 
BRANCH  21  22
HETATM   22  C17 UNL     1      22.837 -32.906   4.649  1.00  0.00     0.042 C 
HETATM   23  C18 UNL     1      24.017 -33.807   4.291  1.00  0.00     0.011 C 
HETATM   24  C19 UNL     1      24.390 -33.653   2.861  1.00  0.00     0.001 C 
HETATM   25  C20 UNL     1      23.271 -33.692   1.892  1.00  0.00     0.003 C 
HETATM   26  C21 UNL     1      21.979 -33.126   2.380  1.00  0.00     0.038 C 
HETATM   27  C22 UNL     1      21.679 -33.407   3.812  1.00  0.00     0.177 C 
HETATM   28  F1  UNL     1      20.556 -32.677   4.164  1.00  0.00    -0.249 F 
ENDBRANCH  21  22
ENDBRANCH   6  20
BRANCH   3  29
HETATM   29  N2  UNL     1      26.195 -26.781   6.068  1.00  0.00    -0.302 N 
HETATM   30  C9  UNL     1      26.724 -25.539   5.703  1.00  0.00     0.276 C 
HETATM   31  O1  UNL     1      27.742 -25.495   4.960  1.00  0.00    -0.266 OA
ATOM     32  H2  UNL     1      26.166 -27.033   7.056  1.00  0.00     0.171 HD
BRANCH  30  33
HETATM   33  C10 UNL     1      26.104 -24.313   6.179  1.00  0.00     0.125 A 
HETATM   34  C11 UNL     1      25.344 -24.167   7.314  1.00  0.00     0.071 A 
HETATM   35  C12 UNL     1      24.968 -22.844   7.367  1.00  0.00     0.075 A 
HETATM   36  C13 UNL     1      24.128 -22.262   8.452  1.00  0.00     0.079 C 
HETATM   37  O2  UNL     1      25.470 -22.230   6.326  1.00  0.00    -0.242 OA
HETATM   38  N3  UNL     1      26.138 -23.092   5.627  1.00  0.00    -0.256 N 
ATOM     39  H3  UNL     1      26.630 -22.869   4.762  1.00  0.00     0.195 HD
ENDBRANCH  30  33
ENDBRANCH   3  29
TORSDOF 8
ENDMDL
MODEL 3
REMARK VINA RESULT: -8.925561688      5.284      7.743
REMARK  8 active torsions:
REMARK  status: ('A' for Active; 'I' for Inactive)
REMARK    1  A    between atoms: C4_4  and  C5_5 
REMARK    2  A    between atoms: C5_5  and  N1_6 
REMARK    3  A    between atoms: C5_5  and  C6_10 
REMARK    4  A    between atoms: C6_10  and  C7_11 
REMARK    5  A    between atoms: C8_13  and  N2_14 
REMARK       I    between atoms: N2_14  and  C9_16 
REMARK    6  A    between atoms: C9_16  and  C10_18 
REMARK    7  A    between atoms: C14_27  and  C15_28 
REMARK    8  A    between atoms: C16_29  and  C17_30 
ROOT
HETATM    1  C7  UNL     1      27.337 -25.595   5.392  1.00  0.00     0.015 A 
HETATM    2  S1  UNL     1      25.979 -24.578   5.793  1.00  0.00    -0.056 SA
HETATM    3  C8  UNL     1      26.627 -23.876   7.186  1.00  0.00     0.152 A 
HETATM    4  N4  UNL     1      27.821 -24.427   7.294  1.00  0.00    -0.336 N 
ATOM      5  H4  UNL     1      28.437 -24.174   8.066  1.00  0.00     0.168 HD
HETATM    6  C14 UNL     1      28.214 -25.315   6.385  1.00  0.00     0.047 A 
ENDROOT
BRANCH   1   7
HETATM    7  C6  UNL     1      27.385 -26.509   4.201  1.00  0.00     0.088 C 
BRANCH   7   8
HETATM    8  C5  UNL     1      28.248 -25.878   3.114  1.00  0.00     0.247 C 
BRANCH   8   9
HETATM    9  C4  UNL     1      27.448 -25.658   1.889  1.00  0.00     0.109 A 
HETATM   10  C3  UNL     1      27.398 -26.412   0.737  1.00  0.00     0.063 A 
HETATM   11  C2  UNL     1      26.510 -25.800  -0.113  1.00  0.00     0.031 A 
HETATM   12  C1  UNL     1      26.154 -26.286  -1.478  1.00  0.00     0.070 C 
HETATM   13  N5  UNL     1      26.061 -24.722   0.531  1.00  0.00    -0.266 N 
HETATM   14  O3  UNL     1      26.630 -24.660   1.713  1.00  0.00    -0.240 OA
ATOM     15  H5  UNL     1      25.384 -24.052   0.164  1.00  0.00     0.194 HD
ENDBRANCH   8   9
BRANCH   8  16
HETATM   16  N1  UNL     1      29.401 -26.692   2.813  1.00  0.00    -0.069 N 
ATOM     17  H13 UNL     1      29.239 -27.303   2.013  1.00  0.00     0.275 HD
ATOM     18  H12 UNL     1      30.168 -26.140   2.427  1.00  0.00     0.275 HD
ATOM     19  H11 UNL     1      29.686 -27.215   3.641  1.00  0.00     0.275 HD
ENDBRANCH   8  16
ENDBRANCH   7   8
ENDBRANCH   1   7
BRANCH   6  20
HETATM   20  C15 UNL     1      29.539 -25.941   6.524  1.00  0.00     0.027 C 
HETATM   21  C16 UNL     1      30.399 -25.831   7.476  1.00  0.00    -0.017 C 
BRANCH  21  22
HETATM   22  C17 UNL     1      31.730 -26.599   7.386  1.00  0.00     0.042 C 
HETATM   23  C18 UNL     1      31.566 -27.911   8.151  1.00  0.00     0.011 C 
HETATM   24  C19 UNL     1      31.072 -27.665   9.530  1.00  0.00     0.001 C 
HETATM   25  C20 UNL     1      31.767 -26.596  10.286  1.00  0.00     0.003 C 
HETATM   26  C21 UNL     1      32.264 -25.451   9.467  1.00  0.00     0.038 C 
HETATM   27  C22 UNL     1      32.801 -25.830   8.130  1.00  0.00     0.177 C 
HETATM   28  F1  UNL     1      33.052 -24.665   7.425  1.00  0.00    -0.249 F 
ENDBRANCH  21  22
ENDBRANCH   6  20
BRANCH   3  29
HETATM   29  N2  UNL     1      26.083 -22.978   8.001  1.00  0.00    -0.302 N 
HETATM   30  C9  UNL     1      24.981 -22.203   7.626  1.00  0.00     0.276 C 
HETATM   31  O1  UNL     1      25.081 -21.422   6.641  1.00  0.00    -0.266 OA
ATOM     32  H2  UNL     1      26.482 -22.850   8.931  1.00  0.00     0.171 HD
BRANCH  30  33
HETATM   33  C10 UNL     1      23.733 -22.300   8.367  1.00  0.00     0.125 A 
HETATM   34  C11 UNL     1      23.419 -23.239   9.320  1.00  0.00     0.071 A 
HETATM   35  C12 UNL     1      22.144 -22.947   9.751  1.00  0.00     0.075 A 
HETATM   36  C13 UNL     1      21.420 -23.731  10.791  1.00  0.00     0.079 C 
HETATM   37  O2  UNL     1      21.716 -21.897   9.097  1.00  0.00    -0.242 OA
HETATM   38  N3  UNL     1      22.649 -21.516   8.284  1.00  0.00    -0.256 N 
ATOM     39  H3  UNL     1      22.569 -20.716   7.657  1.00  0.00     0.195 HD
ENDBRANCH  30  33
ENDBRANCH   3  29
TORSDOF 8
ENDMDL
MODEL 4
REMARK VINA RESULT: -8.880532200      3.750      7.589
REMARK  8 active torsions:
REMARK  status: ('A' for Active; 'I' for Inactive)
REMARK    1  A    between atoms: C4_4  and  C5_5 
REMARK    2  A    between atoms: C5_5  and  N1_6 
REMARK    3  A    between atoms: C5_5  and  C6_10 
REMARK    4  A    between atoms: C6_10  and  C7_11 
REMARK    5  A    between atoms: C8_13  and  N2_14 
REMARK       I    between atoms: N2_14  and  C9_16 
REMARK    6  A    between atoms: C9_16  and  C10_18 
REMARK    7  A    between atoms: C14_27  and  C15_28 
REMARK    8  A    between atoms: C16_29  and  C17_30 
ROOT
HETATM    1  C7  UNL     1      25.126 -28.926   3.216  1.00  0.00     0.015 A 
HETATM    2  S1  UNL     1      25.970 -27.423   3.470  1.00  0.00    -0.056 SA
HETATM    3  C8  UNL     1      25.923 -27.421   5.159  1.00  0.00     0.152 A 
HETATM    4  N4  UNL     1      25.283 -28.535   5.460  1.00  0.00    -0.336 N 
ATOM      5  H4  UNL     1      25.113 -28.784   6.434  1.00  0.00     0.168 HD
HETATM    6  C14 UNL     1      24.861 -29.330   4.480  1.00  0.00     0.047 A 
ENDROOT
BRANCH   1   7
HETATM    7  C6  UNL     1      24.835 -29.513   1.864  1.00  0.00     0.088 C 
BRANCH   7   8
HETATM    8  C5  UNL     1      23.711 -28.725   1.202  1.00  0.00     0.247 C 
BRANCH   8   9
HETATM    9  C4  UNL     1      24.272 -27.670   0.327  1.00  0.00     0.109 A 
HETATM   10  C3  UNL     1      25.566 -27.505  -0.114  1.00  0.00     0.063 A 
HETATM   11  C2  UNL     1      25.589 -26.379  -0.899  1.00  0.00     0.031 A 
HETATM   12  C1  UNL     1      26.798 -25.834  -1.583  1.00  0.00     0.070 C 
HETATM   13  N5  UNL     1      24.341 -25.908  -0.911  1.00  0.00    -0.266 N 
HETATM   14  O3  UNL     1      23.581 -26.689  -0.178  1.00  0.00    -0.240 OA
ATOM     15  H5  UNL     1      24.028 -25.074  -1.408  1.00  0.00     0.194 HD
ENDBRANCH   8   9
BRANCH   8  16
HETATM   16  N1  UNL     1      22.826 -28.138   2.180  1.00  0.00    -0.069 N 
ATOM     17  H13 UNL     1      22.231 -28.838   2.624  1.00  0.00     0.275 HD
ATOM     18  H12 UNL     1      23.330 -27.821   3.009  1.00  0.00     0.275 HD
ATOM     19  H11 UNL     1      22.282 -27.389   1.753  1.00  0.00     0.275 HD
ENDBRANCH   8  16
ENDBRANCH   7   8
ENDBRANCH   1   7
BRANCH   6  20
HETATM   20  C15 UNL     1      24.129 -30.560   4.824  1.00  0.00     0.027 C 
HETATM   21  C16 UNL     1      23.315 -31.255   4.108  1.00  0.00    -0.017 C 
BRANCH  21  22
HETATM   22  C17 UNL     1      22.672 -32.520   4.705  1.00  0.00     0.042 C 
HETATM   23  C18 UNL     1      23.738 -33.613   4.742  1.00  0.00     0.011 C 
HETATM   24  C19 UNL     1      24.362 -33.793   3.406  1.00  0.00     0.001 C 
HETATM   25  C20 UNL     1      23.426 -33.886   2.261  1.00  0.00     0.003 C 
HETATM   26  C21 UNL     1      22.177 -33.078   2.386  1.00  0.00     0.038 C 
HETATM   27  C22 UNL     1      21.604 -33.029   3.760  1.00  0.00     0.177 C 
HETATM   28  F1  UNL     1      20.568 -32.111   3.758  1.00  0.00    -0.249 F 
ENDBRANCH  21  22
ENDBRANCH   6  20
BRANCH   3  29
HETATM   29  N2  UNL     1      26.408 -26.521   6.008  1.00  0.00    -0.302 N 
HETATM   30  C9  UNL     1      26.698 -25.210   5.619  1.00  0.00     0.276 C 
HETATM   31  O1  UNL     1      27.566 -25.008   4.726  1.00  0.00    -0.266 OA
ATOM     32  H2  UNL     1      26.574 -26.796   6.976  1.00  0.00     0.171 HD
BRANCH  30  33
HETATM   33  C10 UNL     1      26.004 -24.093   6.240  1.00  0.00     0.125 A 
HETATM   34  C11 UNL     1      25.219 -24.142   7.366  1.00  0.00     0.071 A 
HETATM   35  C12 UNL     1      24.771 -22.860   7.587  1.00  0.00     0.075 A 
HETATM   36  C13 UNL     1      23.882 -22.474   8.720  1.00  0.00     0.079 C 
HETATM   37  O2  UNL     1      25.256 -22.085   6.651  1.00  0.00    -0.242 OA
HETATM   38  N3  UNL     1      25.981 -22.808   5.859  1.00  0.00    -0.256 N 
ATOM     39  H3  UNL     1      26.475 -22.445   5.044  1.00  0.00     0.195 HD
ENDBRANCH  30  33
ENDBRANCH   3  29
TORSDOF 8
ENDMDL
MODEL 5
REMARK VINA RESULT: -8.733058633      4.269      7.600
REMARK  8 active torsions:
REMARK  status: ('A' for Active; 'I' for Inactive)
REMARK    1  A    between atoms: C4_4  and  C5_5 
REMARK    2  A    between atoms: C5_5  and  N1_6 
REMARK    3  A    between atoms: C5_5  and  C6_10 
REMARK    4  A    between atoms: C6_10  and  C7_11 
REMARK    5  A    between atoms: C8_13  and  N2_14 
REMARK       I    between atoms: N2_14  and  C9_16 
REMARK    6  A    between atoms: C9_16  and  C10_18 
REMARK    7  A    between atoms: C14_27  and  C15_28 
REMARK    8  A    between atoms: C16_29  and  C17_30 
ROOT
HETATM    1  C7  UNL     1      26.666 -26.499   4.000  1.00  0.00     0.015 A 
HETATM    2  S1  UNL     1      27.005 -24.832   4.381  1.00  0.00    -0.056 SA
HETATM    3  C8  UNL     1      26.513 -24.865   5.996  1.00  0.00     0.152 A 
HETATM    4  N4  UNL     1      26.117 -26.110   6.182  1.00  0.00    -0.336 N 
ATOM      5  H4  UNL     1      25.764 -26.407   7.091  1.00  0.00     0.168 HD
HETATM    6  C14 UNL     1      26.185 -26.974   5.173  1.00  0.00     0.047 A 
ENDROOT
BRANCH   1   7
HETATM    7  C6  UNL     1      26.902 -27.123   2.654  1.00  0.00     0.088 C 
BRANCH   7   8
HETATM    8  C5  UNL     1      26.427 -26.168   1.564  1.00  0.00     0.247 C 
BRANCH   8   9
HETATM    9  C4  UNL     1      25.122 -26.613   1.027  1.00  0.00     0.109 A 
HETATM   10  C3  UNL     1      24.162 -27.403   1.621  1.00  0.00     0.063 A 
HETATM   11  C2  UNL     1      23.131 -27.535   0.724  1.00  0.00     0.031 A 
HETATM   12  C1  UNL     1      21.880 -28.313   0.963  1.00  0.00     0.070 C 
HETATM   13  N5  UNL     1      23.487 -26.841  -0.357  1.00  0.00    -0.266 N 
HETATM   14  O3  UNL     1      24.668 -26.305  -0.153  1.00  0.00    -0.240 OA
ATOM     15  H5  UNL     1      22.931 -26.742  -1.207  1.00  0.00     0.194 HD
ENDBRANCH   8   9
BRANCH   8  16
HETATM   16  N1  UNL     1      27.392 -26.062   0.495  1.00  0.00    -0.069 N 
ATOM     17  H13 UNL     1      28.335 -26.290   0.808  1.00  0.00     0.275 HD
ATOM     18  H12 UNL     1      27.279 -26.803  -0.196  1.00  0.00     0.275 HD
ATOM     19  H11 UNL     1      27.344 -25.134   0.073  1.00  0.00     0.275 HD
ENDBRANCH   8  16
ENDBRANCH   7   8
ENDBRANCH   1   7
BRANCH   6  20
HETATM   20  C15 UNL     1      25.722 -28.355   5.383  1.00  0.00     0.027 C 
HETATM   21  C16 UNL     1      25.246 -29.197   4.533  1.00  0.00    -0.017 C 
BRANCH  21  22
HETATM   22  C17 UNL     1      24.830 -30.601   5.007  1.00  0.00     0.042 C 
HETATM   23  C18 UNL     1      25.472 -31.621   4.069  1.00  0.00     0.011 C 
HETATM   24  C19 UNL     1      25.152 -31.314   2.651  1.00  0.00     0.001 C 
HETATM   25  C20 UNL     1      23.730 -31.019   2.357  1.00  0.00     0.003 C 
HETATM   26  C21 UNL     1      22.981 -30.326   3.447  1.00  0.00     0.038 C 
HETATM   27  C22 UNL     1      23.337 -30.768   4.824  1.00  0.00     0.177 C 
HETATM   28  F1  UNL     1      22.703 -29.923   5.720  1.00  0.00    -0.249 F 
ENDBRANCH  21  22
ENDBRANCH   6  20
BRANCH   3  29
HETATM   29  N2  UNL     1      26.512 -23.882   6.891  1.00  0.00    -0.302 N 
HETATM   30  C9  UNL     1      25.535 -22.882   6.897  1.00  0.00     0.276 C 
HETATM   31  O1  UNL     1      25.418 -22.127   5.893  1.00  0.00    -0.266 OA
ATOM     32  H2  UNL     1      27.248 -23.857   7.596  1.00  0.00     0.171 HD
BRANCH  30  33
HETATM   33  C10 UNL     1      24.666 -22.716   8.051  1.00  0.00     0.125 A 
HETATM   34  C11 UNL     1      23.327 -22.406   8.028  1.00  0.00     0.071 A 
HETATM   35  C12 UNL     1      22.916 -22.351   9.340  1.00  0.00     0.075 A 
HETATM   36  C13 UNL     1      21.520 -22.041   9.760  1.00  0.00     0.079 C 
HETATM   37  O2  UNL     1      23.944 -22.612  10.107  1.00  0.00    -0.242 OA
HETATM   38  N3  UNL     1      24.972 -22.827   9.350  1.00  0.00    -0.256 N 
ATOM     39  H3  UNL     1      25.903 -23.053   9.701  1.00  0.00     0.195 HD
ENDBRANCH  30  33
ENDBRANCH   3  29
TORSDOF 8
ENDMDL
