MODEL 1
REMARK VINA RESULT: -6.895116025      0.000      0.000
REMARK  2 active torsions:
REMARK  status: ('A' for Active; 'I' for Inactive)
REMARK    1  A    between atoms: O1_2  and  C2_3 
REMARK    2  A    between atoms: C5_12  and  N4_13 
ROOT
HETATM    1  C2  UNL     1      22.958 -11.862 -16.959  1.00  0.00     0.226 A 
HETATM    2  N1  UNL     1      22.131 -12.894 -17.153  1.00  0.00    -0.307 N 
ATOM      3  H1  UNL     1      21.123 -12.744 -17.193  1.00  0.00     0.171 HD
HETATM    4  C3  UNL     1      22.641 -14.142 -17.297  1.00  0.00     0.130 A 
HETATM    5  N2  UNL     1      21.847 -15.135 -17.480  1.00  0.00    -0.384 N 
ATOM      6  H21 UNL     1      22.231 -16.075 -17.588  1.00  0.00     0.157 HD
ATOM      7  H22 UNL     1      20.837 -15.004 -17.523  1.00  0.00     0.157 HD
HETATM    8  C4  UNL     1      24.003 -14.318 -17.238  1.00  0.00     0.133 A 
HETATM    9  N3  UNL     1      24.543 -15.619 -17.389  1.00  0.00    -0.094 NA
HETATM   10  C5  UNL     1      24.853 -13.251 -17.037  1.00  0.00     0.135 A 
HETATM   11  N5  UNL     1      24.301 -12.034 -16.901  1.00  0.00    -0.306 N 
ATOM     12  H5  UNL     1      24.903 -11.225 -16.751  1.00  0.00     0.171 HD
ENDROOT
BRANCH  10  13
HETATM   13  N4  UNL     1      26.280 -13.408 -16.965  1.00  0.00    -0.365 N 
HETATM   14  C6  UNL     1      27.093 -13.296 -18.139  1.00  0.00     0.125 C 
HETATM   15  C7  UNL     1      28.469 -13.838 -17.856  1.00  0.00     0.025 C 
HETATM   16  C8  UNL     1      29.137 -13.255 -16.653  1.00  0.00    -0.008 C 
HETATM   17  C9  UNL     1      30.002 -12.038 -17.000  1.00  0.00     0.011 C 
HETATM   18  C10 UNL     1      28.226 -12.993 -15.500  1.00  0.00    -0.028 C 
HETATM   19  C11 UNL     1      27.947 -11.525 -15.262  1.00  0.00     0.016 C 
HETATM   20  C12 UNL     1      28.824 -13.521 -14.192  1.00  0.00     0.016 C 
HETATM   21  C13 UNL     1      26.900 -13.687 -15.684  1.00  0.00     0.133 C 
ENDBRANCH  10  13
BRANCH   1  22
HETATM   22  O1  UNL     1      22.483 -10.574 -16.808  1.00  0.00    -0.327 OA
HETATM   23  C1  UNL     1      22.480  -9.590 -17.807  1.00  0.00     0.213 C 
ENDBRANCH   1  22
TORSDOF 2
ENDMDL
MODEL 2
REMARK VINA RESULT: -6.713542077      2.163      3.584
REMARK  2 active torsions:
REMARK  status: ('A' for Active; 'I' for Inactive)
REMARK    1  A    between atoms: O1_2  and  C2_3 
REMARK    2  A    between atoms: C5_12  and  N4_13 
ROOT
HETATM    1  C2  UNL     1      23.891 -15.598 -18.065  1.00  0.00     0.226 A 
HETATM    2  N1  UNL     1      22.632 -15.160 -18.156  1.00  0.00    -0.307 N 
ATOM      3  H1  UNL     1      21.908 -15.757 -18.556  1.00  0.00     0.171 HD
HETATM    4  C3  UNL     1      22.323 -13.916 -17.713  1.00  0.00     0.130 A 
HETATM    5  N2  UNL     1      21.113 -13.492 -17.803  1.00  0.00    -0.384 N 
ATOM      6  H21 UNL     1      20.881 -12.556 -17.470  1.00  0.00     0.157 HD
ATOM      7  H22 UNL     1      20.376 -14.076 -18.199  1.00  0.00     0.157 HD
HETATM    8  C4  UNL     1      23.317 -13.130 -17.180  1.00  0.00     0.133 A 
HETATM    9  N3  UNL     1      23.001 -11.830 -16.714  1.00  0.00    -0.094 NA
HETATM   10  C5  UNL     1      24.615 -13.585 -17.089  1.00  0.00     0.135 A 
HETATM   11  N5  UNL     1      24.872 -14.824 -17.539  1.00  0.00    -0.306 N 
ATOM     12  H5  UNL     1      25.823 -15.189 -17.486  1.00  0.00     0.171 HD
ENDROOT
BRANCH  10  13
HETATM   13  N4  UNL     1      25.675 -12.783 -16.541  1.00  0.00    -0.365 N 
HETATM   14  C6  UNL     1      26.032 -12.880 -15.158  1.00  0.00     0.125 C 
HETATM   15  C7  UNL     1      26.904 -11.712 -14.777  1.00  0.00     0.025 C 
HETATM   16  C8  UNL     1      28.098 -11.510 -15.653  1.00  0.00    -0.008 C 
HETATM   17  C9  UNL     1      29.338 -12.238 -15.124  1.00  0.00     0.011 C 
HETATM   18  C10 UNL     1      27.859 -11.774 -17.102  1.00  0.00    -0.028 C 
HETATM   19  C11 UNL     1      28.506 -13.046 -17.606  1.00  0.00     0.016 C 
HETATM   20  C12 UNL     1      28.426 -10.646 -17.970  1.00  0.00     0.016 C 
HETATM   21  C13 UNL     1      26.385 -11.860 -17.406  1.00  0.00     0.133 C 
ENDBRANCH  10  13
BRANCH   1  22
HETATM   22  O1  UNL     1      24.252 -16.857 -18.502  1.00  0.00    -0.327 OA
HETATM   23  C1  UNL     1      24.845 -17.146 -19.739  1.00  0.00     0.213 C 
ENDBRANCH   1  22
TORSDOF 2
ENDMDL
MODEL 3
REMARK VINA RESULT: -6.606877117      2.602      3.992
REMARK  2 active torsions:
REMARK  status: ('A' for Active; 'I' for Inactive)
REMARK    1  A    between atoms: O1_2  and  C2_3 
REMARK    2  A    between atoms: C5_12  and  N4_13 
ROOT
HETATM    1  C2  UNL     1      25.352 -16.484 -18.355  1.00  0.00     0.226 A 
HETATM    2  N1  UNL     1      24.025 -16.570 -18.223  1.00  0.00    -0.307 N 
ATOM      3  H1  UNL     1      23.519 -17.357 -18.630  1.00  0.00     0.171 HD
HETATM    4  C3  UNL     1      23.357 -15.606 -17.544  1.00  0.00     0.130 A 
HETATM    5  N2  UNL     1      22.080 -15.686 -17.419  1.00  0.00    -0.384 N 
ATOM      6  H21 UNL     1      21.577 -14.960 -16.909  1.00  0.00     0.157 HD
ATOM      7  H22 UNL     1      21.557 -16.465 -17.819  1.00  0.00     0.157 HD
HETATM    8  C4  UNL     1      24.062 -14.555 -17.007  1.00  0.00     0.133 A 
HETATM    9  N3  UNL     1      23.370 -13.545 -16.296  1.00  0.00    -0.094 NA
HETATM   10  C5  UNL     1      25.431 -14.469 -17.146  1.00  0.00     0.135 A 
HETATM   11  N5  UNL     1      26.049 -15.449 -17.826  1.00  0.00    -0.306 N 
ATOM     12  H5  UNL     1      27.061 -15.414 -17.946  1.00  0.00     0.171 HD
ENDROOT
BRANCH  10  13
HETATM   13  N4  UNL     1      26.193 -13.380 -16.600  1.00  0.00    -0.365 N 
HETATM   14  C6  UNL     1      26.586 -13.374 -15.222  1.00  0.00     0.125 C 
HETATM   15  C7  UNL     1      27.051 -11.995 -14.835  1.00  0.00     0.025 C 
HETATM   16  C8  UNL     1      28.105 -11.417 -15.722  1.00  0.00    -0.008 C 
HETATM   17  C9  UNL     1      29.521 -11.723 -15.219  1.00  0.00     0.011 C 
HETATM   18  C10 UNL     1      27.939 -11.728 -17.172  1.00  0.00    -0.028 C 
HETATM   19  C11 UNL     1      28.944 -12.725 -17.703  1.00  0.00     0.016 C 
HETATM   20  C12 UNL     1      28.106 -10.469 -18.029  1.00  0.00     0.016 C 
HETATM   21  C13 UNL     1      26.561 -12.270 -17.459  1.00  0.00     0.133 C 
ENDBRANCH  10  13
BRANCH   1  22
HETATM   22  O1  UNL     1      26.075 -17.443 -19.037  1.00  0.00    -0.327 OA
HETATM   23  C1  UNL     1      25.663 -18.083 -20.214  1.00  0.00     0.213 C 
ENDBRANCH   1  22
TORSDOF 2
ENDMDL
MODEL 4
REMARK VINA RESULT: -6.592843531      0.992      1.002
REMARK  2 active torsions:
REMARK  status: ('A' for Active; 'I' for Inactive)
REMARK    1  A    between atoms: O1_2  and  C2_3 
REMARK    2  A    between atoms: C5_12  and  N4_13 
ROOT
HETATM    1  C2  UNL     1      23.454 -11.244 -17.465  1.00  0.00     0.226 A 
HETATM    2  N1  UNL     1      22.381 -12.015 -17.666  1.00  0.00    -0.307 N 
ATOM      3  H1  UNL     1      21.481 -11.592 -17.896  1.00  0.00     0.171 HD
HETATM    4  C3  UNL     1      22.496 -13.361 -17.563  1.00  0.00     0.130 A 
HETATM    5  N2  UNL     1      21.464 -14.103 -17.752  1.00  0.00    -0.384 N 
ATOM      6  H21 UNL     1      21.550 -15.117 -17.675  1.00  0.00     0.157 HD
ATOM      7  H22 UNL     1      20.556 -13.698 -17.983  1.00  0.00     0.157 HD
HETATM    8  C4  UNL     1      23.719 -13.906 -17.251  1.00  0.00     0.133 A 
HETATM    9  N3  UNL     1      23.846 -15.313 -17.143  1.00  0.00    -0.094 NA
HETATM   10  C5  UNL     1      24.824 -13.108 -17.044  1.00  0.00     0.135 A 
HETATM   11  N5  UNL     1      24.661 -11.780 -17.158  1.00  0.00    -0.306 N 
ATOM     12  H5  UNL     1      25.459 -11.163 -17.010  1.00  0.00     0.171 HD
ENDROOT
BRANCH  10  13
HETATM   13  N4  UNL     1      26.112 -13.651 -16.710  1.00  0.00    -0.365 N 
HETATM   14  C6  UNL     1      26.799 -14.524 -17.615  1.00  0.00     0.125 C 
HETATM   15  C7  UNL     1      27.929 -15.211 -16.894  1.00  0.00     0.025 C 
HETATM   16  C8  UNL     1      28.866 -14.293 -16.178  1.00  0.00    -0.008 C 
HETATM   17  C9  UNL     1      30.057 -13.880 -17.051  1.00  0.00     0.011 C 
HETATM   18  C10 UNL     1      28.213 -13.124 -15.520  1.00  0.00    -0.028 C 
HETATM   19  C11 UNL     1      28.473 -11.806 -16.216  1.00  0.00     0.016 C 
HETATM   20  C12 UNL     1      28.717 -12.945 -14.085  1.00  0.00     0.016 C 
HETATM   21  C13 UNL     1      26.718 -13.310 -15.437  1.00  0.00     0.133 C 
ENDBRANCH  10  13
BRANCH   1  22
HETATM   22  O1  UNL     1      23.385  -9.869 -17.561  1.00  0.00    -0.327 OA
HETATM   23  C1  UNL     1      22.210  -9.128 -17.752  1.00  0.00     0.213 C 
ENDBRANCH   1  22
TORSDOF 2
ENDMDL
MODEL 5
REMARK VINA RESULT: -6.591579021      1.490      2.705
REMARK  2 active torsions:
REMARK  status: ('A' for Active; 'I' for Inactive)
REMARK    1  A    between atoms: O1_2  and  C2_3 
REMARK    2  A    between atoms: C5_12  and  N4_13 
ROOT
HETATM    1  C2  UNL     1      22.912 -14.316 -16.935  1.00  0.00     0.226 A 
HETATM    2  N1  UNL     1      22.254 -13.164 -17.091  1.00  0.00    -0.307 N 
ATOM      3  H1  UNL     1      21.235 -13.158 -17.142  1.00  0.00     0.171 HD
HETATM    4  C3  UNL     1      22.948 -12.003 -17.181  1.00  0.00     0.130 A 
HETATM    5  N2  UNL     1      22.315 -10.895 -17.335  1.00  0.00    -0.384 N 
ATOM      6  H21 UNL     1      22.838 -10.021 -17.403  1.00  0.00     0.157 HD
ATOM      7  H22 UNL     1      21.297 -10.870 -17.388  1.00  0.00     0.157 HD
HETATM    8  C4  UNL     1      24.320 -12.038 -17.111  1.00  0.00     0.133 A 
HETATM    9  N3  UNL     1      25.052 -10.829 -17.203  1.00  0.00    -0.094 NA
HETATM   10  C5  UNL     1      24.997 -13.229 -16.951  1.00  0.00     0.135 A 
HETATM   11  N5  UNL     1      24.266 -14.352 -16.866  1.00  0.00    -0.306 N 
ATOM     12  H5  UNL     1      24.737 -15.248 -16.747  1.00  0.00     0.171 HD
ENDROOT
BRANCH  10  13
HETATM   13  N4  UNL     1      26.431 -13.294 -16.880  1.00  0.00    -0.365 N 
HETATM   14  C6  UNL     1      27.234 -13.126 -18.055  1.00  0.00     0.125 C 
HETATM   15  C7  UNL     1      28.642 -13.580 -17.774  1.00  0.00     0.025 C 
HETATM   16  C8  UNL     1      29.272 -12.960 -16.569  1.00  0.00    -0.008 C 
HETATM   17  C9  UNL     1      30.058 -11.689 -16.912  1.00  0.00     0.011 C 
HETATM   18  C10 UNL     1      28.348 -12.762 -15.415  1.00  0.00    -0.028 C 
HETATM   19  C11 UNL     1      27.975 -11.316 -15.171  1.00  0.00     0.016 C 
HETATM   20  C12 UNL     1      28.980 -13.256 -14.109  1.00  0.00     0.016 C 
HETATM   21  C13 UNL     1      27.068 -13.538 -15.600  1.00  0.00     0.133 C 
ENDBRANCH  10  13
BRANCH   1  22
HETATM   22  O1  UNL     1      22.247 -15.522 -16.838  1.00  0.00    -0.327 OA
HETATM   23  C1  UNL     1      22.622 -16.708 -17.485  1.00  0.00     0.213 C 
ENDBRANCH   1  22
TORSDOF 2
ENDMDL
