MODEL 1
REMARK VINA RESULT: -7.417909870      0.000      0.000
REMARK  10 active torsions:
REMARK  status: ('A' for Active; 'I' for Inactive)
REMARK    1  A    between atoms: C2_2  and  C3_3 
REMARK    2  A    between atoms: C3_3  and  C4_4 
REMARK    3  A    between atoms: C4_4  and  C5_5 
REMARK    4  A    between atoms: C5_5  and  O1_6 
REMARK    5  A    between atoms: C19_21  and  O2_22 
REMARK    6  A    between atoms: O2_22  and  C20_23 
REMARK    7  A    between atoms: C20_23  and  C21_25 
REMARK    8  A    between atoms: C21_25  and  C22_26 
REMARK    9  A    between atoms: C22_26  and  C23_27 
REMARK   10  A    between atoms: C23_27  and  N1_28 
ROOT
HETATM    1  C5  UNL     1      -0.732  24.959 -10.471  1.00  0.00     0.088 C 
HETATM    2  C6  UNL     1      -1.784  24.137  -9.765  1.00  0.00     0.041 C 
HETATM    3  C7  UNL     1      -2.712  23.383 -10.631  1.00  0.00     0.003 C 
HETATM    4  C8  UNL     1      -2.508  21.861 -10.573  1.00  0.00     0.000 C 
HETATM    5  C9  UNL     1      -2.880  21.350  -9.224  1.00  0.00     0.000 C 
HETATM    6  C10 UNL     1      -2.386  19.978  -8.926  1.00  0.00     0.000 C 
HETATM    7  C11 UNL     1      -0.913  19.793  -9.015  1.00  0.00     0.000 C 
HETATM    8  C12 UNL     1      -0.124  20.480  -7.945  1.00  0.00     0.000 C 
HETATM    9  C13 UNL     1       0.959  21.311  -8.648  1.00  0.00     0.000 C 
HETATM   10  C14 UNL     1       1.425  22.442  -7.776  1.00  0.00     0.004 C 
HETATM   11  C15 UNL     1       1.400  23.800  -8.496  1.00  0.00     0.037 C 
HETATM   12  C16 UNL     1       1.380  23.622  -9.934  1.00  0.00    -0.046 C 
HETATM   13  C17 UNL     1       2.459  23.219 -10.498  1.00  0.00    -0.070 C 
HETATM   14  C18 UNL     1       3.793  22.905 -10.050  1.00  0.00     0.067 C 
HETATM   15  C19 UNL     1       4.582  24.066 -10.889  1.00  0.00     0.138 C 
HETATM   16  C24 UNL     1       3.574  25.097 -11.352  1.00  0.00     0.065 C 
HETATM   17  C25 UNL     1       2.410  24.624 -12.188  1.00  0.00     0.129 C 
HETATM   18  C26 UNL     1       2.380  23.056 -12.028  1.00  0.00     0.066 C 
HETATM   19  O4  UNL     1       1.216  25.059 -11.700  1.00  0.00    -0.373 OA
HETATM   20  C27 UNL     1       0.414  24.118 -10.960  1.00  0.00     0.185 C 
ENDROOT
BRANCH  15  21
HETATM   21  O2  UNL     1       5.528  24.472 -10.017  1.00  0.00    -0.316 OA
BRANCH  21  22
HETATM   22  C20 UNL     1       5.468  25.511  -9.105  1.00  0.00     0.259 C 
HETATM   23  O3  UNL     1       5.254  25.172  -7.927  1.00  0.00    -0.265 OA
BRANCH  22  24
HETATM   24  C21 UNL     1       5.643  26.932  -9.481  1.00  0.00     0.113 C 
BRANCH  24  25
HETATM   25  C22 UNL     1       6.694  27.530  -8.586  1.00  0.00     0.037 C 
BRANCH  25  26
HETATM   26  C23 UNL     1       6.102  28.582  -7.660  1.00  0.00     0.230 C 
BRANCH  26  27
HETATM   27  N1  UNL     1       5.808  27.950  -6.405  1.00  0.00    -0.079 N 
ATOM     28  H13 UNL     1       5.295  27.076  -6.514  1.00  0.00     0.274 HD
ATOM     29  H12 UNL     1       6.638  27.566  -5.953  1.00  0.00     0.274 HD
ATOM     30  H11 UNL     1       5.317  28.628  -5.821  1.00  0.00     0.274 HD
ENDBRANCH  26  27
ENDBRANCH  25  26
ENDBRANCH  24  25
ENDBRANCH  22  24
ENDBRANCH  21  22
ENDBRANCH  15  21
BRANCH   1  31
HETATM   31  C4  UNL     1      -1.299  25.577 -11.734  1.00  0.00     0.041 C 
BRANCH  31  32
HETATM   32  C3  UNL     1      -2.158  26.748 -11.629  1.00  0.00     0.003 C 
BRANCH  32  33
HETATM   33  C2  UNL     1      -3.378  26.786 -12.498  1.00  0.00    -0.004 C 
HETATM   34  C1  UNL     1      -4.607  26.309 -11.713  1.00  0.00     0.005 C 
ENDBRANCH  32  33
ENDBRANCH  31  32
ENDBRANCH   1  31
BRANCH   1  35
HETATM   35  O1  UNL     1      -0.358  26.029  -9.678  1.00  0.00    -0.387 OA
ATOM     36  H1  UNL     1      -0.367  25.696  -8.788  1.00  0.00     0.210 HD
ENDBRANCH   1  35
TORSDOF 10
ENDMDL
MODEL 2
REMARK VINA RESULT: -7.403545615      6.566      8.608
REMARK  10 active torsions:
REMARK  status: ('A' for Active; 'I' for Inactive)
REMARK    1  A    between atoms: C2_2  and  C3_3 
REMARK    2  A    between atoms: C3_3  and  C4_4 
REMARK    3  A    between atoms: C4_4  and  C5_5 
REMARK    4  A    between atoms: C5_5  and  O1_6 
REMARK    5  A    between atoms: C19_21  and  O2_22 
REMARK    6  A    between atoms: O2_22  and  C20_23 
REMARK    7  A    between atoms: C20_23  and  C21_25 
REMARK    8  A    between atoms: C21_25  and  C22_26 
REMARK    9  A    between atoms: C22_26  and  C23_27 
REMARK   10  A    between atoms: C23_27  and  N1_28 
ROOT
HETATM    1  C5  UNL     1      -4.528  29.979 -14.815  1.00  0.00     0.088 C 
HETATM    2  C6  UNL     1      -4.969  29.443 -13.474  1.00  0.00     0.041 C 
HETATM    3  C7  UNL     1      -6.087  28.479 -13.493  1.00  0.00     0.003 C 
HETATM    4  C8  UNL     1      -5.670  27.047 -13.124  1.00  0.00     0.000 C 
HETATM    5  C9  UNL     1      -5.255  26.991 -11.695  1.00  0.00     0.000 C 
HETATM    6  C10 UNL     1      -4.491  25.769 -11.321  1.00  0.00     0.000 C 
HETATM    7  C11 UNL     1      -3.243  25.531 -12.094  1.00  0.00     0.000 C 
HETATM    8  C12 UNL     1      -2.136  26.499 -11.819  1.00  0.00     0.000 C 
HETATM    9  C13 UNL     1      -1.666  27.043 -13.177  1.00  0.00     0.000 C 
HETATM   10  C14 UNL     1      -0.996  28.379 -13.021  1.00  0.00     0.004 C 
HETATM   11  C15 UNL     1      -1.562  29.444 -13.974  1.00  0.00     0.037 C 
HETATM   12  C16 UNL     1      -2.261  28.827 -15.083  1.00  0.00    -0.046 C 
HETATM   13  C17 UNL     1      -1.555  28.243 -15.981  1.00  0.00    -0.070 C 
HETATM   14  C18 UNL     1      -0.144  28.053 -16.209  1.00  0.00     0.067 C 
HETATM   15  C19 UNL     1      -0.041  28.875 -17.620  1.00  0.00     0.138 C 
HETATM   16  C24 UNL     1      -1.280  29.734 -17.769  1.00  0.00     0.065 C 
HETATM   17  C25 UNL     1      -2.625  29.050 -17.722  1.00  0.00     0.129 C 
HETATM   18  C26 UNL     1      -2.352  27.612 -17.139  1.00  0.00     0.066 C 
HETATM   19  O4  UNL     1      -3.472  29.644 -16.837  1.00  0.00    -0.373 OA
HETATM   20  C27 UNL     1      -3.666  29.001 -15.562  1.00  0.00     0.185 C 
ENDROOT
BRANCH  15  21
HETATM   21  O2  UNL     1       1.143  29.511 -17.508  1.00  0.00    -0.316 OA
BRANCH  21  22
HETATM   22  C20 UNL     1       1.380  30.846 -17.235  1.00  0.00     0.259 C 
HETATM   23  O3  UNL     1       1.689  31.543 -18.219  1.00  0.00    -0.265 OA
BRANCH  22  24
HETATM   24  C21 UNL     1       1.279  31.428 -15.877  1.00  0.00     0.113 C 
BRANCH  24  25
HETATM   25  C22 UNL     1       0.525  32.726 -15.976  1.00  0.00     0.037 C 
BRANCH  25  26
HETATM   26  C23 UNL     1       1.273  33.856 -15.282  1.00  0.00     0.230 C 
BRANCH  26  27
HETATM   27  N1  UNL     1       0.336  34.914 -15.028  1.00  0.00    -0.079 N 
ATOM     28  H13 UNL     1       0.139  35.475 -15.857  1.00  0.00     0.274 HD
ATOM     29  H12 UNL     1      -0.612  34.572 -14.867  1.00  0.00     0.274 HD
ATOM     30  H11 UNL     1       0.694  35.468 -14.251  1.00  0.00     0.274 HD
ENDBRANCH  26  27
ENDBRANCH  25  26
ENDBRANCH  24  25
ENDBRANCH  22  24
ENDBRANCH  21  22
ENDBRANCH  15  21
BRANCH   1  31
HETATM   31  C4  UNL     1      -5.722  30.185 -15.726  1.00  0.00     0.041 C 
BRANCH  31  32
HETATM   32  C3  UNL     1      -6.452  31.444 -15.668  1.00  0.00     0.003 C 
BRANCH  32  33
HETATM   33  C2  UNL     1      -7.893  31.423 -16.075  1.00  0.00    -0.004 C 
HETATM   34  C1  UNL     1      -8.612  30.231 -15.430  1.00  0.00     0.005 C 
ENDBRANCH  32  33
ENDBRANCH  31  32
ENDBRANCH   1  31
BRANCH   1  35
HETATM   35  O1  UNL     1      -3.967  31.234 -14.661  1.00  0.00    -0.387 OA
ATOM     36  H1  UNL     1      -4.522  31.820 -15.161  1.00  0.00     0.210 HD
ENDBRANCH   1  35
TORSDOF 10
ENDMDL
MODEL 3
REMARK VINA RESULT: -7.377549185      1.887      4.753
REMARK  10 active torsions:
REMARK  status: ('A' for Active; 'I' for Inactive)
REMARK    1  A    between atoms: C2_2  and  C3_3 
REMARK    2  A    between atoms: C3_3  and  C4_4 
REMARK    3  A    between atoms: C4_4  and  C5_5 
REMARK    4  A    between atoms: C5_5  and  O1_6 
REMARK    5  A    between atoms: C19_21  and  O2_22 
REMARK    6  A    between atoms: O2_22  and  C20_23 
REMARK    7  A    between atoms: C20_23  and  C21_25 
REMARK    8  A    between atoms: C21_25  and  C22_26 
REMARK    9  A    between atoms: C22_26  and  C23_27 
REMARK   10  A    between atoms: C23_27  and  N1_28 
ROOT
HETATM    1  C5  UNL     1      -1.605  22.247  -9.655  1.00  0.00     0.088 C 
HETATM    2  C6  UNL     1      -2.606  22.731 -10.677  1.00  0.00     0.041 C 
HETATM    3  C7  UNL     1      -3.802  23.413 -10.145  1.00  0.00     0.003 C 
HETATM    4  C8  UNL     1      -3.839  24.918 -10.451  1.00  0.00     0.000 C 
HETATM    5  C9  UNL     1      -4.001  25.135 -11.916  1.00  0.00     0.000 C 
HETATM    6  C10 UNL     1      -3.684  26.514 -12.375  1.00  0.00     0.000 C 
HETATM    7  C11 UNL     1      -2.311  26.994 -12.065  1.00  0.00     0.000 C 
HETATM    8  C12 UNL     1      -1.218  26.319 -12.831  1.00  0.00     0.000 C 
HETATM    9  C13 UNL     1      -0.184  25.832 -11.805  1.00  0.00     0.000 C 
HETATM   10  C14 UNL     1       0.628  24.693 -12.354  1.00  0.00     0.004 C 
HETATM   11  C15 UNL     1       0.674  23.483 -11.407  1.00  0.00     0.037 C 
HETATM   12  C16 UNL     1       0.329  23.872 -10.054  1.00  0.00    -0.046 C 
HETATM   13  C17 UNL     1       1.189  24.559  -9.394  1.00  0.00    -0.070 C 
HETATM   14  C18 UNL     1       2.518  25.054  -9.653  1.00  0.00     0.067 C 
HETATM   15  C19 UNL     1       3.293  24.212  -8.484  1.00  0.00     0.138 C 
HETATM   16  C24 UNL     1       2.390  23.087  -8.021  1.00  0.00     0.065 C 
HETATM   17  C25 UNL     1       1.018  23.447  -7.506  1.00  0.00     0.129 C 
HETATM   18  C26 UNL     1       0.769  24.935  -7.961  1.00  0.00     0.066 C 
HETATM   19  O4  UNL     1       0.037  22.718  -8.106  1.00  0.00    -0.373 OA
HETATM   20  C27 UNL     1      -0.736  23.360  -9.140  1.00  0.00     0.185 C 
ENDROOT
BRANCH  15  21
HETATM   21  O2  UNL     1       4.451  23.869  -9.084  1.00  0.00    -0.316 OA
BRANCH  21  22
HETATM   22  C20 UNL     1       5.728  23.864  -8.551  1.00  0.00     0.259 C 
HETATM   23  O3  UNL     1       6.009  22.872  -7.854  1.00  0.00    -0.265 OA
BRANCH  22  24
HETATM   24  C21 UNL     1       6.707  24.950  -8.780  1.00  0.00     0.113 C 
BRANCH  24  25
HETATM   25  C22 UNL     1       6.280  26.148  -7.976  1.00  0.00     0.037 C 
BRANCH  25  26
HETATM   26  C23 UNL     1       5.727  27.248  -8.871  1.00  0.00     0.230 C 
BRANCH  26  27
HETATM   27  N1  UNL     1       5.689  26.745 -10.215  1.00  0.00    -0.079 N 
ATOM     28  H13 UNL     1       6.145  27.367 -10.883  1.00  0.00     0.274 HD
ATOM     29  H12 UNL     1       6.292  25.934 -10.351  1.00  0.00     0.274 HD
ATOM     30  H11 UNL     1       4.715  26.557 -10.452  1.00  0.00     0.274 HD
ENDBRANCH  26  27
ENDBRANCH  25  26
ENDBRANCH  24  25
ENDBRANCH  22  24
ENDBRANCH  21  22
ENDBRANCH  15  21
BRANCH   1  31
HETATM   31  C4  UNL     1      -2.313  21.732  -8.418  1.00  0.00     0.041 C 
BRANCH  31  32
HETATM   32  C3  UNL     1      -2.420  20.294  -8.207  1.00  0.00     0.003 C 
BRANCH  32  33
HETATM   33  C2  UNL     1      -1.458  19.667  -7.246  1.00  0.00    -0.004 C 
HETATM   34  C1  UNL     1      -2.039  18.364  -6.682  1.00  0.00     0.005 C 
ENDBRANCH  32  33
ENDBRANCH  31  32
ENDBRANCH   1  31
BRANCH   1  35
HETATM   35  O1  UNL     1      -0.907  21.162 -10.155  1.00  0.00    -0.387 OA
ATOM     36  H1  UNL     1      -1.543  20.664 -10.654  1.00  0.00     0.210 HD
ENDBRANCH   1  35
TORSDOF 10
ENDMDL
MODEL 4
REMARK VINA RESULT: -7.314446037      2.591      5.300
REMARK  10 active torsions:
REMARK  status: ('A' for Active; 'I' for Inactive)
REMARK    1  A    between atoms: C2_2  and  C3_3 
REMARK    2  A    between atoms: C3_3  and  C4_4 
REMARK    3  A    between atoms: C4_4  and  C5_5 
REMARK    4  A    between atoms: C5_5  and  O1_6 
REMARK    5  A    between atoms: C19_21  and  O2_22 
REMARK    6  A    between atoms: O2_22  and  C20_23 
REMARK    7  A    between atoms: C20_23  and  C21_25 
REMARK    8  A    between atoms: C21_25  and  C22_26 
REMARK    9  A    between atoms: C22_26  and  C23_27 
REMARK   10  A    between atoms: C23_27  and  N1_28 
ROOT
HETATM    1  C5  UNL     1      -1.595  22.270  -9.666  1.00  0.00     0.088 C 
HETATM    2  C6  UNL     1      -2.577  22.757 -10.704  1.00  0.00     0.041 C 
HETATM    3  C7  UNL     1      -3.773  23.456 -10.192  1.00  0.00     0.003 C 
HETATM    4  C8  UNL     1      -3.790  24.959 -10.508  1.00  0.00     0.000 C 
HETATM    5  C9  UNL     1      -3.931  25.168 -11.976  1.00  0.00     0.000 C 
HETATM    6  C10 UNL     1      -3.593  26.541 -12.440  1.00  0.00     0.000 C 
HETATM    7  C11 UNL     1      -2.219  27.009 -12.114  1.00  0.00     0.000 C 
HETATM    8  C12 UNL     1      -1.123  26.316 -12.861  1.00  0.00     0.000 C 
HETATM    9  C13 UNL     1      -0.108  25.826 -11.819  1.00  0.00     0.000 C 
HETATM   10  C14 UNL     1       0.699  24.675 -12.350  1.00  0.00     0.004 C 
HETATM   11  C15 UNL     1       0.720  23.470 -11.395  1.00  0.00     0.037 C 
HETATM   12  C16 UNL     1       0.361  23.871 -10.050  1.00  0.00    -0.046 C 
HETATM   13  C17 UNL     1       1.219  24.553  -9.383  1.00  0.00    -0.070 C 
HETATM   14  C18 UNL     1       2.557  25.033  -9.626  1.00  0.00     0.067 C 
HETATM   15  C19 UNL     1       3.307  24.190  -8.443  1.00  0.00     0.138 C 
HETATM   16  C24 UNL     1       2.387  23.078  -7.984  1.00  0.00     0.065 C 
HETATM   17  C25 UNL     1       1.012  23.456  -7.490  1.00  0.00     0.129 C 
HETATM   18  C26 UNL     1       0.785  24.943  -7.957  1.00  0.00     0.066 C 
HETATM   19  O4  UNL     1       0.031  22.733  -8.098  1.00  0.00    -0.373 OA
HETATM   20  C27 UNL     1      -0.721  23.377  -9.146  1.00  0.00     0.185 C 
ENDROOT
BRANCH  15  21
HETATM   21  O2  UNL     1       4.470  23.831  -9.025  1.00  0.00    -0.316 OA
BRANCH  21  22
HETATM   22  C20 UNL     1       5.157  22.635  -8.909  1.00  0.00     0.259 C 
HETATM   23  O3  UNL     1       5.661  22.419  -7.792  1.00  0.00    -0.265 OA
BRANCH  22  24
HETATM   24  C21 UNL     1       5.295  21.668 -10.021  1.00  0.00     0.113 C 
BRANCH  24  25
HETATM   25  C22 UNL     1       4.003  21.649 -10.792  1.00  0.00     0.037 C 
BRANCH  25  26
HETATM   26  C23 UNL     1       4.214  22.078 -12.237  1.00  0.00     0.230 C 
BRANCH  26  27
HETATM   27  N1  UNL     1       4.381  23.504 -12.253  1.00  0.00    -0.079 N 
ATOM     28  H13 UNL     1       5.096  23.826 -11.601  1.00  0.00     0.274 HD
ATOM     29  H12 UNL     1       4.819  23.840 -13.111  1.00  0.00     0.274 HD
ATOM     30  H11 UNL     1       3.469  23.928 -12.082  1.00  0.00     0.274 HD
ENDBRANCH  26  27
ENDBRANCH  25  26
ENDBRANCH  24  25
ENDBRANCH  22  24
ENDBRANCH  21  22
ENDBRANCH  15  21
BRANCH   1  31
HETATM   31  C4  UNL     1      -2.325  21.770  -8.435  1.00  0.00     0.041 C 
BRANCH  31  32
HETATM   32  C3  UNL     1      -2.436  20.335  -8.208  1.00  0.00     0.003 C 
BRANCH  32  33
HETATM   33  C2  UNL     1      -1.458  19.712  -7.260  1.00  0.00    -0.004 C 
HETATM   34  C1  UNL     1      -2.030  18.410  -6.683  1.00  0.00     0.005 C 
ENDBRANCH  32  33
ENDBRANCH  31  32
ENDBRANCH   1  31
BRANCH   1  35
HETATM   35  O1  UNL     1      -0.902  21.174 -10.149  1.00  0.00    -0.387 OA
ATOM     36  H1  UNL     1      -0.660  21.404 -11.039  1.00  0.00     0.210 HD
ENDBRANCH   1  35
TORSDOF 10
ENDMDL
MODEL 5
REMARK VINA RESULT: -7.282200095      4.338      7.922
REMARK  10 active torsions:
REMARK  status: ('A' for Active; 'I' for Inactive)
REMARK    1  A    between atoms: C2_2  and  C3_3 
REMARK    2  A    between atoms: C3_3  and  C4_4 
REMARK    3  A    between atoms: C4_4  and  C5_5 
REMARK    4  A    between atoms: C5_5  and  O1_6 
REMARK    5  A    between atoms: C19_21  and  O2_22 
REMARK    6  A    between atoms: O2_22  and  C20_23 
REMARK    7  A    between atoms: C20_23  and  C21_25 
REMARK    8  A    between atoms: C21_25  and  C22_26 
REMARK    9  A    between atoms: C22_26  and  C23_27 
REMARK   10  A    between atoms: C23_27  and  N1_28 
ROOT
HETATM    1  C5  UNL     1       1.064  18.957  -8.298  1.00  0.00     0.088 C 
HETATM    2  C6  UNL     1       0.551  17.625  -7.803  1.00  0.00     0.041 C 
HETATM    3  C7  UNL     1       0.779  17.328  -6.375  1.00  0.00     0.003 C 
HETATM    4  C8  UNL     1      -0.507  17.326  -5.534  1.00  0.00     0.000 C 
HETATM    5  C9  UNL     1      -1.376  16.186  -5.939  1.00  0.00     0.000 C 
HETATM    6  C10 UNL     1      -2.785  16.288  -5.470  1.00  0.00     0.000 C 
HETATM    7  C11 UNL     1      -3.520  17.505  -5.904  1.00  0.00     0.000 C 
HETATM    8  C12 UNL     1      -3.835  17.564  -7.366  1.00  0.00     0.000 C 
HETATM    9  C13 UNL     1      -3.331  18.920  -7.881  1.00  0.00     0.000 C 
HETATM   10  C14 UNL     1      -3.073  18.875  -9.361  1.00  0.00     0.004 C 
HETATM   11  C15 UNL     1      -1.678  19.398  -9.739  1.00  0.00     0.037 C 
HETATM   12  C16 UNL     1      -1.128  20.217  -8.677  1.00  0.00    -0.046 C 
HETATM   13  C17 UNL     1      -1.636  21.382  -8.501  1.00  0.00    -0.070 C 
HETATM   14  C18 UNL     1      -2.664  22.159  -9.148  1.00  0.00     0.067 C 
HETATM   15  C19 UNL     1      -1.715  23.388  -9.660  1.00  0.00     0.138 C 
HETATM   16  C24 UNL     1      -0.269  22.942  -9.593  1.00  0.00     0.065 C 
HETATM   17  C25 UNL     1       0.262  22.463  -8.264  1.00  0.00     0.129 C 
HETATM   18  C26 UNL     1      -1.006  22.209  -7.364  1.00  0.00     0.066 C 
HETATM   19  O4  UNL     1       0.881  21.254  -8.364  1.00  0.00    -0.373 OA
HETATM   20  C27 UNL     1       0.154  20.092  -7.920  1.00  0.00     0.185 C 
ENDROOT
BRANCH  15  21
HETATM   21  O2  UNL     1      -2.221  23.666 -10.880  1.00  0.00    -0.316 OA
BRANCH  21  22
HETATM   22  C20 UNL     1      -2.890  24.803 -11.295  1.00  0.00     0.259 C 
HETATM   23  O3  UNL     1      -2.189  25.827 -11.390  1.00  0.00    -0.265 OA
BRANCH  22  24
HETATM   24  C21 UNL     1      -4.336  24.825 -11.610  1.00  0.00     0.113 C 
BRANCH  24  25
HETATM   25  C22 UNL     1      -4.834  26.234 -11.441  1.00  0.00     0.037 C 
BRANCH  25  26
HETATM   26  C23 UNL     1      -5.292  26.823 -12.768  1.00  0.00     0.230 C 
BRANCH  26  27
HETATM   27  N1  UNL     1      -4.168  27.484 -13.368  1.00  0.00    -0.079 N 
ATOM     28  H13 UNL     1      -4.440  28.276 -13.950  1.00  0.00     0.274 HD
ATOM     29  H12 UNL     1      -3.606  28.000 -12.691  1.00  0.00     0.274 HD
ATOM     30  H11 UNL     1      -3.629  26.785 -13.878  1.00  0.00     0.274 HD
ENDBRANCH  26  27
ENDBRANCH  25  26
ENDBRANCH  24  25
ENDBRANCH  22  24
ENDBRANCH  21  22
ENDBRANCH  15  21
BRANCH   1  31
HETATM   31  C4  UNL     1       2.379  19.303  -7.628  1.00  0.00     0.041 C 
BRANCH  31  32
HETATM   32  C3  UNL     1       3.618  18.761  -8.170  1.00  0.00     0.003 C 
BRANCH  32  33
HETATM   33  C2  UNL     1       4.596  18.178  -7.197  1.00  0.00    -0.004 C 
HETATM   34  C1  UNL     1       4.237  18.595  -5.764  1.00  0.00     0.005 C 
ENDBRANCH  32  33
ENDBRANCH  31  32
ENDBRANCH   1  31
BRANCH   1  35
HETATM   35  O1  UNL     1       1.352  18.880  -9.648  1.00  0.00    -0.387 OA
ATOM     36  H1  UNL     1       0.792  19.527 -10.061  1.00  0.00     0.210 HD
ENDBRANCH   1  35
TORSDOF 10
ENDMDL
