MODEL 1
REMARK VINA RESULT: -4.973125126      0.000      0.000
REMARK  0 active torsions:
REMARK  status: ('A' for Active; 'I' for Inactive)
ROOT
HETATM    1  C1  UNL     1      29.648   2.094 -11.691  1.00  0.00     0.012 C 
HETATM    2  C2  UNL     1      29.987   3.129 -12.740  1.00  0.00     0.012 C 
HETATM    3  C3  UNL     1      31.502   3.173 -12.920  1.00  0.00     0.237 C 
HETATM    4  N1  UNL     1      31.638   3.781 -14.243  1.00  0.00    -0.074 N 
ATOM      5  H11 UNL     1      32.572   3.695 -14.644  1.00  0.00     0.277 HD
ATOM      6  H12 UNL     1      31.607   4.800 -14.235  1.00  0.00     0.277 HD
HETATM    7  C4  UNL     1      30.599   3.169 -15.043  1.00  0.00     0.237 C 
HETATM    8  C5  UNL     1      29.594   2.576 -14.093  1.00  0.00     0.012 C 
HETATM    9  C6  UNL     1      28.213   2.933 -14.508  1.00  0.00     0.012 C 
ENDROOT
TORSDOF 0
ENDMDL
MODEL 2
REMARK VINA RESULT: -4.704668086      0.241      2.298
REMARK  0 active torsions:
REMARK  status: ('A' for Active; 'I' for Inactive)
ROOT
HETATM    1  C1  UNL     1      28.130   2.817 -14.414  1.00  0.00     0.012 C 
HETATM    2  C2  UNL     1      29.579   2.494 -14.129  1.00  0.00     0.012 C 
HETATM    3  C3  UNL     1      30.464   3.380 -15.003  1.00  0.00     0.237 C 
HETATM    4  N1  UNL     1      31.738   3.344 -14.286  1.00  0.00    -0.074 N 
ATOM      5  H11 UNL     1      32.403   4.055 -14.590  1.00  0.00     0.277 HD
ATOM      6  H12 UNL     1      32.318   2.536 -14.514  1.00  0.00     0.277 HD
HETATM    7  C4  UNL     1      31.382   3.434 -12.887  1.00  0.00     0.237 C 
HETATM    8  C5  UNL     1      29.930   3.060 -12.770  1.00  0.00     0.012 C 
HETATM    9  C6  UNL     1      29.729   2.101 -11.652  1.00  0.00     0.012 C 
ENDROOT
TORSDOF 0
ENDMDL
MODEL 3
REMARK VINA RESULT: -4.451280648      1.308      2.337
REMARK  0 active torsions:
REMARK  status: ('A' for Active; 'I' for Inactive)
ROOT
HETATM    1  C1  UNL     1      29.233   3.500 -15.385  1.00  0.00     0.012 C 
HETATM    2  C2  UNL     1      30.013   2.675 -14.386  1.00  0.00     0.012 C 
HETATM    3  C3  UNL     1      31.280   3.435 -14.000  1.00  0.00     0.237 C 
HETATM    4  N1  UNL     1      31.634   2.814 -12.724  1.00  0.00    -0.074 N 
ATOM      5  H11 UNL     1      32.332   3.333 -12.192  1.00  0.00     0.277 HD
ATOM      6  H12 UNL     1      32.176   1.954 -12.819  1.00  0.00     0.277 HD
HETATM    7  C4  UNL     1      30.377   2.641 -12.031  1.00  0.00     0.237 C 
HETATM    8  C5  UNL     1      29.283   2.725 -13.061  1.00  0.00     0.012 C 
HETATM    9  C6  UNL     1      28.307   1.620 -12.874  1.00  0.00     0.012 C 
ENDROOT
TORSDOF 0
ENDMDL
MODEL 4
REMARK VINA RESULT: -4.440607001      1.284      1.425
REMARK  0 active torsions:
REMARK  status: ('A' for Active; 'I' for Inactive)
ROOT
HETATM    1  C1  UNL     1      28.220   1.675 -12.909  1.00  0.00     0.012 C 
HETATM    2  C2  UNL     1      29.215   2.812 -12.979  1.00  0.00     0.012 C 
HETATM    3  C3  UNL     1      30.368   2.520 -12.022  1.00  0.00     0.237 C 
HETATM    4  N1  UNL     1      31.432   3.371 -12.554  1.00  0.00    -0.074 N 
ATOM      5  H11 UNL     1      32.357   3.153 -12.185  1.00  0.00     0.277 HD
ATOM      6  H12 UNL     1      31.396   4.334 -12.220  1.00  0.00     0.277 HD
HETATM    7  C4  UNL     1      31.328   3.243 -13.991  1.00  0.00     0.237 C 
HETATM    8  C5  UNL     1      29.954   2.710 -14.295  1.00  0.00     0.012 C 
HETATM    9  C6  UNL     1      29.328   3.487 -15.397  1.00  0.00     0.012 C 
ENDROOT
TORSDOF 0
ENDMDL
MODEL 5
REMARK VINA RESULT: -4.306337259      1.256      2.353
REMARK  0 active torsions:
REMARK  status: ('A' for Active; 'I' for Inactive)
ROOT
HETATM    1  C1  UNL     1      28.089   3.455 -12.803  1.00  0.00     0.012 C 
HETATM    2  C2  UNL     1      29.203   2.817 -13.602  1.00  0.00     0.012 C 
HETATM    3  C3  UNL     1      29.152   3.348 -15.032  1.00  0.00     0.237 C 
HETATM    4  N1  UNL     1      30.508   3.079 -15.509  1.00  0.00    -0.074 N 
ATOM      5  H11 UNL     1      30.745   3.562 -16.375  1.00  0.00     0.277 HD
ATOM      6  H12 UNL     1      30.641   2.132 -15.864  1.00  0.00     0.277 HD
HETATM    7  C4  UNL     1      31.369   3.414 -14.396  1.00  0.00     0.237 C 
HETATM    8  C5  UNL     1      30.513   3.429 -13.158  1.00  0.00     0.012 C 
HETATM    9  C6  UNL     1      31.180   2.685 -12.057  1.00  0.00     0.012 C 
ENDROOT
TORSDOF 0
ENDMDL
