MODEL 1
REMARK VINA RESULT: -7.818441126      0.000      0.000
REMARK  5 active torsions:
REMARK  status: ('A' for Active; 'I' for Inactive)
REMARK    1  A    between atoms: C2_2  and  C4_4 
REMARK    2  A    between atoms: C4_4  and  C5_5 
REMARK    3  A    between atoms: C6_7  and  N1_8 
REMARK    4  A    between atoms: N1_8  and  C7_10 
REMARK    5  A    between atoms: C13_20  and  C14_21 
ROOT
HETATM    1  C5  UNL     1     -12.586  -2.634  -2.182  1.00  0.00     0.010 A 
HETATM    2  S1  UNL     1     -13.898  -1.616  -2.700  1.00  0.00    -0.057 SA
HETATM    3  C6  UNL     1     -14.027  -2.167  -4.302  1.00  0.00     0.150 A 
HETATM    4  N3  UNL     1     -13.077  -3.091  -4.380  1.00  0.00    -0.338 N 
ATOM      5  H3  UNL     1     -12.922  -3.602  -5.249  1.00  0.00     0.168 HD
HETATM    6  C13 UNL     1     -12.331  -3.340  -3.307  1.00  0.00     0.032 A 
ENDROOT
BRANCH   3   7
HETATM    7  N1  UNL     1     -14.862  -1.770  -5.243  1.00  0.00    -0.326 N 
ATOM      8  H1  UNL     1     -14.848  -0.776  -5.473  1.00  0.00     0.169 HD
BRANCH   7   9
HETATM    9  C7  UNL     1     -15.749  -2.551  -5.949  1.00  0.00     0.078 C 
HETATM   10  N2  UNL     1     -15.409  -3.233  -6.994  1.00  0.00    -0.380 N 
HETATM   11  C8  UNL     1     -16.163  -4.092  -7.854  1.00  0.00     0.121 C 
ATOM     12  H2  UNL     1     -14.426  -3.141  -7.252  1.00  0.00     0.160 HD
HETATM   13  C9  UNL     1     -17.486  -3.592  -8.306  1.00  0.00     0.020 C 
HETATM   14  C10 UNL     1     -18.511  -3.365  -7.245  1.00  0.00     0.002 C 
HETATM   15  C11 UNL     1     -18.125  -2.107  -6.498  1.00  0.00     0.007 C 
HETATM   16  C12 UNL     1     -17.144  -2.551  -5.436  1.00  0.00     0.076 C 
ENDBRANCH   7   9
ENDBRANCH   3   7
BRANCH   1  17
HETATM   17  C4  UNL     1     -12.171  -2.609  -0.776  1.00  0.00     0.052 C 
BRANCH  17  18
HETATM   18  C2  UNL     1     -11.135  -1.597  -0.471  1.00  0.00    -0.018 C 
HETATM   19  C1  UNL     1     -10.059  -2.281   0.387  1.00  0.00     0.010 C 
HETATM   20  C3  UNL     1     -11.591  -0.340   0.111  1.00  0.00     0.010 C 
ENDBRANCH  17  18
ENDBRANCH   1  17
BRANCH   6  21
HETATM   21  C14 UNL     1     -11.153  -4.273  -3.406  1.00  0.00    -0.008 C 
HETATM   22  C15 UNL     1      -9.808  -3.709  -3.258  1.00  0.00     0.021 C 
HETATM   23  C16 UNL     1     -11.293  -5.079  -4.721  1.00  0.00     0.021 C 
HETATM   24  C17 UNL     1     -11.258  -5.391  -2.342  1.00  0.00     0.021 C 
ENDBRANCH   6  21
TORSDOF 5
ENDMDL
MODEL 2
REMARK VINA RESULT: -7.452247917      4.130      8.253
REMARK  5 active torsions:
REMARK  status: ('A' for Active; 'I' for Inactive)
REMARK    1  A    between atoms: C2_2  and  C4_4 
REMARK    2  A    between atoms: C4_4  and  C5_5 
REMARK    3  A    between atoms: C6_7  and  N1_8 
REMARK    4  A    between atoms: N1_8  and  C7_10 
REMARK    5  A    between atoms: C13_20  and  C14_21 
ROOT
HETATM    1  C5  UNL     1     -10.879  -2.636  -0.011  1.00  0.00     0.010 A 
HETATM    2  S1  UNL     1     -10.532  -1.226   0.945  1.00  0.00    -0.057 SA
HETATM    3  C6  UNL     1     -11.665  -0.166   0.253  1.00  0.00     0.150 A 
HETATM    4  N3  UNL     1     -12.255  -0.918  -0.669  1.00  0.00    -0.338 N 
ATOM      5  H3  UNL     1     -12.996  -0.533  -1.255  1.00  0.00     0.168 HD
HETATM    6  C13 UNL     1     -11.864  -2.181  -0.819  1.00  0.00     0.032 A 
ENDROOT
BRANCH   3   7
HETATM    7  N1  UNL     1     -11.899   1.097   0.551  1.00  0.00    -0.326 N 
ATOM      8  H1  UNL     1     -12.700   1.532   0.093  1.00  0.00     0.169 HD
BRANCH   7   9
HETATM    9  C7  UNL     1     -11.179   1.892   1.414  1.00  0.00     0.078 C 
HETATM   10  N2  UNL     1     -11.684   2.400   2.491  1.00  0.00    -0.380 N 
HETATM   11  C8  UNL     1     -11.117   3.237   3.503  1.00  0.00     0.121 C 
ATOM     12  H2  UNL     1     -12.664   2.161   2.646  1.00  0.00     0.160 HD
HETATM   13  C9  UNL     1     -10.311   4.395   3.040  1.00  0.00     0.020 C 
HETATM   14  C10 UNL     1      -9.070   4.080   2.274  1.00  0.00     0.002 C 
HETATM   15  C11 UNL     1      -9.486   3.628   0.891  1.00  0.00     0.007 C 
HETATM   16  C12 UNL     1      -9.768   2.147   1.017  1.00  0.00     0.076 C 
ENDBRANCH   7   9
ENDBRANCH   3   7
BRANCH   1  17
HETATM   17  C4  UNL     1     -10.208  -3.901   0.305  1.00  0.00     0.052 C 
BRANCH  17  18
HETATM   18  C2  UNL     1      -8.993  -4.157  -0.500  1.00  0.00    -0.018 C 
HETATM   19  C1  UNL     1      -9.178  -5.514  -1.196  1.00  0.00     0.010 C 
HETATM   20  C3  UNL     1      -7.712  -4.059   0.190  1.00  0.00     0.010 C 
ENDBRANCH  17  18
ENDBRANCH   1  17
BRANCH   6  21
HETATM   21  C14 UNL     1     -12.407  -3.011  -1.951  1.00  0.00    -0.008 C 
HETATM   22  C15 UNL     1     -11.521  -3.308  -3.080  1.00  0.00     0.021 C 
HETATM   23  C16 UNL     1     -13.735  -2.367  -2.420  1.00  0.00     0.021 C 
HETATM   24  C17 UNL     1     -12.895  -4.383  -1.430  1.00  0.00     0.021 C 
ENDBRANCH   6  21
TORSDOF 5
ENDMDL
MODEL 3
REMARK VINA RESULT: -7.441939173      3.664      7.983
REMARK  5 active torsions:
REMARK  status: ('A' for Active; 'I' for Inactive)
REMARK    1  A    between atoms: C2_2  and  C4_4 
REMARK    2  A    between atoms: C4_4  and  C5_5 
REMARK    3  A    between atoms: C6_7  and  N1_8 
REMARK    4  A    between atoms: N1_8  and  C7_10 
REMARK    5  A    between atoms: C13_20  and  C14_21 
ROOT
HETATM    1  C5  UNL     1     -11.638  -2.487  -1.324  1.00  0.00     0.010 A 
HETATM    2  S1  UNL     1     -11.036  -1.429  -0.083  1.00  0.00    -0.057 SA
HETATM    3  C6  UNL     1     -12.238  -0.231  -0.167  1.00  0.00     0.150 A 
HETATM    4  N3  UNL     1     -13.040  -0.677  -1.127  1.00  0.00    -0.338 N 
ATOM      5  H3  UNL     1     -13.868  -0.147  -1.398  1.00  0.00     0.168 HD
HETATM    6  C13 UNL     1     -12.747  -1.827  -1.729  1.00  0.00     0.032 A 
ENDROOT
BRANCH   3   7
HETATM    7  N1  UNL     1     -12.346   0.877   0.541  1.00  0.00    -0.326 N 
ATOM      8  H1  UNL     1     -13.284   1.266   0.636  1.00  0.00     0.169 HD
BRANCH   7   9
HETATM    9  C7  UNL     1     -11.330   1.565   1.165  1.00  0.00     0.078 C 
HETATM   10  N2  UNL     1     -10.833   2.663   0.697  1.00  0.00    -0.380 N 
HETATM   11  C8  UNL     1      -9.794   3.518   1.183  1.00  0.00     0.121 C 
ATOM     12  H2  UNL     1     -11.258   2.976  -0.176  1.00  0.00     0.160 HD
HETATM   13  C9  UNL     1      -8.545   2.859   1.642  1.00  0.00     0.020 C 
HETATM   14  C10 UNL     1      -8.666   1.946   2.816  1.00  0.00     0.002 C 
HETATM   15  C11 UNL     1      -9.338   0.676   2.343  1.00  0.00     0.007 C 
HETATM   16  C12 UNL     1     -10.823   0.950   2.420  1.00  0.00     0.076 C 
ENDBRANCH   7   9
ENDBRANCH   3   7
BRANCH   1  17
HETATM   17  C4  UNL     1     -10.976  -3.775  -1.553  1.00  0.00     0.052 C 
BRANCH  17  18
HETATM   18  C2  UNL     1     -11.259  -4.792  -0.516  1.00  0.00    -0.018 C 
HETATM   19  C1  UNL     1      -9.970  -4.996   0.295  1.00  0.00     0.010 C 
HETATM   20  C3  UNL     1     -11.835  -6.053  -0.968  1.00  0.00     0.010 C 
ENDBRANCH  17  18
ENDBRANCH   1  17
BRANCH   6  21
HETATM   21  C14 UNL     1     -13.551  -2.283  -2.917  1.00  0.00    -0.008 C 
HETATM   22  C15 UNL     1     -13.726  -3.724  -3.124  1.00  0.00     0.021 C 
HETATM   23  C16 UNL     1     -12.976  -1.591  -4.177  1.00  0.00     0.021 C 
HETATM   24  C17 UNL     1     -14.980  -1.692  -2.862  1.00  0.00     0.021 C 
ENDBRANCH   6  21
TORSDOF 5
ENDMDL
MODEL 4
REMARK VINA RESULT: -7.412311157      3.681      7.882
REMARK  5 active torsions:
REMARK  status: ('A' for Active; 'I' for Inactive)
REMARK    1  A    between atoms: C2_2  and  C4_4 
REMARK    2  A    between atoms: C4_4  and  C5_5 
REMARK    3  A    between atoms: C6_7  and  N1_8 
REMARK    4  A    between atoms: N1_8  and  C7_10 
REMARK    5  A    between atoms: C13_20  and  C14_21 
ROOT
HETATM    1  C5  UNL     1     -12.388  -3.383  -1.579  1.00  0.00     0.010 A 
HETATM    2  S1  UNL     1     -12.059  -1.916  -0.706  1.00  0.00    -0.057 SA
HETATM    3  C6  UNL     1     -10.604  -2.383   0.035  1.00  0.00     0.150 A 
HETATM    4  N3  UNL     1     -10.428  -3.624  -0.404  1.00  0.00    -0.338 N 
ATOM      5  H3  UNL     1      -9.614  -4.165  -0.114  1.00  0.00     0.168 HD
HETATM    6  C13 UNL     1     -11.331  -4.150  -1.227  1.00  0.00     0.032 A 
ENDROOT
BRANCH   3   7
HETATM    7  N1  UNL     1      -9.837  -1.688   0.854  1.00  0.00    -0.326 N 
ATOM      8  H1  UNL     1      -8.897  -2.050   1.013  1.00  0.00     0.169 HD
BRANCH   7   9
HETATM    9  C7  UNL     1     -10.169  -0.528   1.516  1.00  0.00     0.078 C 
HETATM   10  N2  UNL     1     -11.131   0.249   1.135  1.00  0.00    -0.380 N 
HETATM   11  C8  UNL     1     -11.630   1.477   1.673  1.00  0.00     0.121 C 
ATOM     12  H2  UNL     1     -11.622  -0.072   0.300  1.00  0.00     0.160 HD
HETATM   13  C9  UNL     1     -10.621   2.500   2.050  1.00  0.00     0.020 C 
HETATM   14  C10 UNL     1      -9.675   2.133   3.143  1.00  0.00     0.002 C 
HETATM   15  C11 UNL     1      -8.678   1.146   2.574  1.00  0.00     0.007 C 
HETATM   16  C12 UNL     1      -9.333  -0.211   2.703  1.00  0.00     0.076 C 
ENDBRANCH   7   9
ENDBRANCH   3   7
BRANCH   1  17
HETATM   17  C4  UNL     1     -13.528  -3.431  -2.500  1.00  0.00     0.052 C 
BRANCH  17  18
HETATM   18  C2  UNL     1     -13.909  -2.114  -3.056  1.00  0.00    -0.018 C 
HETATM   19  C1  UNL     1     -15.418  -2.154  -3.344  1.00  0.00     0.010 C 
HETATM   20  C3  UNL     1     -13.140  -1.631  -4.197  1.00  0.00     0.010 C 
ENDBRANCH  17  18
ENDBRANCH   1  17
BRANCH   6  21
HETATM   21  C14 UNL     1     -11.238  -5.600  -1.622  1.00  0.00    -0.008 C 
HETATM   22  C15 UNL     1     -11.597  -5.969  -2.994  1.00  0.00     0.021 C 
HETATM   23  C16 UNL     1     -12.031  -6.430  -0.582  1.00  0.00     0.021 C 
HETATM   24  C17 UNL     1      -9.800  -6.128  -1.410  1.00  0.00     0.021 C 
ENDBRANCH   6  21
TORSDOF 5
ENDMDL
MODEL 5
REMARK VINA RESULT: -7.331921809      3.232      7.839
REMARK  5 active torsions:
REMARK  status: ('A' for Active; 'I' for Inactive)
REMARK    1  A    between atoms: C2_2  and  C4_4 
REMARK    2  A    between atoms: C4_4  and  C5_5 
REMARK    3  A    between atoms: C6_7  and  N1_8 
REMARK    4  A    between atoms: N1_8  and  C7_10 
REMARK    5  A    between atoms: C13_20  and  C14_21 
ROOT
HETATM    1  C5  UNL     1     -12.359  -3.107  -1.761  1.00  0.00     0.010 A 
HETATM    2  S1  UNL     1     -11.575  -2.291  -0.441  1.00  0.00    -0.057 SA
HETATM    3  C6  UNL     1     -12.342  -0.782  -0.585  1.00  0.00     0.150 A 
HETATM    4  N3  UNL     1     -13.154  -0.956  -1.621  1.00  0.00    -0.338 N 
ATOM      5  H3  UNL     1     -13.754  -0.195  -1.941  1.00  0.00     0.168 HD
HETATM    6  C13 UNL     1     -13.174  -2.136  -2.234  1.00  0.00     0.032 A 
ENDROOT
BRANCH   3   7
HETATM    7  N1  UNL     1     -12.170   0.301   0.148  1.00  0.00    -0.326 N 
ATOM      8  H1  UNL     1     -12.967   0.934   0.219  1.00  0.00     0.169 HD
BRANCH   7   9
HETATM    9  C7  UNL     1     -11.031   0.671   0.827  1.00  0.00     0.078 C 
HETATM   10  N2  UNL     1     -10.458  -0.087   1.705  1.00  0.00    -0.380 N 
HETATM   11  C8  UNL     1      -9.289   0.105   2.506  1.00  0.00     0.121 C 
ATOM     12  H2  UNL     1     -10.924  -0.982   1.852  1.00  0.00     0.160 HD
HETATM   13  C9  UNL     1      -9.153   1.417   3.188  1.00  0.00     0.020 C 
HETATM   14  C10 UNL     1      -9.033   2.616   2.308  1.00  0.00     0.002 C 
HETATM   15  C11 UNL     1     -10.400   2.895   1.723  1.00  0.00     0.007 C 
HETATM   16  C12 UNL     1     -10.501   2.019   0.493  1.00  0.00     0.076 C 
ENDBRANCH   7   9
ENDBRANCH   3   7
BRANCH   1  17
HETATM   17  C4  UNL     1     -12.103  -4.534  -1.977  1.00  0.00     0.052 C 
BRANCH  17  18
HETATM   18  C2  UNL     1     -11.161  -5.132  -1.004  1.00  0.00    -0.018 C 
HETATM   19  C1  UNL     1      -9.812  -5.309  -1.717  1.00  0.00     0.010 C 
HETATM   20  C3  UNL     1     -11.595  -6.349  -0.329  1.00  0.00     0.010 C 
ENDBRANCH  17  18
ENDBRANCH   1  17
BRANCH   6  21
HETATM   21  C14 UNL     1     -13.971  -2.317  -3.499  1.00  0.00    -0.008 C 
HETATM   22  C15 UNL     1     -15.427  -2.166  -3.428  1.00  0.00     0.021 C 
HETATM   23  C16 UNL     1     -13.567  -3.675  -4.126  1.00  0.00     0.021 C 
HETATM   24  C17 UNL     1     -13.498  -1.321  -4.583  1.00  0.00     0.021 C 
ENDBRANCH   6  21
TORSDOF 5
ENDMDL
