MODEL 1
REMARK VINA RESULT: -8.888986785      0.000      0.000
REMARK  2 active torsions:
REMARK  status: ('A' for Active; 'I' for Inactive)
REMARK    1  A    between atoms: C2_2  and  C3_3 
REMARK    2  A    between atoms: C12_15  and  O4_16 
ROOT
HETATM    1  C3  UNL     1      16.204   1.747 -34.200  1.00  0.00     0.066 C 
HETATM    2  C4  UNL     1      16.047   0.552 -35.095  1.00  0.00     0.055 C 
HETATM    3  C5  UNL     1      16.940   0.598 -36.254  1.00  0.00     0.119 C 
HETATM    4  C6  UNL     1      18.147  -0.290 -36.068  1.00  0.00     0.266 C 
HETATM    5  O1  UNL     1      18.400  -1.509 -36.042  1.00  0.00    -0.265 OA
HETATM    6  O2  UNL     1      18.888   0.868 -35.934  1.00  0.00    -0.314 OA
HETATM    7  C7  UNL     1      17.835   1.677 -36.488  1.00  0.00     0.157 C 
HETATM    8  C8  UNL     1      17.727   3.020 -35.873  1.00  0.00     0.022 A 
HETATM    9  C9  UNL     1      18.983   3.515 -35.369  1.00  0.00     0.048 A 
HETATM   10  C10 UNL     1      18.102   3.041 -34.350  1.00  0.00     0.135 A 
HETATM   11  O3  UNL     1      17.605   1.854 -34.004  1.00  0.00    -0.373 OA
HETATM   12  C11 UNL     1      16.387   3.509 -35.896  1.00  0.00     0.036 C 
HETATM   13  C12 UNL     1      16.067   4.952 -35.954  1.00  0.00     0.127 C 
HETATM   14  C14 UNL     1      14.638   5.060 -36.442  1.00  0.00     0.049 C 
HETATM   15  C15 UNL     1      13.737   3.955 -36.093  1.00  0.00     0.023 C 
HETATM   16  C16 UNL     1      13.254   3.228 -37.361  1.00  0.00     0.024 C 
HETATM   17  C17 UNL     1      12.479   4.588 -35.533  1.00  0.00     0.135 C 
HETATM   18  O5  UNL     1      11.691   5.208 -36.218  1.00  0.00    -0.297 OA
HETATM   19  C18 UNL     1      12.378   4.341 -34.102  1.00  0.00     0.079 C 
HETATM   20  C19 UNL     1      13.317   3.235 -33.807  1.00  0.00     0.013 C 
HETATM   21  C20 UNL     1      14.168   2.974 -35.047  1.00  0.00     0.009 C 
HETATM   22  C21 UNL     1      15.596   2.998 -34.679  1.00  0.00     0.033 C 
ENDROOT
BRANCH   1  23
HETATM   23  C2  UNL     1      15.664   1.357 -32.820  1.00  0.00     0.034 C 
HETATM   24  C1  UNL     1      16.790   0.839 -31.943  1.00  0.00     0.008 C 
ENDBRANCH   1  23
BRANCH  13  25
HETATM   25  O4  UNL     1      16.062   5.585 -34.692  1.00  0.00    -0.390 OA
HETATM   26  C13 UNL     1      16.556   6.871 -34.767  1.00  0.00     0.202 C 
ENDBRANCH  13  25
TORSDOF 2
ENDMDL
MODEL 2
REMARK VINA RESULT: -8.871920211      1.612      3.434
REMARK  2 active torsions:
REMARK  status: ('A' for Active; 'I' for Inactive)
REMARK    1  A    between atoms: C2_2  and  C3_3 
REMARK    2  A    between atoms: C12_15  and  O4_16 
ROOT
HETATM    1  C3  UNL     1      16.677   1.530 -36.759  1.00  0.00     0.066 C 
HETATM    2  C4  UNL     1      17.893   2.347 -37.089  1.00  0.00     0.055 C 
HETATM    3  C5  UNL     1      18.717   2.627 -35.910  1.00  0.00     0.119 C 
HETATM    4  C6  UNL     1      19.923   1.721 -35.841  1.00  0.00     0.266 C 
HETATM    5  O1  UNL     1      21.003   1.575 -36.443  1.00  0.00    -0.265 OA
HETATM    6  O2  UNL     1      19.299   1.093 -34.780  1.00  0.00    -0.314 OA
HETATM    7  C7  UNL     1      18.368   2.176 -34.608  1.00  0.00     0.157 C 
HETATM    8  C8  UNL     1      17.015   1.739 -34.193  1.00  0.00     0.022 A 
HETATM    9  C9  UNL     1      17.023   0.517 -33.432  1.00  0.00     0.048 A 
HETATM   10  C10 UNL     1      16.599   0.348 -34.785  1.00  0.00     0.135 A 
HETATM   11  O3  UNL     1      17.179   0.456 -35.979  1.00  0.00    -0.373 OA
HETATM   12  C11 UNL     1      16.002   2.624 -34.670  1.00  0.00     0.036 C 
HETATM   13  C12 UNL     1      14.724   2.830 -33.954  1.00  0.00     0.127 C 
HETATM   14  C14 UNL     1      14.148   4.136 -34.462  1.00  0.00     0.049 C 
HETATM   15  C15 UNL     1      14.471   4.504 -35.846  1.00  0.00     0.023 C 
HETATM   16  C16 UNL     1      15.302   5.800 -35.882  1.00  0.00     0.024 C 
HETATM   17  C17 UNL     1      13.162   4.891 -36.503  1.00  0.00     0.135 C 
HETATM   18  O5  UNL     1      12.555   5.905 -36.219  1.00  0.00    -0.297 OA
HETATM   19  C18 UNL     1      12.769   3.891 -37.485  1.00  0.00     0.079 C 
HETATM   20  C19 UNL     1      13.981   3.088 -37.763  1.00  0.00     0.013 C 
HETATM   21  C20 UNL     1      15.060   3.467 -36.751  1.00  0.00     0.009 C 
HETATM   22  C21 UNL     1      15.575   2.249 -36.100  1.00  0.00     0.033 C 
ENDROOT
BRANCH   1  23
HETATM   23  C2  UNL     1      16.210   0.863 -38.056  1.00  0.00     0.034 C 
HETATM   24  C1  UNL     1      17.002   1.398 -39.236  1.00  0.00     0.008 C 
ENDBRANCH   1  23
BRANCH  13  25
HETATM   25  O4  UNL     1      13.740   1.864 -34.258  1.00  0.00    -0.390 OA
HETATM   26  C13 UNL     1      13.336   1.180 -33.130  1.00  0.00     0.202 C 
ENDBRANCH  13  25
TORSDOF 2
ENDMDL
MODEL 3
REMARK VINA RESULT: -8.406187825      1.248      5.699
REMARK  2 active torsions:
REMARK  status: ('A' for Active; 'I' for Inactive)
REMARK    1  A    between atoms: C2_2  and  C3_3 
REMARK    2  A    between atoms: C12_15  and  O4_16 
ROOT
HETATM    1  C3  UNL     1      15.511   4.490 -35.395  1.00  0.00     0.066 C 
HETATM    2  C4  UNL     1      15.174   4.604 -36.855  1.00  0.00     0.055 C 
HETATM    3  C5  UNL     1      13.821   4.130 -37.155  1.00  0.00     0.119 C 
HETATM    4  C6  UNL     1      12.850   5.274 -37.325  1.00  0.00     0.266 C 
HETATM    5  O1  UNL     1      12.618   6.171 -38.156  1.00  0.00    -0.265 OA
HETATM    6  O2  UNL     1      12.302   4.890 -36.116  1.00  0.00    -0.314 OA
HETATM    7  C7  UNL     1      12.953   3.608 -36.158  1.00  0.00     0.157 C 
HETATM    8  C8  UNL     1      13.384   3.114 -34.830  1.00  0.00     0.022 A 
HETATM    9  C9  UNL     1      12.560   3.597 -33.751  1.00  0.00     0.048 A 
HETATM   10  C10 UNL     1      13.821   4.258 -33.850  1.00  0.00     0.135 A 
HETATM   11  O3  UNL     1      14.399   5.070 -34.734  1.00  0.00    -0.373 OA
HETATM   12  C11 UNL     1      14.543   2.288 -34.921  1.00  0.00     0.036 C 
HETATM   13  C12 UNL     1      14.822   1.200 -33.959  1.00  0.00     0.127 C 
HETATM   14  C14 UNL     1      15.818   0.274 -34.627  1.00  0.00     0.049 C 
HETATM   15  C15 UNL     1      16.748   0.887 -35.583  1.00  0.00     0.023 C 
HETATM   16  C16 UNL     1      16.517   0.330 -36.999  1.00  0.00     0.024 C 
HETATM   17  C17 UNL     1      18.131   0.389 -35.215  1.00  0.00     0.135 C 
HETATM   18  O5  UNL     1      18.485  -0.762 -35.384  1.00  0.00    -0.297 OA
HETATM   19  C18 UNL     1      18.929   1.467 -34.650  1.00  0.00     0.079 C 
HETATM   20  C19 UNL     1      18.240   2.725 -35.016  1.00  0.00     0.013 C 
HETATM   21  C20 UNL     1      16.877   2.379 -35.611  1.00  0.00     0.009 C 
HETATM   22  C21 UNL     1      15.826   3.138 -34.909  1.00  0.00     0.033 C 
ENDROOT
BRANCH   1  23
HETATM   23  C2  UNL     1      16.660   5.464 -35.116  1.00  0.00     0.034 C 
HETATM   24  C1  UNL     1      16.132   6.884 -35.017  1.00  0.00     0.008 C 
ENDBRANCH   1  23
BRANCH  13  25
HETATM   25  O4  UNL     1      15.472   1.634 -32.783  1.00  0.00    -0.390 OA
HETATM   26  C13 UNL     1      14.766   1.277 -31.652  1.00  0.00     0.202 C 
ENDBRANCH  13  25
TORSDOF 2
ENDMDL
MODEL 4
REMARK VINA RESULT: -8.144453171      2.383      5.534
REMARK  2 active torsions:
REMARK  status: ('A' for Active; 'I' for Inactive)
REMARK    1  A    between atoms: C2_2  and  C3_3 
REMARK    2  A    between atoms: C12_15  and  O4_16 
ROOT
HETATM    1  C3  UNL     1      16.601   1.653 -36.080  1.00  0.00     0.066 C 
HETATM    2  C4  UNL     1      16.151   0.562 -35.150  1.00  0.00     0.055 C 
HETATM    3  C5  UNL     1      17.100   0.328 -34.060  1.00  0.00     0.119 C 
HETATM    4  C6  UNL     1      16.642   0.968 -32.771  1.00  0.00     0.266 C 
HETATM    5  O1  UNL     1      15.758   0.786 -31.913  1.00  0.00    -0.265 OA
HETATM    6  O2  UNL     1      17.662   1.883 -32.949  1.00  0.00    -0.314 OA
HETATM    7  C7  UNL     1      18.313   1.057 -33.930  1.00  0.00     0.157 C 
HETATM    8  C8  UNL     1      18.964   1.824 -35.018  1.00  0.00     0.022 A 
HETATM    9  C9  UNL     1      19.403   3.132 -34.605  1.00  0.00     0.048 A 
HETATM   10  C10 UNL     1      18.209   3.148 -35.387  1.00  0.00     0.135 A 
HETATM   11  O3  UNL     1      16.959   2.720 -35.217  1.00  0.00    -0.373 OA
HETATM   12  C11 UNL     1      18.984   1.095 -36.244  1.00  0.00     0.036 C 
HETATM   13  C12 UNL     1      20.040   1.278 -37.262  1.00  0.00     0.127 C 
HETATM   14  C14 UNL     1      20.009   0.048 -38.147  1.00  0.00     0.049 C 
HETATM   15  C15 UNL     1      18.708  -0.611 -38.312  1.00  0.00     0.023 C 
HETATM   16  C16 UNL     1      18.742  -2.034 -37.727  1.00  0.00     0.024 C 
HETATM   17  C17 UNL     1      18.526  -0.831 -39.800  1.00  0.00     0.135 C 
HETATM   18  O5  UNL     1      19.179  -1.637 -40.433  1.00  0.00    -0.297 OA
HETATM   19  C18 UNL     1      17.485   0.043 -40.322  1.00  0.00     0.079 C 
HETATM   20  C19 UNL     1      16.724   0.524 -39.148  1.00  0.00     0.013 C 
HETATM   21  C20 UNL     1      17.470   0.114 -37.881  1.00  0.00     0.009 C 
HETATM   22  C21 UNL     1      17.672   1.296 -37.023  1.00  0.00     0.033 C 
ENDROOT
BRANCH   1  23
HETATM   23  C2  UNL     1      15.359   2.167 -36.814  1.00  0.00     0.034 C 
HETATM   24  C1  UNL     1      14.412   2.840 -35.836  1.00  0.00     0.008 C 
ENDBRANCH   1  23
BRANCH  13  25
HETATM   25  O4  UNL     1      19.801   2.356 -38.142  1.00  0.00    -0.390 OA
HETATM   26  C13 UNL     1      20.888   2.597 -38.957  1.00  0.00     0.202 C 
ENDBRANCH  13  25
TORSDOF 2
ENDMDL
MODEL 5
REMARK VINA RESULT: -8.033251093      2.093      3.565
REMARK  2 active torsions:
REMARK  status: ('A' for Active; 'I' for Inactive)
REMARK    1  A    between atoms: C2_2  and  C3_3 
REMARK    2  A    between atoms: C12_15  and  O4_16 
ROOT
HETATM    1  C3  UNL     1      18.490  -0.246 -36.277  1.00  0.00     0.066 C 
HETATM    2  C4  UNL     1      17.732  -0.827 -37.437  1.00  0.00     0.055 C 
HETATM    3  C5  UNL     1      17.977  -0.102 -38.685  1.00  0.00     0.119 C 
HETATM    4  C6  UNL     1      18.960  -0.828 -39.573  1.00  0.00     0.266 C 
HETATM    5  O1  UNL     1      18.985  -1.855 -40.276  1.00  0.00    -0.265 OA
HETATM    6  O2  UNL     1      19.864   0.171 -39.263  1.00  0.00    -0.314 OA
HETATM    7  C7  UNL     1      18.830   1.033 -38.757  1.00  0.00     0.157 C 
HETATM    8  C8  UNL     1      19.252   1.854 -37.598  1.00  0.00     0.022 A 
HETATM    9  C9  UNL     1      20.662   2.152 -37.599  1.00  0.00     0.048 A 
HETATM   10  C10 UNL     1      20.290   1.135 -36.668  1.00  0.00     0.135 A 
HETATM   11  O3  UNL     1      19.816  -0.107 -36.761  1.00  0.00    -0.373 OA
HETATM   12  C11 UNL     1      18.161   2.142 -36.726  1.00  0.00     0.036 C 
HETATM   13  C12 UNL     1      18.102   3.370 -35.903  1.00  0.00     0.127 C 
HETATM   14  C14 UNL     1      16.652   3.560 -35.511  1.00  0.00     0.049 C 
HETATM   15  C15 UNL     1      15.843   2.344 -35.366  1.00  0.00     0.023 C 
HETATM   16  C16 UNL     1      14.710   2.319 -36.407  1.00  0.00     0.024 C 
HETATM   17  C17 UNL     1      15.119   2.466 -34.040  1.00  0.00     0.135 C 
HETATM   18  O5  UNL     1      14.221   3.262 -33.849  1.00  0.00    -0.297 OA
HETATM   19  C18 UNL     1      15.655   1.515 -33.078  1.00  0.00     0.079 C 
HETATM   20  C19 UNL     1      16.419   0.519 -33.863  1.00  0.00     0.013 C 
HETATM   21  C20 UNL     1      16.537   1.018 -35.301  1.00  0.00     0.009 C 
HETATM   22  C21 UNL     1      17.952   1.001 -35.714  1.00  0.00     0.033 C 
ENDROOT
BRANCH   1  23
HETATM   23  C2  UNL     1      18.596  -1.340 -35.209  1.00  0.00     0.034 C 
HETATM   24  C1  UNL     1      19.043  -2.647 -35.839  1.00  0.00     0.008 C 
ENDBRANCH   1  23
BRANCH  13  25
HETATM   25  O4  UNL     1      18.793   3.266 -34.676  1.00  0.00    -0.390 OA
HETATM   26  C13 UNL     1      19.824   4.178 -34.595  1.00  0.00     0.202 C 
ENDBRANCH  13  25
TORSDOF 2
ENDMDL
