MODEL 1
REMARK VINA RESULT: -8.112634177      0.000      0.000
REMARK  3 active torsions:
REMARK  status: ('A' for Active; 'I' for Inactive)
REMARK    1  A    between atoms: C2_2  and  O2_4 
REMARK    2  A    between atoms: O2_4  and  C3_5 
REMARK    3  A    between atoms: C15_19  and  C16_20 
ROOT
HETATM    1  C3  UNL     1      14.955   1.356 -33.478  1.00  0.00     0.144 C 
HETATM    2  C4  UNL     1      15.385   0.188 -34.352  1.00  0.00     0.066 C 
HETATM    3  C5  UNL     1      16.782   0.002 -34.062  1.00  0.00     0.139 C 
HETATM    4  O3  UNL     1      16.712  -0.114 -32.627  1.00  0.00    -0.355 OA
HETATM    5  C6  UNL     1      17.043   1.255 -32.343  1.00  0.00     0.267 C 
HETATM    6  O4  UNL     1      18.355   1.056 -32.238  1.00  0.00    -0.360 OA
HETATM    7  C7  UNL     1      18.913   0.245 -33.303  1.00  0.00     0.184 C 
HETATM    8  C8  UNL     1      17.973   0.720 -34.417  1.00  0.00     0.020 C 
HETATM    9  C9  UNL     1      18.186   0.368 -35.818  1.00  0.00     0.014 C 
HETATM   10  C10 UNL     1      17.156   1.195 -36.582  1.00  0.00     0.041 C 
HETATM   11  C11 UNL     1      16.608   2.380 -35.846  1.00  0.00    -0.072 C 
HETATM   12  C12 UNL     1      15.869   3.157 -36.641  1.00  0.00    -0.085 C 
HETATM   13  C13 UNL     1      15.226   4.396 -36.125  1.00  0.00     0.043 C 
HETATM   14  C14 UNL     1      15.641   2.847 -38.075  1.00  0.00     0.043 C 
HETATM   15  C15 UNL     1      16.866   2.708 -34.452  1.00  0.00     0.035 C 
HETATM   16  C16 UNL     1      16.258   2.100 -33.263  1.00  0.00     0.079 C 
HETATM   17  C17 UNL     1      18.274   2.163 -34.328  1.00  0.00     0.040 C 
HETATM   18  C18 UNL     1      19.317   2.725 -35.182  1.00  0.00    -0.032 C 
HETATM   19  C19 UNL     1      19.243   4.235 -35.200  1.00  0.00     0.048 C 
HETATM   20  C20 UNL     1      19.580   2.118 -36.469  1.00  0.00     0.155 C 
HETATM   21  O5  UNL     1      19.818   2.739 -37.449  1.00  0.00    -0.293 OA
HETATM   22  C21 UNL     1      19.519   0.639 -36.443  1.00  0.00     0.061 C 
HETATM   23  C22 UNL     1      19.491   0.147 -37.862  1.00  0.00     0.018 C 
ENDROOT
BRANCH   1  24
HETATM   24  O2  UNL     1      13.873   2.068 -33.876  1.00  0.00    -0.316 OA
BRANCH  24  25
HETATM   25  C2  UNL     1      13.202   2.971 -33.102  1.00  0.00     0.255 C 
HETATM   26  C1  UNL     1      12.582   4.224 -33.603  1.00  0.00     0.126 C 
HETATM   27  O1  UNL     1      13.088   2.741 -31.854  1.00  0.00    -0.266 OA
ENDBRANCH  24  25
ENDBRANCH   1  24
TORSDOF 3
ENDMDL
MODEL 2
REMARK VINA RESULT: -7.957462692      1.179      1.327
REMARK  3 active torsions:
REMARK  status: ('A' for Active; 'I' for Inactive)
REMARK    1  A    between atoms: C2_2  and  O2_4 
REMARK    2  A    between atoms: O2_4  and  C3_5 
REMARK    3  A    between atoms: C15_19  and  C16_20 
ROOT
HETATM    1  C3  UNL     1      15.620   1.608 -33.198  1.00  0.00     0.144 C 
HETATM    2  C4  UNL     1      15.249   0.535 -34.211  1.00  0.00     0.066 C 
HETATM    3  C5  UNL     1      16.498  -0.078 -34.577  1.00  0.00     0.139 C 
HETATM    4  O3  UNL     1      16.990  -0.415 -33.265  1.00  0.00    -0.355 OA
HETATM    5  C6  UNL     1      17.832   0.739 -33.113  1.00  0.00     0.267 C 
HETATM    6  O4  UNL     1      18.930   0.169 -33.608  1.00  0.00    -0.360 OA
HETATM    7  C7  UNL     1      18.704  -0.569 -34.835  1.00  0.00     0.184 C 
HETATM    8  C8  UNL     1      17.600   0.332 -35.400  1.00  0.00     0.020 C 
HETATM    9  C9  UNL     1      17.092   0.181 -36.761  1.00  0.00     0.014 C 
HETATM   10  C10 UNL     1      16.168   1.379 -36.961  1.00  0.00     0.041 C 
HETATM   11  C11 UNL     1      16.388   2.525 -36.019  1.00  0.00    -0.072 C 
HETATM   12  C12 UNL     1      15.684   3.601 -36.378  1.00  0.00    -0.085 C 
HETATM   13  C13 UNL     1      15.750   4.861 -35.590  1.00  0.00     0.043 C 
HETATM   14  C14 UNL     1      14.800   3.617 -37.571  1.00  0.00     0.043 C 
HETATM   15  C15 UNL     1      17.287   2.524 -34.875  1.00  0.00     0.035 C 
HETATM   16  C16 UNL     1      17.060   1.914 -33.560  1.00  0.00     0.079 C 
HETATM   17  C17 UNL     1      18.361   1.598 -35.407  1.00  0.00     0.040 C 
HETATM   18  C18 UNL     1      19.081   1.987 -36.617  1.00  0.00    -0.032 C 
HETATM   19  C19 UNL     1      19.501   3.438 -36.550  1.00  0.00     0.048 C 
HETATM   20  C20 UNL     1      18.580   1.562 -37.905  1.00  0.00     0.155 C 
HETATM   21  O5  UNL     1      18.582   2.251 -38.869  1.00  0.00    -0.293 OA
HETATM   22  C21 UNL     1      18.059   0.176 -37.904  1.00  0.00     0.061 C 
HETATM   23  C22 UNL     1      17.293  -0.038 -39.178  1.00  0.00     0.018 C 
ENDROOT
BRANCH   1  24
HETATM   24  O2  UNL     1      14.766   2.649 -33.051  1.00  0.00    -0.316 OA
BRANCH  24  25
HETATM   25  C2  UNL     1      13.485   2.551 -32.590  1.00  0.00     0.255 C 
HETATM   26  C1  UNL     1      12.268   2.798 -33.404  1.00  0.00     0.126 C 
HETATM   27  O1  UNL     1      13.297   2.225 -31.373  1.00  0.00    -0.266 OA
ENDBRANCH  24  25
ENDBRANCH   1  24
TORSDOF 3
ENDMDL
MODEL 3
REMARK VINA RESULT: -7.952573456      2.305      5.440
REMARK  3 active torsions:
REMARK  status: ('A' for Active; 'I' for Inactive)
REMARK    1  A    between atoms: C2_2  and  O2_4 
REMARK    2  A    between atoms: O2_4  and  C3_5 
REMARK    3  A    between atoms: C15_19  and  C16_20 
ROOT
HETATM    1  C3  UNL     1      18.928  -1.088 -36.412  1.00  0.00     0.144 C 
HETATM    2  C4  UNL     1      17.479  -1.074 -36.877  1.00  0.00     0.066 C 
HETATM    3  C5  UNL     1      17.368   0.092 -37.712  1.00  0.00     0.139 C 
HETATM    4  O3  UNL     1      18.453  -0.166 -38.625  1.00  0.00    -0.355 OA
HETATM    5  C6  UNL     1      19.422   0.655 -37.953  1.00  0.00     0.267 C 
HETATM    6  O4  UNL     1      19.171   1.759 -38.654  1.00  0.00    -0.360 OA
HETATM    7  C7  UNL     1      17.759   2.051 -38.802  1.00  0.00     0.184 C 
HETATM    8  C8  UNL     1      17.306   1.501 -37.444  1.00  0.00     0.020 C 
HETATM    9  C9  UNL     1      15.952   1.699 -36.936  1.00  0.00     0.014 C 
HETATM   10  C10 UNL     1      15.998   1.171 -35.504  1.00  0.00     0.041 C 
HETATM   11  C11 UNL     1      17.367   1.072 -34.900  1.00  0.00    -0.072 C 
HETATM   12  C12 UNL     1      17.311   0.793 -33.595  1.00  0.00    -0.085 C 
HETATM   13  C13 UNL     1      18.551   0.652 -32.785  1.00  0.00     0.043 C 
HETATM   14  C14 UNL     1      16.028   0.609 -32.871  1.00  0.00     0.043 C 
HETATM   15  C15 UNL     1      18.623   1.294 -35.599  1.00  0.00     0.035 C 
HETATM   16  C16 UNL     1      19.315   0.374 -36.509  1.00  0.00     0.079 C 
HETATM   17  C17 UNL     1      18.169   2.345 -36.591  1.00  0.00     0.040 C 
HETATM   18  C18 UNL     1      17.644   3.608 -36.079  1.00  0.00    -0.032 C 
HETATM   19  C19 UNL     1      18.523   4.148 -34.974  1.00  0.00     0.048 C 
HETATM   20  C20 UNL     1      16.224   3.737 -35.839  1.00  0.00     0.155 C 
HETATM   21  O5  UNL     1      15.766   4.304 -34.904  1.00  0.00    -0.293 OA
HETATM   22  C21 UNL     1      15.391   3.086 -36.875  1.00  0.00     0.061 C 
HETATM   23  C22 UNL     1      13.980   3.010 -36.365  1.00  0.00     0.018 C 
ENDROOT
BRANCH   1  24
HETATM   24  O2  UNL     1      19.207  -1.746 -35.261  1.00  0.00    -0.316 OA
BRANCH  24  25
HETATM   25  C2  UNL     1      19.408  -3.092 -35.159  1.00  0.00     0.255 C 
HETATM   26  C1  UNL     1      18.372  -4.078 -34.757  1.00  0.00     0.126 C 
HETATM   27  O1  UNL     1      20.564  -3.559 -35.422  1.00  0.00    -0.266 OA
ENDBRANCH  24  25
ENDBRANCH   1  24
TORSDOF 3
ENDMDL
MODEL 4
REMARK VINA RESULT: -7.793640599      2.010      2.812
REMARK  3 active torsions:
REMARK  status: ('A' for Active; 'I' for Inactive)
REMARK    1  A    between atoms: C2_2  and  O2_4 
REMARK    2  A    between atoms: O2_4  and  C3_5 
REMARK    3  A    between atoms: C15_19  and  C16_20 
ROOT
HETATM    1  C3  UNL     1      15.389   2.266 -35.887  1.00  0.00     0.144 C 
HETATM    2  C4  UNL     1      15.556   0.763 -35.719  1.00  0.00     0.066 C 
HETATM    3  C5  UNL     1      16.909   0.590 -35.261  1.00  0.00     0.139 C 
HETATM    4  O3  UNL     1      16.893   1.481 -34.129  1.00  0.00    -0.355 OA
HETATM    5  C6  UNL     1      17.479   2.605 -34.805  1.00  0.00     0.267 C 
HETATM    6  O4  UNL     1      18.738   2.312 -34.483  1.00  0.00    -0.360 OA
HETATM    7  C7  UNL     1      19.085   0.919 -34.683  1.00  0.00     0.184 C 
HETATM    8  C8  UNL     1      18.191   0.671 -35.903  1.00  0.00     0.020 C 
HETATM    9  C9  UNL     1      18.265  -0.559 -36.686  1.00  0.00     0.014 C 
HETATM   10  C10 UNL     1      17.364  -0.302 -37.891  1.00  0.00     0.041 C 
HETATM   11  C11 UNL     1      17.076   1.140 -38.184  1.00  0.00    -0.072 C 
HETATM   12  C12 UNL     1      16.450   1.291 -39.353  1.00  0.00    -0.085 C 
HETATM   13  C13 UNL     1      16.068   2.639 -39.852  1.00  0.00     0.043 C 
HETATM   14  C14 UNL     1      16.097   0.142 -40.225  1.00  0.00     0.043 C 
HETATM   15  C15 UNL     1      17.460   2.269 -37.350  1.00  0.00     0.035 C 
HETATM   16  C16 UNL     1      16.813   2.729 -36.116  1.00  0.00     0.079 C 
HETATM   17  C17 UNL     1      18.751   1.723 -36.776  1.00  0.00     0.040 C 
HETATM   18  C18 UNL     1      19.833   1.381 -37.695  1.00  0.00    -0.032 C 
HETATM   19  C19 UNL     1      20.032   2.473 -38.722  1.00  0.00     0.048 C 
HETATM   20  C20 UNL     1      19.917   0.036 -38.219  1.00  0.00     0.155 C 
HETATM   21  O5  UNL     1      20.214  -0.214 -39.339  1.00  0.00    -0.293 OA
HETATM   22  C21 UNL     1      19.592  -1.005 -37.218  1.00  0.00     0.061 C 
HETATM   23  C22 UNL     1      19.404  -2.308 -37.941  1.00  0.00     0.018 C 
ENDROOT
BRANCH   1  24
HETATM   24  O2  UNL     1      14.434   2.694 -36.748  1.00  0.00    -0.316 OA
BRANCH  24  25
HETATM   25  C2  UNL     1      13.372   3.482 -36.411  1.00  0.00     0.255 C 
HETATM   26  C1  UNL     1      12.455   4.133 -37.381  1.00  0.00     0.126 C 
HETATM   27  O1  UNL     1      13.133   3.690 -35.176  1.00  0.00    -0.266 OA
ENDBRANCH  24  25
ENDBRANCH   1  24
TORSDOF 3
ENDMDL
MODEL 5
REMARK VINA RESULT: -7.682171759      1.934      4.107
REMARK  3 active torsions:
REMARK  status: ('A' for Active; 'I' for Inactive)
REMARK    1  A    between atoms: C2_2  and  O2_4 
REMARK    2  A    between atoms: O2_4  and  C3_5 
REMARK    3  A    between atoms: C15_19  and  C16_20 
ROOT
HETATM    1  C3  UNL     1      15.633   0.937 -33.399  1.00  0.00     0.144 C 
HETATM    2  C4  UNL     1      15.060   0.460 -34.725  1.00  0.00     0.066 C 
HETATM    3  C5  UNL     1      15.850   1.121 -35.730  1.00  0.00     0.139 C 
HETATM    4  O3  UNL     1      17.166   0.732 -35.291  1.00  0.00    -0.355 OA
HETATM    5  C6  UNL     1      17.451   1.936 -34.562  1.00  0.00     0.267 C 
HETATM    6  O4  UNL     1      18.038   2.570 -35.575  1.00  0.00    -0.360 OA
HETATM    7  C7  UNL     1      17.310   2.479 -36.825  1.00  0.00     0.184 C 
HETATM    8  C8  UNL     1      15.899   2.467 -36.224  1.00  0.00     0.020 C 
HETATM    9  C9  UNL     1      14.700   2.579 -37.049  1.00  0.00     0.014 C 
HETATM   10  C10 UNL     1      13.557   2.720 -36.048  1.00  0.00     0.041 C 
HETATM   11  C11 UNL     1      13.957   3.163 -34.673  1.00  0.00    -0.072 C 
HETATM   12  C12 UNL     1      12.894   3.450 -33.917  1.00  0.00    -0.085 C 
HETATM   13  C13 UNL     1      13.051   3.916 -32.514  1.00  0.00     0.043 C 
HETATM   14  C14 UNL     1      11.501   3.329 -34.418  1.00  0.00     0.043 C 
HETATM   15  C15 UNL     1      15.321   3.324 -34.196  1.00  0.00     0.035 C 
HETATM   16  C16 UNL     1      16.251   2.270 -33.771  1.00  0.00     0.079 C 
HETATM   17  C17 UNL     1      15.986   3.746 -35.489  1.00  0.00     0.040 C 
HETATM   18  C18 UNL     1      15.530   4.972 -36.140  1.00  0.00    -0.032 C 
HETATM   19  C19 UNL     1      15.378   6.091 -35.135  1.00  0.00     0.048 C 
HETATM   20  C20 UNL     1      14.474   4.897 -37.125  1.00  0.00     0.155 C 
HETATM   21  O5  UNL     1      13.604   5.697 -37.215  1.00  0.00    -0.293 OA
HETATM   22  C21 UNL     1      14.582   3.718 -38.014  1.00  0.00     0.061 C 
HETATM   23  C22 UNL     1      13.289   3.577 -38.766  1.00  0.00     0.018 C 
ENDROOT
BRANCH   1  24
HETATM   24  O2  UNL     1      14.820   0.892 -32.316  1.00  0.00    -0.316 OA
BRANCH  24  25
HETATM   25  C2  UNL     1      15.244   0.881 -31.019  1.00  0.00     0.255 C 
HETATM   26  C1  UNL     1      16.625   0.559 -30.579  1.00  0.00     0.126 C 
HETATM   27  O1  UNL     1      14.408   1.166 -30.100  1.00  0.00    -0.266 OA
ENDBRANCH  24  25
ENDBRANCH   1  24
TORSDOF 3
ENDMDL
