MODEL 1
REMARK VINA RESULT: -7.114288829      0.000      0.000
REMARK  15 active torsions:
REMARK  status: ('A' for Active; 'I' for Inactive)
REMARK    1  A    between atoms: C2_3  and  C3_4 
REMARK    2  A    between atoms: C2_3  and  N13_48 
REMARK    3  A    between atoms: C3_4  and  N2_5 
REMARK    4  A    between atoms: N2_5  and  C4_7 
REMARK    5  A    between atoms: C5_10  and  C6_11 
REMARK    6  A    between atoms: C9_14  and  C10_15 
REMARK       I    between atoms: C10_15  and  N4_17 
REMARK    7  A    between atoms: N4_17  and  C11_19 
REMARK    8  A    between atoms: C11_19  and  C12_20 
REMARK    9  A    between atoms: C12_20  and  C13_21 
REMARK       I    between atoms: C13_21  and  N5_23 
REMARK   10  A    between atoms: N5_23  and  N6_25 
REMARK       I    between atoms: N6_25  and  C14_27 
REMARK       I    between atoms: N13_48  and  C21_50 
REMARK   11  A    between atoms: C21_50  and  C22_52 
REMARK   12  A    between atoms: C22_52  and  N14_53 
REMARK   13  A    between atoms: C22_52  and  C23_57 
REMARK   14  A    between atoms: C23_57  and  C24_58 
REMARK   15  A    between atoms: C27_61  and  O5_62 
ROOT
HETATM    1  N1  UNL     1     -31.146  10.327 -17.563  1.00  0.00    -0.195 NA
HETATM    2  C1  UNL     1     -31.332  11.126 -16.747  1.00  0.00     0.086 C 
HETATM    3  C2  UNL     1     -31.553  12.159 -15.693  1.00  0.00     0.209 C 
ENDROOT
BRANCH   3   4
HETATM    4  C3  UNL     1     -30.410  13.098 -15.800  1.00  0.00     0.161 C 
BRANCH   4   5
HETATM    5  N2  UNL     1     -30.035  13.791 -14.611  1.00  0.00    -0.372 N 
ATOM      6  H2  UNL     1     -29.236  13.473 -14.063  1.00  0.00     0.161 HD
BRANCH   5   7
HETATM    7  C4  UNL     1     -30.705  14.812 -14.235  1.00  0.00     0.120 A 
HETATM    8  N3  UNL     1     -31.275  15.640 -15.165  1.00  0.00    -0.327 N 
HETATM    9  C5  UNL     1     -31.996  16.716 -14.868  1.00  0.00     0.118 A 
ATOM     10  H3  UNL     1     -31.136  15.416 -16.150  1.00  0.00     0.169 HD
HETATM   11  N9  UNL     1     -32.163  16.983 -13.558  1.00  0.00    -0.327 N 
HETATM   12  C17 UNL     1     -31.618  16.194 -12.599  1.00  0.00     0.128 A 
ATOM     13  H9  UNL     1     -32.711  17.798 -13.282  1.00  0.00     0.169 HD
HETATM   14  N10 UNL     1     -31.805  16.500 -11.293  1.00  0.00    -0.293 N 
HETATM   15  C20 UNL     1     -30.867  15.076 -12.893  1.00  0.00     0.096 A 
HETATM   16  C18 UNL     1     -31.268  15.727 -10.329  1.00  0.00     0.327 A 
ATOM     17  H10 UNL     1     -32.356  17.320 -11.039  1.00  0.00     0.172 HD
HETATM   18  O3  UNL     1     -31.470  16.052  -9.107  1.00  0.00    -0.247 OA
HETATM   19  N11 UNL     1     -30.546  14.652 -10.621  1.00  0.00    -0.294 N 
HETATM   20  C19 UNL     1     -30.304  14.263 -11.911  1.00  0.00     0.120 A 
ATOM     21  H11 UNL     1     -30.160  14.095  -9.859  1.00  0.00     0.172 HD
HETATM   22  N12 UNL     1     -29.622  13.243 -12.140  1.00  0.00    -0.384 N 
ATOM     23 2H12 UNL     1     -29.210  12.648 -11.421  1.00  0.00     0.157 HD
ATOM     24 1H12 UNL     1     -29.441  12.953 -13.101  1.00  0.00     0.157 HD
BRANCH   9  25
HETATM   25  C6  UNL     1     -32.558  17.602 -15.887  1.00  0.00     0.008 A 
HETATM   26  C7  UNL     1     -32.572  17.255 -17.223  1.00  0.00     0.016 A 
HETATM   27  C8  UNL     1     -33.117  18.027 -18.225  1.00  0.00     0.018 A 
HETATM   28  C9  UNL     1     -33.689  19.237 -17.868  1.00  0.00     0.032 A 
HETATM   29  C15 UNL     1     -33.691  19.613 -16.552  1.00  0.00     0.018 A 
HETATM   30  C16 UNL     1     -33.128  18.805 -15.563  1.00  0.00     0.016 A 
BRANCH  28  31
HETATM   31  C10 UNL     1     -34.268  20.050 -18.922  1.00  0.00     0.251 C 
HETATM   32  O1  UNL     1     -35.487  19.941 -19.184  1.00  0.00    -0.268 OA
HETATM   33  N4  UNL     1     -33.473  20.957 -19.647  1.00  0.00    -0.356 N 
ATOM     34  H4  UNL     1     -32.479  21.051 -19.437  1.00  0.00     0.162 HD
BRANCH  33  35
HETATM   35  C11 UNL     1     -34.075  21.754 -20.690  1.00  0.00     0.132 C 
BRANCH  35  36
HETATM   36  C12 UNL     1     -34.257  21.026 -21.987  1.00  0.00     0.124 C 
BRANCH  36  37
HETATM   37  C13 UNL     1     -35.736  21.042 -22.289  1.00  0.00     0.237 C 
HETATM   38  O2  UNL     1     -36.323  22.108 -22.641  1.00  0.00    -0.272 OA
HETATM   39  N5  UNL     1     -36.468  19.845 -22.173  1.00  0.00    -0.268 N 
ATOM     40  H5  UNL     1     -35.995  18.988 -21.889  1.00  0.00     0.190 HD
BRANCH  39  41
HETATM   41  N6  UNL     1     -37.844  19.824 -22.448  1.00  0.00    -0.271 N 
HETATM   42  C14 UNL     1     -38.811  19.924 -21.411  1.00  0.00     0.200 C 
HETATM   43  N7  UNL     1     -38.520  19.558 -20.211  1.00  0.00    -0.372 N 
HETATM   44  N8  UNL     1     -40.090  20.424 -21.690  1.00  0.00    -0.062 NA
ATOM     45  H72 UNL     1     -37.589  19.194 -20.007  1.00  0.00     0.158 HD
ATOM     46  H71 UNL     1     -39.214  19.630 -19.467  1.00  0.00     0.158 HD
ATOM     47  H6  UNL     1     -38.158  19.734 -23.414  1.00  0.00     0.189 HD
ENDBRANCH  39  41
ENDBRANCH  36  37
ENDBRANCH  35  36
ENDBRANCH  33  35
ENDBRANCH  28  31
ENDBRANCH   9  25
ENDBRANCH   5   7
ENDBRANCH   4   5
ENDBRANCH   3   4
BRANCH   3  48
HETATM   48  N13 UNL     1     -32.857  12.713 -15.849  1.00  0.00    -0.341 N 
HETATM   49  C21 UNL     1     -33.759  12.949 -14.778  1.00  0.00     0.249 C 
HETATM   50  O4  UNL     1     -33.360  12.637 -13.637  1.00  0.00    -0.271 OA
ATOM     51  H13 UNL     1     -33.163  12.955 -16.791  1.00  0.00     0.164 HD
BRANCH  49  52
HETATM   52  C22 UNL     1     -35.085  13.522 -14.979  1.00  0.00     0.278 C 
BRANCH  52  53
HETATM   53  N14 UNL     1     -36.015  12.384 -15.147  1.00  0.00    -0.066 N 
ATOM     54 3H14 UNL     1     -36.250  11.922 -14.269  1.00  0.00     0.275 HD
ATOM     55 2H14 UNL     1     -36.962  12.669 -15.399  1.00  0.00     0.275 HD
ATOM     56 1H14 UNL     1     -35.587  11.759 -15.831  1.00  0.00     0.275 HD
ENDBRANCH  52  53
BRANCH  52  57
HETATM   57  C23 UNL     1     -35.170  14.292 -16.262  1.00  0.00     0.081 C 
BRANCH  57  58
HETATM   58  C24 UNL     1     -35.716  15.630 -16.061  1.00  0.00    -0.056 A 
HETATM   59  C25 UNL     1     -35.739  16.109 -14.754  1.00  0.00     0.010 A 
HETATM   60  C26 UNL     1     -36.275  17.334 -14.493  1.00  0.00     0.037 A 
HETATM   61  C27 UNL     1     -36.799  18.119 -15.500  1.00  0.00     0.065 A 
HETATM   62  C28 UNL     1     -36.766  17.625 -16.782  1.00  0.00     0.037 A 
HETATM   63  C29 UNL     1     -36.235  16.390 -17.103  1.00  0.00     0.010 A 
BRANCH  61  64
HETATM   64  O5  UNL     1     -37.331  19.358 -15.173  1.00  0.00    -0.361 OA
ATOM     65  H5  UNL     1     -37.834  19.827 -15.828  1.00  0.00     0.217 HD
ENDBRANCH  61  64
ENDBRANCH  57  58
ENDBRANCH  52  57
ENDBRANCH  49  52
ENDBRANCH   3  48
TORSDOF 15
ENDMDL
MODEL 2
REMARK VINA RESULT: -6.924693797      2.987      6.042
REMARK  15 active torsions:
REMARK  status: ('A' for Active; 'I' for Inactive)
REMARK    1  A    between atoms: C2_3  and  C3_4 
REMARK    2  A    between atoms: C2_3  and  N13_48 
REMARK    3  A    between atoms: C3_4  and  N2_5 
REMARK    4  A    between atoms: N2_5  and  C4_7 
REMARK    5  A    between atoms: C5_10  and  C6_11 
REMARK    6  A    between atoms: C9_14  and  C10_15 
REMARK       I    between atoms: C10_15  and  N4_17 
REMARK    7  A    between atoms: N4_17  and  C11_19 
REMARK    8  A    between atoms: C11_19  and  C12_20 
REMARK    9  A    between atoms: C12_20  and  C13_21 
REMARK       I    between atoms: C13_21  and  N5_23 
REMARK   10  A    between atoms: N5_23  and  N6_25 
REMARK       I    between atoms: N6_25  and  C14_27 
REMARK       I    between atoms: N13_48  and  C21_50 
REMARK   11  A    between atoms: C21_50  and  C22_52 
REMARK   12  A    between atoms: C22_52  and  N14_53 
REMARK   13  A    between atoms: C22_52  and  C23_57 
REMARK   14  A    between atoms: C23_57  and  C24_58 
REMARK   15  A    between atoms: C27_61  and  O5_62 
ROOT
HETATM    1  N1  UNL     1     -33.378  12.143  -8.967  1.00  0.00    -0.195 NA
HETATM    2  C1  UNL     1     -32.696  12.419  -9.860  1.00  0.00     0.086 C 
HETATM    3  C2  UNL     1     -31.818  12.758 -11.019  1.00  0.00     0.209 C 
ENDROOT
BRANCH   3   4
HETATM    4  C3  UNL     1     -32.231  11.851 -12.118  1.00  0.00     0.161 C 
BRANCH   4   5
HETATM    5  N2  UNL     1     -31.247  11.551 -13.106  1.00  0.00    -0.372 N 
ATOM      6  H2  UNL     1     -30.365  11.117 -12.836  1.00  0.00     0.161 HD
BRANCH   5   7
HETATM    7  C4  UNL     1     -31.476  11.829 -14.332  1.00  0.00     0.120 A 
HETATM    8  N3  UNL     1     -32.016  13.040 -14.673  1.00  0.00    -0.327 N 
HETATM    9  C5  UNL     1     -32.278  13.420 -15.920  1.00  0.00     0.118 A 
ATOM     10  H3  UNL     1     -32.231  13.694 -13.920  1.00  0.00     0.169 HD
HETATM   11  N9  UNL     1     -31.981  12.535 -16.890  1.00  0.00    -0.327 N 
HETATM   12  C17 UNL     1     -31.446  11.322 -16.605  1.00  0.00     0.128 A 
ATOM     13  H9  UNL     1     -32.162  12.783 -17.863  1.00  0.00     0.169 HD
HETATM   14  N10 UNL     1     -31.165  10.459 -17.610  1.00  0.00    -0.293 N 
HETATM   15  C20 UNL     1     -31.170  10.915 -15.317  1.00  0.00     0.096 A 
HETATM   16  C18 UNL     1     -30.635   9.250 -17.342  1.00  0.00     0.327 A 
ATOM     17  H10 UNL     1     -31.356  10.727 -18.575  1.00  0.00     0.172 HD
HETATM   18  O3  UNL     1     -30.385   8.465 -18.322  1.00  0.00    -0.247 OA
HETATM   19  N11 UNL     1     -30.372   8.866 -16.098  1.00  0.00    -0.294 N 
HETATM   20  C19 UNL     1     -30.621   9.669 -15.018  1.00  0.00     0.120 A 
ATOM     21  H11 UNL     1     -29.971   7.942 -15.941  1.00  0.00     0.172 HD
HETATM   22  N12 UNL     1     -30.355   9.269 -13.865  1.00  0.00    -0.384 N 
ATOM     23 2H12 UNL     1     -29.954   8.358 -13.647  1.00  0.00     0.157 HD
ATOM     24 1H12 UNL     1     -30.541   9.868 -13.061  1.00  0.00     0.157 HD
BRANCH   9  25
HETATM   25  C6  UNL     1     -32.892  14.707 -16.245  1.00  0.00     0.008 A 
HETATM   26  C7  UNL     1     -33.786  15.322 -15.392  1.00  0.00     0.016 A 
HETATM   27  C8  UNL     1     -34.371  16.548 -15.624  1.00  0.00     0.018 A 
HETATM   28  C9  UNL     1     -34.039  17.208 -16.796  1.00  0.00     0.032 A 
HETATM   29  C15 UNL     1     -33.156  16.627 -17.665  1.00  0.00     0.018 A 
HETATM   30  C16 UNL     1     -32.585  15.382 -17.397  1.00  0.00     0.016 A 
BRANCH  28  31
HETATM   31  C10 UNL     1     -34.651  18.502 -17.039  1.00  0.00     0.251 C 
HETATM   32  O1  UNL     1     -35.798  18.557 -17.536  1.00  0.00    -0.268 OA
HETATM   33  N4  UNL     1     -33.967  19.690 -16.720  1.00  0.00    -0.356 N 
ATOM     34  H4  UNL     1     -33.032  19.651 -16.313  1.00  0.00     0.162 HD
BRANCH  33  35
HETATM   35  C11 UNL     1     -34.599  20.963 -16.971  1.00  0.00     0.132 C 
BRANCH  35  36
HETATM   36  C12 UNL     1     -33.642  22.063 -17.319  1.00  0.00     0.124 C 
BRANCH  36  37
HETATM   37  C13 UNL     1     -33.271  21.870 -18.769  1.00  0.00     0.237 C 
HETATM   38  O2  UNL     1     -32.993  20.723 -19.229  1.00  0.00    -0.272 OA
HETATM   39  N5  UNL     1     -33.236  22.992 -19.620  1.00  0.00    -0.268 N 
ATOM     40  H5  UNL     1     -33.459  23.915 -19.249  1.00  0.00     0.190 HD
BRANCH  39  41
HETATM   41  N6  UNL     1     -32.897  22.848 -20.973  1.00  0.00    -0.271 N 
HETATM   42  C14 UNL     1     -31.671  23.349 -21.490  1.00  0.00     0.200 C 
HETATM   43  N7  UNL     1     -31.073  24.332 -20.912  1.00  0.00    -0.372 N 
HETATM   44  N8  UNL     1     -31.105  22.773 -22.636  1.00  0.00    -0.062 NA
ATOM     45  H72 UNL     1     -31.484  24.750 -20.078  1.00  0.00     0.158 HD
ATOM     46  H71 UNL     1     -30.193  24.691 -21.283  1.00  0.00     0.158 HD
ATOM     47  H6  UNL     1     -33.545  22.374 -21.602  1.00  0.00     0.189 HD
ENDBRANCH  39  41
ENDBRANCH  36  37
ENDBRANCH  35  36
ENDBRANCH  33  35
ENDBRANCH  28  31
ENDBRANCH   9  25
ENDBRANCH   5   7
ENDBRANCH   4   5
ENDBRANCH   3   4
BRANCH   3  48
HETATM   48  N13 UNL     1     -31.902  14.157 -11.274  1.00  0.00    -0.341 N 
HETATM   49  C21 UNL     1     -30.819  15.063 -11.123  1.00  0.00     0.249 C 
HETATM   50  O4  UNL     1     -29.737  14.576 -10.735  1.00  0.00    -0.271 OA
ATOM     51  H13 UNL     1     -32.797  14.533 -11.584  1.00  0.00     0.164 HD
BRANCH  49  52
HETATM   52  C22 UNL     1     -30.943  16.490 -11.398  1.00  0.00     0.278 C 
BRANCH  52  53
HETATM   53  N14 UNL     1     -31.805  17.051 -10.335  1.00  0.00    -0.066 N 
ATOM     54 3H14 UNL     1     -32.134  17.995 -10.538  1.00  0.00     0.275 HD
ATOM     55 2H14 UNL     1     -32.722  16.606 -10.281  1.00  0.00     0.275 HD
ATOM     56 1H14 UNL     1     -31.274  16.987  -9.466  1.00  0.00     0.275 HD
ENDBRANCH  52  53
BRANCH  52  57
HETATM   57  C23 UNL     1     -31.680  16.747 -12.677  1.00  0.00     0.081 C 
BRANCH  57  58
HETATM   58  C24 UNL     1     -30.773  16.875 -13.813  1.00  0.00    -0.056 A 
HETATM   59  C25 UNL     1     -31.115  17.810 -14.787  1.00  0.00     0.010 A 
HETATM   60  C26 UNL     1     -30.332  17.948 -15.894  1.00  0.00     0.037 A 
HETATM   61  C27 UNL     1     -29.200  17.181 -16.075  1.00  0.00     0.065 A 
HETATM   62  C28 UNL     1     -28.883  16.265 -15.101  1.00  0.00     0.037 A 
HETATM   63  C29 UNL     1     -29.641  16.082 -13.960  1.00  0.00     0.010 A 
BRANCH  61  64
HETATM   64  O5  UNL     1     -28.443  17.367 -17.222  1.00  0.00    -0.361 OA
ATOM     65  H5  UNL     1     -28.813  17.120 -18.061  1.00  0.00     0.217 HD
ENDBRANCH  61  64
ENDBRANCH  57  58
ENDBRANCH  52  57
ENDBRANCH  49  52
ENDBRANCH   3  48
TORSDOF 15
ENDMDL
MODEL 3
REMARK VINA RESULT: -6.781582746      4.426     10.747
REMARK  15 active torsions:
REMARK  status: ('A' for Active; 'I' for Inactive)
REMARK    1  A    between atoms: C2_3  and  C3_4 
REMARK    2  A    between atoms: C2_3  and  N13_48 
REMARK    3  A    between atoms: C3_4  and  N2_5 
REMARK    4  A    between atoms: N2_5  and  C4_7 
REMARK    5  A    between atoms: C5_10  and  C6_11 
REMARK    6  A    between atoms: C9_14  and  C10_15 
REMARK       I    between atoms: C10_15  and  N4_17 
REMARK    7  A    between atoms: N4_17  and  C11_19 
REMARK    8  A    between atoms: C11_19  and  C12_20 
REMARK    9  A    between atoms: C12_20  and  C13_21 
REMARK       I    between atoms: C13_21  and  N5_23 
REMARK   10  A    between atoms: N5_23  and  N6_25 
REMARK       I    between atoms: N6_25  and  C14_27 
REMARK       I    between atoms: N13_48  and  C21_50 
REMARK   11  A    between atoms: C21_50  and  C22_52 
REMARK   12  A    between atoms: C22_52  and  N14_53 
REMARK   13  A    between atoms: C22_52  and  C23_57 
REMARK   14  A    between atoms: C23_57  and  C24_58 
REMARK   15  A    between atoms: C27_61  and  O5_62 
ROOT
HETATM    1  N1  UNL     1     -27.432  17.045 -14.565  1.00  0.00    -0.195 NA
HETATM    2  C1  UNL     1     -28.587  17.084 -14.621  1.00  0.00     0.086 C 
HETATM    3  C2  UNL     1     -30.075  17.133 -14.713  1.00  0.00     0.209 C 
ENDROOT
BRANCH   3   4
HETATM    4  C3  UNL     1     -30.429  16.397 -15.951  1.00  0.00     0.161 C 
BRANCH   4   5
HETATM    5  N2  UNL     1     -31.818  16.184 -16.197  1.00  0.00    -0.372 N 
ATOM      6  H2  UNL     1     -32.315  16.769 -16.868  1.00  0.00     0.161 HD
BRANCH   5   7
HETATM    7  C4  UNL     1     -32.437  15.258 -15.571  1.00  0.00     0.120 A 
HETATM    8  N3  UNL     1     -31.808  14.072 -15.301  1.00  0.00    -0.327 N 
HETATM    9  C5  UNL     1     -32.367  13.058 -14.648  1.00  0.00     0.118 A 
ATOM     10  H3  UNL     1     -30.847  13.959 -15.623  1.00  0.00     0.169 HD
HETATM   11  N9  UNL     1     -33.636  13.239 -14.235  1.00  0.00    -0.327 N 
HETATM   12  C17 UNL     1     -34.304  14.395 -14.479  1.00  0.00     0.128 A 
ATOM     13  H9  UNL     1     -34.107  12.490 -13.728  1.00  0.00     0.169 HD
HETATM   14  N10 UNL     1     -35.580  14.535 -14.050  1.00  0.00    -0.293 N 
HETATM   15  C20 UNL     1     -33.736  15.453 -15.155  1.00  0.00     0.096 A 
HETATM   16  C18 UNL     1     -36.257  15.676 -14.286  1.00  0.00     0.327 A 
ATOM     17  H10 UNL     1     -36.032  13.772 -13.546  1.00  0.00     0.172 HD
HETATM   18  O3  UNL     1     -37.462  15.767 -13.863  1.00  0.00    -0.247 OA
HETATM   19  N11 UNL     1     -35.702  16.691 -14.938  1.00  0.00    -0.294 N 
HETATM   20  C19 UNL     1     -34.418  16.642 -15.409  1.00  0.00     0.120 A 
ATOM     21  H11 UNL     1     -36.251  17.536 -15.094  1.00  0.00     0.172 HD
HETATM   22  N12 UNL     1     -33.935  17.621 -16.014  1.00  0.00    -0.384 N 
ATOM     23 2H12 UNL     1     -34.434  18.491 -16.200  1.00  0.00     0.157 HD
ATOM     24 1H12 UNL     1     -32.978  17.585 -16.365  1.00  0.00     0.157 HD
BRANCH   9  25
HETATM   25  C6  UNL     1     -31.679  11.790 -14.412  1.00  0.00     0.008 A 
HETATM   26  C7  UNL     1     -30.302  11.696 -14.429  1.00  0.00     0.016 A 
HETATM   27  C8  UNL     1     -29.594  10.541 -14.180  1.00  0.00     0.018 A 
HETATM   28  C9  UNL     1     -30.315   9.393 -13.893  1.00  0.00     0.032 A 
HETATM   29  C15 UNL     1     -31.682   9.450 -13.867  1.00  0.00     0.018 A 
HETATM   30  C16 UNL     1     -32.365  10.639 -14.127  1.00  0.00     0.016 A 
BRANCH  28  31
HETATM   31  C10 UNL     1     -29.570   8.176 -13.624  1.00  0.00     0.251 C 
HETATM   32  O1  UNL     1     -30.094   7.273 -12.934  1.00  0.00    -0.268 OA
HETATM   33  N4  UNL     1     -28.270   8.003 -14.134  1.00  0.00    -0.356 N 
ATOM     34  H4  UNL     1     -27.838   8.735 -14.699  1.00  0.00     0.162 HD
BRANCH  33  35
HETATM   35  C11 UNL     1     -27.552   6.782 -13.853  1.00  0.00     0.132 C 
BRANCH  35  36
HETATM   36  C12 UNL     1     -26.111   6.988 -13.498  1.00  0.00     0.124 C 
BRANCH  36  37
HETATM   37  C13 UNL     1     -26.076   8.062 -12.438  1.00  0.00     0.237 C 
HETATM   38  O2  UNL     1     -26.852   8.022 -11.437  1.00  0.00    -0.272 OA
HETATM   39  N5  UNL     1     -25.160   9.123 -12.571  1.00  0.00    -0.268 N 
ATOM     40  H5  UNL     1     -24.537   9.155 -13.378  1.00  0.00     0.190 HD
BRANCH  39  41
HETATM   41  N6  UNL     1     -25.100  10.137 -11.603  1.00  0.00    -0.271 N 
HETATM   42  C14 UNL     1     -25.656  11.424 -11.838  1.00  0.00     0.200 C 
HETATM   43  N7  UNL     1     -25.786  11.868 -13.040  1.00  0.00    -0.372 N 
HETATM   44  N8  UNL     1     -26.065  12.219 -10.759  1.00  0.00    -0.062 NA
ATOM     45  H72 UNL     1     -25.489  11.289 -13.826  1.00  0.00     0.158 HD
ATOM     46  H71 UNL     1     -26.185  12.792 -13.208  1.00  0.00     0.158 HD
ATOM     47  H6  UNL     1     -24.646   9.946 -10.710  1.00  0.00     0.189 HD
ENDBRANCH  39  41
ENDBRANCH  36  37
ENDBRANCH  35  36
ENDBRANCH  33  35
ENDBRANCH  28  31
ENDBRANCH   9  25
ENDBRANCH   5   7
ENDBRANCH   4   5
ENDBRANCH   3   4
BRANCH   3  48
HETATM   48  N13 UNL     1     -30.633  16.648 -13.494  1.00  0.00    -0.341 N 
HETATM   49  C21 UNL     1     -31.156  17.479 -12.469  1.00  0.00     0.249 C 
HETATM   50  O4  UNL     1     -31.106  18.710 -12.670  1.00  0.00    -0.271 OA
ATOM     51  H13 UNL     1     -30.659  15.639 -13.350  1.00  0.00     0.164 HD
BRANCH  49  52
HETATM   52  C22 UNL     1     -31.724  16.944 -11.236  1.00  0.00     0.278 C 
BRANCH  52  53
HETATM   53  N14 UNL     1     -31.932  18.097 -10.333  1.00  0.00    -0.066 N 
ATOM     54 3H14 UNL     1     -31.061  18.504  -9.992  1.00  0.00     0.275 HD
ATOM     55 2H14 UNL     1     -32.281  18.927 -10.812  1.00  0.00     0.275 HD
ATOM     56 1H14 UNL     1     -32.547  17.774  -9.586  1.00  0.00     0.275 HD
ENDBRANCH  52  53
BRANCH  52  57
HETATM   57  C23 UNL     1     -30.755  16.054 -10.518  1.00  0.00     0.081 C 
BRANCH  57  58
HETATM   58  C24 UNL     1     -31.359  14.781 -10.139  1.00  0.00    -0.056 A 
HETATM   59  C25 UNL     1     -31.824  13.974 -11.174  1.00  0.00     0.010 A 
HETATM   60  C26 UNL     1     -32.436  12.792 -10.884  1.00  0.00     0.037 A 
HETATM   61  C27 UNL     1     -32.609  12.371  -9.582  1.00  0.00     0.065 A 
HETATM   62  C28 UNL     1     -32.143  13.185  -8.577  1.00  0.00     0.037 A 
HETATM   63  C29 UNL     1     -31.515  14.393  -8.813  1.00  0.00     0.010 A 
BRANCH  61  64
HETATM   64  O5  UNL     1     -33.240  11.157  -9.350  1.00  0.00    -0.361 OA
ATOM     65  H5  UNL     1     -32.755  10.464  -8.920  1.00  0.00     0.217 HD
ENDBRANCH  61  64
ENDBRANCH  57  58
ENDBRANCH  52  57
ENDBRANCH  49  52
ENDBRANCH   3  48
TORSDOF 15
ENDMDL
MODEL 4
REMARK VINA RESULT: -6.713777644      4.057     10.675
REMARK  15 active torsions:
REMARK  status: ('A' for Active; 'I' for Inactive)
REMARK    1  A    between atoms: C2_3  and  C3_4 
REMARK    2  A    between atoms: C2_3  and  N13_48 
REMARK    3  A    between atoms: C3_4  and  N2_5 
REMARK    4  A    between atoms: N2_5  and  C4_7 
REMARK    5  A    between atoms: C5_10  and  C6_11 
REMARK    6  A    between atoms: C9_14  and  C10_15 
REMARK       I    between atoms: C10_15  and  N4_17 
REMARK    7  A    between atoms: N4_17  and  C11_19 
REMARK    8  A    between atoms: C11_19  and  C12_20 
REMARK    9  A    between atoms: C12_20  and  C13_21 
REMARK       I    between atoms: C13_21  and  N5_23 
REMARK   10  A    between atoms: N5_23  and  N6_25 
REMARK       I    between atoms: N6_25  and  C14_27 
REMARK       I    between atoms: N13_48  and  C21_50 
REMARK   11  A    between atoms: C21_50  and  C22_52 
REMARK   12  A    between atoms: C22_52  and  N14_53 
REMARK   13  A    between atoms: C22_52  and  C23_57 
REMARK   14  A    between atoms: C23_57  and  C24_58 
REMARK   15  A    between atoms: C27_61  and  O5_62 
ROOT
HETATM    1  N1  UNL     1     -31.860  19.070 -17.454  1.00  0.00    -0.195 NA
HETATM    2  C1  UNL     1     -32.108  19.396 -18.536  1.00  0.00     0.086 C 
HETATM    3  C2  UNL     1     -32.448  19.815 -19.927  1.00  0.00     0.209 C 
ENDROOT
BRANCH   3   4
HETATM    4  C3  UNL     1     -33.752  20.515 -19.832  1.00  0.00     0.161 C 
BRANCH   4   5
HETATM    5  N2  UNL     1     -34.828  19.974 -20.597  1.00  0.00    -0.372 N 
ATOM      6  H2  UNL     1     -34.893  20.165 -21.596  1.00  0.00     0.161 HD
BRANCH   5   7
HETATM    7  C4  UNL     1     -35.711  19.249 -20.024  1.00  0.00     0.120 A 
HETATM    8  N3  UNL     1     -35.349  18.393 -19.019  1.00  0.00    -0.327 N 
HETATM    9  C5  UNL     1     -36.198  17.610 -18.359  1.00  0.00     0.118 A 
ATOM     10  H3  UNL     1     -34.364  18.352 -18.759  1.00  0.00     0.169 HD
HETATM   11  N9  UNL     1     -37.492  17.688 -18.724  1.00  0.00    -0.327 N 
HETATM   12  C17 UNL     1     -37.901  18.521 -19.715  1.00  0.00     0.128 A 
ATOM     13  H9  UNL     1     -38.181  17.108 -18.246  1.00  0.00     0.169 HD
HETATM   14  N10 UNL     1     -39.210  18.566 -20.054  1.00  0.00    -0.293 N 
HETATM   15  C20 UNL     1     -37.031  19.336 -20.407  1.00  0.00     0.096 A 
HETATM   16  C18 UNL     1     -39.631  19.386 -21.037  1.00  0.00     0.327 A 
ATOM     17  H10 UNL     1     -39.882  17.976 -19.563  1.00  0.00     0.172 HD
HETATM   18  O3  UNL     1     -40.879  19.399 -21.326  1.00  0.00    -0.247 OA
HETATM   19  N11 UNL     1     -38.787  20.169 -21.698  1.00  0.00    -0.294 N 
HETATM   20  C19 UNL     1     -37.446  20.192 -21.426  1.00  0.00     0.120 A 
ATOM     21  H11 UNL     1     -39.150  20.775 -22.434  1.00  0.00     0.172 HD
HETATM   22  N12 UNL     1     -36.689  20.947 -22.070  1.00  0.00    -0.384 N 
ATOM     23 2H12 UNL     1     -36.992  21.573 -22.815  1.00  0.00     0.157 HD
ATOM     24 1H12 UNL     1     -35.689  20.964 -21.867  1.00  0.00     0.157 HD
BRANCH   9  25
HETATM   25  C6  UNL     1     -35.772  16.677 -17.317  1.00  0.00     0.008 A 
HETATM   26  C7  UNL     1     -34.694  15.832 -17.495  1.00  0.00     0.016 A 
HETATM   27  C8  UNL     1     -34.222  14.957 -16.541  1.00  0.00     0.018 A 
HETATM   28  C9  UNL     1     -34.875  14.922 -15.320  1.00  0.00     0.032 A 
HETATM   29  C15 UNL     1     -35.947  15.745 -15.110  1.00  0.00     0.018 A 
HETATM   30  C16 UNL     1     -36.399  16.618 -16.101  1.00  0.00     0.016 A 
BRANCH  28  31
HETATM   31  C10 UNL     1     -34.375  14.004 -14.312  1.00  0.00     0.251 C 
HETATM   32  O1  UNL     1     -34.897  12.872 -14.197  1.00  0.00    -0.268 OA
HETATM   33  N4  UNL     1     -33.310  14.373 -13.470  1.00  0.00    -0.356 N 
ATOM     34  H4  UNL     1     -32.879  15.293 -13.561  1.00  0.00     0.162 HD
BRANCH  33  35
HETATM   35  C11 UNL     1     -32.832  13.441 -12.477  1.00  0.00     0.132 C 
BRANCH  35  36
HETATM   36  C12 UNL     1     -31.360  13.533 -12.210  1.00  0.00     0.124 C 
BRANCH  36  37
HETATM   37  C13 UNL     1     -31.010  15.001 -12.219  1.00  0.00     0.237 C 
HETATM   38  O2  UNL     1     -31.389  15.772 -11.288  1.00  0.00    -0.272 OA
HETATM   39  N5  UNL     1     -30.248  15.514 -13.286  1.00  0.00    -0.268 N 
ATOM     40  H5  UNL     1     -29.944  14.893 -14.035  1.00  0.00     0.190 HD
BRANCH  39  41
HETATM   41  N6  UNL     1     -29.903  16.873 -13.324  1.00  0.00    -0.271 N 
HETATM   42  C14 UNL     1     -30.770  17.845 -13.894  1.00  0.00     0.200 C 
HETATM   43  N7  UNL     1     -31.626  17.506 -14.794  1.00  0.00    -0.372 N 
HETATM   44  N8  UNL     1     -30.697  19.181 -13.479  1.00  0.00    -0.062 NA
ATOM     45  H72 UNL     1     -31.680  16.533 -15.097  1.00  0.00     0.158 HD
ATOM     46  H71 UNL     1     -32.249  18.203 -15.203  1.00  0.00     0.158 HD
ATOM     47  H6  UNL     1     -29.009  17.172 -12.934  1.00  0.00     0.189 HD
ENDBRANCH  39  41
ENDBRANCH  36  37
ENDBRANCH  35  36
ENDBRANCH  33  35
ENDBRANCH  28  31
ENDBRANCH   9  25
ENDBRANCH   5   7
ENDBRANCH   4   5
ENDBRANCH   3   4
BRANCH   3  48
HETATM   48  N13 UNL     1     -31.358  20.556 -20.470  1.00  0.00    -0.341 N 
HETATM   49  C21 UNL     1     -30.693  20.228 -21.680  1.00  0.00     0.249 C 
HETATM   50  O4  UNL     1     -31.106  19.218 -22.286  1.00  0.00    -0.271 OA
ATOM     51  H13 UNL     1     -31.035  21.374 -19.955  1.00  0.00     0.164 HD
BRANCH  49  52
HETATM   52  C22 UNL     1     -29.582  21.015 -22.206  1.00  0.00     0.278 C 
BRANCH  52  53
HETATM   53  N14 UNL     1     -29.901  21.300 -23.622  1.00  0.00    -0.066 N 
ATOM     54 3H14 UNL     1     -30.181  20.471 -24.147  1.00  0.00     0.275 HD
ATOM     55 2H14 UNL     1     -30.768  21.825 -23.743  1.00  0.00     0.275 HD
ATOM     56 1H14 UNL     1     -29.086  21.772 -24.015  1.00  0.00     0.275 HD
ENDBRANCH  52  53
BRANCH  52  57
HETATM   57  C23 UNL     1     -28.310  20.224 -22.242  1.00  0.00     0.081 C 
BRANCH  57  58
HETATM   58  C24 UNL     1     -27.242  20.873 -21.489  1.00  0.00    -0.056 A 
HETATM   59  C25 UNL     1     -27.582  21.404 -20.248  1.00  0.00     0.010 A 
HETATM   60  C26 UNL     1     -26.641  22.060 -19.514  1.00  0.00     0.037 A 
HETATM   61  C27 UNL     1     -25.348  22.212 -19.971  1.00  0.00     0.065 A 
HETATM   62  C28 UNL     1     -25.036  21.680 -21.200  1.00  0.00     0.037 A 
HETATM   63  C29 UNL     1     -25.950  21.006 -21.986  1.00  0.00     0.010 A 
BRANCH  61  64
HETATM   64  O5  UNL     1     -24.433  22.889 -19.178  1.00  0.00    -0.361 OA
ATOM     65  H5  UNL     1     -24.276  23.811 -19.345  1.00  0.00     0.217 HD
ENDBRANCH  61  64
ENDBRANCH  57  58
ENDBRANCH  52  57
ENDBRANCH  49  52
ENDBRANCH   3  48
TORSDOF 15
ENDMDL
MODEL 5
REMARK VINA RESULT: -6.680269192      3.431      5.924
REMARK  15 active torsions:
REMARK  status: ('A' for Active; 'I' for Inactive)
REMARK    1  A    between atoms: C2_3  and  C3_4 
REMARK    2  A    between atoms: C2_3  and  N13_48 
REMARK    3  A    between atoms: C3_4  and  N2_5 
REMARK    4  A    between atoms: N2_5  and  C4_7 
REMARK    5  A    between atoms: C5_10  and  C6_11 
REMARK    6  A    between atoms: C9_14  and  C10_15 
REMARK       I    between atoms: C10_15  and  N4_17 
REMARK    7  A    between atoms: N4_17  and  C11_19 
REMARK    8  A    between atoms: C11_19  and  C12_20 
REMARK    9  A    between atoms: C12_20  and  C13_21 
REMARK       I    between atoms: C13_21  and  N5_23 
REMARK   10  A    between atoms: N5_23  and  N6_25 
REMARK       I    between atoms: N6_25  and  C14_27 
REMARK       I    between atoms: N13_48  and  C21_50 
REMARK   11  A    between atoms: C21_50  and  C22_52 
REMARK   12  A    between atoms: C22_52  and  N14_53 
REMARK   13  A    between atoms: C22_52  and  C23_57 
REMARK   14  A    between atoms: C23_57  and  C24_58 
REMARK   15  A    between atoms: C27_61  and  O5_62 
ROOT
HETATM    1  N1  UNL     1     -32.248  17.737 -10.182  1.00  0.00    -0.195 NA
HETATM    2  C1  UNL     1     -31.709  17.688 -11.205  1.00  0.00     0.086 C 
HETATM    3  C2  UNL     1     -30.998  17.618 -12.515  1.00  0.00     0.209 C 
ENDROOT
BRANCH   3   4
HETATM    4  C3  UNL     1     -29.989  16.540 -12.371  1.00  0.00     0.161 C 
BRANCH   4   5
HETATM    5  N2  UNL     1     -30.294  15.494 -11.450  1.00  0.00    -0.372 N 
ATOM      6  H2  UNL     1     -29.966  15.548 -10.486  1.00  0.00     0.161 HD
BRANCH   5   7
HETATM    7  C4  UNL     1     -30.980  14.489 -11.839  1.00  0.00     0.120 A 
HETATM    8  N3  UNL     1     -31.063  14.187 -13.171  1.00  0.00    -0.327 N 
HETATM    9  C5  UNL     1     -31.743  13.157 -13.666  1.00  0.00     0.118 A 
ATOM     10  H3  UNL     1     -30.571  14.792 -13.828  1.00  0.00     0.169 HD
HETATM   11  N9  UNL     1     -32.380  12.376 -12.773  1.00  0.00    -0.327 N 
HETATM   12  C17 UNL     1     -32.330  12.633 -11.442  1.00  0.00     0.128 A 
ATOM     13  H9  UNL     1     -32.913  11.572 -13.105  1.00  0.00     0.169 HD
HETATM   14  N10 UNL     1     -32.988  11.825 -10.578  1.00  0.00    -0.293 N 
HETATM   15  C20 UNL     1     -31.630  13.698 -10.916  1.00  0.00     0.096 A 
HETATM   16  C18 UNL     1     -32.950  12.069  -9.253  1.00  0.00     0.327 A 
ATOM     17  H10 UNL     1     -33.516  11.028 -10.932  1.00  0.00     0.172 HD
HETATM   18  O3  UNL     1     -33.586  11.280  -8.471  1.00  0.00    -0.247 OA
HETATM   19  N11 UNL     1     -32.272  13.097  -8.755  1.00  0.00    -0.294 N 
HETATM   20  C19 UNL     1     -31.576  13.967  -9.550  1.00  0.00     0.120 A 
ATOM     21  H11 UNL     1     -32.270  13.243  -7.746  1.00  0.00     0.172 HD
HETATM   22  N12 UNL     1     -30.950  14.918  -9.038  1.00  0.00    -0.384 N 
ATOM     23 2H12 UNL     1     -30.911  15.115  -8.039  1.00  0.00     0.157 HD
ATOM     24 1H12 UNL     1     -30.431  15.567  -9.631  1.00  0.00     0.157 HD
BRANCH   9  25
HETATM   25  C6  UNL     1     -31.843  12.886 -15.100  1.00  0.00     0.008 A 
HETATM   26  C7  UNL     1     -31.154  13.637 -16.030  1.00  0.00     0.016 A 
HETATM   27  C8  UNL     1     -31.178  13.411 -17.389  1.00  0.00     0.018 A 
HETATM   28  C9  UNL     1     -31.948  12.358 -17.854  1.00  0.00     0.032 A 
HETATM   29  C15 UNL     1     -32.645  11.593 -16.958  1.00  0.00     0.018 A 
HETATM   30  C16 UNL     1     -32.598  11.853 -15.588  1.00  0.00     0.016 A 
BRANCH  28  31
HETATM   31  C10 UNL     1     -31.970  12.116 -19.285  1.00  0.00     0.251 C 
HETATM   32  O1  UNL     1     -32.859  11.380 -19.771  1.00  0.00    -0.268 OA
HETATM   33  N4  UNL     1     -31.006  12.701 -20.127  1.00  0.00    -0.356 N 
ATOM     34  H4  UNL     1     -30.280  13.302 -19.736  1.00  0.00     0.162 HD
BRANCH  33  35
HETATM   35  C11 UNL     1     -31.052  12.444 -21.547  1.00  0.00     0.132 C 
BRANCH  35  36
HETATM   36  C12 UNL     1     -30.946  13.674 -22.395  1.00  0.00     0.124 C 
BRANCH  36  37
HETATM   37  C13 UNL     1     -32.316  14.307 -22.413  1.00  0.00     0.237 C 
HETATM   38  O2  UNL     1     -33.360  13.617 -22.217  1.00  0.00    -0.272 OA
HETATM   39  N5  UNL     1     -32.425  15.690 -22.654  1.00  0.00    -0.268 N 
ATOM     40  H5  UNL     1     -31.585  16.244 -22.814  1.00  0.00     0.190 HD
BRANCH  39  41
HETATM   41  N6  UNL     1     -33.683  16.310 -22.677  1.00  0.00    -0.271 N 
HETATM   42  C14 UNL     1     -33.824  17.698 -22.955  1.00  0.00     0.200 C 
HETATM   43  N7  UNL     1     -32.854  18.511 -22.719  1.00  0.00    -0.372 N 
HETATM   44  N8  UNL     1     -35.024  18.188 -23.487  1.00  0.00    -0.062 NA
ATOM     45  H72 UNL     1     -31.980  18.154 -22.332  1.00  0.00     0.158 HD
ATOM     46  H71 UNL     1     -32.955  19.506 -22.918  1.00  0.00     0.158 HD
ATOM     47  H6  UNL     1     -34.517  15.753 -22.489  1.00  0.00     0.189 HD
ENDBRANCH  39  41
ENDBRANCH  36  37
ENDBRANCH  35  36
ENDBRANCH  33  35
ENDBRANCH  28  31
ENDBRANCH   9  25
ENDBRANCH   5   7
ENDBRANCH   4   5
ENDBRANCH   3   4
BRANCH   3  48
HETATM   48  N13 UNL     1     -31.958  17.466 -13.558  1.00  0.00    -0.341 N 
HETATM   49  C21 UNL     1     -31.728  17.821 -14.913  1.00  0.00     0.249 C 
HETATM   50  O4  UNL     1     -30.607  18.300 -15.180  1.00  0.00    -0.271 OA
ATOM     51  H13 UNL     1     -32.869  17.077 -13.315  1.00  0.00     0.164 HD
BRANCH  49  52
HETATM   52  C22 UNL     1     -32.735  17.646 -15.954  1.00  0.00     0.278 C 
BRANCH  52  53
HETATM   53  N14 UNL     1     -33.577  18.862 -15.934  1.00  0.00    -0.066 N 
ATOM     54 3H14 UNL     1     -33.968  19.067 -15.014  1.00  0.00     0.275 HD
ATOM     55 2H14 UNL     1     -33.043  19.725 -16.041  1.00  0.00     0.275 HD
ATOM     56 1H14 UNL     1     -34.287  18.736 -16.656  1.00  0.00     0.275 HD
ENDBRANCH  52  53
BRANCH  52  57
HETATM   57  C23 UNL     1     -33.669  16.517 -15.639  1.00  0.00     0.081 C 
BRANCH  57  58
HETATM   58  C24 UNL     1     -34.058  15.780 -16.837  1.00  0.00    -0.056 A 
HETATM   59  C25 UNL     1     -34.943  14.719 -16.661  1.00  0.00     0.010 A 
HETATM   60  C26 UNL     1     -35.313  13.965 -17.734  1.00  0.00     0.037 A 
HETATM   61  C27 UNL     1     -34.831  14.228 -19.000  1.00  0.00     0.065 A 
HETATM   62  C28 UNL     1     -33.959  15.281 -19.148  1.00  0.00     0.037 A 
HETATM   63  C29 UNL     1     -33.550  16.077 -18.096  1.00  0.00     0.010 A 
BRANCH  61  64
HETATM   64  O5  UNL     1     -35.245  13.426 -20.053  1.00  0.00    -0.361 OA
ATOM     65  H5  UNL     1     -35.290  13.801 -20.924  1.00  0.00     0.217 HD
ENDBRANCH  61  64
ENDBRANCH  57  58
ENDBRANCH  52  57
ENDBRANCH  49  52
ENDBRANCH   3  48
TORSDOF 15
ENDMDL
