MODEL 1
REMARK VINA RESULT: -8.738352532      0.000      0.000
REMARK  14 active torsions:
REMARK  status: ('A' for Active; 'I' for Inactive)
REMARK       I    between atoms: C2_2  and  N1_4 
REMARK    1  A    between atoms: C5_7  and  C6_8 
REMARK    2  A    between atoms: C7_9  and  C8_10 
REMARK    3  A    between atoms: C8_10  and  C9_11 
REMARK    4  A    between atoms: C9_11  and  C10_12 
REMARK    5  A    between atoms: C10_12  and  C11_13 
REMARK    6  A    between atoms: C11_13  and  C12_14 
REMARK    7  A    between atoms: C12_14  and  C13_15 
REMARK    8  A    between atoms: C13_15  and  C14_16 
REMARK    9  A    between atoms: C14_16  and  C15_17 
REMARK   10  A    between atoms: C15_17  and  C16_19 
REMARK   11  A    between atoms: C16_19  and  N2_20 
REMARK   12  A    between atoms: N2_20  and  C17_22 
REMARK   13  A    between atoms: C20_26  and  O3_27 
REMARK   14  A    between atoms: C21_29  and  C22_30 
ROOT
HETATM    1  C15 UNL     1     -15.591  12.371 -18.424  1.00  0.00     0.144 C 
HETATM    2  O2  UNL     1     -16.346  12.407 -17.475  1.00  0.00    -0.296 OA
ENDROOT
BRANCH   1   3
HETATM    3  C14 UNL     1     -14.577  11.288 -18.481  1.00  0.00     0.080 C 
BRANCH   3   4
HETATM    4  C13 UNL     1     -14.402  10.751 -17.079  1.00  0.00     0.007 C 
BRANCH   4   5
HETATM    5  C12 UNL     1     -13.657   9.454 -17.013  1.00  0.00     0.000 C 
BRANCH   5   6
HETATM    6  C11 UNL     1     -13.258   9.211 -15.590  1.00  0.00     0.000 C 
BRANCH   6   7
HETATM    7  C10 UNL     1     -14.410   8.694 -14.771  1.00  0.00     0.001 C 
BRANCH   7   8
HETATM    8  C9  UNL     1     -14.383   7.199 -14.792  1.00  0.00     0.012 C 
BRANCH   8   9
HETATM    9  C8  UNL     1     -15.779   6.614 -15.029  1.00  0.00     0.094 C 
BRANCH   9  10
HETATM   10  C7  UNL     1     -16.541   7.530 -15.918  1.00  0.00    -0.106 C 
HETATM   11  C6  UNL     1     -17.165   8.250 -16.657  1.00  0.00    -0.094 C 
BRANCH  11  12
HETATM   12  C5  UNL     1     -17.922   9.088 -17.555  1.00  0.00     0.138 C 
HETATM   13  C4  UNL     1     -17.269   9.107 -18.920  1.00  0.00     0.045 C 
HETATM   14  C3  UNL     1     -18.047  10.156 -19.718  1.00  0.00     0.128 C 
HETATM   15  N1  UNL     1     -19.469   9.853 -19.747  1.00  0.00    -0.345 N 
HETATM   16  C2  UNL     1     -20.152   9.744 -20.982  1.00  0.00     0.216 C 
HETATM   17  C28 UNL     1     -20.192   9.661 -18.500  1.00  0.00     0.205 C 
HETATM   18  C1  UNL     1     -21.592   9.440 -21.032  1.00  0.00     0.117 C 
HETATM   19  O1  UNL     1     -19.519   9.909 -22.046  1.00  0.00    -0.274 OA
HETATM   20  C27 UNL     1     -19.358   8.719 -17.667  1.00  0.00     0.160 C 
HETATM   21  O5  UNL     1     -19.860   7.741 -17.140  1.00  0.00    -0.295 OA
ENDBRANCH  11  12
ENDBRANCH   9  10
ENDBRANCH   8   9
ENDBRANCH   7   8
ENDBRANCH   6   7
ENDBRANCH   5   6
ENDBRANCH   4   5
ENDBRANCH   3   4
ENDBRANCH   1   3
BRANCH   1  22
HETATM   22  C16 UNL     1     -15.618  13.360 -19.552  1.00  0.00     0.192 C 
BRANCH  22  23
HETATM   23  N2  UNL     1     -16.886  14.020 -19.472  1.00  0.00    -0.410 N 
ATOM     24  H2  UNL     1     -17.333  14.222 -18.578  1.00  0.00     0.154 HD
BRANCH  23  25
HETATM   25  C17 UNL     1     -17.484  14.379 -20.711  1.00  0.00     0.084 C 
HETATM   26  C18 UNL     1     -18.022  13.172 -21.477  1.00  0.00     0.045 C 
HETATM   27  C19 UNL     1     -18.922  13.616 -22.574  1.00  0.00     0.133 C 
HETATM   28  N3  UNL     1     -18.578  14.936 -23.124  1.00  0.00    -0.330 N 
HETATM   29  C20 UNL     1     -19.267  15.618 -24.066  1.00  0.00     0.158 A 
HETATM   30  C25 UNL     1     -17.500  15.636 -22.740  1.00  0.00     0.022 A 
HETATM   31  C21 UNL     1     -18.577  16.794 -24.271  1.00  0.00     0.088 A 
HETATM   32  C23 UNL     1     -17.463  16.807 -23.435  1.00  0.00    -0.019 A 
HETATM   33  C24 UNL     1     -16.432  17.871 -23.312  1.00  0.00     0.051 C 
HETATM   34  C26 UNL     1     -16.566  15.089 -21.680  1.00  0.00     0.082 C 
BRANCH  29  35
HETATM   35  O3  UNL     1     -20.449  15.220 -24.718  1.00  0.00    -0.345 OA
ATOM     36  H3  UNL     1     -21.034  15.762 -25.234  1.00  0.00     0.219 HD
ENDBRANCH  29  35
BRANCH  31  37
HETATM   37  C22 UNL     1     -18.923  17.868 -25.187  1.00  0.00     0.269 C 
HETATM   38  N4  UNL     1     -18.316  17.896 -26.463  1.00  0.00    -0.057 NA
HETATM   39  O4  UNL     1     -19.730  18.740 -24.864  1.00  0.00    -0.271 OA
ENDBRANCH  31  37
ENDBRANCH  23  25
ENDBRANCH  22  23
ENDBRANCH   1  22
TORSDOF 14
ENDMDL
MODEL 2
REMARK VINA RESULT: -8.655089160      2.096      3.648
REMARK  14 active torsions:
REMARK  status: ('A' for Active; 'I' for Inactive)
REMARK       I    between atoms: C2_2  and  N1_4 
REMARK    1  A    between atoms: C5_7  and  C6_8 
REMARK    2  A    between atoms: C7_9  and  C8_10 
REMARK    3  A    between atoms: C8_10  and  C9_11 
REMARK    4  A    between atoms: C9_11  and  C10_12 
REMARK    5  A    between atoms: C10_12  and  C11_13 
REMARK    6  A    between atoms: C11_13  and  C12_14 
REMARK    7  A    between atoms: C12_14  and  C13_15 
REMARK    8  A    between atoms: C13_15  and  C14_16 
REMARK    9  A    between atoms: C14_16  and  C15_17 
REMARK   10  A    between atoms: C15_17  and  C16_19 
REMARK   11  A    between atoms: C16_19  and  N2_20 
REMARK   12  A    between atoms: N2_20  and  C17_22 
REMARK   13  A    between atoms: C20_26  and  O3_27 
REMARK   14  A    between atoms: C21_29  and  C22_30 
ROOT
HETATM    1  C15 UNL     1     -18.351   9.748 -19.742  1.00  0.00     0.144 C 
HETATM    2  O2  UNL     1     -18.884   8.682 -19.512  1.00  0.00    -0.296 OA
ENDROOT
BRANCH   1   3
HETATM    3  C14 UNL     1     -17.233  10.183 -18.867  1.00  0.00     0.080 C 
BRANCH   3   4
HETATM    4  C13 UNL     1     -16.224   9.059 -18.821  1.00  0.00     0.007 C 
BRANCH   4   5
HETATM    5  C12 UNL     1     -14.801   9.520 -18.777  1.00  0.00     0.000 C 
BRANCH   5   6
HETATM    6  C11 UNL     1     -14.772  10.908 -18.211  1.00  0.00     0.000 C 
BRANCH   6   7
HETATM    7  C10 UNL     1     -14.223  10.924 -16.809  1.00  0.00     0.001 C 
BRANCH   7   8
HETATM    8  C9  UNL     1     -13.244   9.804 -16.663  1.00  0.00     0.012 C 
BRANCH   8   9
HETATM    9  C8  UNL     1     -13.396   9.097 -15.312  1.00  0.00     0.094 C 
BRANCH   9  10
HETATM   10  C7  UNL     1     -14.720   8.422 -15.268  1.00  0.00    -0.106 C 
HETATM   11  C6  UNL     1     -15.788   7.864 -15.258  1.00  0.00    -0.094 C 
BRANCH  11  12
HETATM   12  C5  UNL     1     -17.058   7.179 -15.270  1.00  0.00     0.138 C 
HETATM   13  C4  UNL     1     -18.150   8.121 -15.728  1.00  0.00     0.045 C 
HETATM   14  C3  UNL     1     -19.454   7.346 -15.526  1.00  0.00     0.128 C 
HETATM   15  N1  UNL     1     -19.432   6.077 -16.235  1.00  0.00    -0.345 N 
HETATM   16  C2  UNL     1     -20.457   5.754 -17.156  1.00  0.00     0.216 C 
HETATM   17  C28 UNL     1     -18.350   5.136 -15.997  1.00  0.00     0.205 C 
HETATM   18  C1  UNL     1     -20.454   4.473 -17.882  1.00  0.00     0.117 C 
HETATM   19  O1  UNL     1     -21.381   6.572 -17.353  1.00  0.00    -0.274 OA
HETATM   20  C27 UNL     1     -17.070   5.931 -16.078  1.00  0.00     0.160 C 
HETATM   21  O5  UNL     1     -16.138   5.547 -16.763  1.00  0.00    -0.295 OA
ENDBRANCH  11  12
ENDBRANCH   9  10
ENDBRANCH   8   9
ENDBRANCH   7   8
ENDBRANCH   6   7
ENDBRANCH   5   6
ENDBRANCH   4   5
ENDBRANCH   3   4
ENDBRANCH   1   3
BRANCH   1  22
HETATM   22  C16 UNL     1     -18.752  10.659 -20.864  1.00  0.00     0.192 C 
BRANCH  22  23
HETATM   23  N2  UNL     1     -17.534  11.182 -21.407  1.00  0.00    -0.410 N 
ATOM     24  H2  UNL     1     -16.712  10.596 -21.547  1.00  0.00     0.154 HD
BRANCH  23  25
HETATM   25  C17 UNL     1     -17.540  12.565 -21.740  1.00  0.00     0.084 C 
HETATM   26  C18 UNL     1     -17.059  13.449 -20.590  1.00  0.00     0.045 C 
HETATM   27  C19 UNL     1     -16.761  14.818 -21.083  1.00  0.00     0.133 C 
HETATM   28  N3  UNL     1     -17.582  15.225 -22.233  1.00  0.00    -0.330 N 
HETATM   29  C20 UNL     1     -17.472  16.378 -22.932  1.00  0.00     0.158 A 
HETATM   30  C25 UNL     1     -18.572  14.472 -22.736  1.00  0.00     0.022 A 
HETATM   31  C21 UNL     1     -18.442  16.329 -23.910  1.00  0.00     0.088 A 
HETATM   32  C23 UNL     1     -19.136  15.128 -23.788  1.00  0.00    -0.019 A 
HETATM   33  C24 UNL     1     -20.266  14.643 -24.623  1.00  0.00     0.051 C 
HETATM   34  C26 UNL     1     -18.891  13.120 -22.131  1.00  0.00     0.082 C 
BRANCH  29  35
HETATM   35  O3  UNL     1     -16.557  17.426 -22.715  1.00  0.00    -0.345 OA
ATOM     36  H3  UNL     1     -16.657  18.339 -22.958  1.00  0.00     0.219 HD
ENDBRANCH  29  35
BRANCH  31  37
HETATM   37  C22 UNL     1     -18.722  17.335 -24.921  1.00  0.00     0.269 C 
HETATM   38  N4  UNL     1     -19.636  18.369 -24.618  1.00  0.00    -0.057 NA
HETATM   39  O4  UNL     1     -18.175  17.292 -26.023  1.00  0.00    -0.271 OA
ENDBRANCH  31  37
ENDBRANCH  23  25
ENDBRANCH  22  23
ENDBRANCH   1  22
TORSDOF 14
ENDMDL
MODEL 3
REMARK VINA RESULT: -8.592102016      2.896     10.754
REMARK  14 active torsions:
REMARK  status: ('A' for Active; 'I' for Inactive)
REMARK       I    between atoms: C2_2  and  N1_4 
REMARK    1  A    between atoms: C5_7  and  C6_8 
REMARK    2  A    between atoms: C7_9  and  C8_10 
REMARK    3  A    between atoms: C8_10  and  C9_11 
REMARK    4  A    between atoms: C9_11  and  C10_12 
REMARK    5  A    between atoms: C10_12  and  C11_13 
REMARK    6  A    between atoms: C11_13  and  C12_14 
REMARK    7  A    between atoms: C12_14  and  C13_15 
REMARK    8  A    between atoms: C13_15  and  C14_16 
REMARK    9  A    between atoms: C14_16  and  C15_17 
REMARK   10  A    between atoms: C15_17  and  C16_19 
REMARK   11  A    between atoms: C16_19  and  N2_20 
REMARK   12  A    between atoms: N2_20  and  C17_22 
REMARK   13  A    between atoms: C20_26  and  O3_27 
REMARK   14  A    between atoms: C21_29  and  C22_30 
ROOT
HETATM    1  C15 UNL     1     -15.308  14.688 -21.227  1.00  0.00     0.144 C 
HETATM    2  O2  UNL     1     -15.218  15.588 -20.418  1.00  0.00    -0.296 OA
ENDROOT
BRANCH   1   3
HETATM    3  C14 UNL     1     -16.120  14.914 -22.449  1.00  0.00     0.080 C 
BRANCH   3   4
HETATM    4  C13 UNL     1     -17.477  15.416 -22.010  1.00  0.00     0.007 C 
BRANCH   4   5
HETATM    5  C12 UNL     1     -18.625  14.632 -22.565  1.00  0.00     0.000 C 
BRANCH   5   6
HETATM    6  C11 UNL     1     -18.234  14.115 -23.916  1.00  0.00     0.000 C 
BRANCH   6   7
HETATM    7  C10 UNL     1     -19.137  14.647 -24.997  1.00  0.00     0.001 C 
BRANCH   7   8
HETATM    8  C9  UNL     1     -20.410  15.116 -24.370  1.00  0.00     0.012 C 
BRANCH   8   9
HETATM    9  C8  UNL     1     -20.782  16.527 -24.840  1.00  0.00     0.094 C 
BRANCH   9  10
HETATM   10  C7  UNL     1     -19.551  17.360 -24.885  1.00  0.00    -0.106 C 
HETATM   11  C6  UNL     1     -18.555  18.035 -24.951  1.00  0.00    -0.094 C 
BRANCH  11  12
HETATM   12  C5  UNL     1     -17.368  18.849 -25.059  1.00  0.00     0.138 C 
HETATM   13  C4  UNL     1     -16.400  18.502 -23.950  1.00  0.00     0.045 C 
HETATM   14  C3  UNL     1     -15.281  19.541 -24.060  1.00  0.00     0.128 C 
HETATM   15  N1  UNL     1     -14.686  19.541 -25.386  1.00  0.00    -0.345 N 
HETATM   16  C2  UNL     1     -13.290  19.370 -25.545  1.00  0.00     0.216 C 
HETATM   17  C28 UNL     1     -15.530  19.716 -26.557  1.00  0.00     0.205 C 
HETATM   18  C1  UNL     1     -12.668  19.370 -26.880  1.00  0.00     0.117 C 
HETATM   19  O1  UNL     1     -12.575  19.218 -24.532  1.00  0.00    -0.274 OA
HETATM   20  C27 UNL     1     -16.697  18.775 -26.383  1.00  0.00     0.160 C 
HETATM   21  O5  UNL     1     -17.034  18.026 -27.284  1.00  0.00    -0.295 OA
ENDBRANCH  11  12
ENDBRANCH   9  10
ENDBRANCH   8   9
ENDBRANCH   7   8
ENDBRANCH   6   7
ENDBRANCH   5   6
ENDBRANCH   4   5
ENDBRANCH   3   4
ENDBRANCH   1   3
BRANCH   1  22
HETATM   22  C16 UNL     1     -14.643  13.353 -21.070  1.00  0.00     0.192 C 
BRANCH  22  23
HETATM   23  N2  UNL     1     -15.677  12.373 -21.220  1.00  0.00    -0.410 N 
ATOM     24  H2  UNL     1     -16.118  12.189 -22.120  1.00  0.00     0.154 HD
BRANCH  23  25
HETATM   25  C17 UNL     1     -16.051  11.673 -20.040  1.00  0.00     0.084 C 
HETATM   26  C18 UNL     1     -17.454  12.040 -19.557  1.00  0.00     0.045 C 
HETATM   27  C19 UNL     1     -17.926  11.057 -18.547  1.00  0.00     0.133 C 
HETATM   28  N3  UNL     1     -16.842  10.456 -17.755  1.00  0.00    -0.330 N 
HETATM   29  C20 UNL     1     -16.970   9.480 -16.828  1.00  0.00     0.158 A 
HETATM   30  C25 UNL     1     -15.557  10.824 -17.865  1.00  0.00     0.022 A 
HETATM   31  C21 UNL     1     -15.702   9.239 -16.346  1.00  0.00     0.088 A 
HETATM   32  C23 UNL     1     -14.809  10.085 -16.998  1.00  0.00    -0.019 A 
HETATM   33  C24 UNL     1     -13.339  10.181 -16.803  1.00  0.00     0.051 C 
HETATM   34  C26 UNL     1     -15.148  11.901 -18.849  1.00  0.00     0.082 C 
BRANCH  29  35
HETATM   35  O3  UNL     1     -18.153   8.833 -16.425  1.00  0.00    -0.345 OA
ATOM     36  H3  UNL     1     -19.001   9.229 -16.262  1.00  0.00     0.219 HD
ENDBRANCH  29  35
BRANCH  31  37
HETATM   37  C22 UNL     1     -15.316   8.270 -15.333  1.00  0.00     0.269 C 
HETATM   38  N4  UNL     1     -15.118   6.924 -15.719  1.00  0.00    -0.057 NA
HETATM   39  O4  UNL     1     -15.161   8.609 -14.160  1.00  0.00    -0.271 OA
ENDBRANCH  31  37
ENDBRANCH  23  25
ENDBRANCH  22  23
ENDBRANCH   1  22
TORSDOF 14
ENDMDL
MODEL 4
REMARK VINA RESULT: -8.468974661      2.790      4.954
REMARK  14 active torsions:
REMARK  status: ('A' for Active; 'I' for Inactive)
REMARK       I    between atoms: C2_2  and  N1_4 
REMARK    1  A    between atoms: C5_7  and  C6_8 
REMARK    2  A    between atoms: C7_9  and  C8_10 
REMARK    3  A    between atoms: C8_10  and  C9_11 
REMARK    4  A    between atoms: C9_11  and  C10_12 
REMARK    5  A    between atoms: C10_12  and  C11_13 
REMARK    6  A    between atoms: C11_13  and  C12_14 
REMARK    7  A    between atoms: C12_14  and  C13_15 
REMARK    8  A    between atoms: C13_15  and  C14_16 
REMARK    9  A    between atoms: C14_16  and  C15_17 
REMARK   10  A    between atoms: C15_17  and  C16_19 
REMARK   11  A    between atoms: C16_19  and  N2_20 
REMARK   12  A    between atoms: N2_20  and  C17_22 
REMARK   13  A    between atoms: C20_26  and  O3_27 
REMARK   14  A    between atoms: C21_29  and  C22_30 
ROOT
HETATM    1  C15 UNL     1     -18.610  10.456 -19.669  1.00  0.00     0.144 C 
HETATM    2  O2  UNL     1     -18.821  11.294 -18.817  1.00  0.00    -0.296 OA
ENDROOT
BRANCH   1   3
HETATM    3  C14 UNL     1     -18.222   9.090 -19.236  1.00  0.00     0.080 C 
BRANCH   3   4
HETATM    4  C13 UNL     1     -16.960   9.212 -18.413  1.00  0.00     0.007 C 
BRANCH   4   5
HETATM    5  C12 UNL     1     -15.702   9.217 -19.226  1.00  0.00     0.000 C 
BRANCH   5   6
HETATM    6  C11 UNL     1     -15.019  10.536 -19.030  1.00  0.00     0.000 C 
BRANCH   6   7
HETATM    7  C10 UNL     1     -15.027  10.957 -17.585  1.00  0.00     0.001 C 
BRANCH   7   8
HETATM    8  C9  UNL     1     -13.652  10.779 -17.025  1.00  0.00     0.012 C 
BRANCH   8   9
HETATM    9  C8  UNL     1     -13.695  10.290 -15.574  1.00  0.00     0.094 C 
BRANCH   9  10
HETATM   10  C7  UNL     1     -14.366   8.963 -15.531  1.00  0.00    -0.106 C 
HETATM   11  C6  UNL     1     -14.888   7.877 -15.514  1.00  0.00    -0.094 C 
BRANCH  11  12
HETATM   12  C5  UNL     1     -15.488   6.565 -15.504  1.00  0.00     0.138 C 
HETATM   13  C4  UNL     1     -15.421   5.954 -16.886  1.00  0.00     0.045 C 
HETATM   14  C3  UNL     1     -16.238   4.664 -16.791  1.00  0.00     0.128 C 
HETATM   15  N1  UNL     1     -15.739   3.796 -15.737  1.00  0.00    -0.345 N 
HETATM   16  C2  UNL     1     -15.375   2.459 -16.023  1.00  0.00     0.216 C 
HETATM   17  C28 UNL     1     -15.611   4.307 -14.381  1.00  0.00     0.205 C 
HETATM   18  C1  UNL     1     -14.869   1.563 -14.968  1.00  0.00     0.117 C 
HETATM   19  O1  UNL     1     -15.487   2.032 -17.192  1.00  0.00    -0.274 OA
HETATM   20  C27 UNL     1     -14.911   5.639 -14.494  1.00  0.00     0.160 C 
HETATM   21  O5  UNL     1     -13.949   5.900 -13.791  1.00  0.00    -0.295 OA
ENDBRANCH  11  12
ENDBRANCH   9  10
ENDBRANCH   8   9
ENDBRANCH   7   8
ENDBRANCH   6   7
ENDBRANCH   5   6
ENDBRANCH   4   5
ENDBRANCH   3   4
ENDBRANCH   1   3
BRANCH   1  22
HETATM   22  C16 UNL     1     -18.720  10.715 -21.142  1.00  0.00     0.192 C 
BRANCH  22  23
HETATM   23  N2  UNL     1     -17.468  11.286 -21.541  1.00  0.00    -0.410 N 
ATOM     24  H2  UNL     1     -16.617  10.728 -21.602  1.00  0.00     0.154 HD
BRANCH  23  25
HETATM   25  C17 UNL     1     -17.483  12.674 -21.847  1.00  0.00     0.084 C 
HETATM   26  C18 UNL     1     -16.947  13.535 -20.704  1.00  0.00     0.045 C 
HETATM   27  C19 UNL     1     -16.665  14.913 -21.185  1.00  0.00     0.133 C 
HETATM   28  N3  UNL     1     -17.535  15.344 -22.289  1.00  0.00    -0.330 N 
HETATM   29  C20 UNL     1     -17.451  16.509 -22.971  1.00  0.00     0.158 A 
HETATM   30  C25 UNL     1     -18.550  14.604 -22.761  1.00  0.00     0.022 A 
HETATM   31  C21 UNL     1     -18.464  16.482 -23.905  1.00  0.00     0.088 A 
HETATM   32  C23 UNL     1     -19.158  15.281 -23.774  1.00  0.00    -0.019 A 
HETATM   33  C24 UNL     1     -20.326  14.816 -24.566  1.00  0.00     0.051 C 
HETATM   34  C26 UNL     1     -18.847  13.242 -22.167  1.00  0.00     0.082 C 
BRANCH  29  35
HETATM   35  O3  UNL     1     -16.523  17.549 -22.776  1.00  0.00    -0.345 OA
ATOM     36  H3  UNL     1     -16.339  18.276 -23.360  1.00  0.00     0.219 HD
ENDBRANCH  29  35
BRANCH  31  37
HETATM   37  C22 UNL     1     -18.785  17.507 -24.884  1.00  0.00     0.269 C 
HETATM   38  N4  UNL     1     -18.154  17.463 -26.148  1.00  0.00    -0.057 NA
HETATM   39  O4  UNL     1     -19.592  18.399 -24.623  1.00  0.00    -0.271 OA
ENDBRANCH  31  37
ENDBRANCH  23  25
ENDBRANCH  22  23
ENDBRANCH   1  22
TORSDOF 14
ENDMDL
MODEL 5
REMARK VINA RESULT: -8.468709534      3.006      6.272
REMARK  14 active torsions:
REMARK  status: ('A' for Active; 'I' for Inactive)
REMARK       I    between atoms: C2_2  and  N1_4 
REMARK    1  A    between atoms: C5_7  and  C6_8 
REMARK    2  A    between atoms: C7_9  and  C8_10 
REMARK    3  A    between atoms: C8_10  and  C9_11 
REMARK    4  A    between atoms: C9_11  and  C10_12 
REMARK    5  A    between atoms: C10_12  and  C11_13 
REMARK    6  A    between atoms: C11_13  and  C12_14 
REMARK    7  A    between atoms: C12_14  and  C13_15 
REMARK    8  A    between atoms: C13_15  and  C14_16 
REMARK    9  A    between atoms: C14_16  and  C15_17 
REMARK   10  A    between atoms: C15_17  and  C16_19 
REMARK   11  A    between atoms: C16_19  and  N2_20 
REMARK   12  A    between atoms: N2_20  and  C17_22 
REMARK   13  A    between atoms: C20_26  and  O3_27 
REMARK   14  A    between atoms: C21_29  and  C22_30 
ROOT
HETATM    1  C15 UNL     1     -15.516  12.272 -20.671  1.00  0.00     0.144 C 
HETATM    2  O2  UNL     1     -15.881  11.908 -21.770  1.00  0.00    -0.296 OA
ENDROOT
BRANCH   1   3
HETATM    3  C14 UNL     1     -16.327  11.883 -19.491  1.00  0.00     0.080 C 
BRANCH   3   4
HETATM    4  C13 UNL     1     -15.794  10.562 -18.985  1.00  0.00     0.007 C 
BRANCH   4   5
HETATM    5  C12 UNL     1     -16.622   9.380 -19.382  1.00  0.00     0.000 C 
BRANCH   5   6
HETATM    6  C11 UNL     1     -17.994   9.548 -18.804  1.00  0.00     0.000 C 
BRANCH   6   7
HETATM    7  C10 UNL     1     -19.023   8.770 -19.581  1.00  0.00     0.001 C 
BRANCH   7   8
HETATM    8  C9  UNL     1     -19.580   9.649 -20.654  1.00  0.00     0.012 C 
BRANCH   8   9
HETATM    9  C8  UNL     1     -20.017  11.009 -20.098  1.00  0.00     0.094 C 
BRANCH   9  10
HETATM   10  C7  UNL     1     -19.561  12.078 -21.025  1.00  0.00    -0.106 C 
HETATM   11  C6  UNL     1     -19.185  12.924 -21.797  1.00  0.00    -0.094 C 
BRANCH  11  12
HETATM   12  C5  UNL     1     -18.737  13.917 -22.743  1.00  0.00     0.138 C 
HETATM   13  C4  UNL     1     -19.926  14.560 -23.422  1.00  0.00     0.045 C 
HETATM   14  C3  UNL     1     -19.328  15.448 -24.515  1.00  0.00     0.128 C 
HETATM   15  N1  UNL     1     -18.377  16.399 -23.964  1.00  0.00    -0.345 N 
HETATM   16  C2  UNL     1     -18.530  17.786 -24.203  1.00  0.00     0.216 C 
HETATM   17  C28 UNL     1     -17.262  15.922 -23.161  1.00  0.00     0.205 C 
HETATM   18  C1  UNL     1     -17.575  18.765 -23.656  1.00  0.00     0.117 C 
HETATM   19  O1  UNL     1     -19.493  18.183 -24.893  1.00  0.00    -0.274 OA
HETATM   20  C27 UNL     1     -17.843  14.952 -22.162  1.00  0.00     0.160 C 
HETATM   21  O5  UNL     1     -17.575  15.043 -20.976  1.00  0.00    -0.295 OA
ENDBRANCH  11  12
ENDBRANCH   9  10
ENDBRANCH   8   9
ENDBRANCH   7   8
ENDBRANCH   6   7
ENDBRANCH   5   6
ENDBRANCH   4   5
ENDBRANCH   3   4
ENDBRANCH   1   3
BRANCH   1  22
HETATM   22  C16 UNL     1     -14.284  13.094 -20.430  1.00  0.00     0.192 C 
BRANCH  22  23
HETATM   23  N2  UNL     1     -14.715  14.460 -20.409  1.00  0.00    -0.410 N 
ATOM     24  H2  UNL     1     -15.307  14.826 -19.664  1.00  0.00     0.154 HD
BRANCH  23  25
HETATM   25  C17 UNL     1     -14.269  15.274 -21.486  1.00  0.00     0.084 C 
HETATM   26  C18 UNL     1     -13.097  14.655 -22.245  1.00  0.00     0.045 C 
HETATM   27  C19 UNL     1     -12.893  15.357 -23.539  1.00  0.00     0.133 C 
HETATM   28  N3  UNL     1     -13.286  16.774 -23.513  1.00  0.00    -0.330 N 
HETATM   29  C20 UNL     1     -13.285  17.628 -24.561  1.00  0.00     0.158 A 
HETATM   30  C25 UNL     1     -13.702  17.403 -22.403  1.00  0.00     0.022 A 
HETATM   31  C21 UNL     1     -13.722  18.840 -24.070  1.00  0.00     0.088 A 
HETATM   32  C23 UNL     1     -13.985  18.700 -22.709  1.00  0.00    -0.019 A 
HETATM   33  C24 UNL     1     -14.474  19.740 -21.766  1.00  0.00     0.051 C 
HETATM   34  C26 UNL     1     -13.802  16.656 -21.089  1.00  0.00     0.082 C 
BRANCH  29  35
HETATM   35  O3  UNL     1     -12.915  17.351 -25.890  1.00  0.00    -0.345 OA
ATOM     36  H3  UNL     1     -13.238  17.771 -26.679  1.00  0.00     0.219 HD
ENDBRANCH  29  35
BRANCH  31  37
HETATM   37  C22 UNL     1     -13.898  20.077 -24.812  1.00  0.00     0.269 C 
HETATM   38  N4  UNL     1     -15.076  20.253 -25.573  1.00  0.00    -0.057 NA
HETATM   39  O4  UNL     1     -13.041  20.961 -24.780  1.00  0.00    -0.271 OA
ENDBRANCH  31  37
ENDBRANCH  23  25
ENDBRANCH  22  23
ENDBRANCH   1  22
TORSDOF 14
ENDMDL
