MODEL 1
REMARK VINA RESULT: -9.291412732      0.000      0.000
REMARK  12 active torsions:
REMARK  status: ('A' for Active; 'I' for Inactive)
REMARK    1  A    between atoms: C2_2  and  C3_3 
REMARK    2  A    between atoms: C3_3  and  C4_4 
REMARK    3  A    between atoms: C4_4  and  N1_5 
REMARK    4  A    between atoms: C6_8  and  N3_9 
REMARK    5  A    between atoms: N3_9  and  C7_10 
REMARK    6  A    between atoms: N3_9  and  C17_20 
REMARK    7  A    between atoms: C7_10  and  C8_11 
REMARK    8  A    between atoms: C8_11  and  C9_12 
REMARK    9  A    between atoms: C9_12  and  C10_13 
REMARK   10  A    between atoms: C10_13  and  C11_14 
REMARK   11  A    between atoms: C17_20  and  O1_21 
REMARK   12  A    between atoms: C20_27  and  C21_28 
REMARK       I    between atoms: C21_28  and  N5_30 
ROOT
HETATM    1  N3  UNL     1      -4.770  -2.357 -15.294  1.00  0.00    -0.319 N 
ENDROOT
BRANCH   1   2
HETATM    2  C6  UNL     1      -5.296  -3.628 -15.827  1.00  0.00     0.147 A 
HETATM    3  C5  UNL     1      -6.398  -4.247 -15.341  1.00  0.00     0.155 A 
HETATM    4  N1  UNL     1      -6.755  -5.419 -15.942  1.00  0.00    -0.285 N 
HETATM    5  N2  UNL     1      -7.137  -3.709 -14.275  1.00  0.00    -0.080 NA
HETATM    6  C27 UNL     1      -6.065  -5.950 -16.964  1.00  0.00     0.330 A 
HETATM    7  N7  UNL     1      -4.967  -5.315 -17.433  1.00  0.00    -0.273 N 
HETATM    8  O5  UNL     1      -6.406  -7.039 -17.515  1.00  0.00    -0.246 OA
HETATM    9  C26 UNL     1      -4.559  -4.157 -16.886  1.00  0.00     0.279 A 
ATOM     10  H7  UNL     1      -4.443  -5.719 -18.210  1.00  0.00     0.173 HD
HETATM   11  O4  UNL     1      -3.546  -3.545 -17.298  1.00  0.00    -0.265 OA
BRANCH   4  12
HETATM   12  C4  UNL     1      -7.918  -6.115 -15.465  1.00  0.00     0.135 C 
BRANCH  12  13
HETATM   13  C3  UNL     1      -9.201  -5.628 -16.096  1.00  0.00     0.020 C 
BRANCH  13  14
HETATM   14  C2  UNL     1      -9.758  -6.794 -16.903  1.00  0.00    -0.003 C 
HETATM   15  C1  UNL     1     -11.023  -6.389 -17.651  1.00  0.00     0.005 C 
ENDBRANCH  13  14
ENDBRANCH  12  13
ENDBRANCH   4  12
ENDBRANCH   1   2
BRANCH   1  16
HETATM   16  C7  UNL     1      -3.572  -2.467 -14.547  1.00  0.00     0.131 C 
BRANCH  16  17
HETATM   17  C8  UNL     1      -3.610  -2.389 -13.080  1.00  0.00     0.020 C 
BRANCH  17  18
HETATM   18  C9  UNL     1      -3.605  -1.126 -12.348  1.00  0.00     0.002 C 
BRANCH  18  19
HETATM   19  C10 UNL     1      -3.143   0.098 -13.096  1.00  0.00     0.005 C 
BRANCH  19  20
HETATM   20  C11 UNL     1      -2.478   1.105 -12.193  1.00  0.00    -0.014 C 
HETATM   21  C12 UNL     1      -3.029   2.492 -12.319  1.00  0.00     0.004 C 
HETATM   22  C13 UNL     1      -2.558   3.252 -11.071  1.00  0.00     0.000 C 
HETATM   23  C14 UNL     1      -1.064   3.267 -10.977  1.00  0.00     0.000 C 
HETATM   24  C15 UNL     1      -0.410   1.951 -11.212  1.00  0.00     0.000 C 
HETATM   25  C16 UNL     1      -0.993   1.167 -12.363  1.00  0.00     0.004 C 
ENDBRANCH  19  20
ENDBRANCH  18  19
ENDBRANCH  17  18
ENDBRANCH  16  17
ENDBRANCH   1  16
BRANCH   1  26
HETATM   26  C17 UNL     1      -5.514  -1.246 -15.666  1.00  0.00     0.172 C 
HETATM   27  C18 UNL     1      -6.405  -0.376 -14.933  1.00  0.00     0.101 A 
HETATM   28  C19 UNL     1      -7.003   0.753 -15.515  1.00  0.00     0.123 A 
HETATM   29  N6  UNL     1      -6.865  -0.344 -13.692  1.00  0.00    -0.333 N 
HETATM   30  N4  UNL     1      -7.758   1.361 -14.594  1.00  0.00    -0.345 N 
HETATM   31  C20 UNL     1      -7.684   0.687 -13.444  1.00  0.00     0.175 A 
ATOM     32  H4  UNL     1      -8.306   2.208 -14.746  1.00  0.00     0.167 HD
ATOM     33  H6  UNL     1      -6.618  -1.040 -12.988  1.00  0.00     0.168 HD
BRANCH  26  34
HETATM   34  O1  UNL     1      -5.375  -0.942 -16.935  1.00  0.00    -0.344 OA
ATOM     35  H1  UNL     1      -4.585  -0.445 -17.111  1.00  0.00     0.219 HD
ENDBRANCH  26  34
BRANCH  31  36
HETATM   36  C21 UNL     1      -8.355   1.008 -12.174  1.00  0.00     0.287 C 
HETATM   37  O2  UNL     1      -9.591   0.717 -12.082  1.00  0.00    -0.264 OA
HETATM   38  N5  UNL     1      -7.714   1.603 -11.082  1.00  0.00    -0.342 N 
HETATM   39  C22 UNL     1      -6.312   1.954 -11.142  1.00  0.00     0.152 C 
HETATM   40  C25 UNL     1      -8.468   1.865  -9.878  1.00  0.00     0.152 C 
HETATM   41  C23 UNL     1      -5.899   2.700  -9.876  1.00  0.00     0.187 C 
HETATM   42  O3  UNL     1      -6.882   3.649  -9.592  1.00  0.00    -0.388 OA
HETATM   43  C24 UNL     1      -7.963   2.985  -9.041  1.00  0.00     0.187 C 
ENDBRANCH  31  36
ENDBRANCH   1  26
TORSDOF 12
ENDMDL
MODEL 2
REMARK VINA RESULT: -9.094108057      2.435      9.625
REMARK  12 active torsions:
REMARK  status: ('A' for Active; 'I' for Inactive)
REMARK    1  A    between atoms: C2_2  and  C3_3 
REMARK    2  A    between atoms: C3_3  and  C4_4 
REMARK    3  A    between atoms: C4_4  and  N1_5 
REMARK    4  A    between atoms: C6_8  and  N3_9 
REMARK    5  A    between atoms: N3_9  and  C7_10 
REMARK    6  A    between atoms: N3_9  and  C17_20 
REMARK    7  A    between atoms: C7_10  and  C8_11 
REMARK    8  A    between atoms: C8_11  and  C9_12 
REMARK    9  A    between atoms: C9_12  and  C10_13 
REMARK   10  A    between atoms: C10_13  and  C11_14 
REMARK   11  A    between atoms: C17_20  and  O1_21 
REMARK   12  A    between atoms: C20_27  and  C21_28 
REMARK       I    between atoms: C21_28  and  N5_30 
ROOT
HETATM    1  N3  UNL     1      -5.392  -1.872 -14.891  1.00  0.00    -0.319 N 
ENDROOT
BRANCH   1   2
HETATM    2  C6  UNL     1      -5.210  -0.731 -13.975  1.00  0.00     0.147 A 
HETATM    3  C5  UNL     1      -5.968  -0.525 -12.872  1.00  0.00     0.155 A 
HETATM    4  N1  UNL     1      -5.676   0.580 -12.127  1.00  0.00    -0.285 N 
HETATM    5  N2  UNL     1      -7.002  -1.406 -12.513  1.00  0.00    -0.080 NA
HETATM    6  C27 UNL     1      -4.691   1.434 -12.450  1.00  0.00     0.330 A 
HETATM    7  N7  UNL     1      -3.946   1.209 -13.557  1.00  0.00    -0.273 N 
HETATM    8  O5  UNL     1      -4.428   2.457 -11.750  1.00  0.00    -0.246 OA
HETATM    9  C26 UNL     1      -4.181   0.139 -14.336  1.00  0.00     0.279 A 
ATOM     10  H7  UNL     1      -3.198   1.857 -13.801  1.00  0.00     0.173 HD
HETATM   11  O4  UNL     1      -3.508  -0.096 -15.366  1.00  0.00    -0.265 OA
BRANCH   4  12
HETATM   12  C4  UNL     1      -6.450   0.843 -10.945  1.00  0.00     0.135 C 
BRANCH  12  13
HETATM   13  C3  UNL     1      -7.614   1.772 -11.195  1.00  0.00     0.020 C 
BRANCH  13  14
HETATM   14  C2  UNL     1      -8.858   1.059 -10.680  1.00  0.00    -0.003 C 
HETATM   15  C1  UNL     1      -9.777   0.661 -11.830  1.00  0.00     0.005 C 
ENDBRANCH  13  14
ENDBRANCH  12  13
ENDBRANCH   4  12
ENDBRANCH   1   2
BRANCH   1  16
HETATM   16  C7  UNL     1      -6.365  -1.683 -15.902  1.00  0.00     0.131 C 
BRANCH  16  17
HETATM   17  C8  UNL     1      -7.357  -2.733 -16.172  1.00  0.00     0.020 C 
BRANCH  17  18
HETATM   18  C9  UNL     1      -8.004  -3.510 -15.121  1.00  0.00     0.002 C 
BRANCH  18  19
HETATM   19  C10 UNL     1      -7.812  -5.005 -15.156  1.00  0.00     0.005 C 
BRANCH  19  20
HETATM   20  C11 UNL     1      -8.681  -5.670 -16.193  1.00  0.00    -0.014 C 
HETATM   21  C12 UNL     1     -10.099  -5.189 -16.196  1.00  0.00     0.004 C 
HETATM   22  C13 UNL     1     -10.696  -5.633 -17.539  1.00  0.00     0.000 C 
HETATM   23  C14 UNL     1     -10.625  -7.119 -17.700  1.00  0.00     0.000 C 
HETATM   24  C15 UNL     1      -9.310  -7.723 -17.351  1.00  0.00     0.000 C 
HETATM   25  C16 UNL     1      -8.685  -7.163 -16.096  1.00  0.00     0.004 C 
ENDBRANCH  19  20
ENDBRANCH  18  19
ENDBRANCH  17  18
ENDBRANCH  16  17
ENDBRANCH   1  16
BRANCH   1  26
HETATM   26  C17 UNL     1      -4.529  -2.930 -14.643  1.00  0.00     0.172 C 
HETATM   27  C18 UNL     1      -4.031  -4.002 -15.473  1.00  0.00     0.101 A 
HETATM   28  C19 UNL     1      -3.089  -4.936 -15.015  1.00  0.00     0.123 A 
HETATM   29  N6  UNL     1      -4.243  -4.389 -16.722  1.00  0.00    -0.333 N 
HETATM   30  N4  UNL     1      -2.816  -5.792 -16.006  1.00  0.00    -0.345 N 
HETATM   31  C20 UNL     1      -3.530  -5.464 -17.085  1.00  0.00     0.175 A 
ATOM     32  H4  UNL     1      -2.163  -6.574 -15.947  1.00  0.00     0.167 HD
ATOM     33  H6  UNL     1      -4.889  -3.912 -17.351  1.00  0.00     0.168 HD
BRANCH  26  34
HETATM   34  O1  UNL     1      -4.091  -2.951 -13.405  1.00  0.00    -0.344 OA
ATOM     35  H1  UNL     1      -4.318  -3.752 -12.947  1.00  0.00     0.219 HD
ENDBRANCH  26  34
BRANCH  31  36
HETATM   36  C21 UNL     1      -3.534  -6.136 -18.394  1.00  0.00     0.287 C 
HETATM   37  O2  UNL     1      -2.783  -5.646 -19.299  1.00  0.00    -0.264 OA
HETATM   38  N5  UNL     1      -4.306  -7.264 -18.689  1.00  0.00    -0.342 N 
HETATM   39  C22 UNL     1      -5.175  -7.853 -17.696  1.00  0.00     0.152 C 
HETATM   40  C25 UNL     1      -4.225  -7.849 -20.009  1.00  0.00     0.152 C 
HETATM   41  C23 UNL     1      -5.993  -8.985 -18.311  1.00  0.00     0.187 C 
HETATM   42  O3  UNL     1      -6.477  -8.549 -19.545  1.00  0.00    -0.388 OA
HETATM   43  C24 UNL     1      -5.432  -8.595 -20.450  1.00  0.00     0.187 C 
ENDBRANCH  31  36
ENDBRANCH   1  26
TORSDOF 12
ENDMDL
MODEL 3
REMARK VINA RESULT: -9.083648952      2.019      9.823
REMARK  12 active torsions:
REMARK  status: ('A' for Active; 'I' for Inactive)
REMARK    1  A    between atoms: C2_2  and  C3_3 
REMARK    2  A    between atoms: C3_3  and  C4_4 
REMARK    3  A    between atoms: C4_4  and  N1_5 
REMARK    4  A    between atoms: C6_8  and  N3_9 
REMARK    5  A    between atoms: N3_9  and  C7_10 
REMARK    6  A    between atoms: N3_9  and  C17_20 
REMARK    7  A    between atoms: C7_10  and  C8_11 
REMARK    8  A    between atoms: C8_11  and  C9_12 
REMARK    9  A    between atoms: C9_12  and  C10_13 
REMARK   10  A    between atoms: C10_13  and  C11_14 
REMARK   11  A    between atoms: C17_20  and  O1_21 
REMARK   12  A    between atoms: C20_27  and  C21_28 
REMARK       I    between atoms: C21_28  and  N5_30 
ROOT
HETATM    1  N3  UNL     1      -5.731  -1.278 -13.886  1.00  0.00    -0.319 N 
ENDROOT
BRANCH   1   2
HETATM    2  C6  UNL     1      -5.616  -0.160 -12.931  1.00  0.00     0.147 A 
HETATM    3  C5  UNL     1      -4.610   0.747 -12.955  1.00  0.00     0.155 A 
HETATM    4  N1  UNL     1      -4.644   1.723 -12.002  1.00  0.00    -0.285 N 
HETATM    5  N2  UNL     1      -3.584   0.687 -13.913  1.00  0.00    -0.080 NA
HETATM    6  C27 UNL     1      -5.615   1.800 -11.077  1.00  0.00     0.330 A 
HETATM    7  N7  UNL     1      -6.610   0.884 -11.072  1.00  0.00    -0.273 N 
HETATM    8  O5  UNL     1      -5.637   2.712 -10.197  1.00  0.00    -0.246 OA
HETATM    9  C26 UNL     1      -6.637  -0.104 -11.983  1.00  0.00     0.279 A 
ATOM     10  H7  UNL     1      -7.348   0.944 -10.370  1.00  0.00     0.173 HD
HETATM   11  O4  UNL     1      -7.545  -0.967 -12.004  1.00  0.00    -0.265 OA
BRANCH   4  12
HETATM   12  C4  UNL     1      -3.600   2.710 -11.984  1.00  0.00     0.135 C 
BRANCH  12  13
HETATM   13  C3  UNL     1      -2.493   2.384 -11.010  1.00  0.00     0.020 C 
BRANCH  13  14
HETATM   14  C2  UNL     1      -1.198   2.875 -11.645  1.00  0.00    -0.003 C 
HETATM   15  C1  UNL     1      -0.452   1.730 -12.322  1.00  0.00     0.005 C 
ENDBRANCH  13  14
ENDBRANCH  12  13
ENDBRANCH   4  12
ENDBRANCH   1   2
BRANCH   1  16
HETATM   16  C7  UNL     1      -6.647  -1.073 -14.945  1.00  0.00     0.131 C 
BRANCH  16  17
HETATM   17  C8  UNL     1      -7.370  -2.215 -15.524  1.00  0.00     0.020 C 
BRANCH  17  18
HETATM   18  C9  UNL     1      -8.052  -3.220 -14.716  1.00  0.00     0.002 C 
BRANCH  18  19
HETATM   19  C10 UNL     1      -7.636  -4.656 -14.914  1.00  0.00     0.005 C 
BRANCH  19  20
HETATM   20  C11 UNL     1      -8.500  -5.368 -15.924  1.00  0.00    -0.014 C 
HETATM   21  C12 UNL     1      -9.904  -4.850 -15.994  1.00  0.00     0.004 C 
HETATM   22  C13 UNL     1     -10.483  -5.370 -17.318  1.00  0.00     0.000 C 
HETATM   23  C14 UNL     1     -10.451  -6.865 -17.374  1.00  0.00     0.000 C 
HETATM   24  C15 UNL     1      -9.162  -7.479 -16.952  1.00  0.00     0.000 C 
HETATM   25  C16 UNL     1      -8.550  -6.850 -15.724  1.00  0.00     0.004 C 
ENDBRANCH  19  20
ENDBRANCH  18  19
ENDBRANCH  17  18
ENDBRANCH  16  17
ENDBRANCH   1  16
BRANCH   1  26
HETATM   26  C17 UNL     1      -4.870  -2.332 -13.615  1.00  0.00     0.172 C 
HETATM   27  C18 UNL     1      -4.184  -3.277 -14.466  1.00  0.00     0.101 A 
HETATM   28  C19 UNL     1      -3.288  -4.233 -13.962  1.00  0.00     0.123 A 
HETATM   29  N6  UNL     1      -4.159  -3.511 -15.769  1.00  0.00    -0.333 N 
HETATM   30  N4  UNL     1      -2.806  -4.950 -14.983  1.00  0.00    -0.345 N 
HETATM   31  C20 UNL     1      -3.341  -4.512 -16.125  1.00  0.00     0.175 A 
ATOM     32  H4  UNL     1      -2.134  -5.713 -14.902  1.00  0.00     0.167 HD
ATOM     33  H6  UNL     1      -4.712  -2.979 -16.441  1.00  0.00     0.168 HD
BRANCH  26  34
HETATM   34  O1  UNL     1      -4.650  -2.495 -12.331  1.00  0.00    -0.344 OA
ATOM     35  H1  UNL     1      -4.600  -3.409 -12.078  1.00  0.00     0.219 HD
ENDBRANCH  26  34
BRANCH  31  36
HETATM   36  C21 UNL     1      -3.086  -5.014 -17.484  1.00  0.00     0.287 C 
HETATM   37  O2  UNL     1      -2.097  -4.512 -18.111  1.00  0.00    -0.264 OA
HETATM   38  N5  UNL     1      -3.860  -5.997 -18.110  1.00  0.00    -0.342 N 
HETATM   39  C22 UNL     1      -4.994  -6.592 -17.438  1.00  0.00     0.152 C 
HETATM   40  C25 UNL     1      -3.514  -6.423 -19.447  1.00  0.00     0.152 C 
HETATM   41  C23 UNL     1      -5.735  -7.534 -18.383  1.00  0.00     0.187 C 
HETATM   42  O3  UNL     1      -5.864  -6.896 -19.617  1.00  0.00    -0.388 OA
HETATM   43  C24 UNL     1      -4.639  -6.959 -20.256  1.00  0.00     0.187 C 
ENDBRANCH  31  36
ENDBRANCH   1  26
TORSDOF 12
ENDMDL
MODEL 4
REMARK VINA RESULT: -9.057414325      2.079      6.896
REMARK  12 active torsions:
REMARK  status: ('A' for Active; 'I' for Inactive)
REMARK    1  A    between atoms: C2_2  and  C3_3 
REMARK    2  A    between atoms: C3_3  and  C4_4 
REMARK    3  A    between atoms: C4_4  and  N1_5 
REMARK    4  A    between atoms: C6_8  and  N3_9 
REMARK    5  A    between atoms: N3_9  and  C7_10 
REMARK    6  A    between atoms: N3_9  and  C17_20 
REMARK    7  A    between atoms: C7_10  and  C8_11 
REMARK    8  A    between atoms: C8_11  and  C9_12 
REMARK    9  A    between atoms: C9_12  and  C10_13 
REMARK   10  A    between atoms: C10_13  and  C11_14 
REMARK   11  A    between atoms: C17_20  and  O1_21 
REMARK   12  A    between atoms: C20_27  and  C21_28 
REMARK       I    between atoms: C21_28  and  N5_30 
ROOT
HETATM    1  N3  UNL     1      -6.748  -3.136 -14.654  1.00  0.00    -0.319 N 
ENDROOT
BRANCH   1   2
HETATM    2  C6  UNL     1      -5.296  -3.363 -14.772  1.00  0.00     0.147 A 
HETATM    3  C5  UNL     1      -4.683  -3.718 -15.926  1.00  0.00     0.155 A 
HETATM    4  N1  UNL     1      -3.331  -3.894 -15.871  1.00  0.00    -0.285 N 
HETATM    5  N2  UNL     1      -5.402  -3.895 -17.120  1.00  0.00    -0.080 NA
HETATM    6  C27 UNL     1      -2.623  -3.729 -14.743  1.00  0.00     0.330 A 
HETATM    7  N7  UNL     1      -3.255  -3.374 -13.601  1.00  0.00    -0.273 N 
HETATM    8  O5  UNL     1      -1.366  -3.893 -14.704  1.00  0.00    -0.246 OA
HETATM    9  C26 UNL     1      -4.586  -3.185 -13.584  1.00  0.00     0.279 A 
ATOM     10  H7  UNL     1      -2.717  -3.247 -12.744  1.00  0.00     0.173 HD
HETATM   11  O4  UNL     1      -5.200  -2.857 -12.543  1.00  0.00    -0.265 OA
BRANCH   4  12
HETATM   12  C4  UNL     1      -2.632  -4.270 -17.070  1.00  0.00     0.135 C 
BRANCH  12  13
HETATM   13  C3  UNL     1      -2.703  -5.750 -17.357  1.00  0.00     0.020 C 
BRANCH  13  14
HETATM   14  C2  UNL     1      -3.097  -5.890 -18.822  1.00  0.00    -0.003 C 
HETATM   15  C1  UNL     1      -4.297  -6.817 -18.981  1.00  0.00     0.005 C 
ENDBRANCH  13  14
ENDBRANCH  12  13
ENDBRANCH   4  12
ENDBRANCH   1   2
BRANCH   1  16
HETATM   16  C7  UNL     1      -7.482  -4.211 -14.098  1.00  0.00     0.131 C 
BRANCH  16  17
HETATM   17  C8  UNL     1      -7.459  -5.530 -14.745  1.00  0.00     0.020 C 
BRANCH  17  18
HETATM   18  C9  UNL     1      -8.649  -6.358 -14.913  1.00  0.00     0.002 C 
BRANCH  18  19
HETATM   19  C10 UNL     1      -9.523  -6.069 -16.107  1.00  0.00     0.005 C 
BRANCH  19  20
HETATM   20  C11 UNL     1      -9.144  -6.896 -17.308  1.00  0.00    -0.014 C 
HETATM   21  C12 UNL     1     -10.269  -7.116 -18.273  1.00  0.00     0.004 C 
HETATM   22  C13 UNL     1      -9.620  -7.580 -19.585  1.00  0.00     0.000 C 
HETATM   23  C14 UNL     1      -8.825  -8.831 -19.382  1.00  0.00     0.000 C 
HETATM   24  C15 UNL     1      -7.930  -8.818 -18.193  1.00  0.00     0.000 C 
HETATM   25  C16 UNL     1      -8.556  -8.225 -16.954  1.00  0.00     0.004 C 
ENDBRANCH  19  20
ENDBRANCH  18  19
ENDBRANCH  17  18
ENDBRANCH  16  17
ENDBRANCH   1  16
BRANCH   1  26
HETATM   26  C17 UNL     1      -7.149  -1.870 -15.058  1.00  0.00     0.172 C 
HETATM   27  C18 UNL     1      -7.088  -0.576 -14.420  1.00  0.00     0.101 A 
HETATM   28  C19 UNL     1      -7.499   0.602 -15.064  1.00  0.00     0.123 A 
HETATM   29  N6  UNL     1      -6.686  -0.137 -13.237  1.00  0.00    -0.333 N 
HETATM   30  N4  UNL     1      -7.314   1.633 -14.232  1.00  0.00    -0.345 N 
HETATM   31  C20 UNL     1      -6.805   1.189 -13.081  1.00  0.00     0.175 A 
ATOM     32  H4  UNL     1      -7.528   2.607 -14.445  1.00  0.00     0.167 HD
ATOM     33  H6  UNL     1      -6.320  -0.752 -12.510  1.00  0.00     0.168 HD
BRANCH  26  34
HETATM   34  O1  UNL     1      -7.694  -1.865 -16.252  1.00  0.00    -0.344 OA
ATOM     35  H1  UNL     1      -7.702  -1.003 -16.650  1.00  0.00     0.219 HD
ENDBRANCH  26  34
BRANCH  31  36
HETATM   36  C21 UNL     1      -6.446   1.983 -11.895  1.00  0.00     0.287 C 
HETATM   37  O2  UNL     1      -7.401   2.367 -11.145  1.00  0.00    -0.264 OA
HETATM   38  N5  UNL     1      -5.134   2.329 -11.556  1.00  0.00    -0.342 N 
HETATM   39  C22 UNL     1      -4.018   1.918 -12.380  1.00  0.00     0.152 C 
HETATM   40  C25 UNL     1      -4.895   3.106 -10.361  1.00  0.00     0.152 C 
HETATM   41  C23 UNL     1      -2.721   2.532 -11.860  1.00  0.00     0.187 C 
HETATM   42  O3  UNL     1      -2.964   3.874 -11.569  1.00  0.00    -0.388 OA
HETATM   43  C24 UNL     1      -3.659   3.930 -10.374  1.00  0.00     0.187 C 
ENDBRANCH  31  36
ENDBRANCH   1  26
TORSDOF 12
ENDMDL
MODEL 5
REMARK VINA RESULT: -8.956571046      2.355      9.698
REMARK  12 active torsions:
REMARK  status: ('A' for Active; 'I' for Inactive)
REMARK    1  A    between atoms: C2_2  and  C3_3 
REMARK    2  A    between atoms: C3_3  and  C4_4 
REMARK    3  A    between atoms: C4_4  and  N1_5 
REMARK    4  A    between atoms: C6_8  and  N3_9 
REMARK    5  A    between atoms: N3_9  and  C7_10 
REMARK    6  A    between atoms: N3_9  and  C17_20 
REMARK    7  A    between atoms: C7_10  and  C8_11 
REMARK    8  A    between atoms: C8_11  and  C9_12 
REMARK    9  A    between atoms: C9_12  and  C10_13 
REMARK   10  A    between atoms: C10_13  and  C11_14 
REMARK   11  A    between atoms: C17_20  and  O1_21 
REMARK   12  A    between atoms: C20_27  and  C21_28 
REMARK       I    between atoms: C21_28  and  N5_30 
ROOT
HETATM    1  N3  UNL     1      -5.624  -1.608 -14.187  1.00  0.00    -0.319 N 
ENDROOT
BRANCH   1   2
HETATM    2  C6  UNL     1      -5.187  -0.408 -13.449  1.00  0.00     0.147 A 
HETATM    3  C5  UNL     1      -5.772   0.027 -12.308  1.00  0.00     0.155 A 
HETATM    4  N1  UNL     1      -5.251   1.156 -11.746  1.00  0.00    -0.285 N 
HETATM    5  N2  UNL     1      -6.858  -0.652 -11.731  1.00  0.00    -0.080 NA
HETATM    6  C27 UNL     1      -4.213   1.820 -12.280  1.00  0.00     0.330 A 
HETATM    7  N7  UNL     1      -3.643   1.368 -13.421  1.00  0.00    -0.273 N 
HETATM    8  O5  UNL     1      -3.736   2.868 -11.749  1.00  0.00    -0.246 OA
HETATM    9  C26 UNL     1      -4.107   0.261 -14.027  1.00  0.00     0.279 A 
ATOM     10  H7  UNL     1      -2.854   1.872 -13.825  1.00  0.00     0.173 HD
HETATM   11  O4  UNL     1      -3.602  -0.182 -15.084  1.00  0.00    -0.265 OA
BRANCH   4  12
HETATM   12  C4  UNL     1      -5.835   1.658 -10.533  1.00  0.00     0.135 C 
BRANCH  12  13
HETATM   13  C3  UNL     1      -7.041   2.534 -10.774  1.00  0.00     0.020 C 
BRANCH  13  14
HETATM   14  C2  UNL     1      -7.958   2.351  -9.571  1.00  0.00    -0.003 C 
HETATM   15  C1  UNL     1      -7.260   1.570  -8.464  1.00  0.00     0.005 C 
ENDBRANCH  13  14
ENDBRANCH  12  13
ENDBRANCH   4  12
ENDBRANCH   1   2
BRANCH   1  16
HETATM   16  C7  UNL     1      -6.740  -1.418 -15.038  1.00  0.00     0.131 C 
BRANCH  16  17
HETATM   17  C8  UNL     1      -7.338  -2.566 -15.734  1.00  0.00     0.020 C 
BRANCH  17  18
HETATM   18  C9  UNL     1      -8.100  -3.605 -15.050  1.00  0.00     0.002 C 
BRANCH  18  19
HETATM   19  C10 UNL     1      -7.692  -5.034 -15.304  1.00  0.00     0.005 C 
BRANCH  19  20
HETATM   20  C11 UNL     1      -8.599  -5.722 -16.291  1.00  0.00    -0.014 C 
HETATM   21  C12 UNL     1     -10.026  -5.271 -16.222  1.00  0.00     0.004 C 
HETATM   22  C13 UNL     1     -10.683  -5.734 -17.530  1.00  0.00     0.000 C 
HETATM   23  C14 UNL     1     -10.589  -7.219 -17.688  1.00  0.00     0.000 C 
HETATM   24  C15 UNL     1      -9.245  -7.794 -17.406  1.00  0.00     0.000 C 
HETATM   25  C16 UNL     1      -8.568  -7.214 -16.188  1.00  0.00     0.004 C 
ENDBRANCH  19  20
ENDBRANCH  18  19
ENDBRANCH  17  18
ENDBRANCH  16  17
ENDBRANCH   1  16
BRANCH   1  26
HETATM   26  C17 UNL     1      -4.825  -2.720 -13.965  1.00  0.00     0.172 C 
HETATM   27  C18 UNL     1      -4.172  -3.649 -14.859  1.00  0.00     0.101 A 
HETATM   28  C19 UNL     1      -3.337  -4.679 -14.398  1.00  0.00     0.123 A 
HETATM   29  N6  UNL     1      -4.133  -3.807 -16.173  1.00  0.00    -0.333 N 
HETATM   30  N4  UNL     1      -2.873  -5.358 -15.451  1.00  0.00    -0.345 N 
HETATM   31  C20 UNL     1      -3.360  -4.826 -16.574  1.00  0.00     0.175 A 
ATOM     32  H4  UNL     1      -2.243  -6.160 -15.405  1.00  0.00     0.167 HD
ATOM     33  H6  UNL     1      -4.643  -3.207 -16.821  1.00  0.00     0.168 HD
BRANCH  26  34
HETATM   34  O1  UNL     1      -4.641  -2.969 -12.689  1.00  0.00    -0.344 OA
ATOM     35  H1  UNL     1      -5.246  -2.497 -12.130  1.00  0.00     0.219 HD
ENDBRANCH  26  34
BRANCH  31  36
HETATM   36  C21 UNL     1      -3.105  -5.261 -17.956  1.00  0.00     0.287 C 
HETATM   37  O2  UNL     1      -2.084  -4.768 -18.539  1.00  0.00    -0.264 OA
HETATM   38  N5  UNL     1      -3.910  -6.171 -18.649  1.00  0.00    -0.342 N 
HETATM   39  C22 UNL     1      -5.080  -6.753 -18.030  1.00  0.00     0.152 C 
HETATM   40  C25 UNL     1      -3.559  -6.534 -20.003  1.00  0.00     0.152 C 
HETATM   41  C23 UNL     1      -5.844  -7.605 -19.039  1.00  0.00     0.187 C 
HETATM   42  O3  UNL     1      -5.925  -6.892 -20.235  1.00  0.00    -0.388 OA
HETATM   43  C24 UNL     1      -4.692  -6.972 -20.858  1.00  0.00     0.187 C 
ENDBRANCH  31  36
ENDBRANCH   1  26
TORSDOF 12
ENDMDL
