MODEL 1
REMARK VINA RESULT: -6.563085291      0.000      0.000
REMARK  7 active torsions:
REMARK  status: ('A' for Active; 'I' for Inactive)
REMARK    1  A    between atoms: S1_2  and  C2_3 
REMARK    2  A    between atoms: C3_4  and  S2_5 
REMARK    3  A    between atoms: S2_5  and  C4_6 
REMARK    4  A    between atoms: C4_6  and  C5_7 
REMARK       I    between atoms: C5_7  and  N1_9 
REMARK    5  A    between atoms: N1_9  and  C6_11 
REMARK    6  A    between atoms: C10_16  and  C11_17 
REMARK    7  A    between atoms: C11_17  and  N2_18 
ROOT
HETATM    1  C2  UNL     1      38.957  43.499   6.386  1.00  0.00     0.065 A 
HETATM    2  C3  UNL     1      38.748  42.081   6.394  1.00  0.00     0.131 A 
HETATM    3  O2  UNL     1      37.505  41.861   6.401  1.00  0.00    -0.303 OA
HETATM    4  C10 UNL     1      36.816  42.974   6.407  1.00  0.00     0.105 A 
HETATM    5  C16 UNL     1      37.742  44.065   6.393  1.00  0.00     0.085 A 
HETATM    6 CL1  UNL     1      37.263  45.734   6.366  1.00  0.00    -0.080 Cl
ENDROOT
BRANCH   2   7
HETATM    7  S2  UNL     1      40.286  41.133   6.401  1.00  0.00    -0.094 SA
BRANCH   7   8
HETATM    8  C4  UNL     1      40.529  40.216   4.895  1.00  0.00     0.184 C 
BRANCH   8   9
HETATM    9  C5  UNL     1      40.348  38.765   5.098  1.00  0.00     0.227 C 
HETATM   10  O1  UNL     1      40.905  38.133   6.016  1.00  0.00    -0.273 OA
HETATM   11  N1  UNL     1      39.482  38.067   4.178  1.00  0.00    -0.352 N 
ATOM     12  H1  UNL     1      39.032  38.612   3.443  1.00  0.00     0.163 HD
BRANCH  11  13
HETATM   13  C6  UNL     1      39.210  36.638   4.229  1.00  0.00     0.022 C 
HETATM   14  C7  UNL     1      38.281  36.211   3.125  1.00  0.00     0.037 C 
HETATM   15  C8  UNL     1      38.633  36.218   5.581  1.00  0.00     0.037 C 
HETATM   16  C9  UNL     1      40.507  35.877   4.029  1.00  0.00     0.037 C 
ENDBRANCH  11  13
ENDBRANCH   8   9
ENDBRANCH   7   8
ENDBRANCH   2   7
BRANCH   1  17
HETATM   17  S1  UNL     1      40.528  44.300   6.433  1.00  0.00    -0.129 SA
HETATM   18  C1  UNL     1      41.088  44.530   8.151  1.00  0.00     0.095 C 
ENDBRANCH   1  17
BRANCH   4  19
HETATM   19  C11 UNL     1      35.379  43.227   6.453  1.00  0.00     0.339 C 
BRANCH  19  20
HETATM   20  N2  UNL     1      34.864  43.963   7.592  1.00  0.00     0.098 N 
HETATM   21  C12 UNL     1      34.665  42.883   8.603  1.00  0.00     0.299 C 
HETATM   22  C13 UNL     1      34.361  43.660   9.867  1.00  0.00     0.198 C 
HETATM   23  O3  UNL     1      33.056  44.068   9.708  1.00  0.00    -0.388 OA
HETATM   24  C14 UNL     1      32.831  44.863   8.629  1.00  0.00     0.198 C 
HETATM   25  C15 UNL     1      33.643  44.628   7.382  1.00  0.00     0.299 C 
ENDBRANCH  19  20
ENDBRANCH   4  19
TORSDOF 7
ENDMDL
MODEL 2
REMARK VINA RESULT: -6.396521525      6.697      9.160
REMARK  7 active torsions:
REMARK  status: ('A' for Active; 'I' for Inactive)
REMARK    1  A    between atoms: S1_2  and  C2_3 
REMARK    2  A    between atoms: C3_4  and  S2_5 
REMARK    3  A    between atoms: S2_5  and  C4_6 
REMARK    4  A    between atoms: C4_6  and  C5_7 
REMARK       I    between atoms: C5_7  and  N1_9 
REMARK    5  A    between atoms: N1_9  and  C6_11 
REMARK    6  A    between atoms: C10_16  and  C11_17 
REMARK    7  A    between atoms: C11_17  and  N2_18 
ROOT
HETATM    1  C2  UNL     1      34.455  45.781   7.387  1.00  0.00     0.065 A 
HETATM    2  C3  UNL     1      33.849  45.662   6.094  1.00  0.00     0.131 A 
HETATM    3  O2  UNL     1      32.753  45.048   6.222  1.00  0.00    -0.303 OA
HETATM    4  C10 UNL     1      32.527  44.715   7.468  1.00  0.00     0.105 A 
HETATM    5  C16 UNL     1      33.624  45.188   8.255  1.00  0.00     0.085 A 
HETATM    6 CL1  UNL     1      33.728  44.989   9.978  1.00  0.00    -0.080 Cl
ENDROOT
BRANCH   2   7
HETATM    7  S2  UNL     1      34.837  46.399   4.772  1.00  0.00    -0.094 SA
BRANCH   7   8
HETATM    8  C4  UNL     1      34.188  47.964   4.227  1.00  0.00     0.184 C 
BRANCH   8   9
HETATM    9  C5  UNL     1      33.380  48.620   5.274  1.00  0.00     0.227 C 
HETATM   10  O1  UNL     1      33.880  49.282   6.203  1.00  0.00    -0.273 OA
HETATM   11  N1  UNL     1      31.946  48.472   5.198  1.00  0.00    -0.352 N 
ATOM     12  H1  UNL     1      31.564  47.934   4.420  1.00  0.00     0.163 HD
BRANCH  11  13
HETATM   13  C6  UNL     1      31.009  49.040   6.156  1.00  0.00     0.022 C 
HETATM   14  C7  UNL     1      30.987  50.543   6.085  1.00  0.00     0.037 C 
HETATM   15  C8  UNL     1      31.321  48.595   7.586  1.00  0.00     0.037 C 
HETATM   16  C9  UNL     1      29.608  48.565   5.824  1.00  0.00     0.037 C 
ENDBRANCH  11  13
ENDBRANCH   8   9
ENDBRANCH   7   8
ENDBRANCH   2   7
BRANCH   1  17
HETATM   17  S1  UNL     1      36.027  46.513   7.716  1.00  0.00    -0.129 SA
HETATM   18  C1  UNL     1      37.085  45.375   8.667  1.00  0.00     0.095 C 
ENDBRANCH   1  17
BRANCH   4  19
HETATM   19  C11 UNL     1      31.434  43.976   8.092  1.00  0.00     0.339 C 
BRANCH  19  20
HETATM   20  N2  UNL     1      30.378  44.746   8.722  1.00  0.00     0.098 N 
HETATM   21  C12 UNL     1      29.615  43.695   9.457  1.00  0.00     0.299 C 
HETATM   22  C13 UNL     1      28.663  44.507  10.309  1.00  0.00     0.198 C 
HETATM   23  O3  UNL     1      27.690  44.922   9.428  1.00  0.00    -0.388 OA
HETATM   24  C14 UNL     1      28.136  45.691   8.400  1.00  0.00     0.198 C 
HETATM   25  C15 UNL     1      29.509  45.416   7.843  1.00  0.00     0.299 C 
ENDBRANCH  19  20
ENDBRANCH   4  19
TORSDOF 7
ENDMDL
MODEL 3
REMARK VINA RESULT: -6.395424078      4.617      6.400
REMARK  7 active torsions:
REMARK  status: ('A' for Active; 'I' for Inactive)
REMARK    1  A    between atoms: S1_2  and  C2_3 
REMARK    2  A    between atoms: C3_4  and  S2_5 
REMARK    3  A    between atoms: S2_5  and  C4_6 
REMARK    4  A    between atoms: C4_6  and  C5_7 
REMARK       I    between atoms: C5_7  and  N1_9 
REMARK    5  A    between atoms: N1_9  and  C6_11 
REMARK    6  A    between atoms: C10_16  and  C11_17 
REMARK    7  A    between atoms: C11_17  and  N2_18 
ROOT
HETATM    1  C2  UNL     1      33.971  45.351   8.280  1.00  0.00     0.065 A 
HETATM    2  C3  UNL     1      33.757  44.034   7.759  1.00  0.00     0.131 A 
HETATM    3  O2  UNL     1      32.643  44.017   7.164  1.00  0.00    -0.303 OA
HETATM    4  C10 UNL     1      32.047  45.181   7.219  1.00  0.00     0.105 A 
HETATM    5  C16 UNL     1      32.897  46.077   7.941  1.00  0.00     0.085 A 
HETATM    6 CL1  UNL     1      32.512  47.746   8.231  1.00  0.00    -0.080 Cl
ENDROOT
BRANCH   2   7
HETATM    7  S2  UNL     1      35.107  42.891   8.128  1.00  0.00    -0.094 SA
BRANCH   7   8
HETATM    8  C4  UNL     1      36.185  42.634   6.736  1.00  0.00     0.184 C 
BRANCH   8   9
HETATM    9  C5  UNL     1      37.290  43.612   6.707  1.00  0.00     0.227 C 
HETATM   10  O1  UNL     1      37.157  44.774   6.279  1.00  0.00    -0.273 OA
HETATM   11  N1  UNL     1      38.575  43.179   7.201  1.00  0.00    -0.352 N 
ATOM     12  H1  UNL     1      38.652  42.226   7.555  1.00  0.00     0.163 HD
BRANCH  11  13
HETATM   13  C6  UNL     1      39.768  44.012   7.228  1.00  0.00     0.022 C 
HETATM   14  C7  UNL     1      39.614  45.172   8.174  1.00  0.00     0.037 C 
HETATM   15  C8  UNL     1      40.132  44.527   5.835  1.00  0.00     0.037 C 
HETATM   16  C9  UNL     1      40.938  43.189   7.731  1.00  0.00     0.037 C 
ENDBRANCH  11  13
ENDBRANCH   8   9
ENDBRANCH   7   8
ENDBRANCH   2   7
BRANCH   1  17
HETATM   17  S1  UNL     1      35.363  45.856   9.240  1.00  0.00    -0.129 SA
HETATM   18  C1  UNL     1      35.026  45.667  11.020  1.00  0.00     0.095 C 
ENDBRANCH   1  17
BRANCH   4  19
HETATM   19  C11 UNL     1      30.751  45.632   6.722  1.00  0.00     0.339 C 
BRANCH  19  20
HETATM   20  N2  UNL     1      29.574  45.261   7.484  1.00  0.00     0.098 N 
HETATM   21  C12 UNL     1      29.014  46.590   7.869  1.00  0.00     0.299 C 
HETATM   22  C13 UNL     1      27.665  46.228   8.453  1.00  0.00     0.198 C 
HETATM   23  O3  UNL     1      27.958  45.732   9.703  1.00  0.00    -0.388 OA
HETATM   24  C14 UNL     1      28.759  44.634   9.712  1.00  0.00     0.198 C 
HETATM   25  C15 UNL     1      29.817  44.510   8.648  1.00  0.00     0.299 C 
ENDBRANCH  19  20
ENDBRANCH   4  19
TORSDOF 7
ENDMDL
MODEL 4
REMARK VINA RESULT: -6.385431122      5.899      7.436
REMARK  7 active torsions:
REMARK  status: ('A' for Active; 'I' for Inactive)
REMARK    1  A    between atoms: S1_2  and  C2_3 
REMARK    2  A    between atoms: C3_4  and  S2_5 
REMARK    3  A    between atoms: S2_5  and  C4_6 
REMARK    4  A    between atoms: C4_6  and  C5_7 
REMARK       I    between atoms: C5_7  and  N1_9 
REMARK    5  A    between atoms: N1_9  and  C6_11 
REMARK    6  A    between atoms: C10_16  and  C11_17 
REMARK    7  A    between atoms: C11_17  and  N2_18 
ROOT
HETATM    1  C2  UNL     1      33.793  46.673   6.445  1.00  0.00     0.065 A 
HETATM    2  C3  UNL     1      34.073  47.084   7.789  1.00  0.00     0.131 A 
HETATM    3  O2  UNL     1      32.981  47.377   8.352  1.00  0.00    -0.303 OA
HETATM    4  C10 UNL     1      31.963  47.223   7.544  1.00  0.00     0.105 A 
HETATM    5  C16 UNL     1      32.465  46.758   6.287  1.00  0.00     0.085 A 
HETATM    6 CL1  UNL     1      31.455  46.391   4.923  1.00  0.00    -0.080 Cl
ENDROOT
BRANCH   2   7
HETATM    7  S2  UNL     1      35.833  47.050   8.195  1.00  0.00    -0.094 SA
BRANCH   7   8
HETATM    8  C4  UNL     1      36.266  45.680   9.245  1.00  0.00     0.184 C 
BRANCH   8   9
HETATM    9  C5  UNL     1      35.605  44.430   8.820  1.00  0.00     0.227 C 
HETATM   10  O1  UNL     1      36.009  43.738   7.867  1.00  0.00    -0.273 OA
HETATM   11  N1  UNL     1      34.436  44.012   9.557  1.00  0.00    -0.352 N 
ATOM     12  H1  UNL     1      34.134  44.593  10.339  1.00  0.00     0.163 HD
BRANCH  11  13
HETATM   13  C6  UNL     1      33.661  42.817   9.258  1.00  0.00     0.022 C 
HETATM   14  C7  UNL     1      34.476  41.566   9.448  1.00  0.00     0.037 C 
HETATM   15  C8  UNL     1      33.088  42.852   7.841  1.00  0.00     0.037 C 
HETATM   16  C9  UNL     1      32.493  42.729  10.221  1.00  0.00     0.037 C 
ENDBRANCH  11  13
ENDBRANCH   8   9
ENDBRANCH   7   8
ENDBRANCH   2   7
BRANCH   1  17
HETATM   17  S1  UNL     1      35.003  46.220   5.242  1.00  0.00    -0.129 SA
HETATM   18  C1  UNL     1      35.733  47.699   4.469  1.00  0.00     0.095 C 
ENDBRANCH   1  17
BRANCH   4  19
HETATM   19  C11 UNL     1      30.535  47.467   7.723  1.00  0.00     0.339 C 
BRANCH  19  20
HETATM   20  N2  UNL     1      29.682  46.317   7.953  1.00  0.00     0.098 N 
HETATM   21  C12 UNL     1      28.532  46.918   8.690  1.00  0.00     0.299 C 
HETATM   22  C13 UNL     1      27.527  45.785   8.724  1.00  0.00     0.198 C 
HETATM   23  O3  UNL     1      28.006  44.937   9.698  1.00  0.00    -0.388 OA
HETATM   24  C14 UNL     1      29.244  44.430   9.459  1.00  0.00     0.198 C 
HETATM   25  C15 UNL     1      30.244  45.292   8.734  1.00  0.00     0.299 C 
ENDBRANCH  19  20
ENDBRANCH   4  19
TORSDOF 7
ENDMDL
MODEL 5
REMARK VINA RESULT: -6.347652011      5.426      7.055
REMARK  7 active torsions:
REMARK  status: ('A' for Active; 'I' for Inactive)
REMARK    1  A    between atoms: S1_2  and  C2_3 
REMARK    2  A    between atoms: C3_4  and  S2_5 
REMARK    3  A    between atoms: S2_5  and  C4_6 
REMARK    4  A    between atoms: C4_6  and  C5_7 
REMARK       I    between atoms: C5_7  and  N1_9 
REMARK    5  A    between atoms: N1_9  and  C6_11 
REMARK    6  A    between atoms: C10_16  and  C11_17 
REMARK    7  A    between atoms: C11_17  and  N2_18 
ROOT
HETATM    1  C2  UNL     1      33.897  47.210   6.944  1.00  0.00     0.065 A 
HETATM    2  C3  UNL     1      34.094  45.969   6.255  1.00  0.00     0.131 A 
HETATM    3  O2  UNL     1      32.963  45.459   6.021  1.00  0.00    -0.303 OA
HETATM    4  C10 UNL     1      31.990  46.205   6.480  1.00  0.00     0.105 A 
HETATM    5  C16 UNL     1      32.573  47.363   7.087  1.00  0.00     0.085 A 
HETATM    6 CL1  UNL     1      31.645  48.643   7.805  1.00  0.00    -0.080 Cl
ENDROOT
BRANCH   2   7
HETATM    7  S2  UNL     1      35.835  45.576   5.977  1.00  0.00    -0.094 SA
BRANCH   7   8
HETATM    8  C4  UNL     1      36.315  44.035   6.727  1.00  0.00     0.184 C 
BRANCH   8   9
HETATM    9  C5  UNL     1      35.455  43.690   7.876  1.00  0.00     0.227 C 
HETATM   10  O1  UNL     1      35.696  44.061   9.040  1.00  0.00    -0.273 OA
HETATM   11  N1  UNL     1      34.287  42.884   7.613  1.00  0.00    -0.352 N 
ATOM     12  H1  UNL     1      34.109  42.603   6.649  1.00  0.00     0.163 HD
BRANCH  11  13
HETATM   13  C6  UNL     1      33.346  42.444   8.634  1.00  0.00     0.022 C 
HETATM   14  C7  UNL     1      32.796  43.604   9.418  1.00  0.00     0.037 C 
HETATM   15  C8  UNL     1      33.977  41.429   9.587  1.00  0.00     0.037 C 
HETATM   16  C9  UNL     1      32.165  41.769   7.963  1.00  0.00     0.037 C 
ENDBRANCH  11  13
ENDBRANCH   8   9
ENDBRANCH   7   8
ENDBRANCH   2   7
BRANCH   1  17
HETATM   17  S1  UNL     1      35.181  48.266   7.535  1.00  0.00    -0.129 SA
HETATM   18  C1  UNL     1      35.514  49.608   6.350  1.00  0.00     0.095 C 
ENDBRANCH   1  17
BRANCH   4  19
HETATM   19  C11 UNL     1      30.543  46.019   6.485  1.00  0.00     0.339 C 
BRANCH  19  20
HETATM   20  N2  UNL     1      29.869  46.038   7.770  1.00  0.00     0.098 N 
HETATM   21  C12 UNL     1      29.622  44.588   8.020  1.00  0.00     0.299 C 
HETATM   22  C13 UNL     1      29.142  44.572   9.456  1.00  0.00     0.198 C 
HETATM   23  O3  UNL     1      27.841  45.017   9.383  1.00  0.00    -0.388 OA
HETATM   24  C14 UNL     1      27.689  46.267   8.873  1.00  0.00     0.198 C 
HETATM   25  C15 UNL     1      28.642  46.725   7.800  1.00  0.00     0.299 C 
ENDBRANCH  19  20
ENDBRANCH   4  19
TORSDOF 7
ENDMDL
