MODEL 1
REMARK VINA RESULT: -9.331813247      0.000      0.000
REMARK  8 active torsions:
REMARK  status: ('A' for Active; 'I' for Inactive)
REMARK    1  A    between atoms: C2_2  and  C3_3 
REMARK    2  A    between atoms: C3_3  and  N1_5 
REMARK    3  A    between atoms: C3_3  and  C5_9 
REMARK       I    between atoms: C5_9  and  N2_11 
REMARK    4  A    between atoms: N2_11  and  C6_13 
REMARK    5  A    between atoms: C9_16  and  C10_17 
REMARK    6  A    between atoms: C12_20  and  N3_21 
REMARK    7  A    between atoms: N3_21  and  C13_23 
REMARK    8  A    between atoms: C18_32  and  S2_33 
ROOT
HETATM    1  C10 UNL     1      48.129   0.410  76.929  1.00  0.00     0.068 A 
HETATM    2  C11 UNL     1      48.074   0.577  78.281  1.00  0.00     0.085 A 
HETATM    3  S1  UNL     1      46.436   0.154  78.634  1.00  0.00    -0.063 SA
HETATM    4  C12 UNL     1      45.944  -0.199  77.049  1.00  0.00     0.149 A 
HETATM    5  N4  UNL     1      47.028   0.014  76.328  1.00  0.00    -0.334 N 
ATOM      6  H4  UNL     1      47.012  -0.127  75.318  1.00  0.00     0.168 HD
ENDROOT
BRANCH   1   7
HETATM    7  C9  UNL     1      49.358   0.750  76.152  1.00  0.00     0.063 A 
HETATM    8  C8  UNL     1      50.105  -0.163  75.441  1.00  0.00     0.036 A 
HETATM    9  C7  UNL     1      51.140   0.488  74.883  1.00  0.00     0.051 A 
HETATM   10  C6  UNL     1      51.069   1.866  75.239  1.00  0.00     0.110 A 
HETATM   11  N5  UNL     1      49.964   1.936  76.013  1.00  0.00    -0.336 N 
HETATM   12  C20 UNL     1      49.602   3.163  76.744  1.00  0.00     0.158 C 
BRANCH  10  13
HETATM   13  N2  UNL     1      52.043   2.773  74.801  1.00  0.00    -0.311 N 
HETATM   14  C5  UNL     1      53.204   3.273  75.339  1.00  0.00     0.259 C 
HETATM   15  O1  UNL     1      53.623   3.070  76.490  1.00  0.00    -0.270 OA
ATOM     16  H2  UNL     1      51.845   3.147  73.873  1.00  0.00     0.170 HD
BRANCH  14  17
HETATM   17  C3  UNL     1      54.102   4.157  74.509  1.00  0.00     0.199 C 
HETATM   18  C4  UNL     1      53.271   5.227  73.894  1.00  0.00     0.056 C 
BRANCH  17  19
HETATM   19  C2  UNL     1      55.266   4.680  75.292  1.00  0.00     0.044 C 
HETATM   20  C1  UNL     1      56.004   5.816  74.657  1.00  0.00     0.008 C 
ENDBRANCH  17  19
BRANCH  17  21
HETATM   21  N1  UNL     1      54.688   3.361  73.416  1.00  0.00    -0.062 N 
ATOM     22  H13 UNL     1      55.235   2.562  73.738  1.00  0.00     0.275 HD
ATOM     23  H12 UNL     1      54.001   2.828  72.882  1.00  0.00     0.275 HD
ATOM     24  H11 UNL     1      55.221   4.023  72.853  1.00  0.00     0.275 HD
ENDBRANCH  17  21
ENDBRANCH  14  17
ENDBRANCH  10  13
ENDBRANCH   1   7
BRANCH   4  25
HETATM   25  N3  UNL     1      44.760  -0.596  76.629  1.00  0.00    -0.334 N 
ATOM     26  H3  UNL     1      43.933  -0.015  76.766  1.00  0.00     0.168 HD
BRANCH  25  27
HETATM   27  C13 UNL     1      44.668  -1.860  75.979  1.00  0.00     0.081 A 
HETATM   28  C14 UNL     1      44.828  -2.978  76.772  1.00  0.00     0.087 A 
HETATM   29 CL1  UNL     1      45.134  -2.806  78.491  1.00  0.00    -0.080 Cl
HETATM   30  C15 UNL     1      44.750  -4.240  76.210  1.00  0.00     0.098 A 
HETATM   31 CL2  UNL     1      44.954  -5.659  77.211  1.00  0.00    -0.079 Cl
HETATM   32  C16 UNL     1      44.510  -4.328  74.848  1.00  0.00     0.163 A 
HETATM   33  F1  UNL     1      44.430  -5.562  74.275  1.00  0.00    -0.202 F 
HETATM   34  C17 UNL     1      44.351  -3.200  74.070  1.00  0.00     0.098 A 
HETATM   35 CL3  UNL     1      44.046  -3.316  72.342  1.00  0.00    -0.079 Cl
HETATM   36  C18 UNL     1      44.427  -1.926  74.623  1.00  0.00     0.112 A 
BRANCH  36  37
HETATM   37  S2  UNL     1      44.230  -0.500  73.640  1.00  0.00     0.175 S 
HETATM   38  C19 UNL     1      45.310  -0.653  72.231  1.00  0.00     0.167 C 
HETATM   39  O2  UNL     1      42.820  -0.490  73.129  1.00  0.00    -0.223 OA
HETATM   40  O3  UNL     1      44.576   0.713  74.413  1.00  0.00    -0.223 OA
ENDBRANCH  36  37
ENDBRANCH  25  27
ENDBRANCH   4  25
TORSDOF 8
ENDMDL
MODEL 2
REMARK VINA RESULT: -9.270066069      6.177      7.332
REMARK  8 active torsions:
REMARK  status: ('A' for Active; 'I' for Inactive)
REMARK    1  A    between atoms: C2_2  and  C3_3 
REMARK    2  A    between atoms: C3_3  and  N1_5 
REMARK    3  A    between atoms: C3_3  and  C5_9 
REMARK       I    between atoms: C5_9  and  N2_11 
REMARK    4  A    between atoms: N2_11  and  C6_13 
REMARK    5  A    between atoms: C9_16  and  C10_17 
REMARK    6  A    between atoms: C12_20  and  N3_21 
REMARK    7  A    between atoms: N3_21  and  C13_23 
REMARK    8  A    between atoms: C18_32  and  S2_33 
ROOT
HETATM    1  C10 UNL     1      44.742  -2.871  74.996  1.00  0.00     0.068 A 
HETATM    2  C11 UNL     1      45.644  -3.892  75.054  1.00  0.00     0.085 A 
HETATM    3  S1  UNL     1      45.242  -4.650  76.553  1.00  0.00    -0.063 SA
HETATM    4  C12 UNL     1      43.968  -3.621  76.996  1.00  0.00     0.149 A 
HETATM    5  N4  UNL     1      43.901  -2.758  76.001  1.00  0.00    -0.334 N 
ATOM      6  H4  UNL     1      43.205  -2.012  76.011  1.00  0.00     0.168 HD
ENDROOT
BRANCH   1   7
HETATM    7  C9  UNL     1      44.767  -1.870  73.888  1.00  0.00     0.063 A 
HETATM    8  C8  UNL     1      45.450  -2.041  72.704  1.00  0.00     0.036 A 
HETATM    9  C7  UNL     1      45.263  -0.942  71.953  1.00  0.00     0.051 A 
HETATM   10  C6  UNL     1      44.436  -0.027  72.665  1.00  0.00     0.110 A 
HETATM   11  N5  UNL     1      44.187  -0.666  73.829  1.00  0.00    -0.336 N 
HETATM   12  C20 UNL     1      43.496  -0.002  74.949  1.00  0.00     0.158 C 
BRANCH  10  13
HETATM   13  N2  UNL     1      44.097   1.216  72.114  1.00  0.00    -0.311 N 
HETATM   14  C5  UNL     1      44.805   2.228  71.513  1.00  0.00     0.259 C 
HETATM   15  O1  UNL     1      46.040   2.295  71.411  1.00  0.00    -0.270 OA
ATOM     16  H2  UNL     1      43.098   1.413  72.171  1.00  0.00     0.170 HD
BRANCH  14  17
HETATM   17  C3  UNL     1      44.077   3.398  70.899  1.00  0.00     0.199 C 
HETATM   18  C4  UNL     1      42.635   3.050  70.788  1.00  0.00     0.056 C 
BRANCH  17  19
HETATM   19  C2  UNL     1      44.327   4.676  71.640  1.00  0.00     0.044 C 
HETATM   20  C1  UNL     1      43.953   4.659  73.088  1.00  0.00     0.008 C 
ENDBRANCH  17  19
BRANCH  17  21
HETATM   21  N1  UNL     1      44.590   3.626  69.537  1.00  0.00    -0.062 N 
ATOM     22  H13 UNL     1      44.845   4.597  69.352  1.00  0.00     0.275 HD
ATOM     23  H12 UNL     1      45.514   3.227  69.373  1.00  0.00     0.275 HD
ATOM     24  H11 UNL     1      43.870   3.264  68.911  1.00  0.00     0.275 HD
ENDBRANCH  17  21
ENDBRANCH  14  17
ENDBRANCH  10  13
ENDBRANCH   1   7
BRANCH   4  25
HETATM   25  N3  UNL     1      43.217  -3.668  78.078  1.00  0.00    -0.334 N 
ATOM     26  H3  UNL     1      42.209  -3.517  78.023  1.00  0.00     0.168 HD
BRANCH  25  27
HETATM   27  C13 UNL     1      43.851  -3.934  79.324  1.00  0.00     0.081 A 
HETATM   28  C14 UNL     1      43.835  -5.243  79.761  1.00  0.00     0.087 A 
HETATM   29 CL1  UNL     1      43.056  -6.486  78.798  1.00  0.00    -0.080 Cl
HETATM   30  C15 UNL     1      44.434  -5.578  80.963  1.00  0.00     0.098 A 
HETATM   31 CL2  UNL     1      44.414  -7.235  81.519  1.00  0.00    -0.079 Cl
HETATM   32  C16 UNL     1      45.035  -4.563  81.690  1.00  0.00     0.163 A 
HETATM   33  F1  UNL     1      45.630  -4.872  82.877  1.00  0.00    -0.202 F 
HETATM   34  C17 UNL     1      45.044  -3.260  81.239  1.00  0.00     0.098 A 
HETATM   35 CL3  UNL     1      45.808  -1.975  82.165  1.00  0.00    -0.079 Cl
HETATM   36  C18 UNL     1      44.445  -2.911  80.033  1.00  0.00     0.112 A 
BRANCH  36  37
HETATM   37  S2  UNL     1      44.452  -1.264  79.463  1.00  0.00     0.175 S 
HETATM   38  C19 UNL     1      45.927  -1.026  78.492  1.00  0.00     0.167 C 
HETATM   39  O2  UNL     1      43.277  -1.094  78.546  1.00  0.00    -0.223 OA
HETATM   40  O3  UNL     1      44.439  -0.321  80.603  1.00  0.00    -0.223 OA
ENDBRANCH  36  37
ENDBRANCH  25  27
ENDBRANCH   4  25
TORSDOF 8
ENDMDL
MODEL 3
REMARK VINA RESULT: -9.241704555      1.580      1.835
REMARK  8 active torsions:
REMARK  status: ('A' for Active; 'I' for Inactive)
REMARK    1  A    between atoms: C2_2  and  C3_3 
REMARK    2  A    between atoms: C3_3  and  N1_5 
REMARK    3  A    between atoms: C3_3  and  C5_9 
REMARK       I    between atoms: C5_9  and  N2_11 
REMARK    4  A    between atoms: N2_11  and  C6_13 
REMARK    5  A    between atoms: C9_16  and  C10_17 
REMARK    6  A    between atoms: C12_20  and  N3_21 
REMARK    7  A    between atoms: N3_21  and  C13_23 
REMARK    8  A    between atoms: C18_32  and  S2_33 
ROOT
HETATM    1  C10 UNL     1      48.630   0.564  78.218  1.00  0.00     0.068 A 
HETATM    2  C11 UNL     1      48.415  -0.162  79.352  1.00  0.00     0.085 A 
HETATM    3  S1  UNL     1      46.770  -0.655  79.164  1.00  0.00    -0.063 SA
HETATM    4  C12 UNL     1      46.477   0.093  77.670  1.00  0.00     0.149 A 
HETATM    5  N4  UNL     1      47.623   0.677  77.380  1.00  0.00    -0.334 N 
ATOM      6  H4  UNL     1      47.728   1.210  76.516  1.00  0.00     0.168 HD
ENDROOT
BRANCH   1   7
HETATM    7  C9  UNL     1      49.921   1.276  77.983  1.00  0.00     0.063 A 
HETATM    8  C8  UNL     1      50.953   1.335  78.893  1.00  0.00     0.036 A 
HETATM    9  C7  UNL     1      51.944   2.066  78.354  1.00  0.00     0.051 A 
HETATM   10  C6  UNL     1      51.550   2.497  77.055  1.00  0.00     0.110 A 
HETATM   11  N5  UNL     1      50.310   1.980  76.913  1.00  0.00    -0.336 N 
HETATM   12  C20 UNL     1      49.450   2.323  75.765  1.00  0.00     0.158 C 
BRANCH  10  13
HETATM   13  N2  UNL     1      52.397   3.295  76.274  1.00  0.00    -0.311 N 
HETATM   14  C5  UNL     1      53.597   3.090  75.638  1.00  0.00     0.259 C 
HETATM   15  O1  UNL     1      54.299   2.068  75.714  1.00  0.00    -0.270 OA
ATOM     16  H2  UNL     1      52.041   4.243  76.150  1.00  0.00     0.170 HD
BRANCH  14  17
HETATM   17  C3  UNL     1      54.174   4.163  74.749  1.00  0.00     0.199 C 
HETATM   18  C4  UNL     1      53.057   5.001  74.236  1.00  0.00     0.056 C 
BRANCH  17  19
HETATM   19  C2  UNL     1      55.248   4.953  75.434  1.00  0.00     0.044 C 
HETATM   20  C1  UNL     1      56.063   5.831  74.539  1.00  0.00     0.008 C 
ENDBRANCH  17  19
BRANCH  17  21
HETATM   21  N1  UNL     1      54.830   3.531  73.590  1.00  0.00    -0.062 N 
ATOM     22  H13 UNL     1      55.841   3.440  73.690  1.00  0.00     0.275 HD
ATOM     23  H12 UNL     1      54.628   2.536  73.497  1.00  0.00     0.275 HD
ATOM     24  H11 UNL     1      54.545   4.084  72.782  1.00  0.00     0.275 HD
ENDBRANCH  17  21
ENDBRANCH  14  17
ENDBRANCH  10  13
ENDBRANCH   1   7
BRANCH   4  25
HETATM   25  N3  UNL     1      45.367   0.094  76.960  1.00  0.00    -0.334 N 
ATOM     26  H3  UNL     1      44.670   0.831  77.075  1.00  0.00     0.168 HD
BRANCH  25  27
HETATM   27  C13 UNL     1      45.168  -0.962  76.026  1.00  0.00     0.081 A 
HETATM   28  C14 UNL     1      44.682  -2.152  76.530  1.00  0.00     0.087 A 
HETATM   29 CL1  UNL     1      44.343  -2.312  78.244  1.00  0.00    -0.080 Cl
HETATM   30  C15 UNL     1      44.461  -3.222  75.681  1.00  0.00     0.098 A 
HETATM   31 CL2  UNL     1      43.847  -4.730  76.317  1.00  0.00    -0.079 Cl
HETATM   32  C16 UNL     1      44.745  -3.050  74.336  1.00  0.00     0.163 A 
HETATM   33  F1  UNL     1      44.535  -4.093  73.484  1.00  0.00    -0.202 F 
HETATM   34  C17 UNL     1      45.230  -1.855  73.848  1.00  0.00     0.098 A 
HETATM   35 CL3  UNL     1      45.588  -1.641  72.140  1.00  0.00    -0.079 Cl
HETATM   36  C18 UNL     1      45.455  -0.771  74.691  1.00  0.00     0.112 A 
BRANCH  36  37
HETATM   37  S2  UNL     1      46.071   0.740  74.077  1.00  0.00     0.175 S 
HETATM   38  C19 UNL     1      44.940   1.325  72.830  1.00  0.00     0.167 C 
HETATM   39  O2  UNL     1      46.053   1.731  75.202  1.00  0.00    -0.223 OA
HETATM   40  O3  UNL     1      47.416   0.551  73.491  1.00  0.00    -0.223 OA
ENDBRANCH  36  37
ENDBRANCH  25  27
ENDBRANCH   4  25
TORSDOF 8
ENDMDL
MODEL 4
REMARK VINA RESULT: -9.204941426      2.608      3.542
REMARK  8 active torsions:
REMARK  status: ('A' for Active; 'I' for Inactive)
REMARK    1  A    between atoms: C2_2  and  C3_3 
REMARK    2  A    between atoms: C3_3  and  N1_5 
REMARK    3  A    between atoms: C3_3  and  C5_9 
REMARK       I    between atoms: C5_9  and  N2_11 
REMARK    4  A    between atoms: N2_11  and  C6_13 
REMARK    5  A    between atoms: C9_16  and  C10_17 
REMARK    6  A    between atoms: C12_20  and  N3_21 
REMARK    7  A    between atoms: N3_21  and  C13_23 
REMARK    8  A    between atoms: C18_32  and  S2_33 
ROOT
HETATM    1  C10 UNL     1      48.838   0.535  76.753  1.00  0.00     0.068 A 
HETATM    2  C11 UNL     1      47.998   0.421  77.822  1.00  0.00     0.085 A 
HETATM    3  S1  UNL     1      46.723  -0.554  77.182  1.00  0.00    -0.063 SA
HETATM    4  C12 UNL     1      47.344  -0.742  75.614  1.00  0.00     0.149 A 
HETATM    5  N4  UNL     1      48.477  -0.069  75.641  1.00  0.00    -0.334 N 
ATOM      6  H4  UNL     1      49.067  -0.016  74.811  1.00  0.00     0.168 HD
ENDROOT
BRANCH   1   7
HETATM    7  C9  UNL     1      50.065   1.383  76.815  1.00  0.00     0.063 A 
HETATM    8  C8  UNL     1      50.790   1.618  77.962  1.00  0.00     0.036 A 
HETATM    9  C7  UNL     1      51.814   2.431  77.650  1.00  0.00     0.051 A 
HETATM   10  C6  UNL     1      51.758   2.737  76.259  1.00  0.00     0.110 A 
HETATM   11  N5  UNL     1      50.665   2.067  75.832  1.00  0.00    -0.336 N 
HETATM   12  C20 UNL     1      50.130   2.237  74.469  1.00  0.00     0.158 C 
BRANCH  10  13
HETATM   13  N2  UNL     1      52.704   3.585  75.670  1.00  0.00    -0.311 N 
HETATM   14  C5  UNL     1      54.051   3.494  75.413  1.00  0.00     0.259 C 
HETATM   15  O1  UNL     1      54.803   2.576  75.776  1.00  0.00    -0.270 OA
ATOM     16  H2  UNL     1      52.302   4.471  75.363  1.00  0.00     0.170 HD
BRANCH  14  17
HETATM   17  C3  UNL     1      54.743   4.574  74.620  1.00  0.00     0.199 C 
HETATM   18  C4  UNL     1      53.710   5.359  73.891  1.00  0.00     0.056 C 
BRANCH  17  19
HETATM   19  C2  UNL     1      55.643   5.417  75.471  1.00  0.00     0.044 C 
HETATM   20  C1  UNL     1      56.639   6.245  74.722  1.00  0.00     0.008 C 
ENDBRANCH  17  19
BRANCH  17  21
HETATM   21  N1  UNL     1      55.622   3.950  73.615  1.00  0.00    -0.062 N 
ATOM     22  H13 UNL     1      55.457   4.280  72.664  1.00  0.00     0.275 HD
ATOM     23  H12 UNL     1      56.595   4.250  73.679  1.00  0.00     0.275 HD
ATOM     24  H11 UNL     1      55.495   2.944  73.729  1.00  0.00     0.275 HD
ENDBRANCH  17  21
ENDBRANCH  14  17
ENDBRANCH  10  13
ENDBRANCH   1   7
BRANCH   4  25
HETATM   25  N3  UNL     1      46.823  -1.406  74.602  1.00  0.00    -0.334 N 
ATOM     26  H3  UNL     1      47.278  -2.241  74.232  1.00  0.00     0.168 HD
BRANCH  25  27
HETATM   27  C13 UNL     1      45.606  -0.925  74.040  1.00  0.00     0.081 A 
HETATM   28  C14 UNL     1      45.692   0.205  73.251  1.00  0.00     0.087 A 
HETATM   29 CL1  UNL     1      47.243   0.980  72.984  1.00  0.00    -0.080 Cl
HETATM   30  C15 UNL     1      44.551   0.729  72.669  1.00  0.00     0.098 A 
HETATM   31 CL2  UNL     1      44.656   2.160  71.671  1.00  0.00    -0.079 Cl
HETATM   32  C16 UNL     1      43.348   0.084  72.910  1.00  0.00     0.163 A 
HETATM   33  F1  UNL     1      42.213   0.586  72.347  1.00  0.00    -0.202 F 
HETATM   34  C17 UNL     1      43.280  -1.044  73.700  1.00  0.00     0.098 A 
HETATM   35 CL3  UNL     1      41.751  -1.859  74.002  1.00  0.00    -0.079 Cl
HETATM   36  C18 UNL     1      44.419  -1.581  74.290  1.00  0.00     0.112 A 
BRANCH  36  37
HETATM   37  S2  UNL     1      44.334  -3.005  75.291  1.00  0.00     0.175 S 
HETATM   38  C19 UNL     1      43.729  -2.512  76.893  1.00  0.00     0.167 C 
HETATM   39  O2  UNL     1      43.316  -3.926  74.689  1.00  0.00    -0.223 OA
HETATM   40  O3  UNL     1      45.671  -3.625  75.424  1.00  0.00    -0.223 OA
ENDBRANCH  36  37
ENDBRANCH  25  27
ENDBRANCH   4  25
TORSDOF 8
ENDMDL
MODEL 5
REMARK VINA RESULT: -9.118447368      2.622      4.095
REMARK  8 active torsions:
REMARK  status: ('A' for Active; 'I' for Inactive)
REMARK    1  A    between atoms: C2_2  and  C3_3 
REMARK    2  A    between atoms: C3_3  and  N1_5 
REMARK    3  A    between atoms: C3_3  and  C5_9 
REMARK       I    between atoms: C5_9  and  N2_11 
REMARK    4  A    between atoms: N2_11  and  C6_13 
REMARK    5  A    between atoms: C9_16  and  C10_17 
REMARK    6  A    between atoms: C12_20  and  N3_21 
REMARK    7  A    between atoms: N3_21  and  C13_23 
REMARK    8  A    between atoms: C18_32  and  S2_33 
ROOT
HETATM    1  C10 UNL     1      45.914   1.077  74.466  1.00  0.00     0.068 A 
HETATM    2  C11 UNL     1      45.314   1.701  73.412  1.00  0.00     0.085 A 
HETATM    3  S1  UNL     1      43.695   1.105  73.508  1.00  0.00    -0.063 SA
HETATM    4  C12 UNL     1      43.897   0.112  74.868  1.00  0.00     0.149 A 
HETATM    5  N4  UNL     1      45.166   0.273  75.190  1.00  0.00    -0.334 N 
ATOM      6  H4  UNL     1      45.563  -0.220  75.990  1.00  0.00     0.168 HD
ENDROOT
BRANCH   1   7
HETATM    7  C9  UNL     1      47.376   1.228  74.732  1.00  0.00     0.063 A 
HETATM    8  C8  UNL     1      48.366   0.890  73.837  1.00  0.00     0.036 A 
HETATM    9  C7  UNL     1      49.553   1.144  74.413  1.00  0.00     0.051 A 
HETATM   10  C6  UNL     1      49.334   1.662  75.722  1.00  0.00     0.110 A 
HETATM   11  N5  UNL     1      47.988   1.674  75.835  1.00  0.00    -0.336 N 
HETATM   12  C20 UNL     1      47.317   1.985  77.110  1.00  0.00     0.158 C 
BRANCH  10  13
HETATM   13  N2  UNL     1      50.411   1.997  76.553  1.00  0.00    -0.311 N 
HETATM   14  C5  UNL     1      51.132   1.328  77.512  1.00  0.00     0.259 C 
HETATM   15  O1  UNL     1      50.885   0.193  77.952  1.00  0.00    -0.270 OA
ATOM     16  H2  UNL     1      50.733   2.955  76.414  1.00  0.00     0.170 HD
BRANCH  14  17
HETATM   17  C3  UNL     1      52.347   1.972  78.130  1.00  0.00     0.199 C 
HETATM   18  C4  UNL     1      53.137   0.919  78.823  1.00  0.00     0.056 C 
BRANCH  17  19
HETATM   19  C2  UNL     1      53.144   2.757  77.133  1.00  0.00     0.044 C 
HETATM   20  C1  UNL     1      54.486   2.188  76.798  1.00  0.00     0.008 C 
ENDBRANCH  17  19
BRANCH  17  21
HETATM   21  N1  UNL     1      51.915   2.949  79.145  1.00  0.00    -0.062 N 
ATOM     22  H13 UNL     1      52.129   3.916  78.900  1.00  0.00     0.275 HD
ATOM     23  H12 UNL     1      50.903   3.061  79.202  1.00  0.00     0.275 HD
ATOM     24  H11 UNL     1      52.343   2.641  80.018  1.00  0.00     0.275 HD
ENDBRANCH  17  21
ENDBRANCH  14  17
ENDBRANCH  10  13
ENDBRANCH   1   7
BRANCH   4  25
HETATM   25  N3  UNL     1      43.000  -0.643  75.470  1.00  0.00    -0.334 N 
ATOM     26  H3  UNL     1      42.057  -0.298  75.648  1.00  0.00     0.168 HD
BRANCH  25  27
HETATM   27  C13 UNL     1      43.386  -1.956  75.866  1.00  0.00     0.081 A 
HETATM   28  C14 UNL     1      43.564  -2.880  74.856  1.00  0.00     0.087 A 
HETATM   29 CL1  UNL     1      43.313  -2.419  73.182  1.00  0.00    -0.080 Cl
HETATM   30  C15 UNL     1      43.941  -4.175  75.165  1.00  0.00     0.098 A 
HETATM   31 CL2  UNL     1      44.167  -5.349  73.889  1.00  0.00    -0.079 Cl
HETATM   32  C16 UNL     1      44.126  -4.494  76.501  1.00  0.00     0.163 A 
HETATM   33  F1  UNL     1      44.497  -5.765  76.825  1.00  0.00    -0.202 F 
HETATM   34  C17 UNL     1      43.945  -3.558  77.497  1.00  0.00     0.098 A 
HETATM   35 CL3  UNL     1      44.181  -3.967  79.191  1.00  0.00    -0.079 Cl
HETATM   36  C18 UNL     1      43.566  -2.253  77.200  1.00  0.00     0.112 A 
BRANCH  36  37
HETATM   37  S2  UNL     1      43.333  -1.070  78.459  1.00  0.00     0.175 S 
HETATM   38  C19 UNL     1      41.597  -1.034  78.861  1.00  0.00     0.167 C 
HETATM   39  O2  UNL     1      44.068  -1.547  79.676  1.00  0.00    -0.223 OA
HETATM   40  O3  UNL     1      43.775   0.266  78.002  1.00  0.00    -0.223 OA
ENDBRANCH  36  37
ENDBRANCH  25  27
ENDBRANCH   4  25
TORSDOF 8
ENDMDL
