MODEL 1
REMARK VINA RESULT: -7.335699895      0.000      0.000
REMARK  1 active torsions:
REMARK  status: ('A' for Active; 'I' for Inactive)
REMARK    1  A    between atoms: N3_17  and  C13_18 
ROOT
HETATM    1  C1  UNL     1     121.902  10.447  25.605  1.00  0.00     0.002 A 
HETATM    2  C2  UNL     1     123.041   9.743  25.934  1.00  0.00     0.002 A 
HETATM    3  C3  UNL     1     122.890   8.453  26.419  1.00  0.00     0.032 A 
HETATM    4  C4  UNL     1     121.658   7.860  26.579  1.00  0.00     0.067 A 
HETATM    5  C5  UNL     1     120.539   8.572  26.249  1.00  0.00     0.061 A 
HETATM    6  C6  UNL     1     120.671   9.853  25.768  1.00  0.00     0.032 A 
HETATM    7  N1  UNL     1     119.518   7.769  26.495  1.00  0.00    -0.340 N 
ATOM      8  H1  UNL     1     118.537   8.011  26.350  1.00  0.00     0.167 HD
HETATM    9  C7  UNL     1     119.971   6.543  26.980  1.00  0.00     0.123 A 
HETATM   10  C8  UNL     1     119.027   5.535  27.358  1.00  0.00     0.011 A 
HETATM   11  C9  UNL     1     117.751   5.984  27.766  1.00  0.00     0.032 A 
HETATM   12  C10 UNL     1     116.762   5.083  28.067  1.00  0.00     0.088 A 
HETATM   13  N2  UNL     1     116.938   3.751  27.994  1.00  0.00    -0.375 N 
ATOM     14  H2  UNL     1     116.179   3.111  28.227  1.00  0.00     0.164 HD
HETATM   15  C11 UNL     1     118.117   3.289  27.615  1.00  0.00     0.088 A 
HETATM   16  C12 UNL     1     119.140   4.179  27.303  1.00  0.00     0.032 A 
HETATM   17  N3  UNL     1     121.292   6.592  27.040  1.00  0.00    -0.302 N 
ENDROOT
BRANCH  17  18
HETATM   18  C13 UNL     1     122.291   5.699  27.506  1.00  0.00    -0.004 C 
HETATM   19  C14 UNL     1     122.249   5.239  28.928  1.00  0.00     0.053 C 
HETATM   20  C15 UNL     1     123.720   5.037  29.334  1.00  0.00     0.006 C 
HETATM   21  C16 UNL     1     124.391   4.049  28.419  1.00  0.00     0.001 C 
HETATM   22  C17 UNL     1     124.113   4.189  26.975  1.00  0.00     0.006 C 
HETATM   23  C18 UNL     1     122.655   4.538  26.640  1.00  0.00     0.053 C 
ENDBRANCH  17  18
TORSDOF 1
ENDMDL
MODEL 2
REMARK VINA RESULT: -7.044498593      1.231      1.243
REMARK  1 active torsions:
REMARK  status: ('A' for Active; 'I' for Inactive)
REMARK    1  A    between atoms: N3_17  and  C13_18 
ROOT
HETATM    1  C1  UNL     1     122.656  10.882  25.900  1.00  0.00     0.002 A 
HETATM    2  C2  UNL     1     123.668  10.121  26.446  1.00  0.00     0.002 A 
HETATM    3  C3  UNL     1     123.422   8.774  26.664  1.00  0.00     0.032 A 
HETATM    4  C4  UNL     1     122.219   8.180  26.358  1.00  0.00     0.067 A 
HETATM    5  C5  UNL     1     121.226   8.949  25.817  1.00  0.00     0.061 A 
HETATM    6  C6  UNL     1     121.453  10.286  25.595  1.00  0.00     0.032 A 
HETATM    7  N1  UNL     1     120.206   8.131  25.622  1.00  0.00    -0.340 N 
ATOM      8  H1  UNL     1     119.305   8.406  25.228  1.00  0.00     0.167 HD
HETATM    9  C7  UNL     1     120.534   6.840  26.032  1.00  0.00     0.123 A 
HETATM   10  C8  UNL     1     119.554   5.799  25.954  1.00  0.00     0.011 A 
HETATM   11  C9  UNL     1     118.200   6.197  26.023  1.00  0.00     0.032 A 
HETATM   12  C10 UNL     1     117.197   5.274  25.876  1.00  0.00     0.088 A 
HETATM   13  N2  UNL     1     117.431   3.966  25.660  1.00  0.00    -0.375 N 
ATOM     14  H2  UNL     1     116.658   3.309  25.556  1.00  0.00     0.164 HD
HETATM   15  C11 UNL     1     118.684   3.552  25.587  1.00  0.00     0.088 A 
HETATM   16  C12 UNL     1     119.723   4.466  25.733  1.00  0.00     0.032 A 
HETATM   17  N3  UNL     1     121.774   6.861  26.491  1.00  0.00    -0.302 N 
ENDROOT
BRANCH  17  18
HETATM   18  C13 UNL     1     122.617   5.894  27.097  1.00  0.00    -0.004 C 
HETATM   19  C14 UNL     1     122.248   5.343  28.436  1.00  0.00     0.053 C 
HETATM   20  C15 UNL     1     123.586   5.047  29.138  1.00  0.00     0.006 C 
HETATM   21  C16 UNL     1     124.413   4.092  28.320  1.00  0.00     0.001 C 
HETATM   22  C17 UNL     1     124.465   4.340  26.865  1.00  0.00     0.006 C 
HETATM   23  C18 UNL     1     123.129   4.778  26.247  1.00  0.00     0.053 C 
ENDBRANCH  17  18
TORSDOF 1
ENDMDL
MODEL 3
REMARK VINA RESULT: -7.044164665      1.344      5.104
REMARK  1 active torsions:
REMARK  status: ('A' for Active; 'I' for Inactive)
REMARK    1  A    between atoms: N3_17  and  C13_18 
ROOT
HETATM    1  C1  UNL     1     117.424   4.416  27.709  1.00  0.00     0.002 A 
HETATM    2  C2  UNL     1     118.520   3.581  27.695  1.00  0.00     0.002 A 
HETATM    3  C3  UNL     1     119.755   4.135  27.395  1.00  0.00     0.032 A 
HETATM    4  C4  UNL     1     119.920   5.473  27.116  1.00  0.00     0.067 A 
HETATM    5  C5  UNL     1     118.822   6.287  27.135  1.00  0.00     0.061 A 
HETATM    6  C6  UNL     1     117.590   5.754  27.429  1.00  0.00     0.032 A 
HETATM    7  N1  UNL     1     119.269   7.497  26.842  1.00  0.00    -0.340 N 
ATOM      8  H1  UNL     1     118.687   8.333  26.776  1.00  0.00     0.167 HD
HETATM    9  C7  UNL     1     120.647   7.468  26.636  1.00  0.00     0.123 A 
HETATM   10  C8  UNL     1     121.335   8.667  26.260  1.00  0.00     0.011 A 
HETATM   11  C9  UNL     1     120.577   9.642  25.573  1.00  0.00     0.032 A 
HETATM   12  C10 UNL     1     121.136  10.851  25.247  1.00  0.00     0.088 A 
HETATM   13  N2  UNL     1     122.406  11.178  25.553  1.00  0.00    -0.375 N 
ATOM     14  H2  UNL     1     122.787  12.088  25.293  1.00  0.00     0.164 HD
HETATM   15  C11 UNL     1     123.148  10.294  26.197  1.00  0.00     0.088 A 
HETATM   16  C12 UNL     1     122.609   9.058  26.541  1.00  0.00     0.032 A 
HETATM   17  N3  UNL     1     121.058   6.221  26.800  1.00  0.00    -0.302 N 
ENDROOT
BRANCH  17  18
HETATM   18  C13 UNL     1     122.310   5.569  26.656  1.00  0.00    -0.004 C 
HETATM   19  C14 UNL     1     123.066   5.720  25.375  1.00  0.00     0.053 C 
HETATM   20  C15 UNL     1     123.822   4.393  25.190  1.00  0.00     0.006 C 
HETATM   21  C16 UNL     1     124.716   4.123  26.369  1.00  0.00     0.001 C 
HETATM   22  C17 UNL     1     124.145   4.382  27.707  1.00  0.00     0.006 C 
HETATM   23  C18 UNL     1     123.276   5.645  27.792  1.00  0.00     0.053 C 
ENDBRANCH  17  18
TORSDOF 1
ENDMDL
MODEL 4
REMARK VINA RESULT: -6.936163920      0.636      1.254
REMARK  1 active torsions:
REMARK  status: ('A' for Active; 'I' for Inactive)
REMARK    1  A    between atoms: N3_17  and  C13_18 
ROOT
HETATM    1  C1  UNL     1     122.040  10.662  25.664  1.00  0.00     0.002 A 
HETATM    2  C2  UNL     1     123.213   9.963  25.852  1.00  0.00     0.002 A 
HETATM    3  C3  UNL     1     123.122   8.630  26.222  1.00  0.00     0.032 A 
HETATM    4  C4  UNL     1     121.917   7.991  26.404  1.00  0.00     0.067 A 
HETATM    5  C5  UNL     1     120.764   8.699  26.214  1.00  0.00     0.061 A 
HETATM    6  C6  UNL     1     120.835  10.021  25.847  1.00  0.00     0.032 A 
HETATM    7  N1  UNL     1     119.779   7.848  26.447  1.00  0.00    -0.340 N 
ATOM      8  H1  UNL     1     118.785   8.075  26.387  1.00  0.00     0.167 HD
HETATM    9  C7  UNL     1     120.289   6.596  26.786  1.00  0.00     0.123 A 
HETATM   10  C8  UNL     1     119.394   5.531  27.126  1.00  0.00     0.011 A 
HETATM   11  C9  UNL     1     118.138   5.905  27.654  1.00  0.00     0.032 A 
HETATM   12  C10 UNL     1     117.191   4.952  27.931  1.00  0.00     0.088 A 
HETATM   13  N2  UNL     1     117.391   3.638  27.722  1.00  0.00    -0.375 N 
ATOM     14  H2  UNL     1     116.663   2.958  27.942  1.00  0.00     0.164 HD
HETATM   15  C11 UNL     1     118.553   3.246  27.228  1.00  0.00     0.088 A 
HETATM   16  C12 UNL     1     119.533   4.190  26.937  1.00  0.00     0.032 A 
HETATM   17  N3  UNL     1     121.610   6.676  26.766  1.00  0.00    -0.302 N 
ENDROOT
BRANCH  17  18
HETATM   18  C13 UNL     1     122.656   5.771  27.082  1.00  0.00    -0.004 C 
HETATM   19  C14 UNL     1     123.698   5.476  26.053  1.00  0.00     0.053 C 
HETATM   20  C15 UNL     1     124.118   4.016  26.305  1.00  0.00     0.006 C 
HETATM   21  C16 UNL     1     124.621   3.845  27.713  1.00  0.00     0.001 C 
HETATM   22  C17 UNL     1     123.842   4.508  28.779  1.00  0.00     0.006 C 
HETATM   23  C18 UNL     1     123.323   5.905  28.411  1.00  0.00     0.053 C 
ENDBRANCH  17  18
TORSDOF 1
ENDMDL
MODEL 5
REMARK VINA RESULT: -6.827611053      2.767      5.340
REMARK  1 active torsions:
REMARK  status: ('A' for Active; 'I' for Inactive)
REMARK    1  A    between atoms: N3_17  and  C13_18 
ROOT
HETATM    1  C1  UNL     1     123.469   3.486  29.841  1.00  0.00     0.002 A 
HETATM    2  C2  UNL     1     123.691   4.835  30.007  1.00  0.00     0.002 A 
HETATM    3  C3  UNL     1     123.349   5.684  28.966  1.00  0.00     0.032 A 
HETATM    4  C4  UNL     1     122.802   5.229  27.787  1.00  0.00     0.067 A 
HETATM    5  C5  UNL     1     122.589   3.887  27.638  1.00  0.00     0.061 A 
HETATM    6  C6  UNL     1     122.923   3.031  28.661  1.00  0.00     0.032 A 
HETATM    7  N1  UNL     1     122.060   3.739  26.435  1.00  0.00    -0.340 N 
ATOM      8  H1  UNL     1     121.786   2.846  26.024  1.00  0.00     0.167 HD
HETATM    9  C7  UNL     1     121.929   4.978  25.808  1.00  0.00     0.123 A 
HETATM   10  C8  UNL     1     121.419   5.048  24.472  1.00  0.00     0.011 A 
HETATM   11  C9  UNL     1     121.609   3.905  23.661  1.00  0.00     0.032 A 
HETATM   12  C10 UNL     1     121.082   3.858  22.396  1.00  0.00     0.088 A 
HETATM   13  N2  UNL     1     120.369   4.866  21.861  1.00  0.00    -0.375 N 
ATOM     14  H2  UNL     1     119.993   4.794  20.916  1.00  0.00     0.164 HD
HETATM   15  C11 UNL     1     120.167   5.952  22.587  1.00  0.00     0.088 A 
HETATM   16  C12 UNL     1     120.690   6.030  23.874  1.00  0.00     0.032 A 
HETATM   17  N3  UNL     1     122.389   5.903  26.634  1.00  0.00    -0.302 N 
ENDROOT
BRANCH  17  18
HETATM   18  C13 UNL     1     122.579   7.306  26.535  1.00  0.00    -0.004 C 
HETATM   19  C14 UNL     1     123.884   7.829  26.028  1.00  0.00     0.053 C 
HETATM   20  C15 UNL     1     124.102   9.162  26.765  1.00  0.00     0.006 C 
HETATM   21  C16 UNL     1     122.955  10.103  26.510  1.00  0.00     0.001 C 
HETATM   22  C17 UNL     1     121.598   9.523  26.570  1.00  0.00     0.006 C 
HETATM   23  C18 UNL     1     121.476   8.124  25.948  1.00  0.00     0.053 C 
ENDBRANCH  17  18
TORSDOF 1
ENDMDL
