MODEL 1
REMARK VINA RESULT: -8.437772597      0.000      0.000
REMARK  12 active torsions:
REMARK  status: ('A' for Active; 'I' for Inactive)
REMARK       I    between atoms: C2_2  and  N1_4 
REMARK    1  A    between atoms: N2_7  and  S1_8 
REMARK    2  A    between atoms: S1_8  and  C5_11 
REMARK    3  A    between atoms: C5_11  and  C6_12 
REMARK    4  A    between atoms: C6_12  and  C7_13 
REMARK    5  A    between atoms: C7_13  and  C8_14 
REMARK    6  A    between atoms: C9_15  and  C10_16 
REMARK    7  A    between atoms: C10_16  and  O4_17 
REMARK    8  A    between atoms: N3_19  and  O5_21 
REMARK    9  A    between atoms: C13_25  and  C14_26 
REMARK   10  A    between atoms: C15_29  and  C17_31 
REMARK   11  A    between atoms: C18_32  and  C19_33 
REMARK   12  A    between atoms: C19_33  and  C20_34 
ROOT
HETATM    1  C8  UNL     1      20.931  38.881  -6.990  1.00  0.00     0.018 C 
HETATM    2  C9  UNL     1      19.960  39.773  -6.351  1.00  0.00     0.068 C 
HETATM    3  C11 UNL     1      19.880  39.476  -4.864  1.00  0.00     0.014 C 
HETATM    4  C12 UNL     1      20.693  38.303  -4.452  1.00  0.00     0.018 C 
HETATM    5  C13 UNL     1      22.152  38.403  -4.842  1.00  0.00     0.107 C 
HETATM    6  C15 UNL     1      22.257  38.683  -6.323  1.00  0.00     0.037 C 
HETATM    7  C16 UNL     1      23.260  39.753  -6.555  1.00  0.00     0.030 C 
ENDROOT
BRANCH   1   8
HETATM    8  C7  UNL     1      21.128  39.051  -8.482  1.00  0.00     0.008 C 
BRANCH   8   9
HETATM    9  C6  UNL     1      20.069  38.407  -9.284  1.00  0.00     0.017 C 
BRANCH   9  10
HETATM   10  C5  UNL     1      20.476  37.241 -10.112  1.00  0.00     0.157 C 
BRANCH  10  11
HETATM   11  S1  UNL     1      20.507  37.518 -11.834  1.00  0.00     0.211 S 
HETATM   12  O2  UNL     1      19.791  38.807 -12.166  1.00  0.00    -0.211 OA
HETATM   13  O3  UNL     1      19.831  36.422 -12.597  1.00  0.00    -0.211 OA
BRANCH  11  14
HETATM   14  N2  UNL     1      22.144  37.620 -12.430  1.00  0.00    -0.208 NA
HETATM   15  C4  UNL     1      22.221  38.688 -13.378  1.00  0.00     0.127 C 
HETATM   16  C3  UNL     1      23.429  38.666 -14.251  1.00  0.00     0.141 C 
HETATM   17  N1  UNL     1      23.962  37.366 -14.508  1.00  0.00    -0.350 N 
HETATM   18  C2  UNL     1      24.581  37.035 -15.751  1.00  0.00     0.215 C 
HETATM   19  C22 UNL     1      23.874  36.350 -13.476  1.00  0.00     0.141 C 
HETATM   20  C1  UNL     1      24.671  38.076 -16.808  1.00  0.00     0.117 C 
HETATM   21  O1  UNL     1      25.044  35.886 -15.957  1.00  0.00    -0.274 OA
HETATM   22  C21 UNL     1      22.447  36.320 -12.996  1.00  0.00     0.127 C 
ENDBRANCH  11  14
ENDBRANCH  10  11
ENDBRANCH   9  10
ENDBRANCH   8   9
ENDBRANCH   1   8
BRANCH   2  23
HETATM   23  C10 UNL     1      20.028  41.205  -6.555  1.00  0.00     0.140 C 
HETATM   24  N3  UNL     1      20.814  42.050  -6.024  1.00  0.00    -0.251 N 
ATOM     25  H3  UNL     1      21.506  41.707  -5.358  1.00  0.00     0.196 HD
BRANCH  23  26
HETATM   26  O4  UNL     1      19.096  41.745  -7.466  1.00  0.00    -0.348 OA
ATOM     27  H4  UNL     1      18.182  41.555  -7.290  1.00  0.00     0.219 HD
ENDBRANCH  23  26
BRANCH  24  28
HETATM   28  O5  UNL     1      20.790  43.394  -6.291  1.00  0.00    -0.288 OA
ATOM     29  H5  UNL     1      19.995  43.907  -6.366  1.00  0.00     0.244 HD
ENDBRANCH  24  28
ENDBRANCH   2  23
BRANCH   6  30
HETATM   30  C17 UNL     1      22.827  37.457  -6.979  1.00  0.00    -0.095 C 
HETATM   31  C18 UNL     1      23.305  36.487  -7.514  1.00  0.00    -0.100 C 
BRANCH  31  32
HETATM   32  C19 UNL     1      23.905  35.319  -8.155  1.00  0.00     0.165 C 
BRANCH  32  33
HETATM   33  C20 UNL     1      23.820  35.407  -9.666  1.00  0.00     0.364 C 
HETATM   34  F1  UNL     1      24.938  34.814 -10.242  1.00  0.00    -0.213 F 
HETATM   35  F2  UNL     1      22.730  34.697 -10.114  1.00  0.00    -0.213 F 
ENDBRANCH  32  33
ENDBRANCH  31  32
ENDBRANCH   6  30
BRANCH   5  36
HETATM   36  C14 UNL     1      22.898  39.303  -3.972  1.00  0.00     0.178 C 
HETATM   37  O6  UNL     1      23.903  38.856  -3.342  1.00  0.00    -0.648 OA
HETATM   38  O7  UNL     1      22.602  40.637  -3.763  1.00  0.00    -0.648 OA
ENDBRANCH   5  36
TORSDOF 12
ENDMDL
MODEL 2
REMARK VINA RESULT: -8.389101547      1.019      1.083
REMARK  12 active torsions:
REMARK  status: ('A' for Active; 'I' for Inactive)
REMARK       I    between atoms: C2_2  and  N1_4 
REMARK    1  A    between atoms: N2_7  and  S1_8 
REMARK    2  A    between atoms: S1_8  and  C5_11 
REMARK    3  A    between atoms: C5_11  and  C6_12 
REMARK    4  A    between atoms: C6_12  and  C7_13 
REMARK    5  A    between atoms: C7_13  and  C8_14 
REMARK    6  A    between atoms: C9_15  and  C10_16 
REMARK    7  A    between atoms: C10_16  and  O4_17 
REMARK    8  A    between atoms: N3_19  and  O5_21 
REMARK    9  A    between atoms: C13_25  and  C14_26 
REMARK   10  A    between atoms: C15_29  and  C17_31 
REMARK   11  A    between atoms: C18_32  and  C19_33 
REMARK   12  A    between atoms: C19_33  and  C20_34 
ROOT
HETATM    1  C8  UNL     1      20.880  39.018  -6.939  1.00  0.00     0.018 C 
HETATM    2  C9  UNL     1      19.898  39.891  -6.292  1.00  0.00     0.068 C 
HETATM    3  C11 UNL     1      19.802  39.562  -4.813  1.00  0.00     0.014 C 
HETATM    4  C12 UNL     1      20.617  38.383  -4.418  1.00  0.00     0.018 C 
HETATM    5  C13 UNL     1      22.080  38.500  -4.788  1.00  0.00     0.107 C 
HETATM    6  C15 UNL     1      22.200  38.813  -6.262  1.00  0.00     0.037 C 
HETATM    7  C16 UNL     1      23.200  39.893  -6.458  1.00  0.00     0.030 C 
ENDROOT
BRANCH   1   8
HETATM    8  C7  UNL     1      21.094  39.223  -8.424  1.00  0.00     0.008 C 
BRANCH   8   9
HETATM    9  C6  UNL     1      20.085  38.535  -9.255  1.00  0.00     0.017 C 
BRANCH   9  10
HETATM   10  C5  UNL     1      20.554  37.355 -10.031  1.00  0.00     0.157 C 
BRANCH  10  11
HETATM   11  S1  UNL     1      20.548  37.546 -11.764  1.00  0.00     0.211 S 
HETATM   12  O2  UNL     1      19.805  38.805 -12.146  1.00  0.00    -0.211 OA
HETATM   13  O3  UNL     1      19.878  36.402 -12.458  1.00  0.00    -0.211 OA
BRANCH  11  14
HETATM   14  N2  UNL     1      22.173  37.644 -12.396  1.00  0.00    -0.208 NA
HETATM   15  C4  UNL     1      22.222  38.689 -13.370  1.00  0.00     0.127 C 
HETATM   16  C3  UNL     1      23.412  38.654 -14.267  1.00  0.00     0.141 C 
HETATM   17  N1  UNL     1      23.950  37.352 -14.503  1.00  0.00    -0.350 N 
HETATM   18  C2  UNL     1      24.545  36.995 -15.751  1.00  0.00     0.215 C 
HETATM   19  C22 UNL     1      23.890  36.361 -13.445  1.00  0.00     0.141 C 
HETATM   20  C1  UNL     1      24.607  38.010 -16.834  1.00  0.00     0.117 C 
HETATM   21  O1  UNL     1      25.013  35.844 -15.937  1.00  0.00    -0.274 OA
HETATM   22  C21 UNL     1      22.473  36.333 -12.936  1.00  0.00     0.127 C 
ENDBRANCH  11  14
ENDBRANCH  10  11
ENDBRANCH   9  10
ENDBRANCH   8   9
ENDBRANCH   1   8
BRANCH   2  23
HETATM   23  C10 UNL     1      19.960  41.327  -6.463  1.00  0.00     0.140 C 
HETATM   24  N3  UNL     1      20.622  42.183  -5.797  1.00  0.00    -0.251 N 
ATOM     25  H3  UNL     1      21.202  41.845  -5.028  1.00  0.00     0.196 HD
BRANCH  23  26
HETATM   26  O4  UNL     1      19.181  41.861  -7.512  1.00  0.00    -0.348 OA
ATOM     27  H4  UNL     1      19.661  42.274  -8.220  1.00  0.00     0.219 HD
ENDBRANCH  23  26
BRANCH  24  28
HETATM   28  O5  UNL     1      20.608  43.530  -6.047  1.00  0.00    -0.288 OA
ATOM     29  H5  UNL     1      20.016  43.951  -6.659  1.00  0.00     0.244 HD
ENDBRANCH  24  28
ENDBRANCH   2  23
BRANCH   6  30
HETATM   30  C17 UNL     1      22.783  37.604  -6.938  1.00  0.00    -0.095 C 
HETATM   31  C18 UNL     1      23.259  36.624  -7.456  1.00  0.00    -0.100 C 
BRANCH  31  32
HETATM   32  C19 UNL     1      23.825  35.424  -8.067  1.00  0.00     0.165 C 
BRANCH  32  33
HETATM   33  C20 UNL     1      25.033  34.925  -7.299  1.00  0.00     0.364 C 
HETATM   34  F1  UNL     1      25.749  36.001  -6.785  1.00  0.00    -0.213 F 
HETATM   35  F2  UNL     1      24.624  34.179  -6.218  1.00  0.00    -0.213 F 
ENDBRANCH  32  33
ENDBRANCH  31  32
ENDBRANCH   6  30
BRANCH   5  36
HETATM   36  C14 UNL     1      22.811  39.384  -3.890  1.00  0.00     0.178 C 
HETATM   37  O6  UNL     1      23.844  38.944  -3.301  1.00  0.00    -0.648 OA
HETATM   38  O7  UNL     1      22.472  40.695  -3.612  1.00  0.00    -0.648 OA
ENDBRANCH   5  36
TORSDOF 12
ENDMDL
MODEL 3
REMARK VINA RESULT: -8.182733731      1.134      1.559
REMARK  12 active torsions:
REMARK  status: ('A' for Active; 'I' for Inactive)
REMARK       I    between atoms: C2_2  and  N1_4 
REMARK    1  A    between atoms: N2_7  and  S1_8 
REMARK    2  A    between atoms: S1_8  and  C5_11 
REMARK    3  A    between atoms: C5_11  and  C6_12 
REMARK    4  A    between atoms: C6_12  and  C7_13 
REMARK    5  A    between atoms: C7_13  and  C8_14 
REMARK    6  A    between atoms: C9_15  and  C10_16 
REMARK    7  A    between atoms: C10_16  and  O4_17 
REMARK    8  A    between atoms: N3_19  and  O5_21 
REMARK    9  A    between atoms: C13_25  and  C14_26 
REMARK   10  A    between atoms: C15_29  and  C17_31 
REMARK   11  A    between atoms: C18_32  and  C19_33 
REMARK   12  A    between atoms: C19_33  and  C20_34 
ROOT
HETATM    1  C8  UNL     1      21.477  38.056  -6.942  1.00  0.00     0.018 C 
HETATM    2  C9  UNL     1      20.783  38.803  -5.891  1.00  0.00     0.068 C 
HETATM    3  C11 UNL     1      20.989  38.127  -4.547  1.00  0.00     0.014 C 
HETATM    4  C12 UNL     1      21.722  36.838  -4.643  1.00  0.00     0.018 C 
HETATM    5  C13 UNL     1      23.064  36.948  -5.334  1.00  0.00     0.107 C 
HETATM    6  C15 UNL     1      22.881  37.606  -6.682  1.00  0.00     0.037 C 
HETATM    7  C16 UNL     1      23.935  38.634  -6.877  1.00  0.00     0.030 C 
ENDROOT
BRANCH   1   8
HETATM    8  C7  UNL     1      21.368  38.606  -8.349  1.00  0.00     0.008 C 
BRANCH   8   9
HETATM    9  C6  UNL     1      20.225  38.051  -9.101  1.00  0.00     0.017 C 
BRANCH   9  10
HETATM   10  C5  UNL     1      20.142  38.405 -10.543  1.00  0.00     0.157 C 
BRANCH  10  11
HETATM   11  S1  UNL     1      20.567  37.130 -11.654  1.00  0.00     0.211 S 
HETATM   12  O2  UNL     1      19.586  37.093 -12.804  1.00  0.00    -0.211 OA
HETATM   13  O3  UNL     1      20.547  35.781 -11.005  1.00  0.00    -0.211 OA
BRANCH  11  14
HETATM   14  N2  UNL     1      22.173  37.360 -12.299  1.00  0.00    -0.208 NA
HETATM   15  C4  UNL     1      22.142  38.449 -13.225  1.00  0.00     0.127 C 
HETATM   16  C3  UNL     1      23.320  38.530 -14.135  1.00  0.00     0.141 C 
HETATM   17  N1  UNL     1      23.936  37.278 -14.437  1.00  0.00    -0.350 N 
HETATM   18  C2  UNL     1      24.536  37.016 -15.705  1.00  0.00     0.215 C 
HETATM   19  C22 UNL     1      23.953  36.238 -13.425  1.00  0.00     0.141 C 
HETATM   20  C1  UNL     1      24.518  38.080 -16.742  1.00  0.00     0.117 C 
HETATM   21  O1  UNL     1      25.073  35.907 -15.950  1.00  0.00    -0.274 OA
HETATM   22  C21 UNL     1      22.549  36.096 -12.902  1.00  0.00     0.127 C 
ENDBRANCH  11  14
ENDBRANCH  10  11
ENDBRANCH   9  10
ENDBRANCH   8   9
ENDBRANCH   1   8
BRANCH   2  23
HETATM   23  C10 UNL     1      20.980  40.231  -5.747  1.00  0.00     0.140 C 
HETATM   24  N3  UNL     1      20.348  41.183  -6.301  1.00  0.00    -0.251 N 
ATOM     25  H3  UNL     1      19.590  40.946  -6.941  1.00  0.00     0.196 HD
BRANCH  23  26
HETATM   26  O4  UNL     1      22.015  40.629  -4.874  1.00  0.00    -0.348 OA
ATOM     27  H4  UNL     1      22.260  41.546  -4.909  1.00  0.00     0.219 HD
ENDBRANCH  23  26
BRANCH  24  28
HETATM   28  O5  UNL     1      20.620  42.510  -6.092  1.00  0.00    -0.288 OA
ATOM     29  H5  UNL     1      21.488  42.891  -6.154  1.00  0.00     0.244 HD
ENDBRANCH  24  28
ENDBRANCH   2  23
BRANCH   6  30
HETATM   30  C17 UNL     1      23.143  36.566  -7.735  1.00  0.00    -0.095 C 
HETATM   31  C18 UNL     1      23.366  35.749  -8.594  1.00  0.00    -0.100 C 
BRANCH  31  32
HETATM   32  C19 UNL     1      23.660  34.768  -9.637  1.00  0.00     0.165 C 
BRANCH  32  33
HETATM   33  C20 UNL     1      24.870  33.927  -9.284  1.00  0.00     0.364 C 
HETATM   34  F1  UNL     1      25.888  34.145 -10.208  1.00  0.00    -0.213 F 
HETATM   35  F2  UNL     1      25.368  34.313  -8.061  1.00  0.00    -0.213 F 
ENDBRANCH  32  33
ENDBRANCH  31  32
ENDBRANCH   6  30
BRANCH   5  36
HETATM   36  C14 UNL     1      24.084  37.534  -4.474  1.00  0.00     0.178 C 
HETATM   37  O6  UNL     1      25.244  37.023  -4.459  1.00  0.00    -0.648 OA
HETATM   38  O7  UNL     1      23.899  38.628  -3.650  1.00  0.00    -0.648 OA
ENDBRANCH   5  36
TORSDOF 12
ENDMDL
MODEL 4
REMARK VINA RESULT: -8.048200664      1.289      1.533
REMARK  12 active torsions:
REMARK  status: ('A' for Active; 'I' for Inactive)
REMARK       I    between atoms: C2_2  and  N1_4 
REMARK    1  A    between atoms: N2_7  and  S1_8 
REMARK    2  A    between atoms: S1_8  and  C5_11 
REMARK    3  A    between atoms: C5_11  and  C6_12 
REMARK    4  A    between atoms: C6_12  and  C7_13 
REMARK    5  A    between atoms: C7_13  and  C8_14 
REMARK    6  A    between atoms: C9_15  and  C10_16 
REMARK    7  A    between atoms: C10_16  and  O4_17 
REMARK    8  A    between atoms: N3_19  and  O5_21 
REMARK    9  A    between atoms: C13_25  and  C14_26 
REMARK   10  A    between atoms: C15_29  and  C17_31 
REMARK   11  A    between atoms: C18_32  and  C19_33 
REMARK   12  A    between atoms: C19_33  and  C20_34 
ROOT
HETATM    1  C8  UNL     1      21.036  38.847  -6.776  1.00  0.00     0.018 C 
HETATM    2  C9  UNL     1      19.926  39.670  -6.287  1.00  0.00     0.068 C 
HETATM    3  C11 UNL     1      19.732  39.450  -4.798  1.00  0.00     0.014 C 
HETATM    4  C12 UNL     1      20.611  38.391  -4.239  1.00  0.00     0.018 C 
HETATM    5  C13 UNL     1      22.085  38.618  -4.500  1.00  0.00     0.107 C 
HETATM    6  C15 UNL     1      22.304  38.824  -5.981  1.00  0.00     0.037 C 
HETATM    7  C16 UNL     1      23.217  39.977  -6.190  1.00  0.00     0.030 C 
ENDROOT
BRANCH   1   8
HETATM    8  C7  UNL     1      21.359  38.954  -8.252  1.00  0.00     0.008 C 
BRANCH   8   9
HETATM    9  C6  UNL     1      20.585  38.011  -9.084  1.00  0.00     0.017 C 
BRANCH   9  10
HETATM   10  C5  UNL     1      20.244  38.461 -10.460  1.00  0.00     0.157 C 
BRANCH  10  11
HETATM   11  S1  UNL     1      20.552  37.303 -11.727  1.00  0.00     0.211 S 
HETATM   12  O2  UNL     1      19.526  37.450 -12.826  1.00  0.00    -0.211 OA
HETATM   13  O3  UNL     1      20.481  35.891 -11.233  1.00  0.00    -0.211 OA
BRANCH  11  14
HETATM   14  N2  UNL     1      22.142  37.523 -12.414  1.00  0.00    -0.208 NA
HETATM   15  C4  UNL     1      22.068  38.532 -13.425  1.00  0.00     0.127 C 
HETATM   16  C3  UNL     1      23.230  38.570 -14.358  1.00  0.00     0.141 C 
HETATM   17  N1  UNL     1      23.876  37.314 -14.566  1.00  0.00    -0.350 N 
HETATM   18  C2  UNL     1      24.466  36.965 -15.819  1.00  0.00     0.215 C 
HETATM   19  C22 UNL     1      23.937  36.361 -13.473  1.00  0.00     0.141 C 
HETATM   20  C1  UNL     1      24.403  37.941 -16.938  1.00  0.00     0.117 C 
HETATM   21  O1  UNL     1      25.031  35.855 -15.981  1.00  0.00    -0.274 OA
HETATM   22  C21 UNL     1      22.545  36.225 -12.918  1.00  0.00     0.127 C 
ENDBRANCH  11  14
ENDBRANCH  10  11
ENDBRANCH   9  10
ENDBRANCH   8   9
ENDBRANCH   1   8
BRANCH   2  23
HETATM   23  C10 UNL     1      19.874  41.087  -6.577  1.00  0.00     0.140 C 
HETATM   24  N3  UNL     1      19.286  41.686  -7.531  1.00  0.00    -0.251 N 
ATOM     25  H3  UNL     1      18.769  41.120  -8.204  1.00  0.00     0.196 HD
BRANCH  23  26
HETATM   26  O4  UNL     1      20.570  41.928  -5.683  1.00  0.00    -0.348 OA
ATOM     27  H4  UNL     1      20.038  42.392  -5.047  1.00  0.00     0.219 HD
ENDBRANCH  23  26
BRANCH  24  28
HETATM   28  O5  UNL     1      19.303  43.044  -7.711  1.00  0.00    -0.288 OA
ATOM     29  H5  UNL     1      20.075  43.538  -7.960  1.00  0.00     0.244 HD
ENDBRANCH  24  28
ENDBRANCH   2  23
BRANCH   6  30
HETATM   30  C17 UNL     1      23.051  37.628  -6.501  1.00  0.00    -0.095 C 
HETATM   31  C18 UNL     1      23.629  36.652  -6.912  1.00  0.00    -0.100 C 
BRANCH  31  32
HETATM   32  C19 UNL     1      24.309  35.463  -7.419  1.00  0.00     0.165 C 
BRANCH  32  33
HETATM   33  C20 UNL     1      25.041  34.726  -6.315  1.00  0.00     0.364 C 
HETATM   34  F1  UNL     1      25.449  33.475  -6.766  1.00  0.00    -0.213 F 
HETATM   35  F2  UNL     1      26.187  35.409  -5.977  1.00  0.00    -0.213 F 
ENDBRANCH  32  33
ENDBRANCH  31  32
ENDBRANCH   6  30
BRANCH   5  36
HETATM   36  C14 UNL     1      22.652  39.637  -3.627  1.00  0.00     0.178 C 
HETATM   37  O6  UNL     1      23.768  39.414  -3.068  1.00  0.00    -0.648 OA
HETATM   38  O7  UNL     1      22.070  40.858  -3.342  1.00  0.00    -0.648 OA
ENDBRANCH   5  36
TORSDOF 12
ENDMDL
MODEL 5
REMARK VINA RESULT: -7.813210489      1.536      1.905
REMARK  12 active torsions:
REMARK  status: ('A' for Active; 'I' for Inactive)
REMARK       I    between atoms: C2_2  and  N1_4 
REMARK    1  A    between atoms: N2_7  and  S1_8 
REMARK    2  A    between atoms: S1_8  and  C5_11 
REMARK    3  A    between atoms: C5_11  and  C6_12 
REMARK    4  A    between atoms: C6_12  and  C7_13 
REMARK    5  A    between atoms: C7_13  and  C8_14 
REMARK    6  A    between atoms: C9_15  and  C10_16 
REMARK    7  A    between atoms: C10_16  and  O4_17 
REMARK    8  A    between atoms: N3_19  and  O5_21 
REMARK    9  A    between atoms: C13_25  and  C14_26 
REMARK   10  A    between atoms: C15_29  and  C17_31 
REMARK   11  A    between atoms: C18_32  and  C19_33 
REMARK   12  A    between atoms: C19_33  and  C20_34 
ROOT
HETATM    1  C8  UNL     1      20.878  38.945  -6.793  1.00  0.00     0.018 C 
HETATM    2  C9  UNL     1      19.881  39.941  -6.394  1.00  0.00     0.068 C 
HETATM    3  C11 UNL     1      19.592  39.822  -4.908  1.00  0.00     0.014 C 
HETATM    4  C12 UNL     1      20.281  38.675  -4.264  1.00  0.00     0.018 C 
HETATM    5  C13 UNL     1      21.782  38.675  -4.460  1.00  0.00     0.107 C 
HETATM    6  C15 UNL     1      22.094  38.777  -5.935  1.00  0.00     0.037 C 
HETATM    7  C16 UNL     1      23.173  39.775  -6.145  1.00  0.00     0.030 C 
ENDROOT
BRANCH   1   8
HETATM    8  C7  UNL     1      21.277  38.935  -8.254  1.00  0.00     0.008 C 
BRANCH   8   9
HETATM    9  C6  UNL     1      20.481  37.991  -9.065  1.00  0.00     0.017 C 
BRANCH   9  10
HETATM   10  C5  UNL     1      20.703  38.024 -10.535  1.00  0.00     0.157 C 
BRANCH  10  11
HETATM   11  S1  UNL     1      21.451  36.603 -11.214  1.00  0.00     0.211 S 
HETATM   12  O2  UNL     1      20.469  35.454 -11.225  1.00  0.00    -0.211 OA
HETATM   13  O3  UNL     1      22.646  36.161 -10.428  1.00  0.00    -0.211 OA
BRANCH  11  14
HETATM   14  N2  UNL     1      21.994  36.889 -12.848  1.00  0.00    -0.208 NA
HETATM   15  C4  UNL     1      23.375  36.533 -12.940  1.00  0.00     0.127 C 
HETATM   16  C3  UNL     1      24.081  37.066 -14.140  1.00  0.00     0.141 C 
HETATM   17  N1  UNL     1      23.567  38.300 -14.642  1.00  0.00    -0.350 N 
HETATM   18  C2  UNL     1      24.411  39.283 -15.242  1.00  0.00     0.215 C 
HETATM   19  C22 UNL     1      22.144  38.566 -14.539  1.00  0.00     0.141 C 
HETATM   20  C1  UNL     1      25.868  39.010 -15.347  1.00  0.00     0.117 C 
HETATM   21  O1  UNL     1      23.938  40.362 -15.679  1.00  0.00    -0.274 OA
HETATM   22  C21 UNL     1      21.737  38.290 -13.117  1.00  0.00     0.127 C 
ENDBRANCH  11  14
ENDBRANCH  10  11
ENDBRANCH   9  10
ENDBRANCH   8   9
ENDBRANCH   1   8
BRANCH   2  23
HETATM   23  C10 UNL     1      20.049  41.336  -6.743  1.00  0.00     0.140 C 
HETATM   24  N3  UNL     1      20.767  42.219  -6.177  1.00  0.00    -0.251 N 
ATOM     25  H3  UNL     1      21.313  41.941  -5.362  1.00  0.00     0.196 HD
BRANCH  23  26
HETATM   26  O4  UNL     1      19.321  41.787  -7.864  1.00  0.00    -0.348 OA
ATOM     27  H4  UNL     1      18.929  42.649  -7.787  1.00  0.00     0.219 HD
ENDBRANCH  23  26
BRANCH  24  28
HETATM   28  O5  UNL     1      20.853  43.521  -6.594  1.00  0.00    -0.288 OA
ATOM     29  H5  UNL     1      21.350  44.193  -6.142  1.00  0.00     0.244 HD
ENDBRANCH  24  28
ENDBRANCH   2  23
BRANCH   6  30
HETATM   30  C17 UNL     1      22.679  37.463  -6.369  1.00  0.00    -0.095 C 
HETATM   31  C18 UNL     1      23.173  36.416  -6.710  1.00  0.00    -0.100 C 
BRANCH  31  32
HETATM   32  C19 UNL     1      23.785  35.149  -7.103  1.00  0.00     0.165 C 
BRANCH  32  33
HETATM   33  C20 UNL     1      25.229  35.335  -7.523  1.00  0.00     0.364 C 
HETATM   34  F1  UNL     1      25.322  36.342  -8.479  1.00  0.00    -0.213 F 
HETATM   35  F2  UNL     1      25.979  35.751  -6.447  1.00  0.00    -0.213 F 
ENDBRANCH  32  33
ENDBRANCH  31  32
ENDBRANCH   6  30
BRANCH   5  36
HETATM   36  C14 UNL     1      22.454  39.641  -3.602  1.00  0.00     0.178 C 
HETATM   37  O6  UNL     1      23.501  39.286  -2.979  1.00  0.00    -0.648 OA
HETATM   38  O7  UNL     1      22.045  40.945  -3.396  1.00  0.00    -0.648 OA
ENDBRANCH   5  36
TORSDOF 12
ENDMDL
