MODEL 1
REMARK VINA RESULT: -6.802477917      0.000      0.000
REMARK  9 active torsions:
REMARK  status: ('A' for Active; 'I' for Inactive)
REMARK    1  A    between atoms: C2_2  and  C3_3 
REMARK    2  A    between atoms: C3_3  and  O1_4 
REMARK    3  A    between atoms: C20_22  and  S1_23 
REMARK    4  A    between atoms: S1_23  and  S2_24 
REMARK    5  A    between atoms: S2_24  and  C21_25 
REMARK    6  A    between atoms: C23_28  and  O4_30 
REMARK    7  A    between atoms: C27_34  and  N1_35 
REMARK    8  A    between atoms: C31_42  and  O5_43 
REMARK    9  A    between atoms: C32_45  and  O6_46 
ROOT
HETATM    1  C3  UNL     1       2.753  35.943  24.265  1.00  0.00     0.098 C 
HETATM    2  C5  UNL     1       1.509  36.553  24.750  1.00  0.00     0.089 C 
HETATM    3  C6  UNL     1       1.292  37.996  24.817  1.00  0.00     0.021 C 
HETATM    4  C7  UNL     1       1.090  35.997  26.098  1.00  0.00     0.137 C 
HETATM    5  O2  UNL     1       1.770  35.303  26.791  1.00  0.00    -0.297 OA
HETATM    6  C8  UNL     1      -0.277  36.367  26.551  1.00  0.00     0.052 C 
HETATM    7  C9  UNL     1      -1.326  35.336  26.225  1.00  0.00     0.018 C 
HETATM    8  C10 UNL     1      -0.329  36.642  28.036  1.00  0.00     0.016 C 
HETATM    9  C11 UNL     1      -1.411  37.647  28.362  1.00  0.00    -0.017 C 
HETATM   10  C12 UNL     1      -2.527  37.068  29.185  1.00  0.00     0.010 C 
HETATM   11  C13 UNL     1      -0.830  38.901  29.025  1.00  0.00     0.008 C 
HETATM   12  C14 UNL     1      -0.623  38.750  30.495  1.00  0.00    -0.018 C 
HETATM   13  C15 UNL     1      -1.589  39.537  31.343  1.00  0.00     0.010 C 
HETATM   14  C16 UNL     1       0.797  38.865  30.957  1.00  0.00     0.008 C 
HETATM   15  C17 UNL     1       1.459  40.154  30.904  1.00  0.00    -0.017 C 
HETATM   16  C18 UNL     1       0.618  41.373  30.669  1.00  0.00     0.010 C 
HETATM   17  C19 UNL     1       2.616  40.233  29.903  1.00  0.00     0.023 C 
HETATM   18  C20 UNL     1       3.700  39.338  30.373  1.00  0.00     0.093 C 
HETATM   19  C23 UNL     1       4.926  39.326  29.508  1.00  0.00     0.072 C 
HETATM   20  C24 UNL     1       5.669  40.606  29.699  1.00  0.00     0.047 C 
HETATM   21  C25 UNL     1       4.611  39.038  28.033  1.00  0.00     0.048 C 
HETATM   22  C26 UNL     1       4.768  40.306  27.285  1.00  0.00     0.015 C 
HETATM   23  C27 UNL     1       5.381  37.868  27.631  1.00  0.00     0.200 C 
HETATM   24  C28 UNL     1       5.678  37.587  26.209  1.00  0.00     0.009 C 
HETATM   25  C29 UNL     1       6.714  38.642  25.767  1.00  0.00     0.020 C 
HETATM   26  C30 UNL     1       6.489  36.300  26.205  1.00  0.00     0.020 C 
HETATM   27  C31 UNL     1       4.481  37.561  25.285  1.00  0.00     0.159 C 
HETATM   28  C32 UNL     1       4.034  36.211  24.956  1.00  0.00     0.183 C 
ENDROOT
BRANCH  18  29
HETATM   29  S1  UNL     1       4.266  39.989  32.000  1.00  0.00    -0.082 SA
BRANCH  29  30
HETATM   30  S2  UNL     1       3.368  38.940  33.596  1.00  0.00    -0.020 SA
BRANCH  30  31
HETATM   31  C21 UNL     1       4.190  39.296  35.127  1.00  0.00     0.192 C 
HETATM   32  C22 UNL     1       3.482  39.607  36.387  1.00  0.00     0.105 C 
HETATM   33  O3  UNL     1       5.410  39.289  35.162  1.00  0.00    -0.285 OA
ENDBRANCH  30  31
ENDBRANCH  29  30
ENDBRANCH  18  29
BRANCH  19  34
HETATM   34  O4  UNL     1       5.756  38.312  30.042  1.00  0.00    -0.389 OA
ATOM     35  H4  UNL     1       6.523  38.290  29.482  1.00  0.00     0.210 HD
ENDBRANCH  19  34
BRANCH  23  36
HETATM   36  N1  UNL     1       4.757  36.671  28.197  1.00  0.00    -0.074 N 
ATOM     37  H13 UNL     1       3.782  36.826  28.455  1.00  0.00     0.274 HD
ATOM     38  H12 UNL     1       4.606  35.944  27.498  1.00  0.00     0.274 HD
ATOM     39  H11 UNL     1       5.320  36.344  28.982  1.00  0.00     0.274 HD
ENDBRANCH  23  36
BRANCH  27  40
HETATM   40  O5  UNL     1       4.847  38.380  24.220  1.00  0.00    -0.392 OA
ATOM     41  H5  UNL     1       4.414  39.206  24.397  1.00  0.00     0.210 HD
ENDBRANCH  27  40
BRANCH  28  42
HETATM   42  O6  UNL     1       5.006  35.616  24.108  1.00  0.00    -0.390 OA
ATOM     43  H6  UNL     1       4.714  34.716  24.026  1.00  0.00     0.210 HD
ENDBRANCH  28  42
BRANCH   1  44
HETATM   44  C2  UNL     1       2.961  35.829  22.794  1.00  0.00     0.037 C 
HETATM   45  C1  UNL     1       2.234  36.712  21.872  1.00  0.00     0.008 C 
ENDBRANCH   1  44
BRANCH   1  46
HETATM   46  O1  UNL     1       2.573  34.574  24.665  1.00  0.00    -0.381 OA
HETATM   47  C4  UNL     1       2.857  33.610  23.810  1.00  0.00     0.202 C 
ENDBRANCH   1  46
TORSDOF 9
ENDMDL
MODEL 2
REMARK VINA RESULT: -6.782891499      2.665      5.768
REMARK  9 active torsions:
REMARK  status: ('A' for Active; 'I' for Inactive)
REMARK    1  A    between atoms: C2_2  and  C3_3 
REMARK    2  A    between atoms: C3_3  and  O1_4 
REMARK    3  A    between atoms: C20_22  and  S1_23 
REMARK    4  A    between atoms: S1_23  and  S2_24 
REMARK    5  A    between atoms: S2_24  and  C21_25 
REMARK    6  A    between atoms: C23_28  and  O4_30 
REMARK    7  A    between atoms: C27_34  and  N1_35 
REMARK    8  A    between atoms: C31_42  and  O5_43 
REMARK    9  A    between atoms: C32_45  and  O6_46 
ROOT
HETATM    1  C3  UNL     1      -1.013  37.534  27.030  1.00  0.00     0.098 C 
HETATM    2  C5  UNL     1      -0.596  38.608  27.941  1.00  0.00     0.089 C 
HETATM    3  C6  UNL     1       0.114  39.806  27.501  1.00  0.00     0.021 C 
HETATM    4  C7  UNL     1       0.168  38.075  29.138  1.00  0.00     0.137 C 
HETATM    5  O2  UNL     1       0.571  36.957  29.248  1.00  0.00    -0.297 OA
HETATM    6  C8  UNL     1       0.412  39.051  30.233  1.00  0.00     0.052 C 
HETATM    7  C9  UNL     1      -0.610  38.992  31.338  1.00  0.00     0.018 C 
HETATM    8  C10 UNL     1       1.783  38.886  30.846  1.00  0.00     0.016 C 
HETATM    9  C11 UNL     1       2.296  40.203  31.384  1.00  0.00    -0.017 C 
HETATM   10  C12 UNL     1       2.446  40.213  32.879  1.00  0.00     0.010 C 
HETATM   11  C13 UNL     1       3.601  40.619  30.696  1.00  0.00     0.008 C 
HETATM   12  C14 UNL     1       4.811  39.982  31.292  1.00  0.00    -0.018 C 
HETATM   13  C15 UNL     1       5.685  40.924  32.082  1.00  0.00     0.010 C 
HETATM   14  C16 UNL     1       5.587  39.092  30.370  1.00  0.00     0.008 C 
HETATM   15  C17 UNL     1       6.326  39.679  29.270  1.00  0.00    -0.017 C 
HETATM   16  C18 UNL     1       6.529  41.166  29.266  1.00  0.00     0.010 C 
HETATM   17  C19 UNL     1       5.792  39.317  27.881  1.00  0.00     0.023 C 
HETATM   18  C20 UNL     1       6.003  37.866  27.666  1.00  0.00     0.093 C 
HETATM   19  C23 UNL     1       5.554  37.356  26.327  1.00  0.00     0.072 C 
HETATM   20  C24 UNL     1       6.513  37.822  25.283  1.00  0.00     0.047 C 
HETATM   21  C25 UNL     1       4.100  37.728  26.006  1.00  0.00     0.048 C 
HETATM   22  C26 UNL     1       4.127  38.791  24.975  1.00  0.00     0.015 C 
HETATM   23  C27 UNL     1       3.369  36.494  25.744  1.00  0.00     0.200 C 
HETATM   24  C28 UNL     1       2.106  36.490  24.975  1.00  0.00     0.009 C 
HETATM   25  C29 UNL     1       2.490  36.783  23.510  1.00  0.00     0.020 C 
HETATM   26  C30 UNL     1       1.662  35.036  24.920  1.00  0.00     0.020 C 
HETATM   27  C31 UNL     1       1.037  37.439  25.471  1.00  0.00     0.159 C 
HETATM   28  C32 UNL     1      -0.003  36.780  26.255  1.00  0.00     0.183 C 
ENDROOT
BRANCH  18  29
HETATM   29  S1  UNL     1       7.820  37.575  27.707  1.00  0.00    -0.082 SA
BRANCH  29  30
HETATM   30  S2  UNL     1       8.267  35.633  28.400  1.00  0.00    -0.020 SA
BRANCH  30  31
HETATM   31  C21 UNL     1       8.837  34.604  27.072  1.00  0.00     0.192 C 
HETATM   32  C22 UNL     1       9.669  33.397  27.266  1.00  0.00     0.105 C 
HETATM   33  O3  UNL     1       8.535  34.892  25.925  1.00  0.00    -0.285 OA
ENDBRANCH  30  31
ENDBRANCH  29  30
ENDBRANCH  18  29
BRANCH  19  34
HETATM   34  O4  UNL     1       5.702  35.950  26.390  1.00  0.00    -0.389 OA
ATOM     35  H4  UNL     1       5.171  35.607  25.680  1.00  0.00     0.210 HD
ENDBRANCH  19  34
BRANCH  23  36
HETATM   36  N1  UNL     1       3.116  35.814  27.015  1.00  0.00    -0.074 N 
ATOM     37  H13 UNL     1       3.977  35.570  27.504  1.00  0.00     0.274 HD
ATOM     38  H12 UNL     1       2.724  36.439  27.719  1.00  0.00     0.274 HD
ATOM     39  H11 UNL     1       2.523  35.002  26.843  1.00  0.00     0.274 HD
ENDBRANCH  23  36
BRANCH  27  40
HETATM   40  O5  UNL     1       0.626  38.125  24.330  1.00  0.00    -0.392 OA
ATOM     41  H5  UNL     1       0.400  38.993  24.645  1.00  0.00     0.210 HD
ENDBRANCH  27  40
BRANCH  28  42
HETATM   42  O6  UNL     1      -0.780  35.979  25.376  1.00  0.00    -0.390 OA
ATOM     43  H6  UNL     1      -1.203  35.356  25.954  1.00  0.00     0.210 HD
ENDBRANCH  28  42
BRANCH   1  44
HETATM   44  C2  UNL     1      -2.257  37.722  26.233  1.00  0.00     0.037 C 
HETATM   45  C1  UNL     1      -2.692  39.071  25.846  1.00  0.00     0.008 C 
ENDBRANCH   1  44
BRANCH   1  46
HETATM   46  O1  UNL     1      -1.387  36.502  27.959  1.00  0.00    -0.381 OA
HETATM   47  C4  UNL     1      -2.665  36.298  28.216  1.00  0.00     0.202 C 
ENDBRANCH   1  46
TORSDOF 9
ENDMDL
MODEL 3
REMARK VINA RESULT: -6.662121186     11.498     14.850
REMARK  9 active torsions:
REMARK  status: ('A' for Active; 'I' for Inactive)
REMARK    1  A    between atoms: C2_2  and  C3_3 
REMARK    2  A    between atoms: C3_3  and  O1_4 
REMARK    3  A    between atoms: C20_22  and  S1_23 
REMARK    4  A    between atoms: S1_23  and  S2_24 
REMARK    5  A    between atoms: S2_24  and  C21_25 
REMARK    6  A    between atoms: C23_28  and  O4_30 
REMARK    7  A    between atoms: C27_34  and  N1_35 
REMARK    8  A    between atoms: C31_42  and  O5_43 
REMARK    9  A    between atoms: C32_45  and  O6_46 
ROOT
HETATM    1  C3  UNL     1       9.036  45.299  15.022  1.00  0.00     0.098 C 
HETATM    2  C5  UNL     1       8.375  44.588  16.123  1.00  0.00     0.089 C 
HETATM    3  C6  UNL     1       8.022  45.219  17.393  1.00  0.00     0.021 C 
HETATM    4  C7  UNL     1       9.085  43.295  16.474  1.00  0.00     0.137 C 
HETATM    5  O2  UNL     1      10.159  42.973  16.065  1.00  0.00    -0.297 OA
HETATM    6  C8  UNL     1       8.354  42.389  17.400  1.00  0.00     0.052 C 
HETATM    7  C9  UNL     1       7.558  41.319  16.701  1.00  0.00     0.018 C 
HETATM    8  C10 UNL     1       9.280  41.720  18.390  1.00  0.00     0.016 C 
HETATM    9  C11 UNL     1       8.560  41.418  19.685  1.00  0.00    -0.017 C 
HETATM   10  C12 UNL     1       8.420  39.946  19.953  1.00  0.00     0.010 C 
HETATM   11  C13 UNL     1       9.213  42.136  20.871  1.00  0.00     0.008 C 
HETATM   12  C14 UNL     1      10.385  41.402  21.431  1.00  0.00    -0.018 C 
HETATM   13  C15 UNL     1      10.139  40.774  22.780  1.00  0.00     0.010 C 
HETATM   14  C16 UNL     1      11.693  42.126  21.348  1.00  0.00     0.008 C 
HETATM   15  C17 UNL     1      11.913  43.295  22.177  1.00  0.00    -0.017 C 
HETATM   16  C18 UNL     1      10.947  43.564  23.293  1.00  0.00     0.010 C 
HETATM   17  C19 UNL     1      12.045  44.609  21.401  1.00  0.00     0.023 C 
HETATM   18  C20 UNL     1      13.289  44.552  20.598  1.00  0.00     0.093 C 
HETATM   19  C23 UNL     1      13.578  45.786  19.795  1.00  0.00     0.072 C 
HETATM   20  C24 UNL     1      14.023  46.872  20.717  1.00  0.00     0.047 C 
HETATM   21  C25 UNL     1      12.400  46.208  18.906  1.00  0.00     0.048 C 
HETATM   22  C26 UNL     1      11.790  47.413  19.513  1.00  0.00     0.015 C 
HETATM   23  C27 UNL     1      12.874  46.260  17.529  1.00  0.00     0.200 C 
HETATM   24  C28 UNL     1      12.168  47.048  16.495  1.00  0.00     0.009 C 
HETATM   25  C29 UNL     1      12.428  48.532  16.830  1.00  0.00     0.020 C 
HETATM   26  C30 UNL     1      12.961  46.850  15.213  1.00  0.00     0.020 C 
HETATM   27  C31 UNL     1      10.689  46.761  16.353  1.00  0.00     0.159 C 
HETATM   28  C32 UNL     1      10.374  45.898  15.219  1.00  0.00     0.183 C 
ENDROOT
BRANCH  18  29
HETATM   29  S1  UNL     1      14.689  44.411  21.785  1.00  0.00    -0.082 SA
BRANCH  29  30
HETATM   30  S2  UNL     1      15.929  42.771  21.313  1.00  0.00    -0.020 SA
BRANCH  30  31
HETATM   31  C21 UNL     1      15.257  41.263  21.964  1.00  0.00     0.192 C 
HETATM   32  C22 UNL     1      14.991  40.061  21.146  1.00  0.00     0.105 C 
HETATM   33  O3  UNL     1      14.992  41.196  23.154  1.00  0.00    -0.285 OA
ENDBRANCH  30  31
ENDBRANCH  29  30
ENDBRANCH  18  29
BRANCH  19  34
HETATM   34  O4  UNL     1      14.706  45.466  19.002  1.00  0.00    -0.389 OA
ATOM     35  H4  UNL     1      15.244  46.248  18.998  1.00  0.00     0.210 HD
ENDBRANCH  19  34
BRANCH  23  36
HETATM   36  N1  UNL     1      13.016  44.894  17.023  1.00  0.00    -0.074 N 
ATOM     37  H13 UNL     1      13.634  44.327  17.603  1.00  0.00     0.274 HD
ATOM     38  H12 UNL     1      12.165  44.345  17.143  1.00  0.00     0.274 HD
ATOM     39  H11 UNL     1      13.320  44.931  16.051  1.00  0.00     0.274 HD
ENDBRANCH  23  36
BRANCH  27  40
HETATM   40  O5  UNL     1      10.088  48.018  16.374  1.00  0.00    -0.392 OA
ATOM     41  H5  UNL     1      10.534  48.482  17.073  1.00  0.00     0.210 HD
ENDBRANCH  27  40
BRANCH  28  42
HETATM   42  O6  UNL     1      10.593  46.637  14.026  1.00  0.00    -0.390 OA
ATOM     43  H6  UNL     1      11.377  47.140  14.212  1.00  0.00     0.210 HD
ENDBRANCH  28  42
BRANCH   1  44
HETATM   44  C2  UNL     1       8.204  46.150  14.126  1.00  0.00     0.037 C 
HETATM   45  C1  UNL     1       7.083  46.927  14.672  1.00  0.00     0.008 C 
ENDBRANCH   1  44
BRANCH   1  46
HETATM   46  O1  UNL     1       9.411  44.209  14.164  1.00  0.00    -0.381 OA
HETATM   47  C4  UNL     1       8.976  44.189  12.918  1.00  0.00     0.202 C 
ENDBRANCH   1  46
TORSDOF 9
ENDMDL
MODEL 4
REMARK VINA RESULT: -6.628533949      3.011      7.706
REMARK  9 active torsions:
REMARK  status: ('A' for Active; 'I' for Inactive)
REMARK    1  A    between atoms: C2_2  and  C3_3 
REMARK    2  A    between atoms: C3_3  and  O1_4 
REMARK    3  A    between atoms: C20_22  and  S1_23 
REMARK    4  A    between atoms: S1_23  and  S2_24 
REMARK    5  A    between atoms: S2_24  and  C21_25 
REMARK    6  A    between atoms: C23_28  and  O4_30 
REMARK    7  A    between atoms: C27_34  and  N1_35 
REMARK    8  A    between atoms: C31_42  and  O5_43 
REMARK    9  A    between atoms: C32_45  and  O6_46 
ROOT
HETATM    1  C3  UNL     1      -0.206  39.235  31.142  1.00  0.00     0.098 C 
HETATM    2  C5  UNL     1       0.858  40.246  31.186  1.00  0.00     0.089 C 
HETATM    3  C6  UNL     1       1.299  41.004  30.018  1.00  0.00     0.021 C 
HETATM    4  C7  UNL     1       2.116  39.720  31.851  1.00  0.00     0.137 C 
HETATM    5  O2  UNL     1       2.315  38.576  32.127  1.00  0.00    -0.297 OA
HETATM    6  C8  UNL     1       3.154  40.738  32.165  1.00  0.00     0.052 C 
HETATM    7  C9  UNL     1       3.083  41.261  33.576  1.00  0.00     0.018 C 
HETATM    8  C10 UNL     1       4.552  40.219  31.922  1.00  0.00     0.016 C 
HETATM    9  C11 UNL     1       5.488  41.345  31.544  1.00  0.00    -0.017 C 
HETATM   10  C12 UNL     1       6.560  41.591  32.569  1.00  0.00     0.010 C 
HETATM   11  C13 UNL     1       6.094  41.128  30.153  1.00  0.00     0.008 C 
HETATM   12  C14 UNL     1       7.286  40.231  30.163  1.00  0.00    -0.018 C 
HETATM   13  C15 UNL     1       8.596  40.935  29.913  1.00  0.00     0.010 C 
HETATM   14  C16 UNL     1       7.140  38.963  29.380  1.00  0.00     0.008 C 
HETATM   15  C17 UNL     1       7.084  39.023  27.932  1.00  0.00    -0.017 C 
HETATM   16  C18 UNL     1       7.466  40.309  27.262  1.00  0.00     0.010 C 
HETATM   17  C19 UNL     1       5.736  38.612  27.332  1.00  0.00     0.023 C 
HETATM   18  C20 UNL     1       5.530  37.168  27.597  1.00  0.00     0.093 C 
HETATM   19  C23 UNL     1       4.256  36.602  27.042  1.00  0.00     0.072 C 
HETATM   20  C24 UNL     1       4.381  36.485  25.559  1.00  0.00     0.047 C 
HETATM   21  C25 UNL     1       3.014  37.397  27.471  1.00  0.00     0.048 C 
HETATM   22  C26 UNL     1       2.541  38.159  26.292  1.00  0.00     0.015 C 
HETATM   23  C27 UNL     1       2.104  36.478  28.142  1.00  0.00     0.200 C 
HETATM   24  C28 UNL     1       0.661  36.774  28.274  1.00  0.00     0.009 C 
HETATM   25  C29 UNL     1       0.057  36.621  26.862  1.00  0.00     0.020 C 
HETATM   26  C30 UNL     1       0.065  35.591  29.022  1.00  0.00     0.020 C 
HETATM   27  C31 UNL     1       0.323  38.118  28.881  1.00  0.00     0.159 C 
HETATM   28  C32 UNL     1      -0.060  38.037  30.286  1.00  0.00     0.183 C 
ENDROOT
BRANCH  18  29
HETATM   29  S1  UNL     1       6.877  36.264  26.728  1.00  0.00    -0.082 SA
BRANCH  29  30
HETATM   30  S2  UNL     1       8.242  35.424  28.100  1.00  0.00    -0.020 SA
BRANCH  30  31
HETATM   31  C21 UNL     1       9.252  34.195  27.314  1.00  0.00     0.192 C 
HETATM   32  C22 UNL     1       9.982  33.139  28.047  1.00  0.00     0.105 C 
HETATM   33  O3  UNL     1       9.362  34.206  26.098  1.00  0.00    -0.285 OA
ENDBRANCH  30  31
ENDBRANCH  29  30
ENDBRANCH  18  29
BRANCH  19  34
HETATM   34  O4  UNL     1       4.187  35.276  27.531  1.00  0.00    -0.389 OA
ATOM     35  H4  UNL     1       3.416  34.896  27.127  1.00  0.00     0.210 HD
ENDBRANCH  19  34
BRANCH  23  36
HETATM   36  N1  UNL     1       2.621  36.192  29.482  1.00  0.00    -0.074 N 
ATOM     37  H13 UNL     1       3.562  35.800  29.460  1.00  0.00     0.274 HD
ATOM     38  H12 UNL     1       2.832  37.041  30.006  1.00  0.00     0.274 HD
ATOM     39  H11 UNL     1       1.959  35.589  29.970  1.00  0.00     0.274 HD
ENDBRANCH  23  36
BRANCH  27  40
HETATM   40  O5  UNL     1      -0.609  38.670  28.005  1.00  0.00    -0.392 OA
ATOM     41  H5  UNL     1      -1.401  38.752  28.523  1.00  0.00     0.210 HD
ENDBRANCH  27  40
BRANCH  28  42
HETATM   42  O6  UNL     1      -1.333  37.411  30.364  1.00  0.00    -0.390 OA
ATOM     43  H6  UNL     1      -1.567  37.264  29.455  1.00  0.00     0.210 HD
ENDBRANCH  28  42
BRANCH   1  44
HETATM   44  C2  UNL     1      -1.622  39.695  31.169  1.00  0.00     0.037 C 
HETATM   45  C1  UNL     1      -2.030  40.885  30.410  1.00  0.00     0.008 C 
ENDBRANCH   1  44
BRANCH   1  46
HETATM   46  O1  UNL     1      -0.054  38.606  32.425  1.00  0.00    -0.381 OA
HETATM   47  C4  UNL     1      -0.935  38.856  33.375  1.00  0.00     0.202 C 
ENDBRANCH   1  46
TORSDOF 9
ENDMDL
MODEL 5
REMARK VINA RESULT: -6.499173565      1.090      1.235
REMARK  9 active torsions:
REMARK  status: ('A' for Active; 'I' for Inactive)
REMARK    1  A    between atoms: C2_2  and  C3_3 
REMARK    2  A    between atoms: C3_3  and  O1_4 
REMARK    3  A    between atoms: C20_22  and  S1_23 
REMARK    4  A    between atoms: S1_23  and  S2_24 
REMARK    5  A    between atoms: S2_24  and  C21_25 
REMARK    6  A    between atoms: C23_28  and  O4_30 
REMARK    7  A    between atoms: C27_34  and  N1_35 
REMARK    8  A    between atoms: C31_42  and  O5_43 
REMARK    9  A    between atoms: C32_45  and  O6_46 
ROOT
HETATM    1  C3  UNL     1       2.761  36.046  24.211  1.00  0.00     0.098 C 
HETATM    2  C5  UNL     1       1.500  36.589  24.729  1.00  0.00     0.089 C 
HETATM    3  C6  UNL     1       1.255  38.017  24.919  1.00  0.00     0.021 C 
HETATM    4  C7  UNL     1       1.073  35.909  26.016  1.00  0.00     0.137 C 
HETATM    5  O2  UNL     1       1.756  35.170  26.656  1.00  0.00    -0.297 OA
HETATM    6  C8  UNL     1      -0.307  36.215  26.479  1.00  0.00     0.052 C 
HETATM    7  C9  UNL     1      -1.331  35.198  26.049  1.00  0.00     0.018 C 
HETATM    8  C10 UNL     1      -0.384  36.357  27.981  1.00  0.00     0.016 C 
HETATM    9  C11 UNL     1      -1.488  37.310  28.379  1.00  0.00    -0.017 C 
HETATM   10  C12 UNL     1      -2.604  36.642  29.131  1.00  0.00     0.010 C 
HETATM   11  C13 UNL     1      -0.940  38.511  29.157  1.00  0.00     0.008 C 
HETATM   12  C14 UNL     1      -0.749  38.234  30.611  1.00  0.00    -0.018 C 
HETATM   13  C15 UNL     1      -1.742  38.928  31.511  1.00  0.00     0.010 C 
HETATM   14  C16 UNL     1       0.662  38.334  31.103  1.00  0.00     0.008 C 
HETATM   15  C17 UNL     1       1.301  39.633  31.173  1.00  0.00    -0.017 C 
HETATM   16  C18 UNL     1       0.440  40.854  31.034  1.00  0.00     0.010 C 
HETATM   17  C19 UNL     1       2.468  39.821  30.200  1.00  0.00     0.023 C 
HETATM   18  C20 UNL     1       3.563  38.907  30.606  1.00  0.00     0.093 C 
HETATM   19  C23 UNL     1       4.800  38.992  29.761  1.00  0.00     0.072 C 
HETATM   20  C24 UNL     1       5.516  40.264  30.075  1.00  0.00     0.047 C 
HETATM   21  C25 UNL     1       4.510  38.829  28.263  1.00  0.00     0.048 C 
HETATM   22  C26 UNL     1       4.654  40.161  27.631  1.00  0.00     0.015 C 
HETATM   23  C27 UNL     1       5.308  37.713  27.771  1.00  0.00     0.200 C 
HETATM   24  C28 UNL     1       5.629  37.563  26.335  1.00  0.00     0.009 C 
HETATM   25  C29 UNL     1       6.650  38.671  26.002  1.00  0.00     0.020 C 
HETATM   26  C30 UNL     1       6.464  36.296  26.230  1.00  0.00     0.020 C 
HETATM   27  C31 UNL     1       4.445  37.598  25.394  1.00  0.00     0.159 C 
HETATM   28  C32 UNL     1       4.027  36.275  24.941  1.00  0.00     0.183 C 
ENDROOT
BRANCH  18  29
HETATM   29  S1  UNL     1       4.095  39.422  32.292  1.00  0.00    -0.082 SA
BRANCH  29  30
HETATM   30  S2  UNL     1       3.856  41.500  32.567  1.00  0.00    -0.020 SA
BRANCH  30  31
HETATM   31  C21 UNL     1       5.162  42.158  33.571  1.00  0.00     0.192 C 
HETATM   32  C22 UNL     1       6.596  42.052  33.227  1.00  0.00     0.105 C 
HETATM   33  O3  UNL     1       4.880  42.734  34.610  1.00  0.00    -0.285 OA
ENDBRANCH  30  31
ENDBRANCH  29  30
ENDBRANCH  18  29
BRANCH  19  34
HETATM   34  O4  UNL     1       5.642  37.950  30.218  1.00  0.00    -0.389 OA
ATOM     35  H4  UNL     1       6.521  38.309  30.202  1.00  0.00     0.210 HD
ENDBRANCH  19  34
BRANCH  23  36
HETATM   36  N1  UNL     1       4.699  36.460  28.221  1.00  0.00    -0.074 N 
ATOM     37  H13 UNL     1       5.035  36.172  29.140  1.00  0.00     0.274 HD
ATOM     38  H12 UNL     1       3.713  36.570  28.457  1.00  0.00     0.274 HD
ATOM     39  H11 UNL     1       4.850  35.745  27.510  1.00  0.00     0.274 HD
ENDBRANCH  23  36
BRANCH  27  40
HETATM   40  O5  UNL     1       4.810  38.513  24.410  1.00  0.00    -0.392 OA
ATOM     41  H5  UNL     1       4.056  38.554  23.833  1.00  0.00     0.210 HD
ENDBRANCH  27  40
BRANCH  28  42
HETATM   42  O6  UNL     1       5.022  35.774  24.059  1.00  0.00    -0.390 OA
ATOM     43  H6  UNL     1       5.837  36.058  24.454  1.00  0.00     0.210 HD
ENDBRANCH  28  42
BRANCH   1  44
HETATM   44  C2  UNL     1       2.991  36.066  22.739  1.00  0.00     0.037 C 
HETATM   45  C1  UNL     1       2.204  36.959  21.878  1.00  0.00     0.008 C 
ENDBRANCH   1  44
BRANCH   1  46
HETATM   46  O1  UNL     1       2.602  34.644  24.486  1.00  0.00    -0.381 OA
HETATM   47  C4  UNL     1       2.972  33.762  23.577  1.00  0.00     0.202 C 
ENDBRANCH   1  46
TORSDOF 9
ENDMDL
