MODEL 1
REMARK VINA RESULT: -7.076341137      0.000      0.000
REMARK  3 active torsions:
REMARK  status: ('A' for Active; 'I' for Inactive)
REMARK    1  A    between atoms: C2_4  and  C4_6 
REMARK    2  A    between atoms: C4_6  and  C5_7 
REMARK    3  A    between atoms: C11_13  and  O1_14 
ROOT
HETATM    1  C5  UNL     1     -42.964   0.214  72.391  1.00  0.00     0.063 C 
HETATM    2  C6  UNL     1     -43.346   0.237  73.802  1.00  0.00     0.061 C 
HETATM    3  C7  UNL     1     -42.740  -1.014  74.471  1.00  0.00     0.129 C 
HETATM    4  C8  UNL     1     -43.049  -2.171  73.728  1.00  0.00     0.032 C 
HETATM    5  C9  UNL     1     -42.022  -2.319  72.607  1.00  0.00     0.008 C 
HETATM    6  C10 UNL     1     -41.029  -1.229  72.494  1.00  0.00     0.069 C 
HETATM    7  C11 UNL     1     -41.471   0.175  72.603  1.00  0.00     0.167 C 
HETATM    8  O2  UNL     1     -41.194   0.843  73.777  1.00  0.00    -0.342 OA
HETATM    9  C12 UNL     1     -42.356   1.154  74.465  1.00  0.00     0.089 C 
HETATM   10  C13 UNL     1     -42.698   2.574  74.550  1.00  0.00     0.049 C 
HETATM   11  C14 UNL     1     -42.395   0.520  75.870  1.00  0.00     0.206 C 
HETATM   12  O3  UNL     1     -43.137  -0.692  75.735  1.00  0.00    -0.382 OA
ENDROOT
BRANCH   1  13
HETATM   13  C4  UNL     1     -43.367   1.355  71.533  1.00  0.00     0.062 C 
BRANCH  13  14
HETATM   14  C2  UNL     1     -43.604   1.017  70.130  1.00  0.00    -0.022 C 
HETATM   15  N1  UNL     1     -43.419  -0.172  69.724  1.00  0.00    -0.401 N 
HETATM   16  C1  UNL     1     -43.646  -0.528  68.362  1.00  0.00     0.145 C 
ATOM     17  H1  UNL     1     -43.102  -0.884  70.383  1.00  0.00     0.158 HD
HETATM   18  C3  UNL     1     -44.064   2.037  69.160  1.00  0.00     0.062 C 
ENDBRANCH  13  14
ENDBRANCH   1  13
BRANCH   7  19
HETATM   19  O1  UNL     1     -40.913   0.972  71.571  1.00  0.00    -0.365 OA
ATOM     20  H1  UNL     1     -40.564   0.362  70.933  1.00  0.00     0.213 HD
ENDBRANCH   7  19
TORSDOF 3
ENDMDL
MODEL 2
REMARK VINA RESULT: -7.070515360      1.806      3.216
REMARK  3 active torsions:
REMARK  status: ('A' for Active; 'I' for Inactive)
REMARK    1  A    between atoms: C2_4  and  C4_6 
REMARK    2  A    between atoms: C4_6  and  C5_7 
REMARK    3  A    between atoms: C11_13  and  O1_14 
ROOT
HETATM    1  C5  UNL     1     -42.577  -0.224  72.386  1.00  0.00     0.063 C 
HETATM    2  C6  UNL     1     -42.191  -0.241  73.795  1.00  0.00     0.061 C 
HETATM    3  C7  UNL     1     -42.788   1.018  74.458  1.00  0.00     0.129 C 
HETATM    4  C8  UNL     1     -42.476   2.169  73.708  1.00  0.00     0.032 C 
HETATM    5  C9  UNL     1     -43.505   2.315  72.589  1.00  0.00     0.008 C 
HETATM    6  C10 UNL     1     -44.504   1.229  72.485  1.00  0.00     0.069 C 
HETATM    7  C11 UNL     1     -44.069  -0.176  72.601  1.00  0.00     0.167 C 
HETATM    8  O2  UNL     1     -44.346  -0.836  73.781  1.00  0.00    -0.342 OA
HETATM    9  C12 UNL     1     -43.184  -1.148  74.467  1.00  0.00     0.089 C 
HETATM   10  C13 UNL     1     -42.848  -2.570  74.560  1.00  0.00     0.049 C 
HETATM   11  C14 UNL     1     -43.137  -0.505  75.868  1.00  0.00     0.206 C 
HETATM   12  O3  UNL     1     -42.389   0.702  75.723  1.00  0.00    -0.382 OA
ENDROOT
BRANCH   1  13
HETATM   13  C4  UNL     1     -42.182  -1.373  71.534  1.00  0.00     0.062 C 
BRANCH  13  14
HETATM   14  C2  UNL     1     -41.938  -1.043  70.129  1.00  0.00    -0.022 C 
HETATM   15  N1  UNL     1     -42.130   0.142  69.714  1.00  0.00    -0.401 N 
HETATM   16  C1  UNL     1     -41.897   0.490  68.351  1.00  0.00     0.145 C 
ATOM     17  H1  UNL     1     -42.458   0.856  70.366  1.00  0.00     0.158 HD
HETATM   18  C3  UNL     1     -41.462  -2.066  69.170  1.00  0.00     0.062 C 
ENDBRANCH  13  14
ENDBRANCH   1  13
BRANCH   7  19
HETATM   19  O1  UNL     1     -44.634  -0.977  71.576  1.00  0.00    -0.365 OA
ATOM     20  H1  UNL     1     -45.053  -1.705  72.018  1.00  0.00     0.213 HD
ENDBRANCH   7  19
TORSDOF 3
ENDMDL
MODEL 3
REMARK VINA RESULT: -6.972186555      1.782      2.951
REMARK  3 active torsions:
REMARK  status: ('A' for Active; 'I' for Inactive)
REMARK    1  A    between atoms: C2_4  and  C4_6 
REMARK    2  A    between atoms: C4_6  and  C5_7 
REMARK    3  A    between atoms: C11_13  and  O1_14 
ROOT
HETATM    1  C5  UNL     1     -42.850  -0.457  71.876  1.00  0.00     0.063 C 
HETATM    2  C6  UNL     1     -42.530   0.945  72.133  1.00  0.00     0.061 C 
HETATM    3  C7  UNL     1     -43.588   1.494  73.113  1.00  0.00     0.129 C 
HETATM    4  C8  UNL     1     -44.887   1.192  72.660  1.00  0.00     0.032 C 
HETATM    5  C9  UNL     1     -45.248  -0.218  73.120  1.00  0.00     0.008 C 
HETATM    6  C10 UNL     1     -44.182  -0.958  73.830  1.00  0.00     0.069 C 
HETATM    7  C11 UNL     1     -42.801  -0.925  73.310  1.00  0.00     0.167 C 
HETATM    8  O2  UNL     1     -41.885  -0.141  73.978  1.00  0.00    -0.342 OA
HETATM    9  C12 UNL     1     -41.464   0.921  73.193  1.00  0.00     0.089 C 
HETATM   10  C13 UNL     1     -40.069   0.885  72.750  1.00  0.00     0.049 C 
HETATM   11  C14 UNL     1     -41.776   2.287  73.834  1.00  0.00     0.206 C 
HETATM   12  O3  UNL     1     -43.008   2.720  73.258  1.00  0.00    -0.382 OA
ENDROOT
BRANCH   1  13
HETATM   13  C4  UNL     1     -41.936  -1.242  71.011  1.00  0.00     0.062 C 
BRANCH  13  14
HETATM   14  C2  UNL     1     -42.325  -1.306  69.602  1.00  0.00    -0.022 C 
HETATM   15  N1  UNL     1     -43.502  -0.979  69.254  1.00  0.00    -0.401 N 
HETATM   16  C1  UNL     1     -43.904  -1.030  67.887  1.00  0.00     0.145 C 
ATOM     17  H1  UNL     1     -44.170  -0.676  69.964  1.00  0.00     0.158 HD
HETATM   18  C3  UNL     1     -41.368  -1.743  68.559  1.00  0.00     0.062 C 
ENDBRANCH  13  14
ENDBRANCH   1  13
BRANCH   7  19
HETATM   19  O1  UNL     1     -42.233  -2.224  73.273  1.00  0.00    -0.365 OA
ATOM     20  H1  UNL     1     -42.134  -2.490  74.179  1.00  0.00     0.213 HD
ENDBRANCH   7  19
TORSDOF 3
ENDMDL
MODEL 4
REMARK VINA RESULT: -6.961138214      1.658      2.533
REMARK  3 active torsions:
REMARK  status: ('A' for Active; 'I' for Inactive)
REMARK    1  A    between atoms: C2_4  and  C4_6 
REMARK    2  A    between atoms: C4_6  and  C5_7 
REMARK    3  A    between atoms: C11_13  and  O1_14 
ROOT
HETATM    1  C5  UNL     1     -42.673   0.484  71.884  1.00  0.00     0.063 C 
HETATM    2  C6  UNL     1     -43.030  -0.904  72.170  1.00  0.00     0.061 C 
HETATM    3  C7  UNL     1     -41.971  -1.468  73.141  1.00  0.00     0.129 C 
HETATM    4  C8  UNL     1     -40.672  -1.212  72.661  1.00  0.00     0.032 C 
HETATM    5  C9  UNL     1     -40.262   0.195  73.090  1.00  0.00     0.008 C 
HETATM    6  C10 UNL     1     -41.294   0.978  73.806  1.00  0.00     0.069 C 
HETATM    7  C11 UNL     1     -42.684   0.977  73.310  1.00  0.00     0.167 C 
HETATM    8  O2  UNL     1     -43.611   0.230  74.007  1.00  0.00    -0.342 OA
HETATM    9  C12 UNL     1     -44.076  -0.831  73.247  1.00  0.00     0.089 C 
HETATM   10  C13 UNL     1     -45.477  -0.762  72.828  1.00  0.00     0.049 C 
HETATM   11  C14 UNL     1     -43.792  -2.195  73.906  1.00  0.00     0.206 C 
HETATM   12  O3  UNL     1     -42.583  -2.674  73.316  1.00  0.00    -0.382 OA
ENDROOT
BRANCH   1  13
HETATM   13  C4  UNL     1     -43.579   1.281  71.021  1.00  0.00     0.062 C 
BRANCH  13  14
HETATM   14  C2  UNL     1     -43.197   1.335  69.610  1.00  0.00    -0.022 C 
HETATM   15  N1  UNL     1     -42.003   1.071  69.266  1.00  0.00    -0.401 N 
HETATM   16  C1  UNL     1     -41.607   1.113  67.897  1.00  0.00     0.145 C 
ATOM     17  H1  UNL     1     -41.318   0.825  69.981  1.00  0.00     0.158 HD
HETATM   18  C3  UNL     1     -44.180   1.688  68.560  1.00  0.00     0.062 C 
ENDBRANCH  13  14
ENDBRANCH   1  13
BRANCH   7  19
HETATM   19  O1  UNL     1     -43.214   2.291  73.260  1.00  0.00    -0.365 OA
ATOM     20  H1  UNL     1     -43.936   2.303  73.878  1.00  0.00     0.213 HD
ENDBRANCH   7  19
TORSDOF 3
ENDMDL
MODEL 5
REMARK VINA RESULT: -6.847658018      1.814      3.482
REMARK  3 active torsions:
REMARK  status: ('A' for Active; 'I' for Inactive)
REMARK    1  A    between atoms: C2_4  and  C4_6 
REMARK    2  A    between atoms: C4_6  and  C5_7 
REMARK    3  A    between atoms: C11_13  and  O1_14 
ROOT
HETATM    1  C5  UNL     1     -43.412  -0.190  71.203  1.00  0.00     0.063 C 
HETATM    2  C6  UNL     1     -42.123   0.318  71.668  1.00  0.00     0.061 C 
HETATM    3  C7  UNL     1     -42.402   1.392  72.739  1.00  0.00     0.129 C 
HETATM    4  C8  UNL     1     -43.342   2.330  72.268  1.00  0.00     0.032 C 
HETATM    5  C9  UNL     1     -44.745   1.777  72.511  1.00  0.00     0.008 C 
HETATM    6  C10 UNL     1     -44.811   0.413  73.079  1.00  0.00     0.069 C 
HETATM    7  C11 UNL     1     -43.929  -0.643  72.546  1.00  0.00     0.167 C 
HETATM    8  O2  UNL     1     -42.844  -1.016  73.311  1.00  0.00    -0.342 OA
HETATM    9  C12 UNL     1     -41.651  -0.677  72.692  1.00  0.00     0.089 C 
HETATM   10  C13 UNL     1     -40.825  -1.791  72.225  1.00  0.00     0.049 C 
HETATM   11  C14 UNL     1     -40.800   0.287  73.542  1.00  0.00     0.206 C 
HETATM   12  O3  UNL     1     -41.093   1.599  73.062  1.00  0.00    -0.382 OA
ENDROOT
BRANCH   1  13
HETATM   13  C4  UNL     1     -43.420  -1.292  70.211  1.00  0.00     0.062 C 
BRANCH  13  14
HETATM   14  C2  UNL     1     -42.715  -1.003  68.962  1.00  0.00    -0.022 C 
HETATM   15  N1  UNL     1     -43.175  -0.130  68.163  1.00  0.00    -0.401 N 
HETATM   16  C1  UNL     1     -42.506   0.173  66.941  1.00  0.00     0.145 C 
ATOM     17  H1  UNL     1     -44.038   0.362  68.399  1.00  0.00     0.158 HD
HETATM   18  C3  UNL     1     -41.462  -1.706  68.605  1.00  0.00     0.062 C 
ENDBRANCH  13  14
ENDBRANCH   1  13
BRANCH   7  19
HETATM   19  O1  UNL     1     -44.648  -1.840  72.299  1.00  0.00    -0.365 OA
ATOM     20  H1  UNL     1     -44.982  -2.121  73.142  1.00  0.00     0.213 HD
ENDBRANCH   7  19
TORSDOF 3
ENDMDL
