MODEL 1
REMARK VINA RESULT: -6.761036313      0.000      0.000
REMARK  4 active torsions:
REMARK  status: ('A' for Active; 'I' for Inactive)
REMARK    1  A    between atoms: N1_2  and  C2_4 
REMARK    2  A    between atoms: C2_4  and  C3_5 
REMARK    3  A    between atoms: C2_4  and  C8_12 
REMARK    4  A    between atoms: C2_4  and  C12_17 
ROOT
HETATM    1  C2  UNL     1     -21.432   0.656 -24.449  1.00  0.00     0.179 C 
ENDROOT
BRANCH   1   2
HETATM    2  N1  UNL     1     -20.160   1.228 -24.170  1.00  0.00    -0.404 N 
HETATM    3  C1  UNL     1     -19.146   0.475 -23.579  1.00  0.00     0.141 C 
ATOM      4  H1  UNL     1     -19.987   2.205 -24.405  1.00  0.00     0.154 HD
ENDBRANCH   1   2
BRANCH   1   5
HETATM    5  C3  UNL     1     -21.469   0.265 -25.886  1.00  0.00    -0.004 A 
HETATM    6  C4  UNL     1     -22.361  -0.605 -26.454  1.00  0.00     0.013 A 
HETATM    7  C5  UNL     1     -22.337  -0.917 -27.814  1.00  0.00     0.018 A 
HETATM    8  C6  UNL     1     -21.407  -0.350 -28.630  1.00  0.00     0.087 A 
HETATM    9  N2  UNL     1     -20.535   0.496 -28.096  1.00  0.00    -0.375 N 
HETATM   10  C7  UNL     1     -20.540   0.809 -26.781  1.00  0.00     0.097 A 
ATOM     11  H2  UNL     1     -19.835   0.926 -28.700  1.00  0.00     0.164 HD
ENDBRANCH   1   5
BRANCH   1  12
HETATM   12  C8  UNL     1     -21.756  -0.565 -23.673  1.00  0.00     0.163 C 
HETATM   13  C9  UNL     1     -20.667  -1.661 -23.943  1.00  0.00     0.037 C 
HETATM   14  C10 UNL     1     -21.153  -2.674 -22.918  1.00  0.00     0.029 C 
HETATM   15  C11 UNL     1     -21.743  -1.807 -21.849  1.00  0.00     0.168 C 
HETATM   16  O1  UNL     1     -21.632  -0.476 -22.287  1.00  0.00    -0.383 OA
ENDBRANCH   1  12
BRANCH   1  17
HETATM   17  C12 UNL     1     -22.486   1.741 -24.277  1.00  0.00     0.419 C 
HETATM   18  F1  UNL     1     -23.700   1.240 -23.869  1.00  0.00    -0.168 F 
HETATM   19  F2  UNL     1     -22.725   2.473 -25.414  1.00  0.00    -0.168 F 
HETATM   20  F3  UNL     1     -21.982   2.662 -23.344  1.00  0.00    -0.168 F 
ENDBRANCH   1  17
TORSDOF 4
ENDMDL
MODEL 2
REMARK VINA RESULT: -6.759158225      2.553      3.531
REMARK  4 active torsions:
REMARK  status: ('A' for Active; 'I' for Inactive)
REMARK    1  A    between atoms: N1_2  and  C2_4 
REMARK    2  A    between atoms: C2_4  and  C3_5 
REMARK    3  A    between atoms: C2_4  and  C8_12 
REMARK    4  A    between atoms: C2_4  and  C12_17 
ROOT
HETATM    1  C2  UNL     1     -21.113  -0.657 -24.465  1.00  0.00     0.179 C 
ENDROOT
BRANCH   1   2
HETATM    2  N1  UNL     1     -22.387  -1.228 -24.191  1.00  0.00    -0.404 N 
HETATM    3  C1  UNL     1     -23.392  -0.483 -23.573  1.00  0.00     0.141 C 
ATOM      4  H1  UNL     1     -22.568  -2.198 -24.449  1.00  0.00     0.154 HD
ENDBRANCH   1   2
BRANCH   1   5
HETATM    5  C3  UNL     1     -21.072  -0.264 -25.902  1.00  0.00    -0.004 A 
HETATM    6  C4  UNL     1     -20.178   0.607 -26.466  1.00  0.00     0.013 A 
HETATM    7  C5  UNL     1     -20.198   0.920 -27.826  1.00  0.00     0.018 A 
HETATM    8  C6  UNL     1     -21.126   0.355 -28.646  1.00  0.00     0.087 A 
HETATM    9  N2  UNL     1     -22.000  -0.492 -28.115  1.00  0.00    -0.375 N 
HETATM   10  C7  UNL     1     -21.999  -0.807 -26.801  1.00  0.00     0.097 A 
ATOM     11  H2  UNL     1     -22.699  -0.920 -28.722  1.00  0.00     0.164 HD
ENDBRANCH   1   5
BRANCH   1  12
HETATM   12  C8  UNL     1     -20.791   0.563 -23.687  1.00  0.00     0.163 C 
HETATM   13  C9  UNL     1     -21.879   1.659 -23.955  1.00  0.00     0.037 C 
HETATM   14  C10 UNL     1     -21.394   2.669 -22.928  1.00  0.00     0.029 C 
HETATM   15  C11 UNL     1     -20.804   1.801 -21.861  1.00  0.00     0.168 C 
HETATM   16  O1  UNL     1     -20.915   0.470 -22.302  1.00  0.00    -0.383 OA
ENDBRANCH   1  12
BRANCH   1  17
HETATM   17  C12 UNL     1     -20.061  -1.744 -24.293  1.00  0.00     0.419 C 
HETATM   18  F1  UNL     1     -18.849  -1.246 -23.875  1.00  0.00    -0.168 F 
HETATM   19  F2  UNL     1     -19.815  -2.470 -25.432  1.00  0.00    -0.168 F 
HETATM   20  F3  UNL     1     -20.571  -2.668 -23.367  1.00  0.00    -0.168 F 
ENDBRANCH   1  17
TORSDOF 4
ENDMDL
MODEL 3
REMARK VINA RESULT: -6.756900842      0.649      1.098
REMARK  4 active torsions:
REMARK  status: ('A' for Active; 'I' for Inactive)
REMARK    1  A    between atoms: N1_2  and  C2_4 
REMARK    2  A    between atoms: C2_4  and  C3_5 
REMARK    3  A    between atoms: C2_4  and  C8_12 
REMARK    4  A    between atoms: C2_4  and  C12_17 
ROOT
HETATM    1  C2  UNL     1     -21.436   0.673 -24.350  1.00  0.00     0.179 C 
ENDROOT
BRANCH   1   2
HETATM    2  N1  UNL     1     -20.184   1.261 -24.017  1.00  0.00    -0.404 N 
HETATM    3  C1  UNL     1     -19.099   0.473 -23.631  1.00  0.00     0.141 C 
ATOM      4  H1  UNL     1     -20.077   2.274 -24.060  1.00  0.00     0.154 HD
ENDBRANCH   1   2
BRANCH   1   5
HETATM    5  C3  UNL     1     -21.413   0.301 -25.793  1.00  0.00    -0.004 A 
HETATM    6  C4  UNL     1     -20.547   0.795 -26.731  1.00  0.00     0.013 A 
HETATM    7  C5  UNL     1     -20.583   0.390 -28.066  1.00  0.00     0.018 A 
HETATM    8  C6  UNL     1     -21.499  -0.527 -28.480  1.00  0.00     0.087 A 
HETATM    9  N2  UNL     1     -22.347  -1.016 -27.582  1.00  0.00    -0.375 N 
HETATM   10  C7  UNL     1     -22.330  -0.636 -26.286  1.00  0.00     0.097 A 
ATOM     11  H2  UNL     1     -23.037  -1.704 -27.883  1.00  0.00     0.164 HD
ENDBRANCH   1   5
BRANCH   1  12
HETATM   12  C8  UNL     1     -21.769  -0.563 -23.602  1.00  0.00     0.163 C 
HETATM   13  C9  UNL     1     -20.677  -1.653 -23.880  1.00  0.00     0.037 C 
HETATM   14  C10 UNL     1     -21.176  -2.685 -22.881  1.00  0.00     0.029 C 
HETATM   15  C11 UNL     1     -21.779  -1.840 -21.803  1.00  0.00     0.168 C 
HETATM   16  O1  UNL     1     -21.662  -0.500 -22.214  1.00  0.00    -0.383 OA
ENDBRANCH   1  12
BRANCH   1  17
HETATM   17  C12 UNL     1     -22.512   1.740 -24.205  1.00  0.00     0.419 C 
HETATM   18  F1  UNL     1     -23.731   1.217 -23.841  1.00  0.00    -0.168 F 
HETATM   19  F2  UNL     1     -22.725   2.478 -25.342  1.00  0.00    -0.168 F 
HETATM   20  F3  UNL     1     -22.054   2.660 -23.247  1.00  0.00    -0.168 F 
ENDBRANCH   1  17
TORSDOF 4
ENDMDL
MODEL 4
REMARK VINA RESULT: -6.721310524      2.485      3.871
REMARK  4 active torsions:
REMARK  status: ('A' for Active; 'I' for Inactive)
REMARK    1  A    between atoms: N1_2  and  C2_4 
REMARK    2  A    between atoms: C2_4  and  C3_5 
REMARK    3  A    between atoms: C2_4  and  C8_12 
REMARK    4  A    between atoms: C2_4  and  C12_17 
ROOT
HETATM    1  C2  UNL     1     -21.213   0.298 -24.389  1.00  0.00     0.179 C 
ENDROOT
BRANCH   1   2
HETATM    2  N1  UNL     1     -21.878  -0.225 -23.245  1.00  0.00    -0.404 N 
HETATM    3  C1  UNL     1     -23.229  -0.567 -23.292  1.00  0.00     0.141 C 
ATOM      4  H1  UNL     1     -21.358  -0.351 -22.377  1.00  0.00     0.154 HD
ENDBRANCH   1   2
BRANCH   1   5
HETATM    5  C3  UNL     1     -20.589  -0.834 -25.131  1.00  0.00    -0.004 A 
HETATM    6  C4  UNL     1     -20.644  -1.027 -26.486  1.00  0.00     0.013 A 
HETATM    7  C5  UNL     1     -20.026  -2.112 -27.110  1.00  0.00     0.018 A 
HETATM    8  C6  UNL     1     -19.337  -3.025 -26.374  1.00  0.00     0.087 A 
HETATM    9  N2  UNL     1     -19.274  -2.853 -25.059  1.00  0.00    -0.375 N 
HETATM   10  C7  UNL     1     -19.867  -1.811 -24.435  1.00  0.00     0.097 A 
ATOM     11  H2  UNL     1     -18.760  -3.532 -24.499  1.00  0.00     0.164 HD
ENDBRANCH   1   5
BRANCH   1  12
HETATM   12  C8  UNL     1     -22.087   1.003 -25.357  1.00  0.00     0.163 C 
HETATM   13  C9  UNL     1     -22.607   2.337 -24.718  1.00  0.00     0.037 C 
HETATM   14  C10 UNL     1     -23.293   2.891 -25.957  1.00  0.00     0.029 C 
HETATM   15  C11 UNL     1     -22.460   2.340 -27.071  1.00  0.00     0.168 C 
HETATM   16  O1  UNL     1     -21.468   1.533 -26.487  1.00  0.00    -0.383 OA
ENDBRANCH   1  12
BRANCH   1  17
HETATM   17  C12 UNL     1     -20.064   1.174 -23.909  1.00  0.00     0.419 C 
HETATM   18  F1  UNL     1     -20.493   2.374 -23.393  1.00  0.00    -0.168 F 
HETATM   19  F2  UNL     1     -19.143   1.471 -24.882  1.00  0.00    -0.168 F 
HETATM   20  F3  UNL     1     -19.358   0.435 -22.945  1.00  0.00    -0.168 F 
ENDBRANCH   1  17
TORSDOF 4
ENDMDL
MODEL 5
REMARK VINA RESULT: -6.712670696      2.418      3.260
REMARK  4 active torsions:
REMARK  status: ('A' for Active; 'I' for Inactive)
REMARK    1  A    between atoms: N1_2  and  C2_4 
REMARK    2  A    between atoms: C2_4  and  C3_5 
REMARK    3  A    between atoms: C2_4  and  C8_12 
REMARK    4  A    between atoms: C2_4  and  C12_17 
ROOT
HETATM    1  C2  UNL     1     -21.294  -0.319 -24.391  1.00  0.00     0.179 C 
ENDROOT
BRANCH   1   2
HETATM    2  N1  UNL     1     -20.605   0.201 -23.260  1.00  0.00    -0.404 N 
HETATM    3  C1  UNL     1     -19.293   0.662 -23.366  1.00  0.00     0.141 C 
ATOM      4  H1  UNL     1     -21.078   0.238 -22.358  1.00  0.00     0.154 HD
ENDBRANCH   1   2
BRANCH   1   5
HETATM    5  C3  UNL     1     -21.926   0.815 -25.122  1.00  0.00    -0.004 A 
HETATM    6  C4  UNL     1     -21.879   1.017 -26.476  1.00  0.00     0.013 A 
HETATM    7  C5  UNL     1     -22.505   2.103 -27.090  1.00  0.00     0.018 A 
HETATM    8  C6  UNL     1     -23.194   3.009 -26.344  1.00  0.00     0.087 A 
HETATM    9  N2  UNL     1     -23.250   2.827 -25.030  1.00  0.00    -0.375 N 
HETATM   10  C7  UNL     1     -22.649   1.784 -24.416  1.00  0.00     0.097 A 
ATOM     11  H2  UNL     1     -23.764   3.501 -24.463  1.00  0.00     0.164 HD
ENDBRANCH   1   5
BRANCH   1  12
HETATM   12  C8  UNL     1     -20.442  -1.030 -25.374  1.00  0.00     0.163 C 
HETATM   13  C9  UNL     1     -19.883  -2.345 -24.730  1.00  0.00     0.037 C 
HETATM   14  C10 UNL     1     -19.230  -2.912 -25.980  1.00  0.00     0.029 C 
HETATM   15  C11 UNL     1     -20.106  -2.392 -27.077  1.00  0.00     0.168 C 
HETATM   16  O1  UNL     1     -21.090  -1.588 -26.475  1.00  0.00    -0.383 OA
ENDBRANCH   1  12
BRANCH   1  17
HETATM   17  C12 UNL     1     -22.438  -1.189 -23.888  1.00  0.00     0.419 C 
HETATM   18  F1  UNL     1     -22.006  -2.399 -23.396  1.00  0.00    -0.168 F 
HETATM   19  F2  UNL     1     -23.387  -1.469 -24.839  1.00  0.00    -0.168 F 
HETATM   20  F3  UNL     1     -23.110  -0.454 -22.898  1.00  0.00    -0.168 F 
ENDBRANCH   1  17
TORSDOF 4
ENDMDL
