MODEL 1
REMARK VINA RESULT: -5.682791626      0.000      0.000
REMARK  5 active torsions:
REMARK  status: ('A' for Active; 'I' for Inactive)
REMARK    1  A    between atoms: C2_2  and  N1_4 
REMARK    2  A    between atoms: C2_2  and  O1_12 
REMARK    3  A    between atoms: O1_12  and  C7_13 
REMARK    4  A    between atoms: C7_13  and  C8_14 
REMARK    5  A    between atoms: C8_14  and  C9_15 
ROOT
HETATM    1  C1  UNL     1     -20.175  -1.857 -26.854  1.00  0.00     0.070 C 
HETATM    2  C2  UNL     1     -21.209  -0.746 -26.592  1.00  0.00     0.128 C 
HETATM    3  C3  UNL     1     -22.266  -1.027 -27.699  1.00  0.00     0.070 C 
ENDROOT
BRANCH   2   4
HETATM    4  N1  UNL     1     -21.882  -0.965 -25.388  1.00  0.00    -0.340 N 
HETATM    5  C4  UNL     1     -21.549  -0.826 -24.193  1.00  0.00     0.142 C 
HETATM    6  N2  UNL     1     -22.333  -1.086 -23.032  1.00  0.00    -0.350 N 
HETATM    7  S1  UNL     1     -19.992  -0.238 -23.544  1.00  0.00    -0.089 SA
HETATM    8  C5  UNL     1     -22.020  -0.334 -21.905  1.00  0.00     0.073 C 
ATOM      9  H2  UNL     1     -23.080  -1.781 -23.029  1.00  0.00     0.167 HD
HETATM   10  C6  UNL     1     -20.640   0.149 -21.878  1.00  0.00     0.127 C 
ATOM     11  H1  UNL     1     -22.836  -1.307 -25.510  1.00  0.00     0.164 HD
ENDBRANCH   2   4
BRANCH   2  12
HETATM   12  O1  UNL     1     -20.573   0.424 -26.839  1.00  0.00    -0.361 OA
BRANCH  12  13
HETATM   13  C7  UNL     1     -20.660   1.042 -28.023  1.00  0.00     0.179 C 
BRANCH  13  14
HETATM   14  C8  UNL     1     -19.447   1.082 -28.903  1.00  0.00     0.144 C 
BRANCH  14  15
HETATM   15  C9  UNL     1     -18.825   2.433 -29.031  1.00  0.00     0.389 C 
HETATM   16  F1  UNL     1     -19.840   3.381 -29.132  1.00  0.00    -0.171 F 
HETATM   17  F2  UNL     1     -17.960   2.806 -28.075  1.00  0.00    -0.171 F 
HETATM   18  F3  UNL     1     -18.144   2.441 -30.265  1.00  0.00    -0.171 F 
ENDBRANCH  14  15
ENDBRANCH  13  14
ENDBRANCH  12  13
ENDBRANCH   2  12
TORSDOF 5
ENDMDL
MODEL 2
REMARK VINA RESULT: -5.671653940      3.846      4.836
REMARK  5 active torsions:
REMARK  status: ('A' for Active; 'I' for Inactive)
REMARK    1  A    between atoms: C2_2  and  N1_4 
REMARK    2  A    between atoms: C2_2  and  O1_12 
REMARK    3  A    between atoms: O1_12  and  C7_13 
REMARK    4  A    between atoms: C7_13  and  C8_14 
REMARK    5  A    between atoms: C8_14  and  C9_15 
ROOT
HETATM    1  C1  UNL     1     -22.208   1.588 -27.117  1.00  0.00     0.070 C 
HETATM    2  C2  UNL     1     -21.613   0.228 -27.526  1.00  0.00     0.128 C 
HETATM    3  C3  UNL     1     -20.697   0.627 -28.719  1.00  0.00     0.070 C 
ENDROOT
BRANCH   2   4
HETATM    4  N1  UNL     1     -20.740  -0.250 -26.547  1.00  0.00    -0.340 N 
HETATM    5  C4  UNL     1     -20.920  -0.689 -25.392  1.00  0.00     0.142 C 
HETATM    6  N2  UNL     1     -19.936  -1.154 -24.472  1.00  0.00    -0.350 N 
HETATM    7  S1  UNL     1     -22.465  -0.900 -24.521  1.00  0.00    -0.089 SA
HETATM    8  C5  UNL     1     -20.364  -2.107 -23.554  1.00  0.00     0.073 C 
ATOM      9  H2  UNL     1     -18.976  -0.809 -24.487  1.00  0.00     0.167 HD
HETATM   10  C6  UNL     1     -21.798  -2.061 -23.275  1.00  0.00     0.127 C 
ATOM     11  H1  UNL     1     -19.760  -0.236 -26.832  1.00  0.00     0.164 HD
ENDBRANCH   2   4
BRANCH   2  12
HETATM   12  O1  UNL     1     -22.654  -0.519 -27.965  1.00  0.00    -0.361 OA
BRANCH  12  13
HETATM   13  C7  UNL     1     -22.473  -1.629 -28.692  1.00  0.00     0.179 C 
BRANCH  13  14
HETATM   14  C8  UNL     1     -23.287  -1.812 -29.937  1.00  0.00     0.144 C 
BRANCH  14  15
HETATM   15  C9  UNL     1     -24.742  -2.041 -29.693  1.00  0.00     0.389 C 
HETATM   16  F1  UNL     1     -25.344  -0.816 -29.418  1.00  0.00    -0.171 F 
HETATM   17  F2  UNL     1     -25.435  -2.674 -30.652  1.00  0.00    -0.171 F 
HETATM   18  F3  UNL     1     -24.830  -2.806 -28.512  1.00  0.00    -0.171 F 
ENDBRANCH  14  15
ENDBRANCH  13  14
ENDBRANCH  12  13
ENDBRANCH   2  12
TORSDOF 5
ENDMDL
MODEL 3
REMARK VINA RESULT: -5.671053782      0.777      1.235
REMARK  5 active torsions:
REMARK  status: ('A' for Active; 'I' for Inactive)
REMARK    1  A    between atoms: C2_2  and  N1_4 
REMARK    2  A    between atoms: C2_2  and  O1_12 
REMARK    3  A    between atoms: O1_12  and  C7_13 
REMARK    4  A    between atoms: C7_13  and  C8_14 
REMARK    5  A    between atoms: C8_14  and  C9_15 
ROOT
HETATM    1  C1  UNL     1     -20.170  -1.761 -27.162  1.00  0.00     0.070 C 
HETATM    2  C2  UNL     1     -21.279  -0.703 -27.015  1.00  0.00     0.128 C 
HETATM    3  C3  UNL     1     -22.275  -1.129 -28.132  1.00  0.00     0.070 C 
ENDROOT
BRANCH   2   4
HETATM    4  N1  UNL     1     -21.981  -0.879 -25.821  1.00  0.00    -0.340 N 
HETATM    5  C4  UNL     1     -21.652  -0.775 -24.620  1.00  0.00     0.142 C 
HETATM    6  N2  UNL     1     -22.468  -0.983 -23.471  1.00  0.00    -0.350 N 
HETATM    7  S1  UNL     1     -20.063  -0.312 -23.949  1.00  0.00    -0.089 SA
HETATM    8  C5  UNL     1     -22.112  -0.265 -22.334  1.00  0.00     0.073 C 
ATOM      9  H2  UNL     1     -23.265  -1.619 -23.482  1.00  0.00     0.167 HD
HETATM   10  C6  UNL     1     -20.699   0.110 -22.287  1.00  0.00     0.127 C 
ATOM     11  H1  UNL     1     -22.956  -1.147 -25.956  1.00  0.00     0.164 HD
ENDBRANCH   2   4
BRANCH   2  12
HETATM   12  O1  UNL     1     -20.708   0.485 -27.326  1.00  0.00    -0.361 OA
BRANCH  12  13
HETATM   13  C7  UNL     1     -20.493   0.858 -28.593  1.00  0.00     0.179 C 
BRANCH  13  14
HETATM   14  C8  UNL     1     -19.834   2.179 -28.851  1.00  0.00     0.144 C 
BRANCH  14  15
HETATM   15  C9  UNL     1     -18.384   2.086 -29.194  1.00  0.00     0.389 C 
HETATM   16  F1  UNL     1     -17.967   0.772 -29.006  1.00  0.00    -0.171 F 
HETATM   17  F2  UNL     1     -18.013   2.502 -30.415  1.00  0.00    -0.171 F 
HETATM   18  F3  UNL     1     -17.700   2.865 -28.239  1.00  0.00    -0.171 F 
ENDBRANCH  14  15
ENDBRANCH  13  14
ENDBRANCH  12  13
ENDBRANCH   2  12
TORSDOF 5
ENDMDL
MODEL 4
REMARK VINA RESULT: -5.670237448      3.663      4.419
REMARK  5 active torsions:
REMARK  status: ('A' for Active; 'I' for Inactive)
REMARK    1  A    between atoms: C2_2  and  N1_4 
REMARK    2  A    between atoms: C2_2  and  O1_12 
REMARK    3  A    between atoms: O1_12  and  C7_13 
REMARK    4  A    between atoms: C7_13  and  C8_14 
REMARK    5  A    between atoms: C8_14  and  C9_15 
ROOT
HETATM    1  C1  UNL     1     -22.358   1.821 -26.887  1.00  0.00     0.070 C 
HETATM    2  C2  UNL     1     -21.292   0.741 -26.624  1.00  0.00     0.128 C 
HETATM    3  C3  UNL     1     -20.232   1.068 -27.716  1.00  0.00     0.070 C 
ENDROOT
BRANCH   2   4
HETATM    4  N1  UNL     1     -20.640   0.970 -25.411  1.00  0.00    -0.340 N 
HETATM    5  C4  UNL     1     -20.987   0.822 -24.220  1.00  0.00     0.142 C 
HETATM    6  N2  UNL     1     -20.224   1.094 -23.048  1.00  0.00    -0.350 N 
HETATM    7  S1  UNL     1     -22.542   0.205 -23.594  1.00  0.00    -0.089 SA
HETATM    8  C5  UNL     1     -20.539   0.334 -21.927  1.00  0.00     0.073 C 
ATOM      9  H2  UNL     1     -19.490   1.802 -23.033  1.00  0.00     0.167 HD
HETATM   10  C6  UNL     1     -21.911  -0.173 -21.920  1.00  0.00     0.127 C 
ATOM     11  H1  UNL     1     -19.691   1.329 -25.518  1.00  0.00     0.164 HD
ENDBRANCH   2   4
BRANCH   2  12
HETATM   12  O1  UNL     1     -21.886  -0.446 -26.890  1.00  0.00    -0.361 OA
BRANCH  12  13
HETATM   13  C7  UNL     1     -21.642  -1.125 -28.018  1.00  0.00     0.179 C 
BRANCH  13  14
HETATM   14  C8  UNL     1     -22.696  -1.153 -29.082  1.00  0.00     0.144 C 
BRANCH  14  15
HETATM   15  C9  UNL     1     -23.503  -2.409 -29.114  1.00  0.00     0.389 C 
HETATM   16  F1  UNL     1     -22.633  -3.496 -29.101  1.00  0.00    -0.171 F 
HETATM   17  F2  UNL     1     -24.431  -2.569 -28.159  1.00  0.00    -0.171 F 
HETATM   18  F3  UNL     1     -24.153  -2.430 -30.365  1.00  0.00    -0.171 F 
ENDBRANCH  14  15
ENDBRANCH  13  14
ENDBRANCH  12  13
ENDBRANCH   2  12
TORSDOF 5
ENDMDL
MODEL 5
REMARK VINA RESULT: -5.642064461      3.593      4.535
REMARK  5 active torsions:
REMARK  status: ('A' for Active; 'I' for Inactive)
REMARK    1  A    between atoms: C2_2  and  N1_4 
REMARK    2  A    between atoms: C2_2  and  O1_12 
REMARK    3  A    between atoms: O1_12  and  C7_13 
REMARK    4  A    between atoms: C7_13  and  C8_14 
REMARK    5  A    between atoms: C8_14  and  C9_15 
ROOT
HETATM    1  C1  UNL     1     -22.318   1.710 -27.188  1.00  0.00     0.070 C 
HETATM    2  C2  UNL     1     -21.203   0.661 -27.026  1.00  0.00     0.128 C 
HETATM    3  C3  UNL     1     -20.194   1.096 -28.129  1.00  0.00     0.070 C 
ENDROOT
BRANCH   2   4
HETATM    4  N1  UNL     1     -20.519   0.842 -25.822  1.00  0.00    -0.340 N 
HETATM    5  C4  UNL     1     -20.853   0.700 -24.627  1.00  0.00     0.142 C 
HETATM    6  N2  UNL     1     -20.056   0.919 -23.466  1.00  0.00    -0.350 N 
HETATM    7  S1  UNL     1     -22.427   0.159 -23.980  1.00  0.00    -0.089 SA
HETATM    8  C5  UNL     1     -20.392   0.165 -22.348  1.00  0.00     0.073 C 
ATOM      9  H2  UNL     1     -19.287   1.588 -23.457  1.00  0.00     0.167 HD
HETATM   10  C6  UNL     1     -21.788  -0.270 -22.321  1.00  0.00     0.127 C 
ATOM     11  H1  UNL     1     -19.554   1.153 -25.943  1.00  0.00     0.164 HD
ENDBRANCH   2   4
BRANCH   2  12
HETATM   12  O1  UNL     1     -21.760  -0.531 -27.346  1.00  0.00    -0.361 OA
BRANCH  12  13
HETATM   13  C7  UNL     1     -22.043  -0.865 -28.610  1.00  0.00     0.179 C 
BRANCH  13  14
HETATM   14  C8  UNL     1     -22.683  -2.194 -28.876  1.00  0.00     0.144 C 
BRANCH  14  15
HETATM   15  C9  UNL     1     -24.121  -2.116 -29.271  1.00  0.00     0.389 C 
HETATM   16  F1  UNL     1     -24.573  -0.818 -29.049  1.00  0.00    -0.171 F 
HETATM   17  F2  UNL     1     -24.437  -2.491 -30.521  1.00  0.00    -0.171 F 
HETATM   18  F3  UNL     1     -24.824  -2.945 -28.374  1.00  0.00    -0.171 F 
ENDBRANCH  14  15
ENDBRANCH  13  14
ENDBRANCH  12  13
ENDBRANCH   2  12
TORSDOF 5
ENDMDL
