MODEL 1
REMARK VINA RESULT: -8.038945798      0.000      0.000
REMARK  12 active torsions:
REMARK  status: ('A' for Active; 'I' for Inactive)
REMARK    1  A    between atoms: C2_2  and  C3_6 
REMARK    2  A    between atoms: C3_6  and  C4_7 
REMARK    3  A    between atoms: C4_7  and  C5_8 
REMARK    4  A    between atoms: C5_8  and  N2_9 
REMARK    5  A    between atoms: C5_8  and  C6_13 
REMARK    6  A    between atoms: C6_13  and  O2_15 
REMARK    7  A    between atoms: O2_15  and  C7_16 
REMARK    8  A    between atoms: C7_16  and  C8_17 
REMARK    9  A    between atoms: C8_17  and  C9_18 
REMARK   10  A    between atoms: C8_17  and  N3_20 
REMARK       I    between atoms: N3_20  and  C10_22 
REMARK   11  A    between atoms: C10_22  and  C11_24 
REMARK   12  A    between atoms: C13_26  and  C14_27 
ROOT
HETATM    1  C8  UNL     1      42.420  10.066  20.116  1.00  0.00     0.170 C 
ENDROOT
BRANCH   1   2
HETATM    2  C7  UNL     1      43.446  11.098  19.806  1.00  0.00     0.211 C 
BRANCH   2   3
HETATM    3  O2  UNL     1      43.132  12.409  19.718  1.00  0.00    -0.317 OA
BRANCH   3   4
HETATM    4  C6  UNL     1      43.502  13.456  20.472  1.00  0.00     0.289 C 
HETATM    5  O1  UNL     1      44.059  13.299  21.578  1.00  0.00    -0.263 OA
BRANCH   4   6
HETATM    6  C5  UNL     1      43.277  14.883  20.042  1.00  0.00     0.282 C 
BRANCH   6   7
HETATM    7  C4  UNL     1      41.801  15.144  20.245  1.00  0.00     0.049 C 
BRANCH   7   8
HETATM    8  C3  UNL     1      41.108  15.606  18.994  1.00  0.00     0.054 C 
BRANCH   8   9
HETATM    9  C2  UNL     1      41.110  14.625  17.895  1.00  0.00    -0.024 C 
HETATM   10  C1  UNL     1      41.596  14.934  16.524  1.00  0.00     0.062 C 
HETATM   11  N1  UNL     1      40.667  13.452  18.151  1.00  0.00    -0.406 N 
ATOM     12  H12 UNL     1      40.668  12.772  17.391  1.00  0.00     0.155 HD
ATOM     13  H11 UNL     1      40.333  13.240  19.092  1.00  0.00     0.155 HD
ENDBRANCH   8   9
ENDBRANCH   7   8
ENDBRANCH   6   7
BRANCH   6  14
HETATM   14  N2  UNL     1      44.126  15.730  20.816  1.00  0.00    -0.066 N 
ATOM     15  H23 UNL     1      43.680  16.632  20.980  1.00  0.00     0.275 HD
ATOM     16  H22 UNL     1      44.190  15.393  21.776  1.00  0.00     0.275 HD
ATOM     17  H21 UNL     1      45.057  15.858  20.418  1.00  0.00     0.275 HD
ENDBRANCH   6  14
ENDBRANCH   4   6
ENDBRANCH   3   4
ENDBRANCH   2   3
ENDBRANCH   1   2
BRANCH   1  18
HETATM   18  C9  UNL     1      42.043   9.202  19.012  1.00  0.00     0.258 C 
HETATM   19  O3  UNL     1      40.856   9.083  18.644  1.00  0.00    -0.305 OA
ENDBRANCH   1  18
BRANCH   1  20
HETATM   20  N3  UNL     1      41.199  10.853  20.464  1.00  0.00    -0.343 N 
HETATM   21  C10 UNL     1      40.950  11.243  21.797  1.00  0.00     0.270 C 
HETATM   22  O4  UNL     1      41.784  10.908  22.682  1.00  0.00    -0.266 OA
ATOM     23  H3  UNL     1      40.540  11.113  19.730  1.00  0.00     0.163 HD
BRANCH  21  24
HETATM   24  C11 UNL     1      39.758  12.009  22.126  1.00  0.00     0.117 A 
HETATM   25  C12 UNL     1      39.736  13.386  22.377  1.00  0.00     0.063 A 
HETATM   26  C13 UNL     1      38.418  13.671  22.640  1.00  0.00     0.031 A 
HETATM   27  N4  UNL     1      37.729  12.543  22.548  1.00  0.00    -0.304 N 
HETATM   28  N5  UNL     1      38.520  11.533  22.240  1.00  0.00    -0.295 N 
ATOM     29  H4  UNL     1      36.723  12.465  22.696  1.00  0.00     0.186 HD
ATOM     30  H5  UNL     1      38.235  10.563  22.111  1.00  0.00     0.187 HD
BRANCH  26  31
HETATM   31  C14 UNL     1      37.926  15.029  22.964  1.00  0.00     0.029 C 
HETATM   32  C15 UNL     1      36.631  15.272  22.256  1.00  0.00     0.016 C 
HETATM   33  C16 UNL     1      38.973  16.004  22.438  1.00  0.00     0.016 C 
ENDBRANCH  26  31
ENDBRANCH  21  24
ENDBRANCH   1  20
TORSDOF 12
ENDMDL
MODEL 2
REMARK VINA RESULT: -7.683901846      1.578      2.195
REMARK  12 active torsions:
REMARK  status: ('A' for Active; 'I' for Inactive)
REMARK    1  A    between atoms: C2_2  and  C3_6 
REMARK    2  A    between atoms: C3_6  and  C4_7 
REMARK    3  A    between atoms: C4_7  and  C5_8 
REMARK    4  A    between atoms: C5_8  and  N2_9 
REMARK    5  A    between atoms: C5_8  and  C6_13 
REMARK    6  A    between atoms: C6_13  and  O2_15 
REMARK    7  A    between atoms: O2_15  and  C7_16 
REMARK    8  A    between atoms: C7_16  and  C8_17 
REMARK    9  A    between atoms: C8_17  and  C9_18 
REMARK   10  A    between atoms: C8_17  and  N3_20 
REMARK       I    between atoms: N3_20  and  C10_22 
REMARK   11  A    between atoms: C10_22  and  C11_24 
REMARK   12  A    between atoms: C13_26  and  C14_27 
ROOT
HETATM    1  C8  UNL     1      41.704  10.733  20.100  1.00  0.00     0.170 C 
ENDROOT
BRANCH   1   2
HETATM    2  C7  UNL     1      42.191  11.939  19.376  1.00  0.00     0.211 C 
BRANCH   2   3
HETATM    3  O2  UNL     1      43.371  12.522  19.679  1.00  0.00    -0.317 OA
BRANCH   3   4
HETATM    4  C6  UNL     1      43.688  13.442  20.603  1.00  0.00     0.289 C 
HETATM    5  O1  UNL     1      44.378  13.152  21.603  1.00  0.00    -0.263 OA
BRANCH   4   6
HETATM    6  C5  UNL     1      43.241  14.878  20.502  1.00  0.00     0.282 C 
BRANCH   6   7
HETATM    7  C4  UNL     1      42.019  14.990  21.386  1.00  0.00     0.049 C 
BRANCH   7   8
HETATM    8  C3  UNL     1      40.736  15.081  20.609  1.00  0.00     0.054 C 
BRANCH   8   9
HETATM    9  C2  UNL     1      39.959  16.307  20.853  1.00  0.00    -0.024 C 
HETATM   10  C1  UNL     1      39.157  16.535  22.085  1.00  0.00     0.062 C 
HETATM   11  N1  UNL     1      39.985  17.213  19.949  1.00  0.00    -0.406 N 
ATOM     12  H12 UNL     1      39.447  18.062  20.117  1.00  0.00     0.155 HD
ATOM     13  H11 UNL     1      40.535  17.057  19.103  1.00  0.00     0.155 HD
ENDBRANCH   8   9
ENDBRANCH   7   8
ENDBRANCH   6   7
BRANCH   6  14
HETATM   14  N2  UNL     1      44.323  15.720  20.901  1.00  0.00    -0.066 N 
ATOM     15  H23 UNL     1      45.212  15.338  20.578  1.00  0.00     0.275 HD
ATOM     16  H22 UNL     1      44.310  16.594  20.375  1.00  0.00     0.275 HD
ATOM     17  H21 UNL     1      44.355  15.904  21.903  1.00  0.00     0.275 HD
ENDBRANCH   6  14
ENDBRANCH   4   6
ENDBRANCH   3   4
ENDBRANCH   2   3
ENDBRANCH   1   2
BRANCH   1  18
HETATM   18  C9  UNL     1      41.403   9.580  19.270  1.00  0.00     0.258 C 
HETATM   19  O3  UNL     1      42.299   8.940  18.682  1.00  0.00    -0.305 OA
ENDBRANCH   1  18
BRANCH   1  20
HETATM   20  N3  UNL     1      40.405  11.163  20.700  1.00  0.00    -0.343 N 
HETATM   21  C10 UNL     1      40.343  11.605  22.039  1.00  0.00     0.270 C 
HETATM   22  O4  UNL     1      41.411  11.625  22.710  1.00  0.00    -0.266 OA
ATOM     23  H3  UNL     1      39.556  11.138  20.137  1.00  0.00     0.163 HD
BRANCH  21  24
HETATM   24  C11 UNL     1      39.074  12.021  22.616  1.00  0.00     0.117 A 
HETATM   25  C12 UNL     1      38.899  13.138  23.441  1.00  0.00     0.063 A 
HETATM   26  C13 UNL     1      37.559  13.142  23.742  1.00  0.00     0.031 A 
HETATM   27  N4  UNL     1      37.000  12.104  23.136  1.00  0.00    -0.304 N 
HETATM   28  N5  UNL     1      37.898  11.419  22.454  1.00  0.00    -0.295 N 
ATOM     29  H4  UNL     1      36.009  11.866  23.189  1.00  0.00     0.186 HD
ATOM     30  H5  UNL     1      37.723  10.580  21.902  1.00  0.00     0.187 HD
BRANCH  26  31
HETATM   31  C14 UNL     1      36.918  14.160  24.604  1.00  0.00     0.029 C 
HETATM   32  C15 UNL     1      36.092  13.481  25.649  1.00  0.00     0.016 C 
HETATM   33  C16 UNL     1      36.004  14.978  23.698  1.00  0.00     0.016 C 
ENDBRANCH  26  31
ENDBRANCH  21  24
ENDBRANCH   1  20
TORSDOF 12
ENDMDL
MODEL 3
REMARK VINA RESULT: -7.573877459      1.884      3.115
REMARK  12 active torsions:
REMARK  status: ('A' for Active; 'I' for Inactive)
REMARK    1  A    between atoms: C2_2  and  C3_6 
REMARK    2  A    between atoms: C3_6  and  C4_7 
REMARK    3  A    between atoms: C4_7  and  C5_8 
REMARK    4  A    between atoms: C5_8  and  N2_9 
REMARK    5  A    between atoms: C5_8  and  C6_13 
REMARK    6  A    between atoms: C6_13  and  O2_15 
REMARK    7  A    between atoms: O2_15  and  C7_16 
REMARK    8  A    between atoms: C7_16  and  C8_17 
REMARK    9  A    between atoms: C8_17  and  C9_18 
REMARK   10  A    between atoms: C8_17  and  N3_20 
REMARK       I    between atoms: N3_20  and  C10_22 
REMARK   11  A    between atoms: C10_22  and  C11_24 
REMARK   12  A    between atoms: C13_26  and  C14_27 
ROOT
HETATM    1  C8  UNL     1      42.423  11.764  21.605  1.00  0.00     0.170 C 
ENDROOT
BRANCH   1   2
HETATM    2  C7  UNL     1      42.334  11.338  20.181  1.00  0.00     0.211 C 
BRANCH   2   3
HETATM    3  O2  UNL     1      41.689  12.080  19.256  1.00  0.00    -0.317 OA
BRANCH   3   4
HETATM    4  C6  UNL     1      41.806  13.376  18.927  1.00  0.00     0.289 C 
HETATM    5  O1  UNL     1      42.858  14.012  19.149  1.00  0.00    -0.263 OA
BRANCH   4   6
HETATM    6  C5  UNL     1      40.691  14.150  18.272  1.00  0.00     0.282 C 
BRANCH   6   7
HETATM    7  C4  UNL     1      41.285  15.491  17.903  1.00  0.00     0.049 C 
BRANCH   7   8
HETATM    8  C3  UNL     1      40.508  16.651  18.459  1.00  0.00     0.054 C 
BRANCH   8   9
HETATM    9  C2  UNL     1      40.506  16.738  19.929  1.00  0.00    -0.024 C 
HETATM   10  C1  UNL     1      39.271  16.941  20.733  1.00  0.00     0.062 C 
HETATM   11  N1  UNL     1      41.631  16.633  20.528  1.00  0.00    -0.406 N 
ATOM     12  H12 UNL     1      41.630  16.693  21.546  1.00  0.00     0.155 HD
ATOM     13  H11 UNL     1      42.478  16.493  19.976  1.00  0.00     0.155 HD
ENDBRANCH   8   9
ENDBRANCH   7   8
ENDBRANCH   6   7
BRANCH   6  14
HETATM   14  N2  UNL     1      40.215  13.401  17.153  1.00  0.00    -0.066 N 
ATOM     15  H23 UNL     1      40.262  13.959  16.302  1.00  0.00     0.275 HD
ATOM     16  H22 UNL     1      40.873  12.661  16.911  1.00  0.00     0.275 HD
ATOM     17  H21 UNL     1      39.277  13.020  17.281  1.00  0.00     0.275 HD
ENDBRANCH   6  14
ENDBRANCH   4   6
ENDBRANCH   3   4
ENDBRANCH   2   3
ENDBRANCH   1   2
BRANCH   1  18
HETATM   18  C9  UNL     1      43.225  10.914  22.467  1.00  0.00     0.258 C 
HETATM   19  O3  UNL     1      44.298  11.309  22.968  1.00  0.00    -0.305 OA
ENDBRANCH   1  18
BRANCH   1  20
HETATM   20  N3  UNL     1      41.020  11.661  22.108  1.00  0.00    -0.343 N 
HETATM   21  C10 UNL     1      40.220  12.814  22.248  1.00  0.00     0.270 C 
HETATM   22  O4  UNL     1      40.722  13.929  21.936  1.00  0.00    -0.266 OA
ATOM     23  H3  UNL     1      40.637  10.748  22.352  1.00  0.00     0.163 HD
BRANCH  21  24
HETATM   24  C11 UNL     1      38.855  12.705  22.739  1.00  0.00     0.117 A 
HETATM   25  C12 UNL     1      38.216  13.657  23.542  1.00  0.00     0.063 A 
HETATM   26  C13 UNL     1      36.960  13.144  23.758  1.00  0.00     0.031 A 
HETATM   27  N4  UNL     1      36.879  11.981  23.125  1.00  0.00    -0.304 N 
HETATM   28  N5  UNL     1      38.011  11.703  22.508  1.00  0.00    -0.295 N 
ATOM     29  H4  UNL     1      36.053  11.382  23.117  1.00  0.00     0.186 HD
ATOM     30  H5  UNL     1      38.204  10.870  21.953  1.00  0.00     0.187 HD
BRANCH  26  31
HETATM   31  C14 UNL     1      35.927  13.826  24.568  1.00  0.00     0.029 C 
HETATM   32  C15 UNL     1      35.747  15.225  24.072  1.00  0.00     0.016 C 
HETATM   33  C16 UNL     1      36.458  13.869  25.996  1.00  0.00     0.016 C 
ENDBRANCH  26  31
ENDBRANCH  21  24
ENDBRANCH   1  20
TORSDOF 12
ENDMDL
MODEL 4
REMARK VINA RESULT: -7.455644326      2.059      5.615
REMARK  12 active torsions:
REMARK  status: ('A' for Active; 'I' for Inactive)
REMARK    1  A    between atoms: C2_2  and  C3_6 
REMARK    2  A    between atoms: C3_6  and  C4_7 
REMARK    3  A    between atoms: C4_7  and  C5_8 
REMARK    4  A    between atoms: C5_8  and  N2_9 
REMARK    5  A    between atoms: C5_8  and  C6_13 
REMARK    6  A    between atoms: C6_13  and  O2_15 
REMARK    7  A    between atoms: O2_15  and  C7_16 
REMARK    8  A    between atoms: C7_16  and  C8_17 
REMARK    9  A    between atoms: C8_17  and  C9_18 
REMARK   10  A    between atoms: C8_17  and  N3_20 
REMARK       I    between atoms: N3_20  and  C10_22 
REMARK   11  A    between atoms: C10_22  and  C11_24 
REMARK   12  A    between atoms: C13_26  and  C14_27 
ROOT
HETATM    1  C8  UNL     1      43.079  11.336  21.379  1.00  0.00     0.170 C 
ENDROOT
BRANCH   1   2
HETATM    2  C7  UNL     1      41.734  10.816  21.009  1.00  0.00     0.211 C 
BRANCH   2   3
HETATM    3  O2  UNL     1      40.654  11.013  21.796  1.00  0.00    -0.317 OA
BRANCH   3   4
HETATM    4  C6  UNL     1      39.813  12.054  21.892  1.00  0.00     0.289 C 
HETATM    5  O1  UNL     1      39.871  13.015  21.097  1.00  0.00    -0.263 OA
BRANCH   4   6
HETATM    6  C5  UNL     1      38.747  12.138  22.955  1.00  0.00     0.282 C 
BRANCH   6   7
HETATM    7  C4  UNL     1      38.562  13.613  23.233  1.00  0.00     0.049 C 
BRANCH   7   8
HETATM    8  C3  UNL     1      37.598  13.884  24.355  1.00  0.00     0.054 C 
BRANCH   8   9
HETATM    9  C2  UNL     1      36.232  14.219  23.919  1.00  0.00    -0.024 C 
HETATM   10  C1  UNL     1      35.937  15.042  22.715  1.00  0.00     0.062 C 
HETATM   11  N1  UNL     1      35.261  13.772  24.623  1.00  0.00    -0.406 N 
ATOM     12  H12 UNL     1      34.315  14.004  24.322  1.00  0.00     0.155 HD
ATOM     13  H11 UNL     1      35.464  13.207  25.449  1.00  0.00     0.155 HD
ENDBRANCH   8   9
ENDBRANCH   7   8
ENDBRANCH   6   7
BRANCH   6  14
HETATM   14  N2  UNL     1      37.571  11.489  22.472  1.00  0.00    -0.066 N 
ATOM     15  H23 UNL     1      36.827  11.530  23.168  1.00  0.00     0.275 HD
ATOM     16  H22 UNL     1      37.140  12.035  21.726  1.00  0.00     0.275 HD
ATOM     17  H21 UNL     1      37.726  10.527  22.169  1.00  0.00     0.275 HD
ENDBRANCH   6  14
ENDBRANCH   4   6
ENDBRANCH   3   4
ENDBRANCH   2   3
ENDBRANCH   1   2
BRANCH   1  18
HETATM   18  C9  UNL     1      43.578  10.921  22.679  1.00  0.00     0.258 C 
HETATM   19  O3  UNL     1      44.723  11.225  23.072  1.00  0.00    -0.305 OA
ENDBRANCH   1  18
BRANCH   1  20
HETATM   20  N3  UNL     1      42.892  12.816  21.459  1.00  0.00    -0.343 N 
HETATM   21  C10 UNL     1      43.548  13.673  20.550  1.00  0.00     0.270 C 
HETATM   22  O4  UNL     1      44.293  13.155  19.674  1.00  0.00    -0.266 OA
ATOM     23  H3  UNL     1      42.284  13.210  22.176  1.00  0.00     0.163 HD
BRANCH  21  24
HETATM   24  C11 UNL     1      43.361  15.113  20.635  1.00  0.00     0.117 A 
HETATM   25  C12 UNL     1      42.120  15.760  20.629  1.00  0.00     0.063 A 
HETATM   26  C13 UNL     1      42.424  17.097  20.727  1.00  0.00     0.031 A 
HETATM   27  N4  UNL     1      43.743  17.213  20.786  1.00  0.00    -0.304 N 
HETATM   28  N5  UNL     1      44.322  16.029  20.732  1.00  0.00    -0.295 N 
ATOM     29  H4  UNL     1      44.244  18.099  20.862  1.00  0.00     0.186 HD
ATOM     30  H5  UNL     1      45.325  15.848  20.759  1.00  0.00     0.187 HD
BRANCH  26  31
HETATM   31  C14 UNL     1      41.401  18.166  20.754  1.00  0.00     0.029 C 
HETATM   32  C15 UNL     1      41.907  19.318  21.564  1.00  0.00     0.016 C 
HETATM   33  C16 UNL     1      40.176  17.574  21.441  1.00  0.00     0.016 C 
ENDBRANCH  26  31
ENDBRANCH  21  24
ENDBRANCH   1  20
TORSDOF 12
ENDMDL
MODEL 5
REMARK VINA RESULT: -7.446451821      4.352      7.625
REMARK  12 active torsions:
REMARK  status: ('A' for Active; 'I' for Inactive)
REMARK    1  A    between atoms: C2_2  and  C3_6 
REMARK    2  A    between atoms: C3_6  and  C4_7 
REMARK    3  A    between atoms: C4_7  and  C5_8 
REMARK    4  A    between atoms: C5_8  and  N2_9 
REMARK    5  A    between atoms: C5_8  and  C6_13 
REMARK    6  A    between atoms: C6_13  and  O2_15 
REMARK    7  A    between atoms: O2_15  and  C7_16 
REMARK    8  A    between atoms: C7_16  and  C8_17 
REMARK    9  A    between atoms: C8_17  and  C9_18 
REMARK   10  A    between atoms: C8_17  and  N3_20 
REMARK       I    between atoms: N3_20  and  C10_22 
REMARK   11  A    between atoms: C10_22  and  C11_24 
REMARK   12  A    between atoms: C13_26  and  C14_27 
ROOT
HETATM    1  C8  UNL     1      35.805  14.356  24.988  1.00  0.00     0.170 C 
ENDROOT
BRANCH   1   2
HETATM    2  C7  UNL     1      36.524  15.102  26.056  1.00  0.00     0.211 C 
BRANCH   2   3
HETATM    3  O2  UNL     1      36.487  16.451  26.130  1.00  0.00    -0.317 OA
BRANCH   3   4
HETATM    4  C6  UNL     1      36.318  17.381  25.178  1.00  0.00     0.289 C 
HETATM    5  O1  UNL     1      37.253  17.718  24.423  1.00  0.00    -0.263 OA
BRANCH   4   6
HETATM    6  C5  UNL     1      35.002  18.080  24.952  1.00  0.00     0.282 C 
BRANCH   6   7
HETATM    7  C4  UNL     1      34.511  17.604  23.603  1.00  0.00     0.049 C 
BRANCH   7   8
HETATM    8  C3  UNL     1      34.370  18.717  22.602  1.00  0.00     0.054 C 
BRANCH   8   9
HETATM    9  C2  UNL     1      35.251  18.599  21.428  1.00  0.00    -0.024 C 
HETATM   10  C1  UNL     1      35.148  19.484  20.237  1.00  0.00     0.062 C 
HETATM   11  N1  UNL     1      36.145  17.682  21.450  1.00  0.00    -0.406 N 
ATOM     12  H12 UNL     1      36.755  17.601  20.638  1.00  0.00     0.155 HD
ATOM     13  H11 UNL     1      36.215  17.075  22.268  1.00  0.00     0.155 HD
ENDBRANCH   8   9
ENDBRANCH   7   8
ENDBRANCH   6   7
BRANCH   6  14
HETATM   14  N2  UNL     1      34.125  17.758  26.033  1.00  0.00    -0.066 N 
ATOM     15  H23 UNL     1      33.595  18.580  26.321  1.00  0.00     0.275 HD
ATOM     16  H22 UNL     1      33.361  17.165  25.710  1.00  0.00     0.275 HD
ATOM     17  H21 UNL     1      34.595  17.336  26.834  1.00  0.00     0.275 HD
ENDBRANCH   6  14
ENDBRANCH   4   6
ENDBRANCH   3   4
ENDBRANCH   2   3
ENDBRANCH   1   2
BRANCH   1  18
HETATM   18  C9  UNL     1      34.740  13.479  25.441  1.00  0.00     0.258 C 
HETATM   19  O3  UNL     1      34.952  12.547  26.244  1.00  0.00    -0.305 OA
ENDBRANCH   1  18
BRANCH   1  20
HETATM   20  N3  UNL     1      36.848  13.470  24.391  1.00  0.00    -0.343 N 
HETATM   21  C10 UNL     1      37.486  13.822  23.183  1.00  0.00     0.270 C 
HETATM   22  O4  UNL     1      37.150  14.902  22.624  1.00  0.00    -0.266 OA
ATOM     23  H3  UNL     1      37.102  12.602  24.862  1.00  0.00     0.163 HD
BRANCH  21  24
HETATM   24  C11 UNL     1      38.500  12.952  22.608  1.00  0.00     0.117 A 
HETATM   25  C12 UNL     1      39.804  13.348  22.286  1.00  0.00     0.063 A 
HETATM   26  C13 UNL     1      40.396  12.216  21.780  1.00  0.00     0.031 A 
HETATM   27  N4  UNL     1      39.501  11.238  21.807  1.00  0.00    -0.304 N 
HETATM   28  N5  UNL     1      38.355  11.665  22.303  1.00  0.00    -0.295 N 
ATOM     29  H4  UNL     1      39.674  10.285  21.488  1.00  0.00     0.186 HD
ATOM     30  H5  UNL     1      37.510  11.108  22.429  1.00  0.00     0.187 HD
BRANCH  26  31
HETATM   31  C14 UNL     1      41.796  12.171  21.303  1.00  0.00     0.029 C 
HETATM   32  C15 UNL     1      41.822  11.739  19.872  1.00  0.00     0.016 C 
HETATM   33  C16 UNL     1      42.507  11.124  22.153  1.00  0.00     0.016 C 
ENDBRANCH  26  31
ENDBRANCH  21  24
ENDBRANCH   1  20
TORSDOF 12
ENDMDL
