MODEL 1
REMARK VINA RESULT: -6.928297903      0.000      0.000
REMARK  13 active torsions:
REMARK  status: ('A' for Active; 'I' for Inactive)
REMARK    1  A    between atoms: O1_2  and  C2_3 
REMARK    2  A    between atoms: C5_6  and  N1_7 
REMARK    3  A    between atoms: N1_7  and  C6_9 
REMARK    4  A    between atoms: C6_9  and  N2_11 
REMARK    5  A    between atoms: N2_11  and  C7_13 
REMARK    6  A    between atoms: C7_13  and  C8_14 
REMARK    7  A    between atoms: C8_14  and  S2_15 
REMARK    8  A    between atoms: S2_15  and  C9_16 
REMARK    9  A    between atoms: C9_16  and  C10_17 
REMARK   10  A    between atoms: C10_17  and  O2_18 
REMARK   11  A    between atoms: O2_18  and  N3_19 
REMARK   12  A    between atoms: N3_19  and  C11_21 
REMARK   13  A    between atoms: N4_22  and  C12_24 
ROOT
HETATM    1  N2  UNL     1      40.819  13.059  20.005  1.00  0.00    -0.366 N 
ATOM      2  H2  UNL     1      41.308  12.254  19.611  1.00  0.00     0.161 HD
ENDROOT
BRANCH   1   3
HETATM    3  C6  UNL     1      40.239  13.054  21.282  1.00  0.00     0.172 C 
HETATM    4  S1  UNL     1      40.288  11.488  21.919  1.00  0.00    -0.041 SA
BRANCH   3   5
HETATM    5  N1  UNL     1      39.783  14.127  22.076  1.00  0.00    -0.333 N 
ATOM      6  H1  UNL     1      40.370  14.937  22.279  1.00  0.00     0.168 HD
BRANCH   5   7
HETATM    7  C5  UNL     1      38.411  14.010  22.596  1.00  0.00     0.034 A 
HETATM    8  C4  UNL     1      38.316  13.502  23.898  1.00  0.00     0.032 A 
HETATM    9  C3  UNL     1      37.222  13.701  24.724  1.00  0.00     0.039 A 
HETATM   10  C2  UNL     1      36.105  14.475  24.182  1.00  0.00     0.068 A 
HETATM   11  C14 UNL     1      36.169  14.966  22.832  1.00  0.00     0.039 A 
HETATM   12  C13 UNL     1      37.398  14.637  22.222  1.00  0.00     0.032 A 
BRANCH  10  13
HETATM   13  O1  UNL     1      35.063  14.729  25.014  1.00  0.00    -0.356 OA
HETATM   14  C1  UNL     1      35.078  15.767  25.993  1.00  0.00     0.210 C 
ENDBRANCH  10  13
ENDBRANCH   5   7
ENDBRANCH   3   5
ENDBRANCH   1   3
BRANCH   1  15
HETATM   15  C7  UNL     1      40.659  14.321  19.294  1.00  0.00     0.132 C 
BRANCH  15  16
HETATM   16  C8  UNL     1      41.671  14.777  18.316  1.00  0.00     0.093 C 
BRANCH  16  17
HETATM   17  S2  UNL     1      42.401  16.335  19.074  1.00  0.00    -0.165 SA
BRANCH  17  18
HETATM   18  C9  UNL     1      42.680  16.086  20.803  1.00  0.00     0.102 C 
BRANCH  18  19
HETATM   19  C10 UNL     1      43.969  15.241  20.954  1.00  0.00     0.211 C 
BRANCH  19  20
HETATM   20  O2  UNL     1      43.520  14.007  21.555  1.00  0.00    -0.279 OA
BRANCH  20  21
HETATM   21  N3  UNL     1      44.320  12.865  20.902  1.00  0.00    -0.262 N 
ATOM     22  H3  UNL     1      44.935  12.850  20.089  1.00  0.00     0.195 HD
BRANCH  21  23
HETATM   23  C11 UNL     1      43.939  11.877  21.763  1.00  0.00     0.204 C 
HETATM   24  N4  UNL     1      44.520  10.683  21.893  1.00  0.00    -0.349 N 
ATOM     25  H4  UNL     1      45.303  10.474  22.512  1.00  0.00     0.167 HD
BRANCH  24  26
HETATM   26  C12 UNL     1      43.902   9.778  21.063  1.00  0.00     0.190 C 
HETATM   27  N5  UNL     1      42.875   9.085  21.715  1.00  0.00    -0.097 NA
ENDBRANCH  24  26
ENDBRANCH  21  23
ENDBRANCH  20  21
ENDBRANCH  19  20
ENDBRANCH  18  19
ENDBRANCH  17  18
ENDBRANCH  16  17
ENDBRANCH  15  16
ENDBRANCH   1  15
TORSDOF 13
ENDMDL
MODEL 2
REMARK VINA RESULT: -6.907810792      2.205      3.183
REMARK  13 active torsions:
REMARK  status: ('A' for Active; 'I' for Inactive)
REMARK    1  A    between atoms: O1_2  and  C2_3 
REMARK    2  A    between atoms: C5_6  and  N1_7 
REMARK    3  A    between atoms: N1_7  and  C6_9 
REMARK    4  A    between atoms: C6_9  and  N2_11 
REMARK    5  A    between atoms: N2_11  and  C7_13 
REMARK    6  A    between atoms: C7_13  and  C8_14 
REMARK    7  A    between atoms: C8_14  and  S2_15 
REMARK    8  A    between atoms: S2_15  and  C9_16 
REMARK    9  A    between atoms: C9_16  and  C10_17 
REMARK   10  A    between atoms: C10_17  and  O2_18 
REMARK   11  A    between atoms: O2_18  and  N3_19 
REMARK   12  A    between atoms: N3_19  and  C11_21 
REMARK   13  A    between atoms: N4_22  and  C12_24 
ROOT
HETATM    1  N2  UNL     1      41.720  16.978  21.057  1.00  0.00    -0.366 N 
ATOM      2  H2  UNL     1      42.317  17.804  21.113  1.00  0.00     0.161 HD
ENDROOT
BRANCH   1   3
HETATM    3  C6  UNL     1      40.333  17.017  21.269  1.00  0.00     0.172 C 
HETATM    4  S1  UNL     1      39.857  18.606  21.599  1.00  0.00    -0.041 SA
BRANCH   3   5
HETATM    5  N1  UNL     1      39.364  16.003  21.121  1.00  0.00    -0.333 N 
ATOM      6  H1  UNL     1      38.908  15.818  20.228  1.00  0.00     0.168 HD
BRANCH   5   7
HETATM    7  C5  UNL     1      39.048  15.229  22.333  1.00  0.00     0.034 A 
HETATM    8  C4  UNL     1      37.996  15.742  23.103  1.00  0.00     0.032 A 
HETATM    9  C3  UNL     1      37.263  14.989  24.004  1.00  0.00     0.039 A 
HETATM   10  C2  UNL     1      37.634  13.581  24.159  1.00  0.00     0.068 A 
HETATM   11  C14 UNL     1      38.740  13.051  23.409  1.00  0.00     0.039 A 
HETATM   12  C13 UNL     1      39.298  14.027  22.555  1.00  0.00     0.032 A 
BRANCH  10  13
HETATM   13  O1  UNL     1      36.872  12.826  24.990  1.00  0.00    -0.356 OA
HETATM   14  C1  UNL     1      35.728  13.331  25.678  1.00  0.00     0.210 C 
ENDBRANCH  10  13
ENDBRANCH   5   7
ENDBRANCH   3   5
ENDBRANCH   1   3
BRANCH   1  15
HETATM   15  C7  UNL     1      42.227  15.647  20.748  1.00  0.00     0.132 C 
BRANCH  15  16
HETATM   16  C8  UNL     1      43.670  15.339  20.856  1.00  0.00     0.093 C 
BRANCH  16  17
HETATM   17  S2  UNL     1      43.800  13.508  20.449  1.00  0.00    -0.165 SA
BRANCH  17  18
HETATM   18  C9  UNL     1      42.193  12.767  20.500  1.00  0.00     0.102 C 
BRANCH  18  19
HETATM   19  C10 UNL     1      42.164  11.791  21.702  1.00  0.00     0.211 C 
BRANCH  19  20
HETATM   20  O2  UNL     1      43.493  11.228  21.739  1.00  0.00    -0.279 OA
BRANCH  20  21
HETATM   21  N3  UNL     1      43.339   9.712  21.961  1.00  0.00    -0.262 N 
ATOM     22  H3  UNL     1      42.840   9.182  22.675  1.00  0.00     0.195 HD
BRANCH  21  23
HETATM   23  C11 UNL     1      44.088   9.306  20.895  1.00  0.00     0.204 C 
HETATM   24  N4  UNL     1      43.950   9.726  19.636  1.00  0.00    -0.349 N 
ATOM     25  H4  UNL     1      44.410  10.542  19.234  1.00  0.00     0.167 HD
BRANCH  24  26
HETATM   26  C12 UNL     1      43.092   8.888  18.963  1.00  0.00     0.190 C 
HETATM   27  N5  UNL     1      41.754   9.262  19.132  1.00  0.00    -0.097 NA
ENDBRANCH  24  26
ENDBRANCH  21  23
ENDBRANCH  20  21
ENDBRANCH  19  20
ENDBRANCH  18  19
ENDBRANCH  17  18
ENDBRANCH  16  17
ENDBRANCH  15  16
ENDBRANCH   1  15
TORSDOF 13
ENDMDL
MODEL 3
REMARK VINA RESULT: -6.851632275      3.268      4.550
REMARK  13 active torsions:
REMARK  status: ('A' for Active; 'I' for Inactive)
REMARK    1  A    between atoms: O1_2  and  C2_3 
REMARK    2  A    between atoms: C5_6  and  N1_7 
REMARK    3  A    between atoms: N1_7  and  C6_9 
REMARK    4  A    between atoms: C6_9  and  N2_11 
REMARK    5  A    between atoms: N2_11  and  C7_13 
REMARK    6  A    between atoms: C7_13  and  C8_14 
REMARK    7  A    between atoms: C8_14  and  S2_15 
REMARK    8  A    between atoms: S2_15  and  C9_16 
REMARK    9  A    between atoms: C9_16  and  C10_17 
REMARK   10  A    between atoms: C10_17  and  O2_18 
REMARK   11  A    between atoms: O2_18  and  N3_19 
REMARK   12  A    between atoms: N3_19  and  C11_21 
REMARK   13  A    between atoms: N4_22  and  C12_24 
ROOT
HETATM    1  N2  UNL     1      36.488  13.219  23.422  1.00  0.00    -0.366 N 
ATOM      2  H2  UNL     1      35.736  12.531  23.394  1.00  0.00     0.161 HD
ENDROOT
BRANCH   1   3
HETATM    3  C6  UNL     1      36.496  14.313  24.300  1.00  0.00     0.172 C 
HETATM    4  S1  UNL     1      36.126  13.784  25.864  1.00  0.00    -0.041 SA
BRANCH   3   5
HETATM    5  N1  UNL     1      36.872  15.654  24.077  1.00  0.00    -0.333 N 
ATOM      6  H1  UNL     1      37.729  16.047  24.465  1.00  0.00     0.168 HD
BRANCH   5   7
HETATM    7  C5  UNL     1      35.954  16.454  23.249  1.00  0.00     0.034 A 
HETATM    8  C4  UNL     1      34.981  17.164  23.966  1.00  0.00     0.032 A 
HETATM    9  C3  UNL     1      34.318  18.273  23.471  1.00  0.00     0.039 A 
HETATM   10  C2  UNL     1      34.652  18.705  22.114  1.00  0.00     0.068 A 
HETATM   11  C14 UNL     1      35.615  17.960  21.348  1.00  0.00     0.039 A 
HETATM   12  C13 UNL     1      36.149  16.889  22.096  1.00  0.00     0.032 A 
BRANCH  10  13
HETATM   13  O1  UNL     1      34.052  19.832  21.654  1.00  0.00    -0.356 OA
HETATM   14  C1  UNL     1      34.652  21.124  21.731  1.00  0.00     0.210 C 
ENDBRANCH  10  13
ENDBRANCH   5   7
ENDBRANCH   3   5
ENDBRANCH   1   3
BRANCH   1  15
HETATM   15  C7  UNL     1      37.657  13.158  22.553  1.00  0.00     0.132 C 
BRANCH  15  16
HETATM   16  C8  UNL     1      38.998  12.863  23.101  1.00  0.00     0.093 C 
BRANCH  16  17
HETATM   17  S2  UNL     1      40.115  12.736  21.594  1.00  0.00    -0.165 SA
BRANCH  17  18
HETATM   18  C9  UNL     1      40.995  11.202  21.626  1.00  0.00     0.102 C 
BRANCH  18  19
HETATM   19  C10 UNL     1      42.334  11.444  22.365  1.00  0.00     0.211 C 
BRANCH  19  20
HETATM   20  O2  UNL     1      42.996  10.161  22.338  1.00  0.00    -0.279 OA
BRANCH  20  21
HETATM   21  N3  UNL     1      44.438  10.402  21.853  1.00  0.00    -0.262 N 
ATOM     22  H3  UNL     1      45.134  11.096  22.125  1.00  0.00     0.195 HD
BRANCH  21  23
HETATM   23  C11 UNL     1      44.482   9.389  20.941  1.00  0.00     0.204 C 
HETATM   24  N4  UNL     1      44.426   9.524  19.615  1.00  0.00    -0.349 N 
ATOM     25  H4  UNL     1      45.229   9.673  19.004  1.00  0.00     0.167 HD
BRANCH  24  26
HETATM   26  C12 UNL     1      43.119   9.431  19.199  1.00  0.00     0.190 C 
HETATM   27  N5  UNL     1      42.582   8.160  19.433  1.00  0.00    -0.097 NA
ENDBRANCH  24  26
ENDBRANCH  21  23
ENDBRANCH  20  21
ENDBRANCH  19  20
ENDBRANCH  18  19
ENDBRANCH  17  18
ENDBRANCH  16  17
ENDBRANCH  15  16
ENDBRANCH   1  15
TORSDOF 13
ENDMDL
MODEL 4
REMARK VINA RESULT: -6.757846212      2.179      3.008
REMARK  13 active torsions:
REMARK  status: ('A' for Active; 'I' for Inactive)
REMARK    1  A    between atoms: O1_2  and  C2_3 
REMARK    2  A    between atoms: C5_6  and  N1_7 
REMARK    3  A    between atoms: N1_7  and  C6_9 
REMARK    4  A    between atoms: C6_9  and  N2_11 
REMARK    5  A    between atoms: N2_11  and  C7_13 
REMARK    6  A    between atoms: C7_13  and  C8_14 
REMARK    7  A    between atoms: C8_14  and  S2_15 
REMARK    8  A    between atoms: S2_15  and  C9_16 
REMARK    9  A    between atoms: C9_16  and  C10_17 
REMARK   10  A    between atoms: C10_17  and  O2_18 
REMARK   11  A    between atoms: O2_18  and  N3_19 
REMARK   12  A    between atoms: N3_19  and  C11_21 
REMARK   13  A    between atoms: N4_22  and  C12_24 
ROOT
HETATM    1  N2  UNL     1      41.265  17.331  21.221  1.00  0.00    -0.366 N 
ATOM      2  H2  UNL     1      41.454  17.580  22.192  1.00  0.00     0.161 HD
ENDROOT
BRANCH   1   3
HETATM    3  C6  UNL     1      40.072  16.723  20.802  1.00  0.00     0.172 C 
HETATM    4  S1  UNL     1      39.128  17.850  19.966  1.00  0.00    -0.041 SA
BRANCH   3   5
HETATM    5  N1  UNL     1      39.667  15.374  20.874  1.00  0.00    -0.333 N 
ATOM      6  H1  UNL     1      39.674  14.764  20.057  1.00  0.00     0.168 HD
BRANCH   5   7
HETATM    7  C5  UNL     1      39.234  14.899  22.198  1.00  0.00     0.034 A 
HETATM    8  C4  UNL     1      38.273  15.702  22.827  1.00  0.00     0.032 A 
HETATM    9  C3  UNL     1      37.430  15.253  23.829  1.00  0.00     0.039 A 
HETATM   10  C2  UNL     1      37.578  13.860  24.255  1.00  0.00     0.068 A 
HETATM   11  C14 UNL     1      38.589  13.036  23.651  1.00  0.00     0.039 A 
HETATM   12  C13 UNL     1      39.294  13.737  22.648  1.00  0.00     0.032 A 
BRANCH  10  13
HETATM   13  O1  UNL     1      36.707  13.400  25.188  1.00  0.00    -0.356 OA
HETATM   14  C1  UNL     1      35.386  13.915  25.347  1.00  0.00     0.210 C 
ENDBRANCH  10  13
ENDBRANCH   5   7
ENDBRANCH   3   5
ENDBRANCH   1   3
BRANCH   1  15
HETATM   15  C7  UNL     1      42.210  17.574  20.138  1.00  0.00     0.132 C 
BRANCH  15  16
HETATM   16  C8  UNL     1      43.644  17.242  20.289  1.00  0.00     0.093 C 
BRANCH  16  17
HETATM   17  S2  UNL     1      43.659  15.490  20.971  1.00  0.00    -0.165 SA
BRANCH  17  18
HETATM   18  C9  UNL     1      42.944  14.382  19.791  1.00  0.00     0.102 C 
BRANCH  18  19
HETATM   19  C10 UNL     1      42.579  13.074  20.537  1.00  0.00     0.211 C 
BRANCH  19  20
HETATM   20  O2  UNL     1      41.244  12.762  20.081  1.00  0.00    -0.279 OA
BRANCH  20  21
HETATM   21  N3  UNL     1      41.005  11.267  20.362  1.00  0.00    -0.262 N 
ATOM     22  H3  UNL     1      40.299  10.790  20.923  1.00  0.00     0.195 HD
BRANCH  21  23
HETATM   23  C11 UNL     1      42.042  10.786  19.618  1.00  0.00     0.204 C 
HETATM   24  N4  UNL     1      42.394   9.505  19.499  1.00  0.00    -0.349 N 
ATOM     25  H4  UNL     1      42.022   8.854  18.807  1.00  0.00     0.167 HD
BRANCH  24  26
HETATM   26  C12 UNL     1      43.335   9.196  20.453  1.00  0.00     0.190 C 
HETATM   27  N5  UNL     1      42.847   9.385  21.751  1.00  0.00    -0.097 NA
ENDBRANCH  24  26
ENDBRANCH  21  23
ENDBRANCH  20  21
ENDBRANCH  19  20
ENDBRANCH  18  19
ENDBRANCH  17  18
ENDBRANCH  16  17
ENDBRANCH  15  16
ENDBRANCH   1  15
TORSDOF 13
ENDMDL
MODEL 5
REMARK VINA RESULT: -6.739926744      2.049      2.869
REMARK  13 active torsions:
REMARK  status: ('A' for Active; 'I' for Inactive)
REMARK    1  A    between atoms: O1_2  and  C2_3 
REMARK    2  A    between atoms: C5_6  and  N1_7 
REMARK    3  A    between atoms: N1_7  and  C6_9 
REMARK    4  A    between atoms: C6_9  and  N2_11 
REMARK    5  A    between atoms: N2_11  and  C7_13 
REMARK    6  A    between atoms: C7_13  and  C8_14 
REMARK    7  A    between atoms: C8_14  and  S2_15 
REMARK    8  A    between atoms: S2_15  and  C9_16 
REMARK    9  A    between atoms: C9_16  and  C10_17 
REMARK   10  A    between atoms: C10_17  and  O2_18 
REMARK   11  A    between atoms: O2_18  and  N3_19 
REMARK   12  A    between atoms: N3_19  and  C11_21 
REMARK   13  A    between atoms: N4_22  and  C12_24 
ROOT
HETATM    1  N2  UNL     1      40.667  15.509  19.211  1.00  0.00    -0.366 N 
ATOM      2  H2  UNL     1      40.043  14.848  18.749  1.00  0.00     0.161 HD
ENDROOT
BRANCH   1   3
HETATM    3  C6  UNL     1      40.239  16.407  20.200  1.00  0.00     0.172 C 
HETATM    4  S1  UNL     1      39.814  17.878  19.481  1.00  0.00    -0.041 SA
BRANCH   3   5
HETATM    5  N1  UNL     1      40.016  16.202  21.578  1.00  0.00    -0.333 N 
ATOM      6  H1  UNL     1      40.666  16.541  22.286  1.00  0.00     0.168 HD
BRANCH   5   7
HETATM    7  C5  UNL     1      38.790  15.469  21.932  1.00  0.00     0.034 A 
HETATM    8  C4  UNL     1      38.989  14.347  22.747  1.00  0.00     0.032 A 
HETATM    9  C3  UNL     1      38.000  13.782  23.533  1.00  0.00     0.039 A 
HETATM   10  C2  UNL     1      36.672  14.396  23.485  1.00  0.00     0.068 A 
HETATM   11  C14 UNL     1      36.440  15.520  22.620  1.00  0.00     0.039 A 
HETATM   12  C13 UNL     1      37.620  15.903  21.945  1.00  0.00     0.032 A 
BRANCH  10  13
HETATM   13  O1  UNL     1      35.721  13.885  24.307  1.00  0.00    -0.356 OA
HETATM   14  C1  UNL     1      35.957  13.576  25.680  1.00  0.00     0.210 C 
ENDBRANCH  10  13
ENDBRANCH   5   7
ENDBRANCH   3   5
ENDBRANCH   1   3
BRANCH   1  15
HETATM   15  C7  UNL     1      42.089  15.609  18.906  1.00  0.00     0.132 C 
BRANCH  15  16
HETATM   16  C8  UNL     1      43.107  15.476  19.971  1.00  0.00     0.093 C 
BRANCH  16  17
HETATM   17  S2  UNL     1      43.375  13.623  20.148  1.00  0.00    -0.165 SA
BRANCH  17  18
HETATM   18  C9  UNL     1      42.253  12.968  21.350  1.00  0.00     0.102 C 
BRANCH  18  19
HETATM   19  C10 UNL     1      41.121  12.237  20.587  1.00  0.00     0.211 C 
BRANCH  19  20
HETATM   20  O2  UNL     1      41.760  11.734  19.393  1.00  0.00    -0.279 OA
BRANCH  20  21
HETATM   21  N3  UNL     1      41.354  10.256  19.249  1.00  0.00    -0.262 N 
ATOM     22  H3  UNL     1      40.442   9.801  19.266  1.00  0.00     0.195 HD
BRANCH  21  23
HETATM   23  C11 UNL     1      42.611   9.750  19.089  1.00  0.00     0.204 C 
HETATM   24  N4  UNL     1      43.159   8.769  19.810  1.00  0.00    -0.349 N 
ATOM     25  H4  UNL     1      43.083   7.773  19.602  1.00  0.00     0.167 HD
BRANCH  24  26
HETATM   26  C12 UNL     1      43.841   9.307  20.876  1.00  0.00     0.190 C 
HETATM   27  N5  UNL     1      43.016   9.476  21.994  1.00  0.00    -0.097 NA
ENDBRANCH  24  26
ENDBRANCH  21  23
ENDBRANCH  20  21
ENDBRANCH  19  20
ENDBRANCH  18  19
ENDBRANCH  17  18
ENDBRANCH  16  17
ENDBRANCH  15  16
ENDBRANCH   1  15
TORSDOF 13
ENDMDL
