MODEL 1
REMARK VINA RESULT: -6.968225180      0.000      0.000
REMARK  7 active torsions:
REMARK  status: ('A' for Active; 'I' for Inactive)
REMARK    1  A    between atoms: C2_4  and  N2_6 
REMARK    2  A    between atoms: C4_8  and  N3_9 
REMARK    3  A    between atoms: C4_8  and  O5_28 
REMARK    4  A    between atoms: C5_11  and  N4_12 
REMARK    5  A    between atoms: C5_11  and  O3_24 
REMARK    6  A    between atoms: O3_24  and  C14_25 
REMARK    7  A    between atoms: O5_28  and  C16_29 
ROOT
HETATM    1  N3  UNL     1       8.135  17.331  19.406  1.00  0.00    -0.287 N 
ATOM      2  H3  UNL     1       7.684  17.071  20.284  1.00  0.00     0.173 HD
HETATM    3  C5  UNL     1       7.478  18.024  18.569  1.00  0.00     0.234 C 
ENDROOT
BRANCH   3   4
HETATM    4  N4  UNL     1       8.008  18.439  17.318  1.00  0.00    -0.319 N 
HETATM    5  C6  UNL     1       7.832  17.791  16.247  1.00  0.00     0.082 C 
HETATM    6  C7  UNL     1       7.065  16.562  16.243  1.00  0.00     0.037 C 
HETATM    7  C13 UNL     1       8.377  18.214  14.946  1.00  0.00     0.191 C 
HETATM    8  C8  UNL     1       6.845  15.839  15.163  1.00  0.00     0.054 C 
HETATM    9  C9  UNL     1       7.401  16.287  13.901  1.00  0.00     0.165 C 
HETATM   10  O1  UNL     1       7.645  15.452  12.963  1.00  0.00    -0.292 OA
HETATM   11  C10 UNL     1       7.679  17.733  13.726  1.00  0.00     0.084 C 
HETATM   12  C11 UNL     1       8.463  18.017  12.476  1.00  0.00     0.032 C 
HETATM   13  C12 UNL     1       6.312  18.414  13.590  1.00  0.00     0.032 C 
HETATM   14  O2  UNL     1       9.394  18.952  14.927  1.00  0.00    -0.289 OA
ATOM     15  H4  UNL     1       8.555  19.299  17.281  1.00  0.00     0.169 HD
ENDBRANCH   3   4
BRANCH   3  16
HETATM   16  O3  UNL     1       6.180  18.386  18.902  1.00  0.00    -0.246 OA
BRANCH  16  17
HETATM   17  C14 UNL     1       5.795  19.690  19.128  1.00  0.00     0.262 C 
HETATM   18  C15 UNL     1       5.844  20.229  20.494  1.00  0.00     0.126 C 
HETATM   19  O4  UNL     1       5.413  20.366  18.122  1.00  0.00    -0.265 OA
ENDBRANCH  16  17
ENDBRANCH   3  16
BRANCH   1  20
HETATM   20  C4  UNL     1       9.486  16.899  19.171  1.00  0.00     0.228 C 
HETATM   21  N2  UNL     1      10.492  17.656  19.425  1.00  0.00    -0.312 N 
ATOM     22  H2  UNL     1      11.421  17.282  19.233  1.00  0.00     0.170 HD
BRANCH  21  23
HETATM   23  C2  UNL     1      10.415  18.954  19.943  1.00  0.00     0.075 C 
HETATM   24  N1  UNL     1      10.134  19.133  21.190  1.00  0.00    -0.384 N 
HETATM   25  C1  UNL     1      10.037  20.439  21.800  1.00  0.00     0.147 C 
ATOM     26  H1  UNL     1       9.974  18.312  21.774  1.00  0.00     0.160 HD
HETATM   27  C3  UNL     1      10.646  20.169  19.119  1.00  0.00     0.089 C 
ENDBRANCH  21  23
BRANCH  20  28
HETATM   28  O5  UNL     1       9.771  15.634  18.657  1.00  0.00    -0.312 OA
BRANCH  28  29
HETATM   29  C16 UNL     1      10.707  15.438  17.636  1.00  0.00     0.060 C 
HETATM   30  C17 UNL     1      10.061  14.566  16.569  1.00  0.00     0.046 C 
HETATM   31  C18 UNL     1      11.187  16.702  17.000  1.00  0.00     0.046 C 
HETATM   32  C19 UNL     1      11.927  14.663  18.126  1.00  0.00     0.046 C 
ENDBRANCH  28  29
ENDBRANCH  20  28
ENDBRANCH   1  20
TORSDOF 7
ENDMDL
MODEL 2
REMARK VINA RESULT: -6.427847109      2.222      7.031
REMARK  7 active torsions:
REMARK  status: ('A' for Active; 'I' for Inactive)
REMARK    1  A    between atoms: C2_4  and  N2_6 
REMARK    2  A    between atoms: C4_8  and  N3_9 
REMARK    3  A    between atoms: C4_8  and  O5_28 
REMARK    4  A    between atoms: C5_11  and  N4_12 
REMARK    5  A    between atoms: C5_11  and  O3_24 
REMARK    6  A    between atoms: O3_24  and  C14_25 
REMARK    7  A    between atoms: O5_28  and  C16_29 
ROOT
HETATM    1  N3  UNL     1       9.212  16.447  16.893  1.00  0.00    -0.287 N 
ATOM      2  H3  UNL     1       9.663  16.255  15.999  1.00  0.00     0.173 HD
HETATM    3  C5  UNL     1       9.913  16.398  17.950  1.00  0.00     0.234 C 
ENDROOT
BRANCH   3   4
HETATM    4  N4  UNL     1       9.386  16.645  19.246  1.00  0.00    -0.319 N 
HETATM    5  C6  UNL     1       9.580  17.726  19.871  1.00  0.00     0.082 C 
HETATM    6  C7  UNL     1      10.368  18.791  19.286  1.00  0.00     0.037 C 
HETATM    7  C13 UNL     1       9.037  17.991  21.215  1.00  0.00     0.191 C 
HETATM    8  C8  UNL     1      10.609  19.940  19.885  1.00  0.00     0.054 C 
HETATM    9  C9  UNL     1      10.059  20.163  21.208  1.00  0.00     0.165 C 
HETATM   10  O1  UNL     1      10.614  20.988  22.014  1.00  0.00    -0.292 OA
HETATM   11  C10 UNL     1       8.843  19.413  21.603  1.00  0.00     0.084 C 
HETATM   12  C11 UNL     1       8.527  19.563  23.064  1.00  0.00     0.032 C 
HETATM   13  C12 UNL     1       7.687  20.030  20.806  1.00  0.00     0.032 C 
HETATM   14  O2  UNL     1       8.768  17.018  21.962  1.00  0.00    -0.289 OA
ATOM     15  H4  UNL     1       8.827  15.918  19.692  1.00  0.00     0.169 HD
ENDBRANCH   3   4
BRANCH   3  16
HETATM   16  O3  UNL     1      11.260  16.084  17.822  1.00  0.00    -0.246 OA
BRANCH  16  17
HETATM   17  C14 UNL     1      11.716  14.811  17.559  1.00  0.00     0.262 C 
HETATM   18  C15 UNL     1      12.499  14.100  18.578  1.00  0.00     0.126 C 
HETATM   19  O4  UNL     1      11.428  14.313  16.425  1.00  0.00    -0.265 OA
ENDBRANCH  16  17
ENDBRANCH   3  16
BRANCH   1  20
HETATM   20  C4  UNL     1       7.808  16.761  16.903  1.00  0.00     0.228 C 
HETATM   21  N2  UNL     1       7.053  16.511  15.894  1.00  0.00    -0.312 N 
ATOM     22  H2  UNL     1       6.067  16.762  15.973  1.00  0.00     0.170 HD
BRANCH  21  23
HETATM   23  C2  UNL     1       7.474  15.923  14.696  1.00  0.00     0.075 C 
HETATM   24  N1  UNL     1       7.557  16.636  13.624  1.00  0.00    -0.384 N 
HETATM   25  C1  UNL     1       7.982  16.103  12.350  1.00  0.00     0.147 C 
ATOM     26  H1  UNL     1       7.310  17.625  13.678  1.00  0.00     0.160 HD
HETATM   27  C3  UNL     1       7.841  14.487  14.586  1.00  0.00     0.089 C 
ENDBRANCH  21  23
BRANCH  20  28
HETATM   28  O5  UNL     1       7.198  17.352  18.009  1.00  0.00    -0.312 OA
BRANCH  28  29
HETATM   29  C16 UNL     1       6.492  18.556  17.916  1.00  0.00     0.060 C 
HETATM   30  C17 UNL     1       5.355  18.356  16.924  1.00  0.00     0.046 C 
HETATM   31  C18 UNL     1       5.922  19.030  19.213  1.00  0.00     0.046 C 
HETATM   32  C19 UNL     1       7.355  19.677  17.341  1.00  0.00     0.046 C 
ENDBRANCH  28  29
ENDBRANCH  20  28
ENDBRANCH   1  20
TORSDOF 7
ENDMDL
MODEL 3
REMARK VINA RESULT: -6.262344205      2.106      5.614
REMARK  7 active torsions:
REMARK  status: ('A' for Active; 'I' for Inactive)
REMARK    1  A    between atoms: C2_4  and  N2_6 
REMARK    2  A    between atoms: C4_8  and  N3_9 
REMARK    3  A    between atoms: C4_8  and  O5_28 
REMARK    4  A    between atoms: C5_11  and  N4_12 
REMARK    5  A    between atoms: C5_11  and  O3_24 
REMARK    6  A    between atoms: O3_24  and  C14_25 
REMARK    7  A    between atoms: O5_28  and  C16_29 
ROOT
HETATM    1  N3  UNL     1       9.705  16.838  15.940  1.00  0.00    -0.287 N 
ATOM      2  H3  UNL     1       9.510  16.575  14.975  1.00  0.00     0.173 HD
HETATM    3  C5  UNL     1       9.646  18.065  16.259  1.00  0.00     0.234 C 
ENDROOT
BRANCH   3   4
HETATM    4  N4  UNL     1       9.901  18.541  17.574  1.00  0.00    -0.319 N 
HETATM    5  C6  UNL     1       8.981  18.869  18.376  1.00  0.00     0.082 C 
HETATM    6  C7  UNL     1       7.589  18.777  17.986  1.00  0.00     0.037 C 
HETATM    7  C13 UNL     1       9.236  19.364  19.740  1.00  0.00     0.191 C 
HETATM    8  C8  UNL     1       6.584  19.105  18.773  1.00  0.00     0.054 C 
HETATM    9  C9  UNL     1       6.875  19.590  20.108  1.00  0.00     0.165 C 
HETATM   10  O1  UNL     1       6.047  20.348  20.721  1.00  0.00    -0.292 OA
HETATM   11  C10 UNL     1       8.153  19.186  20.742  1.00  0.00     0.084 C 
HETATM   12  C11 UNL     1       8.426  19.943  22.011  1.00  0.00     0.032 C 
HETATM   13  C12 UNL     1       7.998  17.703  21.102  1.00  0.00     0.032 C 
HETATM   14  O2  UNL     1      10.341  19.906  19.990  1.00  0.00    -0.289 OA
ATOM     15  H4  UNL     1      10.869  18.621  17.884  1.00  0.00     0.169 HD
ENDBRANCH   3   4
BRANCH   3  16
HETATM   16  O3  UNL     1       9.318  18.979  15.267  1.00  0.00    -0.246 OA
BRANCH  16  17
HETATM   17  C14 UNL     1       8.291  18.782  14.369  1.00  0.00     0.262 C 
HETATM   18  C15 UNL     1       8.368  19.401  13.039  1.00  0.00     0.126 C 
HETATM   19  O4  UNL     1       7.316  18.062  14.751  1.00  0.00    -0.265 OA
ENDBRANCH  16  17
ENDBRANCH   3  16
BRANCH   1  20
HETATM   20  C4  UNL     1      10.034  15.803  16.883  1.00  0.00     0.228 C 
HETATM   21  N2  UNL     1       9.259  14.797  17.081  1.00  0.00    -0.312 N 
ATOM     22  H2  UNL     1       9.557  14.102  17.765  1.00  0.00     0.170 HD
BRANCH  21  23
HETATM   23  C2  UNL     1       8.037  14.580  16.434  1.00  0.00     0.075 C 
HETATM   24  N1  UNL     1       7.135  15.503  16.436  1.00  0.00    -0.384 N 
HETATM   25  C1  UNL     1       5.850  15.355  15.791  1.00  0.00     0.147 C 
ATOM     26  H1  UNL     1       7.339  16.380  16.916  1.00  0.00     0.160 HD
HETATM   27  C3  UNL     1       7.711  13.315  15.726  1.00  0.00     0.089 C 
ENDBRANCH  21  23
BRANCH  20  28
HETATM   28  O5  UNL     1      11.213  15.839  17.628  1.00  0.00    -0.312 OA
BRANCH  28  29
HETATM   29  C16 UNL     1      12.224  14.886  17.468  1.00  0.00     0.060 C 
HETATM   30  C17 UNL     1      13.470  15.604  16.970  1.00  0.00     0.046 C 
HETATM   31  C18 UNL     1      12.564  14.142  18.718  1.00  0.00     0.046 C 
HETATM   32  C19 UNL     1      11.874  13.862  16.390  1.00  0.00     0.046 C 
ENDBRANCH  28  29
ENDBRANCH  20  28
ENDBRANCH   1  20
TORSDOF 7
ENDMDL
MODEL 4
REMARK VINA RESULT: -6.034808094      1.370      4.005
REMARK  7 active torsions:
REMARK  status: ('A' for Active; 'I' for Inactive)
REMARK    1  A    between atoms: C2_4  and  N2_6 
REMARK    2  A    between atoms: C4_8  and  N3_9 
REMARK    3  A    between atoms: C4_8  and  O5_28 
REMARK    4  A    between atoms: C5_11  and  N4_12 
REMARK    5  A    between atoms: C5_11  and  O3_24 
REMARK    6  A    between atoms: O3_24  and  C14_25 
REMARK    7  A    between atoms: O5_28  and  C16_29 
ROOT
HETATM    1  N3  UNL     1       9.664  17.592  19.020  1.00  0.00    -0.287 N 
ATOM      2  H3  UNL     1      10.054  17.075  19.808  1.00  0.00     0.173 HD
HETATM    3  C5  UNL     1      10.255  17.527  17.899  1.00  0.00     0.234 C 
ENDROOT
BRANCH   3   4
HETATM    4  N4  UNL     1       9.798  18.208  16.738  1.00  0.00    -0.319 N 
HETATM    5  C6  UNL     1       9.229  17.620  15.775  1.00  0.00     0.082 C 
HETATM    6  C7  UNL     1       9.011  16.189  15.806  1.00  0.00     0.037 C 
HETATM    7  C13 UNL     1       8.753  18.318  14.569  1.00  0.00     0.191 C 
HETATM    8  C8  UNL     1       8.426  15.515  14.835  1.00  0.00     0.054 C 
HETATM    9  C9  UNL     1       7.973  16.237  13.662  1.00  0.00     0.165 C 
HETATM   10  O1  UNL     1       7.854  15.642  12.536  1.00  0.00    -0.292 OA
HETATM   11  C10 UNL     1       7.653  17.678  13.801  1.00  0.00     0.084 C 
HETATM   12  C11 UNL     1       7.428  18.344  12.473  1.00  0.00     0.032 C 
HETATM   13  C12 UNL     1       6.341  17.747  14.591  1.00  0.00     0.032 C 
HETATM   14  O2  UNL     1       9.292  19.407  14.247  1.00  0.00    -0.289 OA
ATOM     15  H4  UNL     1       9.936  19.217  16.679  1.00  0.00     0.169 HD
ENDBRANCH   3   4
BRANCH   3  16
HETATM   16  O3  UNL     1      11.403  16.752  17.813  1.00  0.00    -0.246 OA
BRANCH  16  17
HETATM   17  C14 UNL     1      11.420  15.398  18.067  1.00  0.00     0.262 C 
HETATM   18  C15 UNL     1      12.085  14.495  17.118  1.00  0.00     0.126 C 
HETATM   19  O4  UNL     1      10.848  14.999  19.129  1.00  0.00    -0.265 OA
ENDBRANCH  16  17
ENDBRANCH   3  16
BRANCH   1  20
HETATM   20  C4  UNL     1       8.467  18.363  19.228  1.00  0.00     0.228 C 
HETATM   21  N2  UNL     1       8.468  19.437  19.933  1.00  0.00    -0.312 N 
ATOM     22  H2  UNL     1       7.583  19.931  20.036  1.00  0.00     0.170 HD
BRANCH  21  23
HETATM   23  C2  UNL     1       9.588  19.983  20.570  1.00  0.00     0.075 C 
HETATM   24  N1  UNL     1       9.576  20.166  21.847  1.00  0.00    -0.384 N 
HETATM   25  C1  UNL     1      10.692  20.723  22.577  1.00  0.00     0.147 C 
ATOM     26  H1  UNL     1       8.739  19.904  22.367  1.00  0.00     0.160 HD
HETATM   27  C3  UNL     1      10.823  20.373  19.840  1.00  0.00     0.089 C 
ENDBRANCH  21  23
BRANCH  20  28
HETATM   28  O5  UNL     1       7.246  17.982  18.672  1.00  0.00    -0.312 OA
BRANCH  28  29
HETATM   29  C16 UNL     1       6.298  18.918  18.244  1.00  0.00     0.060 C 
HETATM   30  C17 UNL     1       5.277  18.190  17.382  1.00  0.00     0.046 C 
HETATM   31  C18 UNL     1       5.582  19.611  19.357  1.00  0.00     0.046 C 
HETATM   32  C19 UNL     1       6.919  19.984  17.346  1.00  0.00     0.046 C 
ENDBRANCH  28  29
ENDBRANCH  20  28
ENDBRANCH   1  20
TORSDOF 7
ENDMDL
MODEL 5
REMARK VINA RESULT: -5.972479216      1.633      4.369
REMARK  7 active torsions:
REMARK  status: ('A' for Active; 'I' for Inactive)
REMARK    1  A    between atoms: C2_4  and  N2_6 
REMARK    2  A    between atoms: C4_8  and  N3_9 
REMARK    3  A    between atoms: C4_8  and  O5_28 
REMARK    4  A    between atoms: C5_11  and  N4_12 
REMARK    5  A    between atoms: C5_11  and  O3_24 
REMARK    6  A    between atoms: O3_24  and  C14_25 
REMARK    7  A    between atoms: O5_28  and  C16_29 
ROOT
HETATM    1  N3  UNL     1       9.816  17.709  18.721  1.00  0.00    -0.287 N 
ATOM      2  H3  UNL     1      10.633  17.936  19.288  1.00  0.00     0.173 HD
HETATM    3  C5  UNL     1       9.954  16.901  17.752  1.00  0.00     0.234 C 
ENDROOT
BRANCH   3   4
HETATM    4  N4  UNL     1       8.884  16.519  16.899  1.00  0.00    -0.319 N 
HETATM    5  C6  UNL     1       8.565  17.170  15.864  1.00  0.00     0.082 C 
HETATM    6  C7  UNL     1       9.288  18.366  15.488  1.00  0.00     0.037 C 
HETATM    7  C13 UNL     1       7.457  16.780  14.974  1.00  0.00     0.191 C 
HETATM    8  C8  UNL     1       9.004  19.091  14.423  1.00  0.00     0.054 C 
HETATM    9  C9  UNL     1       7.905  18.677  13.573  1.00  0.00     0.165 C 
HETATM   10  O1  UNL     1       7.284  19.530  12.849  1.00  0.00    -0.292 OA
HETATM   11  C10 UNL     1       7.521  17.245  13.564  1.00  0.00     0.084 C 
HETATM   12  C11 UNL     1       6.233  17.003  12.829  1.00  0.00     0.032 C 
HETATM   13  C12 UNL     1       8.637  16.511  12.811  1.00  0.00     0.032 C 
HETATM   14  O2  UNL     1       6.521  16.084  15.441  1.00  0.00    -0.289 OA
ATOM     15  H4  UNL     1       8.350  15.682  17.132  1.00  0.00     0.169 HD
ENDBRANCH   3   4
BRANCH   3  16
HETATM   16  O3  UNL     1      11.217  16.373  17.522  1.00  0.00    -0.246 OA
BRANCH  16  17
HETATM   17  C14 UNL     1      11.453  15.024  17.364  1.00  0.00     0.262 C 
HETATM   18  C15 UNL     1      12.269  14.314  18.358  1.00  0.00     0.126 C 
HETATM   19  O4  UNL     1      10.940  14.460  16.347  1.00  0.00    -0.265 OA
ENDBRANCH  16  17
ENDBRANCH   3  16
BRANCH   1  20
HETATM   20  C4  UNL     1       8.556  18.318  19.055  1.00  0.00     0.228 C 
HETATM   21  N2  UNL     1       8.482  19.329  19.844  1.00  0.00    -0.312 N 
ATOM     22  H2  UNL     1       7.555  19.709  20.035  1.00  0.00     0.170 HD
BRANCH  21  23
HETATM   23  C2  UNL     1       9.571  19.951  20.464  1.00  0.00     0.075 C 
HETATM   24  N1  UNL     1       9.447  20.430  21.655  1.00  0.00    -0.384 N 
HETATM   25  C1  UNL     1      10.524  21.086  22.361  1.00  0.00     0.147 C 
ATOM     26  H1  UNL     1       8.544  20.342  22.122  1.00  0.00     0.160 HD
HETATM   27  C3  UNL     1      10.899  20.094  19.811  1.00  0.00     0.089 C 
ENDBRANCH  21  23
BRANCH  20  28
HETATM   28  O5  UNL     1       7.352  17.842  18.535  1.00  0.00    -0.312 OA
BRANCH  28  29
HETATM   29  C16 UNL     1       6.290  18.694  18.215  1.00  0.00     0.060 C 
HETATM   30  C17 UNL     1       6.859  19.896  17.475  1.00  0.00     0.046 C 
HETATM   31  C18 UNL     1       5.235  18.061  17.367  1.00  0.00     0.046 C 
HETATM   32  C19 UNL     1       5.616  19.255  19.466  1.00  0.00     0.046 C 
ENDBRANCH  28  29
ENDBRANCH  20  28
ENDBRANCH   1  20
TORSDOF 7
ENDMDL
