MODEL 1
REMARK VINA RESULT: -4.949878247      0.000      0.000
REMARK  8 active torsions:
REMARK  status: ('A' for Active; 'I' for Inactive)
REMARK    1  A    between atoms: C2_2  and  S1_3 
REMARK    2  A    between atoms: S1_3  and  C3_4 
REMARK    3  A    between atoms: C3_4  and  C4_5 
REMARK    4  A    between atoms: C7_11  and  C8_12 
REMARK    5  A    between atoms: C12_18  and  C13_19 
REMARK    6  A    between atoms: C13_19  and  C14_20 
REMARK    7  A    between atoms: C18_27  and  C19_28 
REMARK    8  A    between atoms: C19_28  and  C20_29 
ROOT
HETATM    1  C4  UNL     1      11.098  17.667   6.695  1.00  0.00     0.185 C 
HETATM    2  N1  UNL     1      11.613  16.971   7.825  1.00  0.00    -0.347 N 
ATOM      3  H1  UNL     1      11.074  16.220   8.255  1.00  0.00     0.163 HD
HETATM    4  C5  UNL     1      12.884  17.330   8.349  1.00  0.00     0.220 C 
HETATM    5  O1  UNL     1      13.700  16.497   8.811  1.00  0.00    -0.274 OA
HETATM    6  C6  UNL     1      13.267  18.776   8.347  1.00  0.00     0.128 C 
HETATM    7  C7  UNL     1      12.332  19.560   9.285  1.00  0.00     0.095 C 
HETATM    8  N2  UNL     1      12.209  20.911   8.786  1.00  0.00    -0.350 N 
HETATM    9  C10 UNL     1      13.506  21.633   8.789  1.00  0.00     0.153 C 
HETATM   10  C11 UNL     1      11.088  21.587   8.322  1.00  0.00     0.242 C 
HETATM   11  O2  UNL     1      11.242  22.165   7.175  1.00  0.00    -0.271 OA
HETATM   12  C12 UNL     1       9.747  21.784   8.871  1.00  0.00     0.177 C 
HETATM   13  N3  UNL     1       8.765  21.917   7.802  1.00  0.00    -0.346 N 
ATOM     14  H3  UNL     1       8.438  22.865   7.620  1.00  0.00     0.163 HD
HETATM   15  C17 UNL     1       8.213  20.930   6.997  1.00  0.00     0.241 C 
HETATM   16  O3  UNL     1       6.927  20.942   6.874  1.00  0.00    -0.271 OA
HETATM   17  C18 UNL     1       8.829  19.838   6.232  1.00  0.00     0.177 C 
HETATM   18  N4  UNL     1       8.685  18.531   6.851  1.00  0.00    -0.346 N 
ATOM     19  H4  UNL     1       7.871  18.365   7.442  1.00  0.00     0.163 HD
HETATM   20  C23 UNL     1       9.613  17.471   6.680  1.00  0.00     0.241 C 
HETATM   21  O4  UNL     1       9.198  16.309   6.508  1.00  0.00    -0.271 OA
ENDROOT
BRANCH   1  22
HETATM   22  C3  UNL     1      11.741  17.311   5.418  1.00  0.00     0.108 C 
BRANCH  22  23
HETATM   23  S1  UNL     1      13.080  18.205   4.761  1.00  0.00    -0.167 SA
BRANCH  23  24
HETATM   24  C2  UNL     1      14.755  17.738   5.021  1.00  0.00     0.069 C 
HETATM   25  C1  UNL     1      14.963  16.309   5.429  1.00  0.00     0.016 C 
ENDBRANCH  23  24
ENDBRANCH  22  23
ENDBRANCH   1  22
BRANCH  17  26
HETATM   26  C19 UNL     1       8.141  19.673   4.858  1.00  0.00     0.038 C 
BRANCH  26  27
HETATM   27  C20 UNL     1       8.725  20.650   3.863  1.00  0.00    -0.020 C 
HETATM   28  C21 UNL     1       7.974  20.453   2.563  1.00  0.00     0.009 C 
HETATM   29  C22 UNL     1      10.198  20.513   3.680  1.00  0.00     0.009 C 
ENDBRANCH  26  27
ENDBRANCH  17  26
BRANCH   7  30
HETATM   30  C8  UNL     1      12.935  19.674  10.664  1.00  0.00     0.021 C 
HETATM   31  C9  UNL     1      12.057  19.248  11.778  1.00  0.00     0.007 C 
ENDBRANCH   7  30
BRANCH  12  32
HETATM   32  C13 UNL     1       9.325  20.858   9.952  1.00  0.00     0.038 C 
BRANCH  32  33
HETATM   33  C14 UNL     1       8.973  21.526  11.244  1.00  0.00    -0.020 C 
HETATM   34  C15 UNL     1       8.601  20.462  12.292  1.00  0.00     0.009 C 
HETATM   35  C16 UNL     1      10.029  22.377  11.836  1.00  0.00     0.009 C 
ENDBRANCH  32  33
ENDBRANCH  12  32
TORSDOF 8
ENDMDL
MODEL 2
REMARK VINA RESULT: -4.888029510     11.287     14.438
REMARK  8 active torsions:
REMARK  status: ('A' for Active; 'I' for Inactive)
REMARK    1  A    between atoms: C2_2  and  S1_3 
REMARK    2  A    between atoms: S1_3  and  C3_4 
REMARK    3  A    between atoms: C3_4  and  C4_5 
REMARK    4  A    between atoms: C7_11  and  C8_12 
REMARK    5  A    between atoms: C12_18  and  C13_19 
REMARK    6  A    between atoms: C13_19  and  C14_20 
REMARK    7  A    between atoms: C18_27  and  C19_28 
REMARK    8  A    between atoms: C19_28  and  C20_29 
ROOT
HETATM    1  C4  UNL     1      16.836  10.547  -2.170  1.00  0.00     0.185 C 
HETATM    2  N1  UNL     1      16.025   9.836  -1.241  1.00  0.00    -0.347 N 
ATOM      3  H1  UNL     1      15.740   8.877  -1.437  1.00  0.00     0.163 HD
HETATM    4  C5  UNL     1      15.618  10.472  -0.038  1.00  0.00     0.220 C 
HETATM    5  O1  UNL     1      15.523   9.874   1.060  1.00  0.00    -0.274 OA
HETATM    6  C6  UNL     1      15.285  11.929  -0.086  1.00  0.00     0.128 C 
HETATM    7  C7  UNL     1      14.043  12.148  -0.968  1.00  0.00     0.095 C 
HETATM    8  N2  UNL     1      14.133  13.457  -1.573  1.00  0.00    -0.350 N 
HETATM    9  C10 UNL     1      14.127  14.546  -0.564  1.00  0.00     0.153 C 
HETATM   10  C11 UNL     1      14.227  13.811  -2.914  1.00  0.00     0.242 C 
HETATM   11  O2  UNL     1      15.184  14.636  -3.189  1.00  0.00    -0.271 OA
HETATM   12  C12 UNL     1      13.453  13.438  -4.096  1.00  0.00     0.177 C 
HETATM   13  N3  UNL     1      14.290  13.464  -5.290  1.00  0.00    -0.346 N 
ATOM     14  H3  UNL     1      14.158  14.269  -5.902  1.00  0.00     0.163 HD
HETATM   15  C17 UNL     1      15.240  12.544  -5.709  1.00  0.00     0.241 C 
HETATM   16  O3  UNL     1      15.165  12.160  -6.941  1.00  0.00    -0.271 OA
HETATM   17  C18 UNL     1      16.354  11.902  -5.001  1.00  0.00     0.177 C 
HETATM   18  N4  UNL     1      16.098  10.520  -4.629  1.00  0.00    -0.346 N 
ATOM     19  H4  UNL     1      15.460   9.976  -5.211  1.00  0.00     0.163 HD
HETATM   20  C23 UNL     1      16.684   9.884  -3.505  1.00  0.00     0.241 C 
HETATM   21  O4  UNL     1      17.101   8.714  -3.605  1.00  0.00    -0.271 OA
ENDROOT
BRANCH   1  22
HETATM   22  C3  UNL     1      18.243  10.699  -1.757  1.00  0.00     0.108 C 
BRANCH  22  23
HETATM   23  S1  UNL     1      18.794  12.029  -0.783  1.00  0.00    -0.167 SA
BRANCH  23  24
HETATM   24  C2  UNL     1      18.961  11.923   0.964  1.00  0.00     0.069 C 
HETATM   25  C1  UNL     1      19.012  10.530   1.518  1.00  0.00     0.016 C 
ENDBRANCH  23  24
ENDBRANCH  22  23
ENDBRANCH   1  22
BRANCH  17  26
HETATM   26  C19 UNL     1      17.605  11.814  -5.905  1.00  0.00     0.038 C 
BRANCH  26  27
HETATM   27  C20 UNL     1      18.726  12.645  -5.324  1.00  0.00    -0.020 C 
HETATM   28  C21 UNL     1      19.811  11.680  -4.897  1.00  0.00     0.009 C 
HETATM   29  C22 UNL     1      18.299  13.532  -4.204  1.00  0.00     0.009 C 
ENDBRANCH  26  27
ENDBRANCH  17  26
BRANCH   7  30
HETATM   30  C8  UNL     1      12.789  12.159  -0.127  1.00  0.00     0.021 C 
HETATM   31  C9  UNL     1      11.665  11.349  -0.652  1.00  0.00     0.007 C 
ENDBRANCH   7  30
BRANCH  12  32
HETATM   32  C13 UNL     1      12.613  12.218  -3.989  1.00  0.00     0.038 C 
BRANCH  32  33
HETATM   33  C14 UNL     1      11.146  12.454  -4.164  1.00  0.00    -0.020 C 
HETATM   34  C15 UNL     1      10.883  13.077  -5.546  1.00  0.00     0.009 C 
HETATM   35  C16 UNL     1      10.284  11.256  -4.049  1.00  0.00     0.009 C 
ENDBRANCH  32  33
ENDBRANCH  12  32
TORSDOF 8
ENDMDL
MODEL 3
REMARK VINA RESULT: -4.875707140      7.633     12.240
REMARK  8 active torsions:
REMARK  status: ('A' for Active; 'I' for Inactive)
REMARK    1  A    between atoms: C2_2  and  S1_3 
REMARK    2  A    between atoms: S1_3  and  C3_4 
REMARK    3  A    between atoms: C3_4  and  C4_5 
REMARK    4  A    between atoms: C7_11  and  C8_12 
REMARK    5  A    between atoms: C12_18  and  C13_19 
REMARK    6  A    between atoms: C13_19  and  C14_20 
REMARK    7  A    between atoms: C18_27  and  C19_28 
REMARK    8  A    between atoms: C19_28  and  C20_29 
ROOT
HETATM    1  C4  UNL     1      15.915  14.905   1.840  1.00  0.00     0.185 C 
HETATM    2  N1  UNL     1      17.084  15.413   2.474  1.00  0.00    -0.347 N 
ATOM      3  H1  UNL     1      17.624  16.157   2.033  1.00  0.00     0.163 HD
HETATM    4  C5  UNL     1      17.492  14.874   3.723  1.00  0.00     0.220 C 
HETATM    5  O1  UNL     1      17.997  15.566   4.640  1.00  0.00    -0.274 OA
HETATM    6  C6  UNL     1      17.309  13.409   3.956  1.00  0.00     0.128 C 
HETATM    7  C7  UNL     1      18.205  12.615   2.990  1.00  0.00     0.095 C 
HETATM    8  N2  UNL     1      17.568  11.349   2.707  1.00  0.00    -0.350 N 
HETATM    9  C10 UNL     1      17.417  10.510   3.923  1.00  0.00     0.153 C 
HETATM   10  C11 UNL     1      17.095  10.842   1.503  1.00  0.00     0.242 C 
HETATM   11  O2  UNL     1      15.885  10.388   1.546  1.00  0.00    -0.271 OA
HETATM   12  C12 UNL     1      17.694  10.712   0.176  1.00  0.00     0.177 C 
HETATM   13  N3  UNL     1      16.674  10.800  -0.863  1.00  0.00    -0.346 N 
ATOM     14  H3  UNL     1      16.407   9.915  -1.292  1.00  0.00     0.163 HD
HETATM   15  C17 UNL     1      16.016  11.922  -1.346  1.00  0.00     0.241 C 
HETATM   16  O3  UNL     1      15.965  12.048  -2.631  1.00  0.00    -0.271 OA
HETATM   17  C18 UNL     1      15.344  13.030  -0.658  1.00  0.00     0.177 C 
HETATM   18  N4  UNL     1      16.110  14.265  -0.639  1.00  0.00    -0.346 N 
ATOM     19  H4  UNL     1      16.761  14.439  -1.405  1.00  0.00     0.163 HD
HETATM   20  C23 UNL     1      16.006  15.243   0.383  1.00  0.00     0.241 C 
HETATM   21  O4  UNL     1      15.987  16.452   0.081  1.00  0.00    -0.271 OA
ENDROOT
BRANCH   1  22
HETATM   22  C3  UNL     1      14.650  15.343   2.457  1.00  0.00     0.108 C 
BRANCH  22  23
HETATM   23  S1  UNL     1      14.452  16.918   3.168  1.00  0.00    -0.167 SA
BRANCH  23  24
HETATM   24  C2  UNL     1      13.628  17.173   4.699  1.00  0.00     0.069 C 
HETATM   25  C1  UNL     1      12.143  17.364   4.602  1.00  0.00     0.016 C 
ENDBRANCH  23  24
ENDBRANCH  22  23
ENDBRANCH   1  22
BRANCH  17  26
HETATM   26  C19 UNL     1      14.037  13.419  -1.387  1.00  0.00     0.038 C 
BRANCH  26  27
HETATM   27  C20 UNL     1      13.050  12.276  -1.331  1.00  0.00    -0.020 C 
HETATM   28  C21 UNL     1      12.156  12.408  -2.546  1.00  0.00     0.009 C 
HETATM   29  C22 UNL     1      12.264  12.221  -0.065  1.00  0.00     0.009 C 
ENDBRANCH  26  27
ENDBRANCH  17  26
BRANCH   7  30
HETATM   30  C8  UNL     1      19.527  12.284   3.640  1.00  0.00     0.021 C 
HETATM   31  C9  UNL     1      20.690  13.053   3.141  1.00  0.00     0.007 C 
ENDBRANCH   7  30
BRANCH  12  32
HETATM   32  C13 UNL     1      18.893  11.544  -0.101  1.00  0.00     0.038 C 
BRANCH  32  33
HETATM   33  C14 UNL     1      20.135  10.766  -0.405  1.00  0.00    -0.020 C 
HETATM   34  C15 UNL     1      20.625  10.054   0.868  1.00  0.00     0.009 C 
HETATM   35  C16 UNL     1      20.006   9.738  -1.463  1.00  0.00     0.009 C 
ENDBRANCH  32  33
ENDBRANCH  12  32
TORSDOF 8
ENDMDL
MODEL 4
REMARK VINA RESULT: -4.798561694      1.939      2.609
REMARK  8 active torsions:
REMARK  status: ('A' for Active; 'I' for Inactive)
REMARK    1  A    between atoms: C2_2  and  S1_3 
REMARK    2  A    between atoms: S1_3  and  C3_4 
REMARK    3  A    between atoms: C3_4  and  C4_5 
REMARK    4  A    between atoms: C7_11  and  C8_12 
REMARK    5  A    between atoms: C12_18  and  C13_19 
REMARK    6  A    between atoms: C13_19  and  C14_20 
REMARK    7  A    between atoms: C18_27  and  C19_28 
REMARK    8  A    between atoms: C19_28  and  C20_29 
ROOT
HETATM    1  C4  UNL     1      13.360  17.952   8.305  1.00  0.00     0.185 C 
HETATM    2  N1  UNL     1      13.685  17.754   9.677  1.00  0.00    -0.347 N 
ATOM      3  H1  UNL     1      13.367  16.918  10.165  1.00  0.00     0.163 HD
HETATM    4  C5  UNL     1      14.457  18.732  10.361  1.00  0.00     0.220 C 
HETATM    5  O1  UNL     1      15.320  18.448  11.225  1.00  0.00    -0.274 OA
HETATM    6  C6  UNL     1      14.227  20.172  10.032  1.00  0.00     0.128 C 
HETATM    7  C7  UNL     1      12.804  20.578  10.451  1.00  0.00     0.095 C 
HETATM    8  N2  UNL     1      12.345  21.627   9.568  1.00  0.00    -0.350 N 
HETATM    9  C10 UNL     1      13.177  22.853   9.670  1.00  0.00     0.153 C 
HETATM   10  C11 UNL     1      11.281  21.633   8.675  1.00  0.00     0.242 C 
HETATM   11  O2  UNL     1      11.581  22.031   7.481  1.00  0.00    -0.271 OA
HETATM   12  C12 UNL     1       9.869  21.280   8.808  1.00  0.00     0.177 C 
HETATM   13  N3  UNL     1       9.340  20.779   7.545  1.00  0.00    -0.346 N 
ATOM     14  H3  UNL     1       8.756  21.432   7.024  1.00  0.00     0.163 HD
HETATM   15  C17 UNL     1       9.523  19.537   6.954  1.00  0.00     0.241 C 
HETATM   16  O3  UNL     1       8.459  18.940   6.530  1.00  0.00    -0.271 OA
HETATM   17  C18 UNL     1      10.733  18.743   6.707  1.00  0.00     0.177 C 
HETATM   18  N4  UNL     1      10.905  17.629   7.626  1.00  0.00    -0.346 N 
ATOM     19  H4  UNL     1      10.069  17.204   8.028  1.00  0.00     0.163 HD
HETATM   20  C23 UNL     1      12.168  17.099   7.995  1.00  0.00     0.241 C 
HETATM   21  O4  UNL     1      12.320  15.865   8.074  1.00  0.00    -0.271 OA
ENDROOT
BRANCH   1  22
HETATM   22  C3  UNL     1      14.484  17.734   7.377  1.00  0.00     0.108 C 
BRANCH  22  23
HETATM   23  S1  UNL     1      15.701  16.521   7.649  1.00  0.00    -0.167 SA
BRANCH  23  24
HETATM   24  C2  UNL     1      16.576  15.743   6.339  1.00  0.00     0.069 C 
HETATM   25  C1  UNL     1      15.755  15.419   5.126  1.00  0.00     0.016 C 
ENDBRANCH  23  24
ENDBRANCH  22  23
ENDBRANCH   1  22
BRANCH  17  26
HETATM   26  C19 UNL     1      10.676  18.068   5.318  1.00  0.00     0.038 C 
BRANCH  26  27
HETATM   27  C20 UNL     1      11.812  18.564   4.452  1.00  0.00    -0.020 C 
HETATM   28  C21 UNL     1      12.722  17.380   4.203  1.00  0.00     0.009 C 
HETATM   29  C22 UNL     1      12.551  19.721   5.033  1.00  0.00     0.009 C 
ENDBRANCH  26  27
ENDBRANCH  17  26
BRANCH   7  30
HETATM   30  C8  UNL     1      12.806  21.170  11.840  1.00  0.00     0.021 C 
HETATM   31  C9  UNL     1      12.291  20.283  12.909  1.00  0.00     0.007 C 
ENDBRANCH   7  30
BRANCH  12  32
HETATM   32  C13 UNL     1       9.497  20.444   9.978  1.00  0.00     0.038 C 
BRANCH  32  33
HETATM   33  C14 UNL     1       9.033  21.216  11.173  1.00  0.00    -0.020 C 
HETATM   34  C15 UNL     1       7.869  22.140  10.772  1.00  0.00     0.009 C 
HETATM   35  C16 UNL     1       8.575  20.406  12.324  1.00  0.00     0.009 C 
ENDBRANCH  32  33
ENDBRANCH  12  32
TORSDOF 8
ENDMDL
MODEL 5
REMARK VINA RESULT: -4.722943931      8.217     12.695
REMARK  8 active torsions:
REMARK  status: ('A' for Active; 'I' for Inactive)
REMARK    1  A    between atoms: C2_2  and  S1_3 
REMARK    2  A    between atoms: S1_3  and  C3_4 
REMARK    3  A    between atoms: C3_4  and  C4_5 
REMARK    4  A    between atoms: C7_11  and  C8_12 
REMARK    5  A    between atoms: C12_18  and  C13_19 
REMARK    6  A    between atoms: C13_19  and  C14_20 
REMARK    7  A    between atoms: C18_27  and  C19_28 
REMARK    8  A    between atoms: C19_28  and  C20_29 
ROOT
HETATM    1  C4  UNL     1      15.477  14.582   0.992  1.00  0.00     0.185 C 
HETATM    2  N1  UNL     1      16.769  15.145   1.189  1.00  0.00    -0.347 N 
ATOM      3  H1  UNL     1      17.110  15.879   0.567  1.00  0.00     0.163 HD
HETATM    4  C5  UNL     1      17.581  14.677   2.256  1.00  0.00     0.220 C 
HETATM    5  O1  UNL     1      18.332  15.423   2.930  1.00  0.00    -0.274 OA
HETATM    6  C6  UNL     1      17.537  13.221   2.593  1.00  0.00     0.128 C 
HETATM    7  C7  UNL     1      18.097  12.401   1.419  1.00  0.00     0.095 C 
HETATM    8  N2  UNL     1      17.449  11.109   1.409  1.00  0.00    -0.350 N 
HETATM    9  C10 UNL     1      17.733  10.327   2.639  1.00  0.00     0.153 C 
HETATM   10  C11 UNL     1      16.629  10.535   0.446  1.00  0.00     0.242 C 
HETATM   11  O2  UNL     1      15.515  10.057   0.900  1.00  0.00    -0.271 OA
HETATM   12  C12 UNL     1      16.767  10.353  -0.998  1.00  0.00     0.177 C 
HETATM   13  N3  UNL     1      15.462  10.369  -1.648  1.00  0.00    -0.346 N 
ATOM     14  H3  UNL     1      15.102   9.458  -1.932  1.00  0.00     0.163 HD
HETATM   15  C17 UNL     1      14.643  11.451  -1.934  1.00  0.00     0.241 C 
HETATM   16  O3  UNL     1      14.172  11.514  -3.135  1.00  0.00    -0.271 OA
HETATM   17  C18 UNL     1      14.191  12.577  -1.107  1.00  0.00     0.177 C 
HETATM   18  N4  UNL     1      14.878  13.827  -1.388  1.00  0.00    -0.346 N 
ATOM     19  H4  UNL     1      15.236  13.978  -2.331  1.00  0.00     0.163 HD
HETATM   20  C23 UNL     1      15.076  14.851  -0.426  1.00  0.00     0.241 C 
HETATM   21  O4  UNL     1      14.917  16.043  -0.752  1.00  0.00    -0.271 OA
ENDROOT
BRANCH   1  22
HETATM   22  C3  UNL     1      14.467  15.023   1.971  1.00  0.00     0.108 C 
BRANCH  22  23
HETATM   23  S1  UNL     1      14.522  16.586   2.733  1.00  0.00    -0.167 SA
BRANCH  23  24
HETATM   24  C2  UNL     1      15.352  16.872   4.256  1.00  0.00     0.069 C 
HETATM   25  C1  UNL     1      15.423  15.691   5.177  1.00  0.00     0.016 C 
ENDBRANCH  23  24
ENDBRANCH  22  23
ENDBRANCH   1  22
BRANCH  17  26
HETATM   26  C19 UNL     1      12.706  12.902  -1.383  1.00  0.00     0.038 C 
BRANCH  26  27
HETATM   27  C20 UNL     1      11.855  11.672  -1.165  1.00  0.00    -0.020 C 
HETATM   28  C21 UNL     1      10.830  11.644  -2.280  1.00  0.00     0.009 C 
HETATM   29  C22 UNL     1      11.215  11.614   0.180  1.00  0.00     0.009 C 
ENDBRANCH  26  27
ENDBRANCH  17  26
BRANCH   7  30
HETATM   30  C8  UNL     1      19.570  12.130   1.613  1.00  0.00     0.021 C 
HETATM   31  C9  UNL     1      20.476  12.856   0.693  1.00  0.00     0.007 C 
ENDBRANCH   7  30
BRANCH  12  32
HETATM   32  C13 UNL     1      17.780  11.196  -1.683  1.00  0.00     0.038 C 
BRANCH  32  33
HETATM   33  C14 UNL     1      18.916  10.435  -2.290  1.00  0.00    -0.020 C 
HETATM   34  C15 UNL     1      19.745  11.371  -3.188  1.00  0.00     0.009 C 
HETATM   35  C16 UNL     1      19.851   9.803  -1.332  1.00  0.00     0.009 C 
ENDBRANCH  32  33
ENDBRANCH  12  32
TORSDOF 8
ENDMDL
