MODEL 1
REMARK VINA RESULT: -5.363287063      0.000      0.000
REMARK  2 active torsions:
REMARK  status: ('A' for Active; 'I' for Inactive)
REMARK    1  A    between atoms: C10_10  and  N1_11 
REMARK    2  A    between atoms: N1_11  and  O1_13 
ROOT
HETATM    1  C1  UNL     1      58.337  -6.521  58.992  1.00  0.00     0.016 C 
HETATM    2  C2  UNL     1      58.864  -6.672  57.785  1.00  0.00    -0.064 C 
HETATM    3  C3  UNL     1      58.695  -8.016  57.231  1.00  0.00     0.040 C 
HETATM    4  C4  UNL     1      58.833  -8.109  55.746  1.00  0.00    -0.011 C 
HETATM    5  C5  UNL     1      60.258  -7.785  55.353  1.00  0.00     0.005 C 
HETATM    6  C6  UNL     1      60.451  -6.334  55.113  1.00  0.00     0.007 C 
HETATM    7  C7  UNL     1      59.463  -5.442  55.791  1.00  0.00     0.014 C 
HETATM    8  C8  UNL     1      58.028  -5.760  55.415  1.00  0.00     0.007 C 
HETATM    9  C9  UNL     1      57.925  -7.226  54.970  1.00  0.00     0.005 C 
HETATM   10  C10 UNL     1      59.508  -5.421  57.278  1.00  0.00     0.138 C 
ENDROOT
BRANCH  10  11
HETATM   11  N1  UNL     1      60.736  -5.122  57.901  1.00  0.00    -0.296 N 
ATOM     12  H1  UNL     1      61.436  -5.847  58.064  1.00  0.00     0.188 HD
BRANCH  11  13
HETATM   13  O1  UNL     1      60.953  -3.866  58.270  1.00  0.00    -0.294 OA
ATOM     14  H1  UNL     1      61.817  -3.643  58.597  1.00  0.00     0.244 HD
ENDBRANCH  11  13
ENDBRANCH  10  11
TORSDOF 2
ENDMDL
MODEL 2
REMARK VINA RESULT: -5.028792625      1.890      2.946
REMARK  2 active torsions:
REMARK  status: ('A' for Active; 'I' for Inactive)
REMARK    1  A    between atoms: C10_10  and  N1_11 
REMARK    2  A    between atoms: N1_11  and  O1_13 
ROOT
HETATM    1  C1  UNL     1      60.046  -4.511  57.792  1.00  0.00     0.016 C 
HETATM    2  C2  UNL     1      59.433  -5.428  57.057  1.00  0.00    -0.064 C 
HETATM    3  C3  UNL     1      59.144  -4.992  55.690  1.00  0.00     0.040 C 
HETATM    4  C4  UNL     1      58.902  -6.096  54.713  1.00  0.00    -0.011 C 
HETATM    5  C5  UNL     1      57.631  -6.828  55.084  1.00  0.00     0.005 C 
HETATM    6  C6  UNL     1      57.888  -7.943  56.028  1.00  0.00     0.007 C 
HETATM    7  C7  UNL     1      59.141  -7.818  56.832  1.00  0.00     0.014 C 
HETATM    8  C8  UNL     1      60.382  -7.679  55.970  1.00  0.00     0.007 C 
HETATM    9  C9  UNL     1      59.997  -7.094  54.603  1.00  0.00     0.005 C 
HETATM   10  C10 UNL     1      59.186  -6.698  57.809  1.00  0.00     0.138 C 
ENDROOT
BRANCH  10  11
HETATM   11  N1  UNL     1      58.148  -6.601  58.758  1.00  0.00    -0.296 N 
ATOM     12  H1  UNL     1      57.704  -5.706  58.964  1.00  0.00     0.188 HD
BRANCH  11  13
HETATM   13  O1  UNL     1      57.770  -7.713  59.375  1.00  0.00    -0.294 OA
ATOM     14  H1  UNL     1      57.358  -7.629  60.227  1.00  0.00     0.244 HD
ENDBRANCH  11  13
ENDBRANCH  10  11
TORSDOF 2
ENDMDL
MODEL 3
REMARK VINA RESULT: -4.913585097      7.373      8.345
REMARK  2 active torsions:
REMARK  status: ('A' for Active; 'I' for Inactive)
REMARK    1  A    between atoms: C10_10  and  N1_11 
REMARK    2  A    between atoms: N1_11  and  O1_13 
ROOT
HETATM    1  C1  UNL     1      52.693 -13.748  56.773  1.00  0.00     0.016 C 
HETATM    2  C2  UNL     1      53.438 -12.797  57.319  1.00  0.00    -0.064 C 
HETATM    3  C3  UNL     1      54.877 -13.011  57.160  1.00  0.00     0.040 C 
HETATM    4  C4  UNL     1      55.719 -11.788  57.321  1.00  0.00    -0.011 C 
HETATM    5  C5  UNL     1      55.631 -11.301  58.751  1.00  0.00     0.005 C 
HETATM    6  C6  UNL     1      54.508 -10.352  58.945  1.00  0.00     0.007 C 
HETATM    7  C7  UNL     1      53.403 -10.462  57.946  1.00  0.00     0.014 C 
HETATM    8  C8  UNL     1      53.883 -10.286  56.517  1.00  0.00     0.007 C 
HETATM    9  C9  UNL     1      55.370 -10.657  56.423  1.00  0.00     0.005 C 
HETATM   10  C10 UNL     1      52.620 -11.726  57.968  1.00  0.00     0.138 C 
ENDROOT
BRANCH  10  11
HETATM   11  N1  UNL     1      52.032 -12.122  59.186  1.00  0.00    -0.296 N 
ATOM     12  H1  UNL     1      52.489 -12.801  59.797  1.00  0.00     0.188 HD
BRANCH  11  13
HETATM   13  O1  UNL     1      50.864 -11.583  59.513  1.00  0.00    -0.294 OA
ATOM     14  H1  UNL     1      50.194 -12.158  59.863  1.00  0.00     0.244 HD
ENDBRANCH  11  13
ENDBRANCH  10  11
TORSDOF 2
ENDMDL
MODEL 4
REMARK VINA RESULT: -4.909481513      2.024      2.514
REMARK  2 active torsions:
REMARK  status: ('A' for Active; 'I' for Inactive)
REMARK    1  A    between atoms: C10_10  and  N1_11 
REMARK    2  A    between atoms: N1_11  and  O1_13 
ROOT
HETATM    1  C1  UNL     1      56.183  -7.989  56.000  1.00  0.00     0.016 C 
HETATM    2  C2  UNL     1      57.479  -7.731  55.890  1.00  0.00    -0.064 C 
HETATM    3  C3  UNL     1      58.113  -8.370  54.736  1.00  0.00     0.040 C 
HETATM    4  C4  UNL     1      59.404  -7.756  54.304  1.00  0.00    -0.011 C 
HETATM    5  C5  UNL     1      60.444  -7.958  55.384  1.00  0.00     0.005 C 
HETATM    6  C6  UNL     1      60.440  -6.852  56.372  1.00  0.00     0.007 C 
HETATM    7  C7  UNL     1      59.159  -6.090  56.467  1.00  0.00     0.014 C 
HETATM    8  C8  UNL     1      58.731  -5.491  55.139  1.00  0.00     0.007 C 
HETATM    9  C9  UNL     1      59.339  -6.305  53.987  1.00  0.00     0.005 C 
HETATM   10  C10 UNL     1      57.983  -6.841  56.982  1.00  0.00     0.138 C 
ENDROOT
BRANCH  10  11
HETATM   11  N1  UNL     1      58.101  -7.485  58.230  1.00  0.00    -0.296 N 
ATOM     12  H1  UNL     1      58.430  -8.448  58.297  1.00  0.00     0.188 HD
BRANCH  11  13
HETATM   13  O1  UNL     1      57.769  -6.796  59.315  1.00  0.00    -0.294 OA
ATOM     14  H1  UNL     1      57.783  -7.250  60.149  1.00  0.00     0.244 HD
ENDBRANCH  11  13
ENDBRANCH  10  11
TORSDOF 2
ENDMDL
MODEL 5
REMARK VINA RESULT: -4.829845800      7.502      8.517
REMARK  2 active torsions:
REMARK  status: ('A' for Active; 'I' for Inactive)
REMARK    1  A    between atoms: C10_10  and  N1_11 
REMARK    2  A    between atoms: N1_11  and  O1_13 
ROOT
HETATM    1  C1  UNL     1      55.210 -10.859  59.441  1.00  0.00     0.016 C 
HETATM    2  C2  UNL     1      54.476 -11.203  58.392  1.00  0.00    -0.064 C 
HETATM    3  C3  UNL     1      55.015 -10.734  57.114  1.00  0.00     0.040 C 
HETATM    4  C4  UNL     1      54.518 -11.467  55.912  1.00  0.00    -0.011 C 
HETATM    5  C5  UNL     1      53.037 -11.207  55.741  1.00  0.00     0.005 C 
HETATM    6  C6  UNL     1      52.212 -12.195  56.479  1.00  0.00     0.007 C 
HETATM    7  C7  UNL     1      52.897 -12.866  57.624  1.00  0.00     0.014 C 
HETATM    8  C8  UNL     1      54.170 -13.582  57.210  1.00  0.00     0.007 C 
HETATM    9  C9  UNL     1      54.732 -12.937  55.934  1.00  0.00     0.005 C 
HETATM   10  C10 UNL     1      53.265 -11.995  58.772  1.00  0.00     0.138 C 
ENDROOT
BRANCH  10  11
HETATM   11  N1  UNL     1      52.249 -11.224  59.373  1.00  0.00    -0.296 N 
ATOM     12  H1  UNL     1      52.433 -10.277  59.705  1.00  0.00     0.188 HD
BRANCH  11  13
HETATM   13  O1  UNL     1      51.047 -11.773  59.495  1.00  0.00    -0.294 OA
ATOM     14  H1  UNL     1      50.869 -12.564  59.000  1.00  0.00     0.244 HD
ENDBRANCH  11  13
ENDBRANCH  10  11
TORSDOF 2
ENDMDL
