MODEL 1
REMARK VINA RESULT: -5.558019331      0.000      0.000
REMARK  2 active torsions:
REMARK  status: ('A' for Active; 'I' for Inactive)
REMARK    1  A    between atoms: C1_4  and  C2_5 
REMARK    2  A    between atoms: C2_5  and  N3_9 
ROOT
HETATM    1  N3  UNL     1      59.236  -6.267  57.329  1.00  0.00    -0.357 N 
HETATM    2  C3  UNL     1      58.885  -5.684  56.064  1.00  0.00     0.086 C 
HETATM    3  C4  UNL     1      57.817  -6.482  55.340  1.00  0.00     0.025 C 
HETATM    4  C5  UNL     1      57.181  -7.540  56.204  1.00  0.00     0.004 C 
HETATM    5  C6  UNL     1      58.197  -8.390  56.914  1.00  0.00     0.025 C 
HETATM    6  C7  UNL     1      59.491  -7.655  57.005  1.00  0.00     0.086 C 
HETATM    7  C8  UNL     1      60.215  -7.561  55.665  1.00  0.00     0.027 C 
HETATM    8  C9  UNL     1      60.187  -6.064  55.300  1.00  0.00     0.027 C 
ENDROOT
BRANCH   1   9
HETATM    9  C2  UNL     1      59.357  -5.685  58.602  1.00  0.00     0.112 C 
HETATM   10  N2  UNL     1      58.427  -5.965  59.515  1.00  0.00    -0.384 N 
ATOM     11  H22 UNL     1      58.515  -5.543  60.440  1.00  0.00     0.157 HD
ATOM     12  H21 UNL     1      57.685  -6.594  59.210  1.00  0.00     0.157 HD
BRANCH   9  13
HETATM   13  C1  UNL     1      60.401  -4.800  59.032  1.00  0.00     0.129 C 
HETATM   14  N1  UNL     1      60.754  -3.788  58.365  1.00  0.00    -0.405 N 
ATOM     15  H12 UNL     1      60.266  -3.606  57.487  1.00  0.00     0.155 HD
ATOM     16  H11 UNL     1      61.497  -3.159  58.670  1.00  0.00     0.155 HD
ENDBRANCH   9  13
ENDBRANCH   1   9
TORSDOF 2
ENDMDL
MODEL 2
REMARK VINA RESULT: -5.387311019      0.463      2.259
REMARK  2 active torsions:
REMARK  status: ('A' for Active; 'I' for Inactive)
REMARK    1  A    between atoms: C1_4  and  C2_5 
REMARK    2  A    between atoms: C2_5  and  N3_9 
ROOT
HETATM    1  N3  UNL     1      59.020  -6.466  57.324  1.00  0.00    -0.357 N 
HETATM    2  C3  UNL     1      59.482  -7.728  56.818  1.00  0.00     0.086 C 
HETATM    3  C4  UNL     1      60.015  -7.619  55.401  1.00  0.00     0.025 C 
HETATM    4  C5  UNL     1      60.185  -6.195  54.941  1.00  0.00     0.004 C 
HETATM    5  C6  UNL     1      58.962  -5.357  55.196  1.00  0.00     0.025 C 
HETATM    6  C7  UNL     1      58.146  -5.979  56.277  1.00  0.00     0.086 C 
HETATM    7  C8  UNL     1      57.425  -7.246  55.823  1.00  0.00     0.027 C 
HETATM    8  C9  UNL     1      58.087  -8.388  56.619  1.00  0.00     0.027 C 
ENDROOT
BRANCH   1   9
HETATM    9  C2  UNL     1      59.283  -5.817  58.542  1.00  0.00     0.112 C 
HETATM   10  N2  UNL     1      58.417  -5.977  59.543  1.00  0.00    -0.384 N 
ATOM     11  H22 UNL     1      58.607  -5.506  60.427  1.00  0.00     0.157 HD
ATOM     12  H21 UNL     1      57.614  -6.573  59.339  1.00  0.00     0.157 HD
BRANCH   9  13
HETATM   13  C1  UNL     1      60.412  -4.979  58.827  1.00  0.00     0.129 C 
HETATM   14  N1  UNL     1      60.612  -3.880  58.238  1.00  0.00    -0.405 N 
ATOM     15  H12 UNL     1      59.933  -3.592  57.533  1.00  0.00     0.155 HD
ATOM     16  H11 UNL     1      61.415  -3.285  58.441  1.00  0.00     0.155 HD
ENDBRANCH   9  13
ENDBRANCH   1   9
TORSDOF 2
ENDMDL
MODEL 3
REMARK VINA RESULT: -5.042347444      0.890      2.756
REMARK  2 active torsions:
REMARK  status: ('A' for Active; 'I' for Inactive)
REMARK    1  A    between atoms: C1_4  and  C2_5 
REMARK    2  A    between atoms: C2_5  and  N3_9 
ROOT
HETATM    1  N3  UNL     1      59.159  -6.473  56.766  1.00  0.00    -0.357 N 
HETATM    2  C3  UNL     1      59.551  -7.811  56.421  1.00  0.00     0.086 C 
HETATM    3  C4  UNL     1      59.909  -7.944  54.952  1.00  0.00     0.025 C 
HETATM    4  C5  UNL     1      60.028  -6.617  54.249  1.00  0.00     0.004 C 
HETATM    5  C6  UNL     1      58.849  -5.721  54.507  1.00  0.00     0.025 C 
HETATM    6  C7  UNL     1      58.167  -6.140  55.765  1.00  0.00     0.086 C 
HETATM    7  C8  UNL     1      57.391  -7.446  55.612  1.00  0.00     0.027 C 
HETATM    8  C9  UNL     1      58.139  -8.460  56.500  1.00  0.00     0.027 C 
ENDROOT
BRANCH   1   9
HETATM    9  C2  UNL     1      59.570  -5.643  57.822  1.00  0.00     0.112 C 
HETATM   10  N2  UNL     1      60.486  -4.707  57.571  1.00  0.00    -0.384 N 
ATOM     11  H22 UNL     1      60.785  -4.105  58.338  1.00  0.00     0.157 HD
ATOM     12  H21 UNL     1      60.823  -4.668  56.609  1.00  0.00     0.157 HD
BRANCH   9  13
HETATM   13  C1  UNL     1      59.095  -5.699  59.175  1.00  0.00     0.129 C 
HETATM   14  N1  UNL     1      58.105  -6.401  59.522  1.00  0.00    -0.405 N 
ATOM     15  H12 UNL     1      57.634  -6.944  58.798  1.00  0.00     0.155 HD
ATOM     16  H11 UNL     1      57.768  -6.440  60.484  1.00  0.00     0.155 HD
ENDBRANCH   9  13
ENDBRANCH   1   9
TORSDOF 2
ENDMDL
MODEL 4
REMARK VINA RESULT: -4.740129587      2.126      3.555
REMARK  2 active torsions:
REMARK  status: ('A' for Active; 'I' for Inactive)
REMARK    1  A    between atoms: C1_4  and  C2_5 
REMARK    2  A    between atoms: C2_5  and  N3_9 
ROOT
HETATM    1  N3  UNL     1      57.354  -8.420  57.051  1.00  0.00    -0.357 N 
HETATM    2  C3  UNL     1      57.152  -9.715  56.463  1.00  0.00     0.086 C 
HETATM    3  C4  UNL     1      57.705  -9.798  55.052  1.00  0.00     0.025 C 
HETATM    4  C5  UNL     1      58.561  -8.615  54.681  1.00  0.00     0.004 C 
HETATM    5  C6  UNL     1      57.898  -7.303  54.997  1.00  0.00     0.025 C 
HETATM    6  C7  UNL     1      56.855  -7.508  56.042  1.00  0.00     0.086 C 
HETATM    7  C8  UNL     1      55.619  -8.231  55.515  1.00  0.00     0.027 C 
HETATM    8  C9  UNL     1      55.618  -9.595  56.233  1.00  0.00     0.027 C 
ENDROOT
BRANCH   1   9
HETATM    9  C2  UNL     1      57.870  -8.055  58.305  1.00  0.00     0.112 C 
HETATM   10  N2  UNL     1      57.790  -8.936  59.302  1.00  0.00    -0.384 N 
ATOM     11  H22 UNL     1      58.164  -8.671  60.213  1.00  0.00     0.157 HD
ATOM     12  H21 UNL     1      57.351  -9.827  59.068  1.00  0.00     0.157 HD
BRANCH   9  13
HETATM   13  C1  UNL     1      58.487  -6.801  58.633  1.00  0.00     0.129 C 
HETATM   14  N1  UNL     1      58.145  -6.115  59.636  1.00  0.00    -0.405 N 
ATOM     15  H12 UNL     1      57.398  -6.481  60.227  1.00  0.00     0.155 HD
ATOM     16  H11 UNL     1      58.584  -5.225  59.869  1.00  0.00     0.155 HD
ENDBRANCH   9  13
ENDBRANCH   1   9
TORSDOF 2
ENDMDL
MODEL 5
REMARK VINA RESULT: -4.578151573      6.009      7.327
REMARK  2 active torsions:
REMARK  status: ('A' for Active; 'I' for Inactive)
REMARK    1  A    between atoms: C1_4  and  C2_5 
REMARK    2  A    between atoms: C2_5  and  N3_9 
ROOT
HETATM    1  N3  UNL     1      53.896 -10.505  57.538  1.00  0.00    -0.357 N 
HETATM    2  C3  UNL     1      54.937 -11.329  56.989  1.00  0.00     0.086 C 
HETATM    3  C4  UNL     1      54.786 -12.786  57.385  1.00  0.00     0.025 C 
HETATM    4  C5  UNL     1      53.461 -13.089  58.033  1.00  0.00     0.004 C 
HETATM    5  C6  UNL     1      53.125 -12.123  59.136  1.00  0.00     0.025 C 
HETATM    6  C7  UNL     1      53.890 -10.858  58.943  1.00  0.00     0.086 C 
HETATM    7  C8  UNL     1      55.376 -11.009  59.260  1.00  0.00     0.027 C 
HETATM    8  C9  UNL     1      56.092 -10.832  57.906  1.00  0.00     0.027 C 
ENDROOT
BRANCH   1   9
HETATM    9  C2  UNL     1      53.071  -9.546  56.929  1.00  0.00     0.112 C 
HETATM   10  N2  UNL     1      51.954  -9.182  57.558  1.00  0.00    -0.384 N 
ATOM     11  H22 UNL     1      51.354  -8.486  57.116  1.00  0.00     0.157 HD
ATOM     12  H21 UNL     1      51.784  -9.640  58.454  1.00  0.00     0.157 HD
BRANCH   9  13
HETATM   13  C1  UNL     1      53.310  -8.902  55.669  1.00  0.00     0.129 C 
HETATM   14  N1  UNL     1      53.765  -7.728  55.579  1.00  0.00    -0.405 N 
ATOM     15  H12 UNL     1      53.965  -7.230  56.447  1.00  0.00     0.155 HD
ATOM     16  H11 UNL     1      53.935  -7.271  54.683  1.00  0.00     0.155 HD
ENDBRANCH   9  13
ENDBRANCH   1   9
TORSDOF 2
ENDMDL
