MODEL 1
REMARK VINA RESULT: -9.711012586      0.000      0.000
REMARK  2 active torsions:
REMARK  status: ('A' for Active; 'I' for Inactive)
REMARK    1  A    between atoms: N1_8  and  C8_9 
REMARK    2  A    between atoms: N4_20  and  C16_21 
ROOT
HETATM    1  C1  UNL     1     -27.594  -6.261  18.768  1.00  0.00     0.048 C 
HETATM    2  C2  UNL     1     -27.744  -6.613  20.209  1.00  0.00    -0.060 A 
HETATM    3  C3  UNL     1     -27.300  -5.695  21.136  1.00  0.00     0.007 A 
HETATM    4  C4  UNL     1     -27.426  -5.992  22.471  1.00  0.00     0.015 A 
HETATM    5  C5  UNL     1     -27.982  -7.182  22.854  1.00  0.00     0.026 A 
HETATM    6  C6  UNL     1     -28.442  -8.135  21.974  1.00  0.00     0.049 A 
HETATM    7  C7  UNL     1     -28.302  -7.806  20.620  1.00  0.00     0.037 A 
HETATM    8  N1  UNL     1     -28.854  -9.029  22.998  1.00  0.00    -0.308 N 
HETATM    9  C14 UNL     1     -28.393  -8.083  23.973  1.00  0.00     0.204 A 
HETATM   10  N2  UNL     1     -27.357  -8.477  24.845  1.00  0.00    -0.327 N 
ATOM     11  H2  UNL     1     -26.506  -8.962  24.561  1.00  0.00     0.165 HD
HETATM   12  C15 UNL     1     -27.642  -8.137  26.043  1.00  0.00     0.199 A 
HETATM   13  N3  UNL     1     -26.778  -8.406  27.136  1.00  0.00    -0.063 NA
HETATM   14  N4  UNL     1     -28.898  -7.484  26.132  1.00  0.00    -0.271 N 
HETATM   15  C22 UNL     1     -29.400  -7.447  24.811  1.00  0.00     0.140 A 
HETATM   16  N5  UNL     1     -30.520  -6.945  24.461  1.00  0.00    -0.384 N 
ATOM     17  H51 UNL     1     -31.225  -6.500  25.047  1.00  0.00     0.157 HD
ATOM     18  H52 UNL     1     -30.882  -6.919  23.508  1.00  0.00     0.157 HD
ENDROOT
BRANCH   8  19
HETATM   19  C8  UNL     1     -29.464 -10.313  22.992  1.00  0.00     0.038 A 
HETATM   20  C9  UNL     1     -29.265 -11.186  21.943  1.00  0.00     0.030 A 
HETATM   21  C10 UNL     1     -29.858 -12.432  21.936  1.00  0.00     0.002 A 
HETATM   22  C11 UNL     1     -30.672 -12.834  22.996  1.00  0.00     0.000 A 
HETATM   23  C12 UNL     1     -30.873 -11.965  24.048  1.00  0.00     0.002 A 
HETATM   24  C13 UNL     1     -30.273 -10.703  24.053  1.00  0.00     0.030 A 
ENDBRANCH   8  19
BRANCH  14  25
HETATM   25  C16 UNL     1     -29.549  -6.963  27.298  1.00  0.00     0.043 A 
HETATM   26  C17 UNL     1     -29.283  -5.701  27.790  1.00  0.00     0.030 A 
HETATM   27  C18 UNL     1     -29.938  -5.227  28.929  1.00  0.00     0.002 A 
HETATM   28  C19 UNL     1     -30.867  -6.005  29.593  1.00  0.00     0.000 A 
HETATM   29  C20 UNL     1     -31.137  -7.266  29.105  1.00  0.00     0.002 A 
HETATM   30  C21 UNL     1     -30.477  -7.733  27.964  1.00  0.00     0.030 A 
ENDBRANCH  14  25
TORSDOF 2
ENDMDL
MODEL 2
REMARK VINA RESULT: -9.706768267      0.051      1.295
REMARK  2 active torsions:
REMARK  status: ('A' for Active; 'I' for Inactive)
REMARK    1  A    between atoms: N1_8  and  C8_9 
REMARK    2  A    between atoms: N4_20  and  C16_21 
ROOT
HETATM    1  C1  UNL     1     -27.585  -6.257  18.786  1.00  0.00     0.048 C 
HETATM    2  C2  UNL     1     -27.735  -6.614  20.226  1.00  0.00    -0.060 A 
HETATM    3  C3  UNL     1     -27.290  -5.699  21.155  1.00  0.00     0.007 A 
HETATM    4  C4  UNL     1     -27.414  -6.001  22.489  1.00  0.00     0.015 A 
HETATM    5  C5  UNL     1     -27.972  -7.192  22.869  1.00  0.00     0.026 A 
HETATM    6  C6  UNL     1     -28.433  -8.141  21.986  1.00  0.00     0.049 A 
HETATM    7  C7  UNL     1     -28.293  -7.808  20.633  1.00  0.00     0.037 A 
HETATM    8  N1  UNL     1     -28.845  -9.039  23.007  1.00  0.00    -0.308 N 
HETATM    9  C14 UNL     1     -28.382  -8.095  23.985  1.00  0.00     0.204 A 
HETATM   10  N2  UNL     1     -27.347  -8.493  24.855  1.00  0.00    -0.327 N 
ATOM     11  H2  UNL     1     -26.496  -8.978  24.568  1.00  0.00     0.165 HD
HETATM   12  C15 UNL     1     -27.630  -8.157  26.054  1.00  0.00     0.199 A 
HETATM   13  N3  UNL     1     -26.766  -8.430  27.145  1.00  0.00    -0.063 NA
HETATM   14  N4  UNL     1     -28.886  -7.503  26.146  1.00  0.00    -0.271 N 
HETATM   15  C22 UNL     1     -29.389  -7.462  24.825  1.00  0.00     0.140 A 
HETATM   16  N5  UNL     1     -30.508  -6.958  24.478  1.00  0.00    -0.384 N 
ATOM     17  H51 UNL     1     -31.213  -6.514  25.066  1.00  0.00     0.157 HD
ATOM     18  H52 UNL     1     -30.871  -6.928  23.526  1.00  0.00     0.157 HD
ENDROOT
BRANCH   8  19
HETATM   19  C8  UNL     1     -29.456 -10.322  22.998  1.00  0.00     0.038 A 
HETATM   20  C9  UNL     1     -30.269 -10.725  24.036  1.00  0.00     0.030 A 
HETATM   21  C10 UNL     1     -30.862 -11.971  24.029  1.00  0.00     0.002 A 
HETATM   22  C11 UNL     1     -30.649 -12.850  22.966  1.00  0.00     0.000 A 
HETATM   23  C12 UNL     1     -29.838 -12.451  21.925  1.00  0.00     0.002 A 
HETATM   24  C13 UNL     1     -29.237 -11.189  21.933  1.00  0.00     0.030 A 
ENDBRANCH   8  19
BRANCH  14  25
HETATM   25  C16 UNL     1     -29.535  -6.985  27.314  1.00  0.00     0.043 A 
HETATM   26  C17 UNL     1     -30.477  -7.708  28.018  1.00  0.00     0.030 A 
HETATM   27  C18 UNL     1     -31.088  -7.170  29.152  1.00  0.00     0.002 A 
HETATM   28  C19 UNL     1     -30.769  -5.903  29.600  1.00  0.00     0.000 A 
HETATM   29  C20 UNL     1     -29.828  -5.176  28.901  1.00  0.00     0.002 A 
HETATM   30  C21 UNL     1     -29.221  -5.722  27.767  1.00  0.00     0.030 A 
ENDBRANCH  14  25
TORSDOF 2
ENDMDL
MODEL 3
REMARK VINA RESULT: -9.438642333      0.751      1.194
REMARK  2 active torsions:
REMARK  status: ('A' for Active; 'I' for Inactive)
REMARK    1  A    between atoms: N1_8  and  C8_9 
REMARK    2  A    between atoms: N4_20  and  C16_21 
ROOT
HETATM    1  C1  UNL     1     -27.140  -6.069  19.687  1.00  0.00     0.048 C 
HETATM    2  C2  UNL     1     -27.438  -6.462  21.094  1.00  0.00    -0.060 A 
HETATM    3  C3  UNL     1     -27.028  -5.605  22.092  1.00  0.00     0.007 A 
HETATM    4  C4  UNL     1     -27.289  -5.941  23.398  1.00  0.00     0.015 A 
HETATM    5  C5  UNL     1     -27.944  -7.108  23.683  1.00  0.00     0.026 A 
HETATM    6  C6  UNL     1     -28.376  -8.001  22.728  1.00  0.00     0.049 A 
HETATM    7  C7  UNL     1     -28.096  -7.634  21.406  1.00  0.00     0.037 A 
HETATM    8  N1  UNL     1     -28.927  -8.904  23.675  1.00  0.00    -0.308 N 
HETATM    9  C14 UNL     1     -28.503  -8.021  24.724  1.00  0.00     0.204 A 
HETATM   10  N2  UNL     1     -27.573  -8.506  25.667  1.00  0.00    -0.327 N 
ATOM     11  H2  UNL     1     -26.729  -9.030  25.439  1.00  0.00     0.165 HD
HETATM   12  C15 UNL     1     -27.944  -8.192  26.848  1.00  0.00     0.199 A 
HETATM   13  N3  UNL     1     -27.199  -8.549  28.001  1.00  0.00    -0.063 NA
HETATM   14  N4  UNL     1     -29.165  -7.469  26.853  1.00  0.00    -0.271 N 
HETATM   15  C22 UNL     1     -29.544  -7.356  25.495  1.00  0.00     0.140 A 
HETATM   16  N5  UNL     1     -30.598  -6.777  25.070  1.00  0.00    -0.384 N 
ATOM     17  H51 UNL     1     -31.327  -6.311  25.609  1.00  0.00     0.157 HD
ATOM     18  H52 UNL     1     -30.871  -6.696  24.091  1.00  0.00     0.157 HD
ENDROOT
BRANCH   8  19
HETATM   19  C8  UNL     1     -29.605 -10.148  23.565  1.00  0.00     0.038 A 
HETATM   20  C9  UNL     1     -29.556 -10.879  22.397  1.00  0.00     0.030 A 
HETATM   21  C10 UNL     1     -30.215 -12.087  22.289  1.00  0.00     0.002 A 
HETATM   22  C11 UNL     1     -30.945 -12.593  23.365  1.00  0.00     0.000 A 
HETATM   23  C12 UNL     1     -30.997 -11.866  24.535  1.00  0.00     0.002 A 
HETATM   24  C13 UNL     1     -30.330 -10.643  24.644  1.00  0.00     0.030 A 
ENDBRANCH   8  19
BRANCH  14  25
HETATM   25  C16 UNL     1     -29.887  -6.950  27.977  1.00  0.00     0.043 A 
HETATM   26  C17 UNL     1     -30.801  -7.708  28.682  1.00  0.00     0.030 A 
HETATM   27  C18 UNL     1     -31.485  -7.168  29.773  1.00  0.00     0.002 A 
HETATM   28  C19 UNL     1     -31.268  -5.866  30.177  1.00  0.00     0.000 A 
HETATM   29  C20 UNL     1     -30.357  -5.104  29.477  1.00  0.00     0.002 A 
HETATM   30  C21 UNL     1     -29.676  -5.651  28.386  1.00  0.00     0.030 A 
ENDBRANCH  14  25
TORSDOF 2
ENDMDL
MODEL 4
REMARK VINA RESULT: -9.354676727      1.299      1.499
REMARK  2 active torsions:
REMARK  status: ('A' for Active; 'I' for Inactive)
REMARK    1  A    between atoms: N1_8  and  C8_9 
REMARK    2  A    between atoms: N4_20  and  C16_21 
ROOT
HETATM    1  C1  UNL     1     -26.476  -7.507  19.839  1.00  0.00     0.048 C 
HETATM    2  C2  UNL     1     -26.966  -7.703  21.233  1.00  0.00    -0.060 A 
HETATM    3  C3  UNL     1     -26.344  -6.986  22.232  1.00  0.00     0.007 A 
HETATM    4  C4  UNL     1     -26.774  -7.148  23.526  1.00  0.00     0.015 A 
HETATM    5  C5  UNL     1     -27.802  -8.008  23.800  1.00  0.00     0.026 A 
HETATM    6  C6  UNL     1     -28.460  -8.749  22.844  1.00  0.00     0.049 A 
HETATM    7  C7  UNL     1     -28.001  -8.566  21.534  1.00  0.00     0.037 A 
HETATM    8  N1  UNL     1     -29.337  -9.363  23.777  1.00  0.00    -0.308 N 
HETATM    9  C14 UNL     1     -28.695  -8.624  24.826  1.00  0.00     0.204 A 
HETATM   10  N2  UNL     1     -28.039  -9.347  25.844  1.00  0.00    -0.327 N 
ATOM     11  H2  UNL     1     -27.413 -10.137  25.690  1.00  0.00     0.165 HD
HETATM   12  C15 UNL     1     -28.345  -8.866  26.988  1.00  0.00     0.199 A 
HETATM   13  N3  UNL     1     -27.830  -9.396  28.198  1.00  0.00    -0.063 NA
HETATM   14  N4  UNL     1     -29.244  -7.773  26.888  1.00  0.00    -0.271 N 
HETATM   15  C22 UNL     1     -29.487  -7.608  25.505  1.00  0.00     0.140 A 
HETATM   16  N5  UNL     1     -30.256  -6.728  24.991  1.00  0.00    -0.384 N 
ATOM     17  H51 UNL     1     -30.810  -6.017  25.466  1.00  0.00     0.157 HD
ATOM     18  H52 UNL     1     -30.431  -6.609  23.994  1.00  0.00     0.157 HD
ENDROOT
BRANCH   8  19
HETATM   19  C8  UNL     1     -30.392 -10.309  23.657  1.00  0.00     0.038 A 
HETATM   20  C9  UNL     1     -30.368 -11.489  24.370  1.00  0.00     0.030 A 
HETATM   21  C10 UNL     1     -31.391 -12.408  24.254  1.00  0.00     0.002 A 
HETATM   22  C11 UNL     1     -32.473 -12.158  23.410  1.00  0.00     0.000 A 
HETATM   23  C12 UNL     1     -32.503 -10.979  22.696  1.00  0.00     0.002 A 
HETATM   24  C13 UNL     1     -31.465 -10.049  22.813  1.00  0.00     0.030 A 
ENDBRANCH   8  19
BRANCH  14  25
HETATM   25  C16 UNL     1     -29.806  -6.985  27.945  1.00  0.00     0.043 A 
HETATM   26  C17 UNL     1     -29.271  -5.771  28.326  1.00  0.00     0.030 A 
HETATM   27  C18 UNL     1     -29.848  -5.031  29.361  1.00  0.00     0.002 A 
HETATM   28  C19 UNL     1     -30.965  -5.491  30.029  1.00  0.00     0.000 A 
HETATM   29  C20 UNL     1     -31.505  -6.702  29.652  1.00  0.00     0.002 A 
HETATM   30  C21 UNL     1     -30.922  -7.437  28.615  1.00  0.00     0.030 A 
ENDBRANCH  14  25
TORSDOF 2
ENDMDL
MODEL 5
REMARK VINA RESULT: -9.180323382      1.321      1.937
REMARK  2 active torsions:
REMARK  status: ('A' for Active; 'I' for Inactive)
REMARK    1  A    between atoms: N1_8  and  C8_9 
REMARK    2  A    between atoms: N4_20  and  C16_21 
ROOT
HETATM    1  C1  UNL     1     -27.869  -6.390  19.518  1.00  0.00     0.048 C 
HETATM    2  C2  UNL     1     -27.790  -6.743  20.964  1.00  0.00    -0.060 A 
HETATM    3  C3  UNL     1     -26.969  -5.976  21.761  1.00  0.00     0.007 A 
HETATM    4  C4  UNL     1     -26.877  -6.279  23.098  1.00  0.00     0.015 A 
HETATM    5  C5  UNL     1     -27.593  -7.327  23.610  1.00  0.00     0.026 A 
HETATM    6  C6  UNL     1     -28.427  -8.126  22.862  1.00  0.00     0.049 A 
HETATM    7  C7  UNL     1     -28.502  -7.796  21.503  1.00  0.00     0.037 A 
HETATM    8  N1  UNL     1     -28.805  -8.938  23.965  1.00  0.00    -0.308 N 
HETATM    9  C14 UNL     1     -27.951  -8.147  24.805  1.00  0.00     0.204 A 
HETATM   10  N2  UNL     1     -26.872  -8.788  25.446  1.00  0.00    -0.327 N 
ATOM     11  H2  UNL     1     -26.229  -9.441  24.998  1.00  0.00     0.165 HD
HETATM   12  C15 UNL     1     -26.817  -8.431  26.671  1.00  0.00     0.199 A 
HETATM   13  N3  UNL     1     -25.827  -8.917  27.563  1.00  0.00    -0.063 NA
HETATM   14  N4  UNL     1     -27.849  -7.518  27.012  1.00  0.00    -0.271 N 
HETATM   15  C22 UNL     1     -28.594  -7.330  25.825  1.00  0.00     0.140 A 
HETATM   16  N5  UNL     1     -29.621  -6.582  25.709  1.00  0.00    -0.384 N 
ATOM     17  H51 UNL     1     -30.071  -6.010  26.423  1.00  0.00     0.157 HD
ATOM     18  H52 UNL     1     -30.158  -6.447  24.854  1.00  0.00     0.157 HD
ENDROOT
BRANCH   8  19
HETATM   19  C8  UNL     1     -29.674 -10.054  24.110  1.00  0.00     0.038 A 
HETATM   20  C9  UNL     1     -30.338 -10.283  25.297  1.00  0.00     0.030 A 
HETATM   21  C10 UNL     1     -31.180 -11.366  25.439  1.00  0.00     0.002 A 
HETATM   22  C11 UNL     1     -31.378 -12.253  24.379  1.00  0.00     0.000 A 
HETATM   23  C12 UNL     1     -30.718 -12.027  23.190  1.00  0.00     0.002 A 
HETATM   24  C13 UNL     1     -29.863 -10.930  23.047  1.00  0.00     0.030 A 
ENDBRANCH   8  19
BRANCH  14  25
HETATM   25  C16 UNL     1     -28.108  -6.901  28.279  1.00  0.00     0.043 A 
HETATM   26  C17 UNL     1     -28.975  -7.449  29.203  1.00  0.00     0.030 A 
HETATM   27  C18 UNL     1     -29.202  -6.818  30.429  1.00  0.00     0.002 A 
HETATM   28  C19 UNL     1     -28.569  -5.633  30.749  1.00  0.00     0.000 A 
HETATM   29  C20 UNL     1     -27.703  -5.082  29.829  1.00  0.00     0.002 A 
HETATM   30  C21 UNL     1     -27.480  -5.719  28.605  1.00  0.00     0.030 A 
ENDBRANCH  14  25
TORSDOF 2
ENDMDL
