MODEL 1
REMARK VINA RESULT: -9.614371144      0.000      0.000
REMARK  4 active torsions:
REMARK  status: ('A' for Active; 'I' for Inactive)
REMARK    1  A    between atoms: C7_7  and  N1_8 
REMARK    2  A    between atoms: N1_8  and  C8_10 
REMARK    3  A    between atoms: C11_15  and  N3_16 
REMARK    4  A    between atoms: N3_16  and  C12_18 
ROOT
HETATM    1  C1  UNL     1     -27.611  -4.473  22.152  1.00  0.00     0.018 C 
HETATM    2  C2  UNL     1     -27.400  -5.494  22.759  1.00  0.00    -0.078 C 
HETATM    3  C3  UNL     1     -27.142  -6.697  23.502  1.00  0.00     0.019 A 
HETATM    4  C4  UNL     1     -26.019  -7.464  23.264  1.00  0.00     0.021 A 
HETATM    5  C5  UNL     1     -25.767  -8.624  23.978  1.00  0.00     0.004 A 
HETATM    6  C6  UNL     1     -26.640  -9.052  24.957  1.00  0.00     0.029 A 
HETATM    7  C7  UNL     1     -27.765  -8.295  25.203  1.00  0.00     0.035 A 
HETATM    8  C21 UNL     1     -28.021  -7.133  24.492  1.00  0.00     0.050 A 
ENDROOT
BRANCH   7   9
HETATM    9  N1  UNL     1     -28.688  -8.704  26.205  1.00  0.00    -0.342 N 
ATOM     10  H1  UNL     1     -28.705  -8.226  27.106  1.00  0.00     0.167 HD
BRANCH   9  11
HETATM   11  C8  UNL     1     -29.493  -9.665  25.981  1.00  0.00     0.122 A 
HETATM   12  C9  UNL     1     -29.997 -10.465  26.987  1.00  0.00     0.066 A 
HETATM   13  C10 UNL     1     -30.878 -11.509  26.693  1.00  0.00     0.110 A 
HETATM   14  N2  UNL     1     -31.231 -11.729  25.425  1.00  0.00    -0.202 N 
HETATM   15  C11 UNL     1     -30.729 -10.934  24.430  1.00  0.00     0.684 A 
ATOM     16  H2  UNL     1     -31.873 -12.488  25.197  1.00  0.00     0.183 HD
HETATM   17  N6  UNL     1     -29.881  -9.931  24.722  1.00  0.00    -0.176 N 
ATOM     18  H6  UNL     1     -29.520  -9.353  23.963  1.00  0.00     0.186 HD
BRANCH  15  19
HETATM   19  N3  UNL     1     -31.053 -11.127  23.206  1.00  0.00    -0.192 N 
ATOM     20  H3  UNL     1     -32.015 -11.355  22.959  1.00  0.00     0.184 HD
BRANCH  19  21
HETATM   21  C12 UNL     1     -30.064 -11.021  22.201  1.00  0.00     0.051 A 
HETATM   22  C13 UNL     1     -29.540 -12.165  21.618  1.00  0.00     0.032 A 
HETATM   23  C14 UNL     1     -28.584 -12.009  20.648  1.00  0.00     0.034 A 
HETATM   24  C15 UNL     1     -28.135 -10.767  20.241  1.00  0.00     0.059 A 
HETATM   25  N4  UNL     1     -27.182 -10.657  19.270  1.00  0.00    -0.362 N 
HETATM   26  C19 UNL     1     -28.658  -9.633  20.822  1.00  0.00     0.061 A 
HETATM   27  C16 UNL     1     -26.767  -9.417  18.898  1.00  0.00     0.113 A 
ATOM     28  H4  UNL     1     -26.788 -11.489  18.832  1.00  0.00     0.165 HD
HETATM   29  C17 UNL     1     -27.282  -8.272  19.471  1.00  0.00     0.021 A 
HETATM   30  C18 UNL     1     -26.846  -6.904  19.081  1.00  0.00     0.069 C 
HETATM   31  N5  UNL     1     -28.220  -8.407  20.424  1.00  0.00    -0.357 N 
ATOM     32  H5  UNL     1     -28.611  -7.572  20.860  1.00  0.00     0.166 HD
HETATM   33  C20 UNL     1     -29.620  -9.776  21.798  1.00  0.00     0.061 A 
ENDBRANCH  19  21
ENDBRANCH  15  19
ENDBRANCH   9  11
ENDBRANCH   7   9
TORSDOF 4
ENDMDL
MODEL 2
REMARK VINA RESULT: -9.596934298      1.850      4.648
REMARK  4 active torsions:
REMARK  status: ('A' for Active; 'I' for Inactive)
REMARK    1  A    between atoms: C7_7  and  N1_8 
REMARK    2  A    between atoms: N1_8  and  C8_10 
REMARK    3  A    between atoms: C11_15  and  N3_16 
REMARK    4  A    between atoms: N3_16  and  C12_18 
ROOT
HETATM    1  C1  UNL     1     -25.381  -8.537  18.611  1.00  0.00     0.018 C 
HETATM    2  C2  UNL     1     -26.445  -9.097  18.713  1.00  0.00    -0.078 C 
HETATM    3  C3  UNL     1     -27.702  -9.785  18.827  1.00  0.00     0.019 A 
HETATM    4  C4  UNL     1     -28.728  -9.563  17.930  1.00  0.00     0.021 A 
HETATM    5  C5  UNL     1     -29.940 -10.226  18.035  1.00  0.00     0.004 A 
HETATM    6  C6  UNL     1     -30.161 -11.134  19.049  1.00  0.00     0.029 A 
HETATM    7  C7  UNL     1     -29.143 -11.363  19.951  1.00  0.00     0.035 A 
HETATM    8  C21 UNL     1     -27.928 -10.704  19.849  1.00  0.00     0.050 A 
ENDROOT
BRANCH   7   9
HETATM    9  N1  UNL     1     -29.333 -12.294  21.010  1.00  0.00    -0.342 N 
ATOM     10  H1  UNL     1     -29.136 -13.283  20.860  1.00  0.00     0.167 HD
BRANCH   9  11
HETATM   11  C8  UNL     1     -29.749 -11.895  22.146  1.00  0.00     0.122 A 
HETATM   12  C9  UNL     1     -30.570 -12.661  22.949  1.00  0.00     0.066 A 
HETATM   13  C10 UNL     1     -31.002 -12.181  24.189  1.00  0.00     0.110 A 
HETATM   14  N2  UNL     1     -30.614 -10.970  24.593  1.00  0.00    -0.202 N 
HETATM   15  C11 UNL     1     -29.800 -10.214  23.794  1.00  0.00     0.684 A 
ATOM     16  H2  UNL     1     -30.923 -10.609  25.495  1.00  0.00     0.183 HD
HETATM   17  N6  UNL     1     -29.388 -10.684  22.602  1.00  0.00    -0.176 N 
ATOM     18  H6  UNL     1     -28.783 -10.100  22.024  1.00  0.00     0.186 HD
BRANCH  15  19
HETATM   19  N3  UNL     1     -29.415  -9.049  24.161  1.00  0.00    -0.192 N 
ATOM     20  H3  UNL     1     -29.582  -8.729  25.114  1.00  0.00     0.184 HD
BRANCH  19  21
HETATM   21  C12 UNL     1     -28.754  -8.212  23.233  1.00  0.00     0.051 A 
HETATM   22  C13 UNL     1     -27.531  -7.646  23.556  1.00  0.00     0.032 A 
HETATM   23  C14 UNL     1     -26.930  -6.841  22.623  1.00  0.00     0.034 A 
HETATM   24  C15 UNL     1     -27.499  -6.583  21.389  1.00  0.00     0.059 A 
HETATM   25  N4  UNL     1     -26.866  -5.776  20.488  1.00  0.00    -0.362 N 
HETATM   26  C19 UNL     1     -28.714  -7.147  21.072  1.00  0.00     0.061 A 
HETATM   27  C16 UNL     1     -27.459  -5.547  19.287  1.00  0.00     0.113 A 
ATOM     28  H4  UNL     1     -25.965  -5.353  20.712  1.00  0.00     0.165 HD
HETATM   29  C17 UNL     1     -28.675  -6.105  18.954  1.00  0.00     0.021 A 
HETATM   30  C18 UNL     1     -29.345  -5.871  17.646  1.00  0.00     0.069 C 
HETATM   31  N5  UNL     1     -29.278  -6.896  19.859  1.00  0.00    -0.357 N 
ATOM     32  H5  UNL     1     -30.179  -7.317  19.631  1.00  0.00     0.166 HD
HETATM   33  C20 UNL     1     -29.328  -7.958  22.001  1.00  0.00     0.061 A 
ENDBRANCH  19  21
ENDBRANCH  15  19
ENDBRANCH   9  11
ENDBRANCH   7   9
TORSDOF 4
ENDMDL
MODEL 3
REMARK VINA RESULT: -9.541010255      1.366      5.594
REMARK  4 active torsions:
REMARK  status: ('A' for Active; 'I' for Inactive)
REMARK    1  A    between atoms: C7_7  and  N1_8 
REMARK    2  A    between atoms: N1_8  and  C8_10 
REMARK    3  A    between atoms: C11_15  and  N3_16 
REMARK    4  A    between atoms: N3_16  and  C12_18 
ROOT
HETATM    1  C1  UNL     1     -26.171  -8.923  24.886  1.00  0.00     0.018 C 
HETATM    2  C2  UNL     1     -26.455  -8.070  24.082  1.00  0.00    -0.078 C 
HETATM    3  C3  UNL     1     -26.769  -7.051  23.118  1.00  0.00     0.019 A 
HETATM    4  C4  UNL     1     -27.157  -5.785  23.509  1.00  0.00     0.021 A 
HETATM    5  C5  UNL     1     -27.459  -4.800  22.583  1.00  0.00     0.004 A 
HETATM    6  C6  UNL     1     -27.382  -5.057  21.230  1.00  0.00     0.029 A 
HETATM    7  C7  UNL     1     -26.996  -6.318  20.828  1.00  0.00     0.035 A 
HETATM    8  C21 UNL     1     -26.691  -7.306  21.751  1.00  0.00     0.050 A 
ENDROOT
BRANCH   7   9
HETATM    9  N1  UNL     1     -26.904  -6.621  19.441  1.00  0.00    -0.342 N 
ATOM     10  H1  UNL     1     -26.320  -6.046  18.833  1.00  0.00     0.167 HD
BRANCH   9  11
HETATM   11  C8  UNL     1     -27.548  -7.607  18.957  1.00  0.00     0.122 A 
HETATM   12  C9  UNL     1     -28.408  -7.481  17.885  1.00  0.00     0.066 A 
HETATM   13  C10 UNL     1     -29.094  -8.592  17.387  1.00  0.00     0.110 A 
HETATM   14  N2  UNL     1     -28.911  -9.783  17.959  1.00  0.00    -0.202 N 
HETATM   15  C11 UNL     1     -28.058  -9.905  19.022  1.00  0.00     0.684 A 
ATOM     16  H2  UNL     1     -29.406 -10.602  17.605  1.00  0.00     0.183 HD
HETATM   17  N6  UNL     1     -27.401  -8.829  19.495  1.00  0.00    -0.176 N 
ATOM     18  H6  UNL     1     -26.771  -8.946  20.289  1.00  0.00     0.186 HD
BRANCH  15  19
HETATM   19  N3  UNL     1     -27.867 -11.038  19.588  1.00  0.00    -0.192 N 
ATOM     20  H3  UNL     1     -27.171 -11.685  19.219  1.00  0.00     0.184 HD
BRANCH  19  21
HETATM   21  C12 UNL     1     -28.630 -11.382  20.727  1.00  0.00     0.051 A 
HETATM   22  C13 UNL     1     -29.141 -12.665  20.858  1.00  0.00     0.032 A 
HETATM   23  C14 UNL     1     -29.874 -12.950  21.981  1.00  0.00     0.034 A 
HETATM   24  C15 UNL     1     -30.114 -12.013  22.969  1.00  0.00     0.059 A 
HETATM   25  N4  UNL     1     -30.850 -12.340  24.072  1.00  0.00    -0.362 N 
HETATM   26  C19 UNL     1     -29.605 -10.741  22.835  1.00  0.00     0.061 A 
HETATM   27  C16 UNL     1     -31.063 -11.390  25.020  1.00  0.00     0.113 A 
ATOM     28  H4  UNL     1     -31.231 -13.279  24.183  1.00  0.00     0.165 HD
HETATM   29  C17 UNL     1     -30.559 -10.112  24.900  1.00  0.00     0.021 A 
HETATM   30  C18 UNL     1     -30.778  -9.054  25.923  1.00  0.00     0.069 C 
HETATM   31  N5  UNL     1     -29.838  -9.815  23.804  1.00  0.00    -0.357 N 
ATOM     32  H5  UNL     1     -29.458  -8.874  23.698  1.00  0.00     0.166 HD
HETATM   33  C20 UNL     1     -28.866 -10.442  21.711  1.00  0.00     0.061 A 
ENDBRANCH  19  21
ENDBRANCH  15  19
ENDBRANCH   9  11
ENDBRANCH   7   9
TORSDOF 4
ENDMDL
MODEL 4
REMARK VINA RESULT: -9.511058094      1.740      6.628
REMARK  4 active torsions:
REMARK  status: ('A' for Active; 'I' for Inactive)
REMARK    1  A    between atoms: C7_7  and  N1_8 
REMARK    2  A    between atoms: N1_8  and  C8_10 
REMARK    3  A    between atoms: C11_15  and  N3_16 
REMARK    4  A    between atoms: N3_16  and  C12_18 
ROOT
HETATM    1  C1  UNL     1     -29.157 -13.108  21.351  1.00  0.00     0.018 C 
HETATM    2  C2  UNL     1     -29.100 -12.131  20.646  1.00  0.00    -0.078 C 
HETATM    3  C3  UNL     1     -29.041 -10.952  19.825  1.00  0.00     0.019 A 
HETATM    4  C4  UNL     1     -29.954 -10.734  18.811  1.00  0.00     0.021 A 
HETATM    5  C5  UNL     1     -29.900  -9.600  18.019  1.00  0.00     0.004 A 
HETATM    6  C6  UNL     1     -28.926  -8.644  18.219  1.00  0.00     0.029 A 
HETATM    7  C7  UNL     1     -28.009  -8.852  19.228  1.00  0.00     0.035 A 
HETATM    8  C21 UNL     1     -28.059  -9.986  20.025  1.00  0.00     0.050 A 
ENDROOT
BRANCH   7   9
HETATM    9  N1  UNL     1     -26.989  -7.890  19.466  1.00  0.00    -0.342 N 
ATOM     10  H1  UNL     1     -26.252  -7.748  18.775  1.00  0.00     0.167 HD
BRANCH   9  11
HETATM   11  C8  UNL     1     -26.993  -7.204  20.540  1.00  0.00     0.122 A 
HETATM   12  C9  UNL     1     -27.270  -5.852  20.559  1.00  0.00     0.066 A 
HETATM   13  C10 UNL     1     -27.263  -5.140  21.762  1.00  0.00     0.110 A 
HETATM   14  N2  UNL     1     -26.984  -5.781  22.899  1.00  0.00    -0.202 N 
HETATM   15  C11 UNL     1     -26.710  -7.122  22.876  1.00  0.00     0.684 A 
ATOM     16  H2  UNL     1     -26.975  -5.273  23.783  1.00  0.00     0.183 HD
HETATM   17  N6  UNL     1     -26.719  -7.799  21.713  1.00  0.00    -0.176 N 
ATOM     18  H6  UNL     1     -26.510  -8.797  21.722  1.00  0.00     0.186 HD
BRANCH  15  19
HETATM   19  N3  UNL     1     -26.439  -7.757  23.954  1.00  0.00    -0.192 N 
ATOM     20  H3  UNL     1     -25.503  -7.711  24.356  1.00  0.00     0.184 HD
BRANCH  19  21
HETATM   21  C12 UNL     1     -27.448  -8.522  24.581  1.00  0.00     0.051 A 
HETATM   22  C13 UNL     1     -27.480  -8.631  25.963  1.00  0.00     0.032 A 
HETATM   23  C14 UNL     1     -28.479  -9.384  26.524  1.00  0.00     0.034 A 
HETATM   24  C15 UNL     1     -29.439 -10.027  25.765  1.00  0.00     0.059 A 
HETATM   25  N4  UNL     1     -30.417 -10.767  26.365  1.00  0.00    -0.362 N 
HETATM   26  C19 UNL     1     -29.404  -9.917  24.393  1.00  0.00     0.061 A 
HETATM   27  C16 UNL     1     -31.342 -11.384  25.583  1.00  0.00     0.113 A 
ATOM     28  H4  UNL     1     -30.453 -10.856  27.380  1.00  0.00     0.165 HD
HETATM   29  C17 UNL     1     -31.321 -11.282  24.207  1.00  0.00     0.021 A 
HETATM   30  C18 UNL     1     -32.322 -11.947  23.330  1.00  0.00     0.069 C 
HETATM   31  N5  UNL     1     -30.347 -10.548  23.641  1.00  0.00    -0.357 N 
ATOM     32  H5  UNL     1     -30.315 -10.462  22.626  1.00  0.00     0.166 HD
HETATM   33  C20 UNL     1     -28.406  -9.162  23.817  1.00  0.00     0.061 A 
ENDBRANCH  19  21
ENDBRANCH  15  19
ENDBRANCH   9  11
ENDBRANCH   7   9
TORSDOF 4
ENDMDL
MODEL 5
REMARK VINA RESULT: -9.510244166      2.008      3.651
REMARK  4 active torsions:
REMARK  status: ('A' for Active; 'I' for Inactive)
REMARK    1  A    between atoms: C7_7  and  N1_8 
REMARK    2  A    between atoms: N1_8  and  C8_10 
REMARK    3  A    between atoms: C11_15  and  N3_16 
REMARK    4  A    between atoms: N3_16  and  C12_18 
ROOT
HETATM    1  C1  UNL     1     -25.598  -8.668  24.358  1.00  0.00     0.018 C 
HETATM    2  C2  UNL     1     -26.803  -8.609  24.385  1.00  0.00    -0.078 C 
HETATM    3  C3  UNL     1     -28.239  -8.537  24.392  1.00  0.00     0.019 A 
HETATM    4  C4  UNL     1     -28.901  -7.399  24.810  1.00  0.00     0.021 A 
HETATM    5  C5  UNL     1     -30.284  -7.326  24.817  1.00  0.00     0.004 A 
HETATM    6  C6  UNL     1     -31.049  -8.397  24.406  1.00  0.00     0.029 A 
HETATM    7  C7  UNL     1     -30.398  -9.539  23.988  1.00  0.00     0.035 A 
HETATM    8  C21 UNL     1     -29.015  -9.617  23.977  1.00  0.00     0.050 A 
ENDROOT
BRANCH   7   9
HETATM    9  N1  UNL     1     -31.153 -10.664  23.555  1.00  0.00    -0.342 N 
ATOM     10  H1  UNL     1     -32.156 -10.705  23.736  1.00  0.00     0.167 HD
BRANCH   9  11
HETATM   11  C8  UNL     1     -30.580 -11.622  22.942  1.00  0.00     0.122 A 
HETATM   12  C9  UNL     1     -30.716 -12.941  23.327  1.00  0.00     0.066 A 
HETATM   13  C10 UNL     1     -30.068 -13.960  22.623  1.00  0.00     0.110 A 
HETATM   14  N2  UNL     1     -29.311 -13.646  21.570  1.00  0.00    -0.202 N 
HETATM   15  C11 UNL     1     -29.179 -12.338  21.190  1.00  0.00     0.684 A 
ATOM     16  H2  UNL     1     -28.832 -14.381  21.048  1.00  0.00     0.183 HD
HETATM   17  N6  UNL     1     -29.807 -11.364  21.874  1.00  0.00    -0.176 N 
ATOM     18  H6  UNL     1     -29.691 -10.396  21.572  1.00  0.00     0.186 HD
BRANCH  15  19
HETATM   19  N3  UNL     1     -28.458 -12.014  20.183  1.00  0.00    -0.192 N 
ATOM     20  H3  UNL     1     -28.220 -12.709  19.476  1.00  0.00     0.184 HD
BRANCH  19  21
HETATM   21  C12 UNL     1     -27.994 -10.685  20.060  1.00  0.00     0.051 A 
HETATM   22  C13 UNL     1     -26.794 -10.311  20.646  1.00  0.00     0.032 A 
HETATM   23  C14 UNL     1     -26.386  -9.010  20.498  1.00  0.00     0.034 A 
HETATM   24  C15 UNL     1     -27.124  -8.076  19.794  1.00  0.00     0.059 A 
HETATM   25  N4  UNL     1     -26.681  -6.791  19.671  1.00  0.00    -0.362 N 
HETATM   26  C19 UNL     1     -28.315  -8.452  19.213  1.00  0.00     0.061 A 
HETATM   27  C16 UNL     1     -27.436  -5.904  18.970  1.00  0.00     0.113 A 
ATOM     28  H4  UNL     1     -25.800  -6.502  20.096  1.00  0.00     0.165 HD
HETATM   29  C17 UNL     1     -28.630  -6.265  18.383  1.00  0.00     0.021 A 
HETATM   30  C18 UNL     1     -29.474  -5.313  17.611  1.00  0.00     0.069 C 
HETATM   31  N5  UNL     1     -29.045  -7.536  18.519  1.00  0.00    -0.357 N 
ATOM     32  H5  UNL     1     -29.926  -7.822  18.092  1.00  0.00     0.166 HD
HETATM   33  C20 UNL     1     -28.735  -9.756  19.354  1.00  0.00     0.061 A 
ENDBRANCH  19  21
ENDBRANCH  15  19
ENDBRANCH   9  11
ENDBRANCH   7   9
TORSDOF 4
ENDMDL
