MODEL 1
REMARK VINA RESULT: -10.395411480      0.000      0.000
REMARK  2 active torsions:
REMARK  status: ('A' for Active; 'I' for Inactive)
REMARK       I    between atoms: C1_2  and  N1_3 
REMARK    1  A    between atoms: C1_2  and  C16_26 
REMARK    2  A    between atoms: C5_10  and  C6_11 
ROOT
HETATM    1  O1  UNL     1     -27.496  -6.673  27.695  1.00  0.00    -0.266 OA
HETATM    2  C1  UNL     1     -26.551  -7.499  27.846  1.00  0.00     0.273 C 
HETATM    3  N1  UNL     1     -26.019  -8.148  26.744  1.00  0.00    -0.306 N 
ATOM      4  H1  UNL     1     -25.086  -8.546  26.844  1.00  0.00     0.170 HD
HETATM    5  C2  UNL     1     -26.597  -8.291  25.615  1.00  0.00     0.128 A 
HETATM    6  C3  UNL     1     -25.996  -8.964  24.529  1.00  0.00     0.102 A 
HETATM    7  C4  UNL     1     -26.914  -8.922  23.515  1.00  0.00     0.150 A 
HETATM    8  N2  UNL     1     -27.166  -9.277  22.241  1.00  0.00    -0.324 N 
ATOM      9  H2  UNL     1     -26.515  -9.789  21.647  1.00  0.00     0.169 HD
HETATM   10  C5  UNL     1     -28.409  -8.860  21.847  1.00  0.00     0.134 A 
HETATM   11  N3  UNL     1     -28.881  -8.250  22.921  1.00  0.00    -0.262 N 
ATOM     12  H3  UNL     1     -29.802  -7.814  22.972  1.00  0.00     0.191 HD
HETATM   13  N4  UNL     1     -28.017  -8.273  23.918  1.00  0.00    -0.176 N 
HETATM   14  N5  UNL     1     -27.792  -7.913  25.171  1.00  0.00    -0.262 N 
ATOM     15  H5  UNL     1     -28.465  -7.398  25.738  1.00  0.00     0.191 HD
ENDROOT
BRANCH   2  16
HETATM   16  C16 UNL     1     -26.050  -7.735  29.213  1.00  0.00     0.100 A 
HETATM   17  C17 UNL     1     -25.903  -9.008  29.693  1.00  0.00     0.035 A 
HETATM   18  C18 UNL     1     -25.432  -9.216  30.983  1.00  0.00     0.004 A 
HETATM   19  C19 UNL     1     -25.116  -8.114  31.766  1.00  0.00     0.017 A 
HETATM   20  C20 UNL     1     -25.277  -6.853  31.245  1.00  0.00     0.088 A 
HETATM   21  N6  UNL     1     -25.742  -6.685  29.975  1.00  0.00    -0.361 N 
ATOM     22  H6  UNL     1     -25.857  -5.743  29.603  1.00  0.00     0.165 HD
ENDBRANCH   2  16
BRANCH  10  23
HETATM   23  C6  UNL     1     -28.936  -9.109  20.508  1.00  0.00     0.021 A 
HETATM   24  C7  UNL     1     -29.537 -10.347  20.229  1.00  0.00     0.016 A 
HETATM   25  C8  UNL     1     -30.059 -10.642  18.991  1.00  0.00     0.002 A 
HETATM   26  C9  UNL     1     -30.017  -9.736  17.968  1.00  0.00     0.012 A 
HETATM   27  C10 UNL     1     -29.432  -8.512  18.218  1.00  0.00    -0.025 A 
HETATM   28  C11 UNL     1     -29.405  -7.617  17.167  1.00  0.00     0.012 A 
HETATM   29  C15 UNL     1     -28.897  -8.205  19.479  1.00  0.00    -0.012 A 
HETATM   30  C12 UNL     1     -28.832  -6.385  17.374  1.00  0.00     0.001 A 
HETATM   31  C13 UNL     1     -28.311  -6.077  18.592  1.00  0.00     0.001 A 
HETATM   32  C14 UNL     1     -28.335  -6.979  19.658  1.00  0.00     0.013 A 
ENDBRANCH  10  23
TORSDOF 2
ENDMDL
MODEL 2
REMARK VINA RESULT: -10.219490581      2.127      2.317
REMARK  2 active torsions:
REMARK  status: ('A' for Active; 'I' for Inactive)
REMARK       I    between atoms: C1_2  and  N1_3 
REMARK    1  A    between atoms: C1_2  and  C16_26 
REMARK    2  A    between atoms: C5_10  and  C6_11 
ROOT
HETATM    1  O1  UNL     1     -29.910  -5.196  27.274  1.00  0.00    -0.266 OA
HETATM    2  C1  UNL     1     -28.880  -5.753  27.748  1.00  0.00     0.273 C 
HETATM    3  N1  UNL     1     -27.999  -6.408  26.904  1.00  0.00    -0.306 N 
ATOM      4  H1  UNL     1     -27.052  -6.563  27.248  1.00  0.00     0.170 HD
HETATM    5  C2  UNL     1     -28.271  -6.835  25.731  1.00  0.00     0.128 A 
HETATM    6  C3  UNL     1     -27.322  -7.494  24.920  1.00  0.00     0.102 A 
HETATM    7  C4  UNL     1     -27.981  -7.805  23.761  1.00  0.00     0.150 A 
HETATM    8  N2  UNL     1     -27.868  -8.380  22.549  1.00  0.00    -0.324 N 
ATOM      9  H2  UNL     1     -27.013  -8.806  22.192  1.00  0.00     0.169 HD
HETATM   10  C5  UNL     1     -29.048  -8.319  21.859  1.00  0.00     0.134 A 
HETATM   11  N3  UNL     1     -29.858  -7.692  22.694  1.00  0.00    -0.262 N 
ATOM     12  H3  UNL     1     -30.834  -7.477  22.492  1.00  0.00     0.191 HD
HETATM   13  N4  UNL     1     -29.251  -7.378  23.824  1.00  0.00    -0.176 N 
HETATM   14  N5  UNL     1     -29.386  -6.806  25.009  1.00  0.00    -0.262 N 
ATOM     15  H5  UNL     1     -30.257  -6.387  25.335  1.00  0.00     0.191 HD
ENDROOT
BRANCH   2  16
HETATM   16  C16 UNL     1     -28.660  -5.677  29.205  1.00  0.00     0.100 A 
HETATM   17  C17 UNL     1     -27.465  -5.241  29.709  1.00  0.00     0.035 A 
HETATM   18  C18 UNL     1     -27.270  -5.176  31.082  1.00  0.00     0.004 A 
HETATM   19  C19 UNL     1     -28.307  -5.561  31.924  1.00  0.00     0.017 A 
HETATM   20  C20 UNL     1     -29.489  -5.992  31.376  1.00  0.00     0.088 A 
HETATM   21  N6  UNL     1     -29.646  -6.044  30.024  1.00  0.00    -0.361 N 
ATOM     22  H6  UNL     1     -30.531  -6.367  29.632  1.00  0.00     0.165 HD
ENDBRANCH   2  16
BRANCH  10  23
HETATM   23  C6  UNL     1     -29.204  -8.864  20.513  1.00  0.00     0.021 A 
HETATM   24  C7  UNL     1     -29.475 -10.233  20.358  1.00  0.00     0.016 A 
HETATM   25  C8  UNL     1     -29.639 -10.808  19.118  1.00  0.00     0.002 A 
HETATM   26  C9  UNL     1     -29.546 -10.067  17.973  1.00  0.00     0.012 A 
HETATM   27  C10 UNL     1     -29.280  -8.719  18.101  1.00  0.00    -0.025 A 
HETATM   28  C11 UNL     1     -29.194  -7.996  16.928  1.00  0.00     0.012 A 
HETATM   29  C15 UNL     1     -29.111  -8.127  19.362  1.00  0.00    -0.012 A 
HETATM   30  C12 UNL     1     -28.932  -6.649  17.010  1.00  0.00     0.001 A 
HETATM   31  C13 UNL     1     -28.766  -6.064  18.227  1.00  0.00     0.001 A 
HETATM   32  C14 UNL     1     -28.853  -6.792  19.416  1.00  0.00     0.013 A 
ENDBRANCH  10  23
TORSDOF 2
ENDMDL
MODEL 3
REMARK VINA RESULT: -10.167421594      2.935      3.720
REMARK  2 active torsions:
REMARK  status: ('A' for Active; 'I' for Inactive)
REMARK       I    between atoms: C1_2  and  N1_3 
REMARK    1  A    between atoms: C1_2  and  C16_26 
REMARK    2  A    between atoms: C5_10  and  C6_11 
ROOT
HETATM    1  O1  UNL     1     -30.453  -4.743  28.182  1.00  0.00    -0.266 OA
HETATM    2  C1  UNL     1     -29.702  -5.581  28.757  1.00  0.00     0.273 C 
HETATM    3  N1  UNL     1     -28.687  -6.199  28.047  1.00  0.00    -0.306 N 
ATOM      4  H1  UNL     1     -27.923  -6.608  28.586  1.00  0.00     0.170 HD
HETATM    5  C2  UNL     1     -28.624  -6.303  26.776  1.00  0.00     0.128 A 
HETATM    6  C3  UNL     1     -27.556  -6.946  26.114  1.00  0.00     0.102 A 
HETATM    7  C4  UNL     1     -27.847  -6.865  24.779  1.00  0.00     0.150 A 
HETATM    8  N2  UNL     1     -27.428  -7.177  23.539  1.00  0.00    -0.324 N 
ATOM      9  H2  UNL     1     -26.563  -7.676  23.332  1.00  0.00     0.169 HD
HETATM   10  C5  UNL     1     -28.313  -6.739  22.590  1.00  0.00     0.134 A 
HETATM   11  N3  UNL     1     -29.262  -6.159  23.305  1.00  0.00    -0.262 N 
ATOM     12  H3  UNL     1     -30.090  -5.717  22.904  1.00  0.00     0.191 HD
HETATM   13  N4  UNL     1     -29.010  -6.220  24.599  1.00  0.00    -0.176 N 
HETATM   14  N5  UNL     1     -29.441  -5.901  25.808  1.00  0.00    -0.262 N 
ATOM     15  H5  UNL     1     -30.312  -5.399  25.979  1.00  0.00     0.191 HD
ENDROOT
BRANCH   2  16
HETATM   16  C16 UNL     1     -29.946  -5.864  30.184  1.00  0.00     0.100 A 
HETATM   17  C17 UNL     1     -30.749  -6.905  30.562  1.00  0.00     0.035 A 
HETATM   18  C18 UNL     1     -30.972  -7.160  31.909  1.00  0.00     0.004 A 
HETATM   19  C19 UNL     1     -30.367  -6.341  32.854  1.00  0.00     0.017 A 
HETATM   20  C20 UNL     1     -29.569  -5.307  32.431  1.00  0.00     0.088 A 
HETATM   21  N6  UNL     1     -29.372  -5.085  31.101  1.00  0.00    -0.361 N 
ATOM     22  H6  UNL     1     -28.776  -4.313  30.803  1.00  0.00     0.165 HD
ENDBRANCH   2  16
BRANCH  10  23
HETATM   23  C6  UNL     1     -28.100  -6.941  21.160  1.00  0.00     0.021 A 
HETATM   24  C7  UNL     1     -27.381  -5.980  20.433  1.00  0.00     0.016 A 
HETATM   25  C8  UNL     1     -27.140  -6.114  19.085  1.00  0.00     0.002 A 
HETATM   26  C9  UNL     1     -27.593  -7.198  18.387  1.00  0.00     0.012 A 
HETATM   27  C10 UNL     1     -28.304  -8.157  19.079  1.00  0.00    -0.025 A 
HETATM   28  C11 UNL     1     -28.748  -9.241  18.349  1.00  0.00     0.012 A 
HETATM   29  C15 UNL     1     -28.553  -8.025  20.455  1.00  0.00    -0.012 A 
HETATM   30  C12 UNL     1     -29.458 -10.220  19.002  1.00  0.00     0.001 A 
HETATM   31  C13 UNL     1     -29.706 -10.103  20.334  1.00  0.00     0.001 A 
HETATM   32  C14 UNL     1     -29.258  -9.008  21.078  1.00  0.00     0.013 A 
ENDBRANCH  10  23
TORSDOF 2
ENDMDL
MODEL 4
REMARK VINA RESULT: -10.100390254      2.287      3.112
REMARK  2 active torsions:
REMARK  status: ('A' for Active; 'I' for Inactive)
REMARK       I    between atoms: C1_2  and  N1_3 
REMARK    1  A    between atoms: C1_2  and  C16_26 
REMARK    2  A    between atoms: C5_10  and  C6_11 
ROOT
HETATM    1  O1  UNL     1     -29.915  -5.088  27.829  1.00  0.00    -0.266 OA
HETATM    2  C1  UNL     1     -28.984  -5.811  28.287  1.00  0.00     0.273 C 
HETATM    3  N1  UNL     1     -28.031  -6.334  27.429  1.00  0.00    -0.306 N 
ATOM      4  H1  UNL     1     -27.146  -6.630  27.840  1.00  0.00     0.170 HD
HETATM    5  C2  UNL     1     -28.164  -6.477  26.167  1.00  0.00     0.128 A 
HETATM    6  C3  UNL     1     -27.149  -7.016  25.348  1.00  0.00     0.102 A 
HETATM    7  C4  UNL     1     -27.662  -7.020  24.079  1.00  0.00     0.150 A 
HETATM    8  N2  UNL     1     -27.416  -7.328  22.792  1.00  0.00    -0.324 N 
ATOM      9  H2  UNL     1     -26.543  -7.731  22.454  1.00  0.00     0.169 HD
HETATM   10  C5  UNL     1     -28.490  -7.031  21.997  1.00  0.00     0.134 A 
HETATM   11  N3  UNL     1     -29.373  -6.539  22.849  1.00  0.00    -0.262 N 
ATOM     12  H3  UNL     1     -30.302  -6.212  22.584  1.00  0.00     0.191 HD
HETATM   13  N4  UNL     1     -28.907  -6.522  24.084  1.00  0.00    -0.176 N 
HETATM   14  N5  UNL     1     -29.172  -6.210  25.342  1.00  0.00    -0.262 N 
ATOM     15  H5  UNL     1     -30.057  -5.806  25.647  1.00  0.00     0.191 HD
ENDROOT
BRANCH   2  16
HETATM   16  C16 UNL     1     -28.956  -6.066  29.739  1.00  0.00     0.100 A 
HETATM   17  C17 UNL     1     -28.347  -7.184  30.240  1.00  0.00     0.035 A 
HETATM   18  C18 UNL     1     -28.330  -7.414  31.610  1.00  0.00     0.004 A 
HETATM   19  C19 UNL     1     -28.939  -6.491  32.451  1.00  0.00     0.017 A 
HETATM   20  C20 UNL     1     -29.539  -5.383  31.906  1.00  0.00     0.088 A 
HETATM   21  N6  UNL     1     -29.538  -5.189  30.557  1.00  0.00    -0.361 N 
ATOM     22  H6  UNL     1     -29.988  -4.360  30.168  1.00  0.00     0.165 HD
ENDBRANCH   2  16
BRANCH  10  23
HETATM   23  C6  UNL     1     -28.491  -7.262  20.555  1.00  0.00     0.021 A 
HETATM   24  C7  UNL     1     -27.890  -6.314  19.711  1.00  0.00     0.016 A 
HETATM   25  C8  UNL     1     -27.851  -6.475  18.345  1.00  0.00     0.002 A 
HETATM   26  C9  UNL     1     -28.399  -7.573  17.743  1.00  0.00     0.012 A 
HETATM   27  C10 UNL     1     -28.996  -8.518  18.551  1.00  0.00    -0.025 A 
HETATM   28  C11 UNL     1     -29.540  -9.616  17.916  1.00  0.00     0.012 A 
HETATM   29  C15 UNL     1     -29.040  -8.360  19.945  1.00  0.00    -0.012 A 
HETATM   30  C12 UNL     1     -30.143 -10.582  18.685  1.00  0.00     0.001 A 
HETATM   31  C13 UNL     1     -30.191 -10.440  20.036  1.00  0.00     0.001 A 
HETATM   32  C14 UNL     1     -29.642  -9.330  20.684  1.00  0.00     0.013 A 
ENDBRANCH  10  23
TORSDOF 2
ENDMDL
MODEL 5
REMARK VINA RESULT: -9.978142793      1.482      2.678
REMARK  2 active torsions:
REMARK  status: ('A' for Active; 'I' for Inactive)
REMARK       I    between atoms: C1_2  and  N1_3 
REMARK    1  A    between atoms: C1_2  and  C16_26 
REMARK    2  A    between atoms: C5_10  and  C6_11 
ROOT
HETATM    1  O1  UNL     1     -26.113  -8.361  27.925  1.00  0.00    -0.266 OA
HETATM    2  C1  UNL     1     -26.781  -7.364  28.321  1.00  0.00     0.273 C 
HETATM    3  N1  UNL     1     -27.726  -6.791  27.486  1.00  0.00    -0.306 N 
ATOM      4  H1  UNL     1     -28.448  -6.219  27.924  1.00  0.00     0.170 HD
HETATM    5  C2  UNL     1     -27.772  -6.917  26.216  1.00  0.00     0.128 A 
HETATM    6  C3  UNL     1     -28.767  -6.306  25.423  1.00  0.00     0.102 A 
HETATM    7  C4  UNL     1     -28.478  -6.658  24.133  1.00  0.00     0.150 A 
HETATM    8  N2  UNL     1     -28.857  -6.540  22.847  1.00  0.00    -0.324 N 
ATOM      9  H2  UNL     1     -29.667  -6.006  22.532  1.00  0.00     0.169 HD
HETATM   10  C5  UNL     1     -28.015  -7.228  22.015  1.00  0.00     0.134 A 
HETATM   11  N3  UNL     1     -27.131  -7.756  22.845  1.00  0.00    -0.262 N 
ATOM     12  H3  UNL     1     -26.349  -8.341  22.551  1.00  0.00     0.191 HD
HETATM   13  N4  UNL     1     -27.384  -7.434  24.100  1.00  0.00    -0.176 N 
HETATM   14  N5  UNL     1     -26.992  -7.566  25.357  1.00  0.00    -0.262 N 
ATOM     15  H5  UNL     1     -26.176  -8.110  25.637  1.00  0.00     0.191 HD
ENDROOT
BRANCH   2  16
HETATM   16  C16 UNL     1     -26.518  -6.849  29.677  1.00  0.00     0.100 A 
HETATM   17  C17 UNL     1     -25.416  -7.258  30.378  1.00  0.00     0.035 A 
HETATM   18  C18 UNL     1     -25.181  -6.767  31.656  1.00  0.00     0.004 A 
HETATM   19  C19 UNL     1     -26.081  -5.859  32.200  1.00  0.00     0.017 A 
HETATM   20  C20 UNL     1     -27.174  -5.476  31.462  1.00  0.00     0.088 A 
HETATM   21  N6  UNL     1     -27.374  -5.978  30.211  1.00  0.00    -0.361 N 
ATOM     22  H6  UNL     1     -28.191  -5.683  29.676  1.00  0.00     0.165 HD
ENDBRANCH   2  16
BRANCH  10  23
HETATM   23  C6  UNL     1     -28.198  -7.271  20.567  1.00  0.00     0.021 A 
HETATM   24  C7  UNL     1     -27.699  -6.219  19.783  1.00  0.00     0.016 A 
HETATM   25  C8  UNL     1     -27.832  -6.203  18.414  1.00  0.00     0.002 A 
HETATM   26  C9  UNL     1     -28.461  -7.219  17.749  1.00  0.00     0.012 A 
HETATM   27  C10 UNL     1     -28.960  -8.264  18.498  1.00  0.00    -0.025 A 
HETATM   28  C11 UNL     1     -29.589  -9.276  17.800  1.00  0.00     0.012 A 
HETATM   29  C15 UNL     1     -28.828  -8.286  19.896  1.00  0.00    -0.012 A 
HETATM   30  C12 UNL     1     -30.099 -10.338  18.509  1.00  0.00     0.001 A 
HETATM   31  C13 UNL     1     -29.977 -10.370  19.863  1.00  0.00     0.001 A 
HETATM   32  C14 UNL     1     -29.341  -9.348  20.574  1.00  0.00     0.013 A 
ENDBRANCH  10  23
TORSDOF 2
ENDMDL
