MODEL 1
REMARK VINA RESULT: -6.287246284      0.000      0.000
REMARK  15 active torsions:
REMARK  status: ('A' for Active; 'I' for Inactive)
REMARK    1  A    between atoms: N1_1  and  C1_5 
REMARK    2  A    between atoms: C1_5  and  C2_6 
REMARK    3  A    between atoms: C2_6  and  C3_7 
REMARK    4  A    between atoms: C3_7  and  N2_8 
REMARK    5  A    between atoms: C3_7  and  C5_15 
REMARK    6  A    between atoms: N2_8  and  N3_9 
REMARK    7  A    between atoms: N3_9  and  C4_10 
REMARK    8  A    between atoms: C4_10  and  N4_11 
REMARK       I    between atoms: C5_15  and  N5_17 
REMARK    9  A    between atoms: N5_17  and  C6_19 
REMARK   10  A    between atoms: N7_25  and  C9_26 
REMARK   11  A    between atoms: N7_25  and  C11_30 
REMARK   12  A    between atoms: C9_26  and  C10_27 
REMARK   13  A    between atoms: C10_27  and  O2_28 
REMARK   14  A    between atoms: C11_30  and  C12_31 
REMARK   15  A    between atoms: C12_31  and  O3_32 
ROOT
HETATM    1  C5  UNL     1      84.422  25.118   2.326  1.00  0.00     0.240 C 
HETATM    2  O1  UNL     1      84.814  25.879   3.177  1.00  0.00    -0.272 OA
HETATM    3  N5  UNL     1      83.016  24.812   2.239  1.00  0.00    -0.330 N 
ATOM      4  H5  UNL     1      82.679  24.195   1.499  1.00  0.00     0.164 HD
ENDROOT
BRANCH   3   5
HETATM    5  C6  UNL     1      82.088  25.365   3.182  1.00  0.00     0.319 C 
HETATM    6  C7  UNL     1      80.971  24.298   3.292  1.00  0.00     0.289 C 
HETATM    7  N6  UNL     1      79.883  25.024   3.793  1.00  0.00    -0.047 N 
HETATM    8  C8  UNL     1      80.300  26.360   4.028  1.00  0.00     0.470 C 
ATOM      9  H62 UNL     1      79.065  24.970   3.186  1.00  0.00     0.279 HD
ATOM     10  H61 UNL     1      79.472  24.591   4.620  1.00  0.00     0.279 HD
HETATM   11  N7  UNL     1      81.402  26.552   2.986  1.00  0.00    -0.017 N 
BRANCH  11  12
HETATM   12  C9  UNL     1      80.646  26.632   1.782  1.00  0.00     0.268 C 
BRANCH  12  13
HETATM   13  C10 UNL     1      81.343  26.660   0.476  1.00  0.00     0.192 C 
BRANCH  13  14
HETATM   14  O2  UNL     1      80.927  27.666  -0.399  1.00  0.00    -0.399 OA
ATOM     15  H2  UNL     1      80.342  27.384  -1.092  1.00  0.00     0.209 HD
ENDBRANCH  13  14
ENDBRANCH  12  13
ENDBRANCH  11  12
BRANCH  11  16
HETATM   16  C11 UNL     1      82.129  27.713   3.373  1.00  0.00     0.268 C 
BRANCH  16  17
HETATM   17  C12 UNL     1      82.298  27.873   4.877  1.00  0.00     0.192 C 
BRANCH  17  18
HETATM   18  O3  UNL     1      83.700  27.833   5.115  1.00  0.00    -0.399 OA
ATOM     19  H3  UNL     1      83.923  28.676   5.491  1.00  0.00     0.209 HD
ENDBRANCH  17  18
ENDBRANCH  16  17
ENDBRANCH  11  16
ENDBRANCH   3   5
BRANCH   1  20
HETATM   20  C3  UNL     1      85.325  24.405   1.260  1.00  0.00     0.188 C 
BRANCH  20  21
HETATM   21  C2  UNL     1      84.480  23.665   0.326  1.00  0.00     0.059 C 
BRANCH  21  22
HETATM   22  C1  UNL     1      84.839  22.171   0.326  1.00  0.00     0.231 C 
BRANCH  22  23
HETATM   23  N1  UNL     1      83.778  21.265   0.220  1.00  0.00    -0.079 N 
ATOM     24  H13 UNL     1      82.902  21.776   0.110  1.00  0.00     0.274 HD
ATOM     25  H12 UNL     1      83.829  20.783  -0.678  1.00  0.00     0.274 HD
ATOM     26  H11 UNL     1      83.680  20.580   0.969  1.00  0.00     0.274 HD
ENDBRANCH  22  23
ENDBRANCH  21  22
ENDBRANCH  20  21
BRANCH  20  27
HETATM   27  N2  UNL     1      86.126  25.463   0.783  1.00  0.00    -0.132 NA
BRANCH  27  28
HETATM   28  N3  UNL     1      87.181  25.058  -0.072  1.00  0.00    -0.120 NA
BRANCH  28  29
HETATM   29  C4  UNL     1      88.198  26.105  -0.051  1.00  0.00     0.359 C 
BRANCH  29  30
HETATM   30  N4  UNL     1      89.082  26.022  -1.227  1.00  0.00    -0.065 N 
ATOM     31  H43 UNL     1      88.797  25.271  -1.856  1.00  0.00     0.275 HD
ATOM     32  H42 UNL     1      88.945  26.814  -1.855  1.00  0.00     0.275 HD
ATOM     33  H41 UNL     1      90.060  25.928  -0.952  1.00  0.00     0.275 HD
ENDBRANCH  29  30
ENDBRANCH  28  29
ENDBRANCH  27  28
ENDBRANCH  20  27
ENDBRANCH   1  20
TORSDOF 15
ENDMDL
MODEL 2
REMARK VINA RESULT: -6.232844627      2.875      5.472
REMARK  15 active torsions:
REMARK  status: ('A' for Active; 'I' for Inactive)
REMARK    1  A    between atoms: N1_1  and  C1_5 
REMARK    2  A    between atoms: C1_5  and  C2_6 
REMARK    3  A    between atoms: C2_6  and  C3_7 
REMARK    4  A    between atoms: C3_7  and  N2_8 
REMARK    5  A    between atoms: C3_7  and  C5_15 
REMARK    6  A    between atoms: N2_8  and  N3_9 
REMARK    7  A    between atoms: N3_9  and  C4_10 
REMARK    8  A    between atoms: C4_10  and  N4_11 
REMARK       I    between atoms: C5_15  and  N5_17 
REMARK    9  A    between atoms: N5_17  and  C6_19 
REMARK   10  A    between atoms: N7_25  and  C9_26 
REMARK   11  A    between atoms: N7_25  and  C11_30 
REMARK   12  A    between atoms: C9_26  and  C10_27 
REMARK   13  A    between atoms: C10_27  and  O2_28 
REMARK   14  A    between atoms: C11_30  and  C12_31 
REMARK   15  A    between atoms: C12_31  and  O3_32 
ROOT
HETATM    1  C5  UNL     1      83.834  21.306  -0.100  1.00  0.00     0.240 C 
HETATM    2  O1  UNL     1      84.918  21.604  -0.538  1.00  0.00    -0.272 OA
HETATM    3  N5  UNL     1      82.988  22.329   0.462  1.00  0.00    -0.330 N 
ATOM      4  H5  UNL     1      82.058  22.085   0.803  1.00  0.00     0.164 HD
ENDROOT
BRANCH   3   5
HETATM    5  C6  UNL     1      83.441  23.687   0.547  1.00  0.00     0.319 C 
HETATM    6  C7  UNL     1      84.912  23.573   1.019  1.00  0.00     0.289 C 
HETATM    7  N6  UNL     1      85.174  24.838   1.557  1.00  0.00    -0.047 N 
HETATM    8  C8  UNL     1      84.028  25.655   1.376  1.00  0.00     0.470 C 
ATOM      9  H62 UNL     1      85.473  24.794   2.531  1.00  0.00     0.279 HD
ATOM     10  H61 UNL     1      86.020  25.260   1.171  1.00  0.00     0.279 HD
HETATM   11  N7  UNL     1      82.889  24.635   1.391  1.00  0.00    -0.017 N 
BRANCH  11  12
HETATM   12  C9  UNL     1      82.844  24.278   2.769  1.00  0.00     0.268 C 
BRANCH  12  13
HETATM   13  C10 UNL     1      82.393  25.270   3.772  1.00  0.00     0.192 C 
BRANCH  13  14
HETATM   14  O2  UNL     1      81.107  25.062   4.276  1.00  0.00    -0.399 OA
ATOM     15  H2  UNL     1      80.437  25.638   3.927  1.00  0.00     0.209 HD
ENDBRANCH  13  14
ENDBRANCH  12  13
ENDBRANCH  11  12
BRANCH  11  16
HETATM   16  C11 UNL     1      81.746  25.295   0.856  1.00  0.00     0.268 C 
BRANCH  16  17
HETATM   17  C12 UNL     1      81.890  26.805   0.746  1.00  0.00     0.192 C 
BRANCH  17  18
HETATM   18  O3  UNL     1      80.932  27.216  -0.224  1.00  0.00    -0.399 OA
ATOM     19  H3  UNL     1      81.428  27.413  -1.010  1.00  0.00     0.209 HD
ENDBRANCH  17  18
ENDBRANCH  16  17
ENDBRANCH  11  16
ENDBRANCH   3   5
BRANCH   1  20
HETATM   20  C3  UNL     1      83.227  19.859  -0.082  1.00  0.00     0.188 C 
BRANCH  20  21
HETATM   21  C2  UNL     1      82.497  19.625  -1.326  1.00  0.00     0.059 C 
BRANCH  21  22
HETATM   22  C1  UNL     1      83.466  19.402  -2.498  1.00  0.00     0.231 C 
BRANCH  22  23
HETATM   23  N1  UNL     1      84.017  18.123  -2.628  1.00  0.00    -0.079 N 
ATOM     24  H13 UNL     1      85.033  18.194  -2.682  1.00  0.00     0.274 HD
ATOM     25  H12 UNL     1      83.910  17.615  -1.750  1.00  0.00     0.274 HD
ATOM     26  H11 UNL     1      83.675  17.549  -3.398  1.00  0.00     0.274 HD
ENDBRANCH  22  23
ENDBRANCH  21  22
ENDBRANCH  20  21
BRANCH  20  27
HETATM   27  N2  UNL     1      84.350  19.063   0.224  1.00  0.00    -0.132 NA
BRANCH  27  28
HETATM   28  N3  UNL     1      84.092  17.669   0.236  1.00  0.00    -0.120 NA
BRANCH  28  29
HETATM   29  C4  UNL     1      84.834  17.090   1.352  1.00  0.00     0.359 C 
BRANCH  29  30
HETATM   30  N4  UNL     1      85.160  18.105   2.368  1.00  0.00    -0.065 N 
ATOM     31  H43 UNL     1      84.718  19.000   2.157  1.00  0.00     0.275 HD
ATOM     32  H42 UNL     1      84.698  17.907   3.256  1.00  0.00     0.275 HD
ATOM     33  H41 UNL     1      86.168  18.205   2.486  1.00  0.00     0.275 HD
ENDBRANCH  29  30
ENDBRANCH  28  29
ENDBRANCH  27  28
ENDBRANCH  20  27
ENDBRANCH   1  20
TORSDOF 15
ENDMDL
MODEL 3
REMARK VINA RESULT: -6.174877149      2.892      5.105
REMARK  15 active torsions:
REMARK  status: ('A' for Active; 'I' for Inactive)
REMARK    1  A    between atoms: N1_1  and  C1_5 
REMARK    2  A    between atoms: C1_5  and  C2_6 
REMARK    3  A    between atoms: C2_6  and  C3_7 
REMARK    4  A    between atoms: C3_7  and  N2_8 
REMARK    5  A    between atoms: C3_7  and  C5_15 
REMARK    6  A    between atoms: N2_8  and  N3_9 
REMARK    7  A    between atoms: N3_9  and  C4_10 
REMARK    8  A    between atoms: C4_10  and  N4_11 
REMARK       I    between atoms: C5_15  and  N5_17 
REMARK    9  A    between atoms: N5_17  and  C6_19 
REMARK   10  A    between atoms: N7_25  and  C9_26 
REMARK   11  A    between atoms: N7_25  and  C11_30 
REMARK   12  A    between atoms: C9_26  and  C10_27 
REMARK   13  A    between atoms: C10_27  and  O2_28 
REMARK   14  A    between atoms: C11_30  and  C12_31 
REMARK   15  A    between atoms: C12_31  and  O3_32 
ROOT
HETATM    1  C5  UNL     1      83.763  21.990   0.094  1.00  0.00     0.240 C 
HETATM    2  O1  UNL     1      84.865  22.416  -0.152  1.00  0.00    -0.272 OA
HETATM    3  N5  UNL     1      82.776  22.864   0.676  1.00  0.00    -0.330 N 
ATOM      4  H5  UNL     1      81.834  22.515   0.854  1.00  0.00     0.164 HD
ENDROOT
BRANCH   3   5
HETATM    5  C6  UNL     1      83.105  24.221   1.006  1.00  0.00     0.319 C 
HETATM    6  C7  UNL     1      84.272  24.098   2.016  1.00  0.00     0.289 C 
HETATM    7  N6  UNL     1      84.251  25.330   2.681  1.00  0.00    -0.047 N 
HETATM    8  C8  UNL     1      83.238  26.139   2.104  1.00  0.00     0.470 C 
ATOM      9  H62 UNL     1      84.142  25.227   3.690  1.00  0.00     0.279 HD
ATOM     10  H61 UNL     1      85.162  25.788   2.686  1.00  0.00     0.279 HD
HETATM   11  N7  UNL     1      82.226  25.104   1.612  1.00  0.00    -0.017 N 
BRANCH  11  12
HETATM   12  C9  UNL     1      81.656  24.657   2.837  1.00  0.00     0.268 C 
BRANCH  12  13
HETATM   13  C10 UNL     1      80.598  25.460   3.492  1.00  0.00     0.192 C 
BRANCH  13  14
HETATM   14  O2  UNL     1      79.588  24.720   4.113  1.00  0.00    -0.399 OA
ATOM     15  H2  UNL     1      78.908  24.398   3.533  1.00  0.00     0.209 HD
ENDBRANCH  13  14
ENDBRANCH  12  13
ENDBRANCH  11  12
BRANCH  11  16
HETATM   16  C11 UNL     1      81.363  25.779   0.703  1.00  0.00     0.268 C 
BRANCH  16  17
HETATM   17  C12 UNL     1      81.734  27.233   0.452  1.00  0.00     0.192 C 
BRANCH  17  18
HETATM   18  O3  UNL     1      80.940  27.649  -0.653  1.00  0.00    -0.399 OA
ATOM     19  H3  UNL     1      81.540  28.064  -1.262  1.00  0.00     0.209 HD
ENDBRANCH  17  18
ENDBRANCH  16  17
ENDBRANCH  11  16
ENDBRANCH   3   5
BRANCH   1  20
HETATM   20  C3  UNL     1      83.278  20.521  -0.169  1.00  0.00     0.188 C 
BRANCH  20  21
HETATM   21  C2  UNL     1      82.835  20.399  -1.555  1.00  0.00     0.059 C 
BRANCH  21  22
HETATM   22  C1  UNL     1      82.794  18.926  -1.990  1.00  0.00     0.231 C 
BRANCH  22  23
HETATM   23  N1  UNL     1      83.979  18.382  -2.496  1.00  0.00    -0.079 N 
ATOM     24  H13 UNL     1      83.765  17.775  -3.288  1.00  0.00     0.274 HD
ATOM     25  H12 UNL     1      84.519  19.113  -2.960  1.00  0.00     0.274 HD
ATOM     26  H11 UNL     1      84.577  17.883  -1.837  1.00  0.00     0.274 HD
ENDBRANCH  22  23
ENDBRANCH  21  22
ENDBRANCH  20  21
BRANCH  20  27
HETATM   27  N2  UNL     1      84.373  19.755   0.281  1.00  0.00    -0.132 NA
BRANCH  27  28
HETATM   28  N3  UNL     1      84.066  18.864   1.340  1.00  0.00    -0.120 NA
BRANCH  28  29
HETATM   29  C4  UNL     1      84.558  17.541   0.964  1.00  0.00     0.359 C 
BRANCH  29  30
HETATM   30  N4  UNL     1      85.539  17.034   1.939  1.00  0.00    -0.065 N 
ATOM     31  H43 UNL     1      85.960  17.793   2.475  1.00  0.00     0.275 HD
ATOM     32  H42 UNL     1      85.083  16.535   2.703  1.00  0.00     0.275 HD
ATOM     33  H41 UNL     1      86.249  16.457   1.488  1.00  0.00     0.275 HD
ENDBRANCH  29  30
ENDBRANCH  28  29
ENDBRANCH  27  28
ENDBRANCH  20  27
ENDBRANCH   1  20
TORSDOF 15
ENDMDL
MODEL 4
REMARK VINA RESULT: -6.020044537      2.257      3.360
REMARK  15 active torsions:
REMARK  status: ('A' for Active; 'I' for Inactive)
REMARK    1  A    between atoms: N1_1  and  C1_5 
REMARK    2  A    between atoms: C1_5  and  C2_6 
REMARK    3  A    between atoms: C2_6  and  C3_7 
REMARK    4  A    between atoms: C3_7  and  N2_8 
REMARK    5  A    between atoms: C3_7  and  C5_15 
REMARK    6  A    between atoms: N2_8  and  N3_9 
REMARK    7  A    between atoms: N3_9  and  C4_10 
REMARK    8  A    between atoms: C4_10  and  N4_11 
REMARK       I    between atoms: C5_15  and  N5_17 
REMARK    9  A    between atoms: N5_17  and  C6_19 
REMARK   10  A    between atoms: N7_25  and  C9_26 
REMARK   11  A    between atoms: N7_25  and  C11_30 
REMARK   12  A    between atoms: C9_26  and  C10_27 
REMARK   13  A    between atoms: C10_27  and  O2_28 
REMARK   14  A    between atoms: C11_30  and  C12_31 
REMARK   15  A    between atoms: C12_31  and  O3_32 
ROOT
HETATM    1  C5  UNL     1      82.619  22.789   0.466  1.00  0.00     0.240 C 
HETATM    2  O1  UNL     1      81.555  22.582  -0.063  1.00  0.00    -0.272 OA
HETATM    3  N5  UNL     1      82.773  23.933   1.329  1.00  0.00    -0.330 N 
ATOM      4  H5  UNL     1      83.663  24.092   1.803  1.00  0.00     0.164 HD
ENDROOT
BRANCH   3   5
HETATM    5  C6  UNL     1      81.688  24.851   1.527  1.00  0.00     0.319 C 
HETATM    6  C7  UNL     1      81.578  25.612   0.184  1.00  0.00     0.289 C 
HETATM    7  N6  UNL     1      80.897  26.784   0.534  1.00  0.00    -0.047 N 
HETATM    8  C8  UNL     1      80.566  26.721   1.913  1.00  0.00     0.470 C 
ATOM      9  H62 UNL     1      81.421  27.626   0.296  1.00  0.00     0.279 HD
ATOM     10  H61 UNL     1      80.083  26.954  -0.056  1.00  0.00     0.279 HD
HETATM   11  N7  UNL     1      81.688  25.853   2.483  1.00  0.00    -0.017 N 
BRANCH  11  12
HETATM   12  C9  UNL     1      82.794  26.747   2.435  1.00  0.00     0.268 C 
BRANCH  12  13
HETATM   13  C10 UNL     1      83.405  27.233   3.693  1.00  0.00     0.192 C 
BRANCH  13  14
HETATM   14  O2  UNL     1      84.796  27.353   3.672  1.00  0.00    -0.399 OA
ATOM     15  H2  UNL     1      85.258  26.831   4.319  1.00  0.00     0.209 HD
ENDBRANCH  13  14
ENDBRANCH  12  13
ENDBRANCH  11  12
BRANCH  11  16
HETATM   16  C11 UNL     1      81.256  25.426   3.771  1.00  0.00     0.268 C 
BRANCH  16  17
HETATM   17  C12 UNL     1      79.766  25.600   4.021  1.00  0.00     0.192 C 
BRANCH  17  18
HETATM   18  O3  UNL     1      79.295  24.328   4.452  1.00  0.00    -0.399 OA
ATOM     19  H3  UNL     1      78.351  24.412   4.523  1.00  0.00     0.209 HD
ENDBRANCH  17  18
ENDBRANCH  16  17
ENDBRANCH  11  16
ENDBRANCH   3   5
BRANCH   1  20
HETATM   20  C3  UNL     1      83.902  21.901   0.304  1.00  0.00     0.188 C 
BRANCH  20  21
HETATM   21  C2  UNL     1      83.623  20.812  -0.628  1.00  0.00     0.059 C 
BRANCH  21  22
HETATM   22  C1  UNL     1      84.469  19.573  -0.295  1.00  0.00     0.231 C 
BRANCH  22  23
HETATM   23  N1  UNL     1      84.221  18.949   0.933  1.00  0.00    -0.079 N 
ATOM     24  H13 UNL     1      83.916  19.645   1.614  1.00  0.00     0.274 HD
ATOM     25  H12 UNL     1      83.379  18.377   0.860  1.00  0.00     0.274 HD
ATOM     26  H11 UNL     1      84.978  18.393   1.329  1.00  0.00     0.274 HD
ENDBRANCH  22  23
ENDBRANCH  21  22
ENDBRANCH  20  21
BRANCH  20  27
HETATM   27  N2  UNL     1      84.892  22.854  -0.016  1.00  0.00    -0.132 NA
BRANCH  27  28
HETATM   28  N3  UNL     1      85.409  23.556   1.102  1.00  0.00    -0.120 NA
BRANCH  28  29
HETATM   29  C4  UNL     1      85.493  24.967   0.740  1.00  0.00     0.359 C 
BRANCH  29  30
HETATM   30  N4  UNL     1      86.865  25.347   0.363  1.00  0.00    -0.065 N 
ATOM     31  H43 UNL     1      86.936  25.548  -0.635  1.00  0.00     0.275 HD
ATOM     32  H42 UNL     1      87.111  26.269   0.726  1.00  0.00     0.275 HD
ATOM     33  H41 UNL     1      87.541  24.640   0.650  1.00  0.00     0.275 HD
ENDBRANCH  29  30
ENDBRANCH  28  29
ENDBRANCH  27  28
ENDBRANCH  20  27
ENDBRANCH   1  20
TORSDOF 15
ENDMDL
MODEL 5
REMARK VINA RESULT: -5.727775474      2.368      4.549
REMARK  15 active torsions:
REMARK  status: ('A' for Active; 'I' for Inactive)
REMARK    1  A    between atoms: N1_1  and  C1_5 
REMARK    2  A    between atoms: C1_5  and  C2_6 
REMARK    3  A    between atoms: C2_6  and  C3_7 
REMARK    4  A    between atoms: C3_7  and  N2_8 
REMARK    5  A    between atoms: C3_7  and  C5_15 
REMARK    6  A    between atoms: N2_8  and  N3_9 
REMARK    7  A    between atoms: N3_9  and  C4_10 
REMARK    8  A    between atoms: C4_10  and  N4_11 
REMARK       I    between atoms: C5_15  and  N5_17 
REMARK    9  A    between atoms: N5_17  and  C6_19 
REMARK   10  A    between atoms: N7_25  and  C9_26 
REMARK   11  A    between atoms: N7_25  and  C11_30 
REMARK   12  A    between atoms: C9_26  and  C10_27 
REMARK   13  A    between atoms: C10_27  and  O2_28 
REMARK   14  A    between atoms: C11_30  and  C12_31 
REMARK   15  A    between atoms: C12_31  and  O3_32 
ROOT
HETATM    1  C5  UNL     1      82.456  22.603   0.711  1.00  0.00     0.240 C 
HETATM    2  O1  UNL     1      81.652  22.200   1.516  1.00  0.00    -0.272 OA
HETATM    3  N5  UNL     1      82.490  24.005   0.380  1.00  0.00    -0.330 N 
ATOM      4  H5  UNL     1      83.190  24.352  -0.276  1.00  0.00     0.164 HD
ENDROOT
BRANCH   3   5
HETATM    5  C6  UNL     1      81.548  24.917   0.963  1.00  0.00     0.319 C 
HETATM    6  C7  UNL     1      81.190  25.888  -0.188  1.00  0.00     0.289 C 
HETATM    7  N6  UNL     1      80.694  27.012   0.483  1.00  0.00    -0.047 N 
HETATM    8  C8  UNL     1      80.683  26.739   1.876  1.00  0.00     0.470 C 
ATOM      9  H62 UNL     1      81.209  27.863   0.255  1.00  0.00     0.279 HD
ATOM     10  H61 UNL     1      79.781  27.304   0.135  1.00  0.00     0.279 HD
HETATM   11  N7  UNL     1      81.839  25.751   2.029  1.00  0.00    -0.017 N 
BRANCH  11  12
HETATM   12  C9  UNL     1      82.967  26.602   1.853  1.00  0.00     0.268 C 
BRANCH  12  13
HETATM   13  C10 UNL     1      83.600  27.238   3.030  1.00  0.00     0.192 C 
BRANCH  13  14
HETATM   14  O2  UNL     1      84.844  26.715   3.392  1.00  0.00    -0.399 OA
ATOM     15  H2  UNL     1      85.205  27.054   4.204  1.00  0.00     0.209 HD
ENDBRANCH  13  14
ENDBRANCH  12  13
ENDBRANCH  11  12
BRANCH  11  16
HETATM   16  C11 UNL     1      81.683  25.139   3.305  1.00  0.00     0.268 C 
BRANCH  16  17
HETATM   17  C12 UNL     1      80.453  25.599   4.074  1.00  0.00     0.192 C 
BRANCH  17  18
HETATM   18  O3  UNL     1      79.592  24.468   4.138  1.00  0.00    -0.399 OA
ATOM     19  H3  UNL     1      79.520  24.250   5.060  1.00  0.00     0.209 HD
ENDBRANCH  17  18
ENDBRANCH  16  17
ENDBRANCH  11  16
ENDBRANCH   3   5
BRANCH   1  20
HETATM   20  C3  UNL     1      83.511  21.717  -0.039  1.00  0.00     0.188 C 
BRANCH  20  21
HETATM   21  C2  UNL     1      84.857  22.139   0.344  1.00  0.00     0.059 C 
BRANCH  21  22
HETATM   22  C1  UNL     1      84.896  23.647   0.637  1.00  0.00     0.231 C 
BRANCH  22  23
HETATM   23  N1  UNL     1      85.389  24.036   1.887  1.00  0.00    -0.079 N 
ATOM     24  H13 UNL     1      84.929  23.493   2.619  1.00  0.00     0.274 HD
ATOM     25  H12 UNL     1      86.351  23.713   1.990  1.00  0.00     0.274 HD
ATOM     26  H11 UNL     1      85.336  25.028   2.116  1.00  0.00     0.274 HD
ENDBRANCH  22  23
ENDBRANCH  21  22
ENDBRANCH  20  21
BRANCH  20  27
HETATM   27  N2  UNL     1      83.080  20.409   0.265  1.00  0.00    -0.132 NA
BRANCH  27  28
HETATM   28  N3  UNL     1      83.160  19.501  -0.821  1.00  0.00    -0.120 NA
BRANCH  28  29
HETATM   29  C4  UNL     1      83.894  18.325  -0.364  1.00  0.00     0.359 C 
BRANCH  29  30
HETATM   30  N4  UNL     1      84.342  18.478   1.031  1.00  0.00    -0.065 N 
ATOM     31  H43 UNL     1      85.326  18.745   1.080  1.00  0.00     0.275 HD
ATOM     32  H42 UNL     1      83.932  19.304   1.467  1.00  0.00     0.275 HD
ATOM     33  H41 UNL     1      84.157  17.637   1.577  1.00  0.00     0.275 HD
ENDBRANCH  29  30
ENDBRANCH  28  29
ENDBRANCH  27  28
ENDBRANCH  20  27
ENDBRANCH   1  20
TORSDOF 15
ENDMDL
