MODEL 1
REMARK VINA RESULT: -8.160180066      0.000      0.000
REMARK  12 active torsions:
REMARK  status: ('A' for Active; 'I' for Inactive)
REMARK    1  A    between atoms: C2_2  and  C3_3 
REMARK    2  A    between atoms: C3_3  and  N1_4 
REMARK    3  A    between atoms: N1_4  and  C4_6 
REMARK    4  A    between atoms: C4_6  and  C5_7 
REMARK    5  A    between atoms: N2_9  and  C6_11 
REMARK    6  A    between atoms: C6_11  and  N3_13 
REMARK    7  A    between atoms: C6_11  and  C10_28 
REMARK       I    between atoms: N3_13  and  C8_15 
REMARK    8  A    between atoms: C8_15  and  C9_17 
REMARK    9  A    between atoms: C9_17  and  N6_23 
REMARK   10  A    between atoms: N4_18  and  N5_20 
REMARK   11  A    between atoms: N6_23  and  N7_25 
REMARK       I    between atoms: C10_28  and  N8_30 
REMARK   12  A    between atoms: N8_30  and  N9_32 
ROOT
HETATM    1  C6  UNL     1      12.331  46.047  -2.064  1.00  0.00     0.189 C 
HETATM    2  C7  UNL     1      12.164  46.196  -3.580  1.00  0.00     0.074 C 
ENDROOT
BRANCH   1   3
HETATM    3  N2  UNL     1      12.771  47.174  -1.389  1.00  0.00    -0.340 N 
HETATM    4  C4  UNL     1      12.355  48.178  -0.792  1.00  0.00     0.138 C 
ATOM      5  H2  UNL     1      13.791  47.181  -1.381  1.00  0.00     0.164 HD
BRANCH   4   6
HETATM    6  N1  UNL     1      13.306  49.126  -0.224  1.00  0.00    -0.371 N 
ATOM      7  H1  UNL     1      14.316  49.030  -0.323  1.00  0.00     0.161 HD
BRANCH   6   8
HETATM    8  C3  UNL     1      12.675  50.224   0.499  1.00  0.00     0.148 C 
BRANCH   8   9
HETATM    9  C2  UNL     1      13.318  51.524   0.211  1.00  0.00    -0.018 C 
HETATM   10  C1  UNL     1      12.612  52.628   0.206  1.00  0.00     0.008 C 
ENDBRANCH   8   9
ENDBRANCH   6   8
ENDBRANCH   4   6
BRANCH   4  11
HETATM   11  C5  UNL     1      10.957  48.500  -0.611  1.00  0.00     0.306 C 
HETATM   12  O1  UNL     1      10.297  48.870  -1.642  1.00  0.00    -0.298 OA
ENDBRANCH   4  11
ENDBRANCH   1   3
BRANCH   1  13
HETATM   13  N3  UNL     1      13.295  44.957  -1.850  1.00  0.00    -0.320 N 
HETATM   14  C8  UNL     1      14.644  45.112  -2.249  1.00  0.00     0.290 C 
HETATM   15  O2  UNL     1      14.984  46.190  -2.793  1.00  0.00    -0.264 OA
ATOM     16  H3  UNL     1      12.991  44.087  -1.413  1.00  0.00     0.165 HD
BRANCH  14  17
HETATM   17  C9  UNL     1      15.648  44.081  -2.054  1.00  0.00     0.203 C 
HETATM   18  N4  UNL     1      16.604  44.205  -1.201  1.00  0.00    -0.286 N 
ATOM     19  H4  UNL     1      17.290  43.459  -1.089  1.00  0.00     0.188 HD
BRANCH  18  20
HETATM   20  N5  UNL     1      16.697  45.344  -0.441  1.00  0.00    -0.343 N 
ATOM     21  H52 UNL     1      16.049  46.112  -0.617  1.00  0.00     0.176 HD
ATOM     22  H51 UNL     1      17.407  45.412   0.287  1.00  0.00     0.176 HD
ENDBRANCH  18  20
BRANCH  17  23
HETATM   23  N6  UNL     1      15.635  42.843  -2.797  1.00  0.00    -0.286 N 
ATOM     24  H6  UNL     1      16.357  42.622  -3.482  1.00  0.00     0.188 HD
BRANCH  23  25
HETATM   25  N7  UNL     1      14.586  41.965  -2.531  1.00  0.00    -0.343 N 
ATOM     26  H72 UNL     1      14.236  41.843  -1.581  1.00  0.00     0.176 HD
ATOM     27  H71 UNL     1      14.196  41.462  -3.328  1.00  0.00     0.176 HD
ENDBRANCH  23  25
ENDBRANCH  17  23
ENDBRANCH  14  17
ENDBRANCH   1  13
BRANCH   1  28
HETATM   28  C10 UNL     1      11.033  45.504  -1.555  1.00  0.00     0.284 C 
HETATM   29  O3  UNL     1       9.991  45.635  -2.240  1.00  0.00    -0.267 OA
HETATM   30  N8  UNL     1      10.958  44.840  -0.307  1.00  0.00    -0.273 N 
ATOM     31  H8  UNL     1      11.795  44.718   0.263  1.00  0.00     0.189 HD
BRANCH  30  32
HETATM   32  N9  UNL     1       9.707  44.344   0.142  1.00  0.00    -0.342 N 
ATOM     33  H92 UNL     1       9.218  43.643  -0.414  1.00  0.00     0.176 HD
ATOM     34  H91 UNL     1       9.314  44.697   1.014  1.00  0.00     0.176 HD
ENDBRANCH  30  32
ENDBRANCH   1  28
TORSDOF 12
ENDMDL
MODEL 2
REMARK VINA RESULT: -8.015482171      1.036      1.750
REMARK  12 active torsions:
REMARK  status: ('A' for Active; 'I' for Inactive)
REMARK    1  A    between atoms: C2_2  and  C3_3 
REMARK    2  A    between atoms: C3_3  and  N1_4 
REMARK    3  A    between atoms: N1_4  and  C4_6 
REMARK    4  A    between atoms: C4_6  and  C5_7 
REMARK    5  A    between atoms: N2_9  and  C6_11 
REMARK    6  A    between atoms: C6_11  and  N3_13 
REMARK    7  A    between atoms: C6_11  and  C10_28 
REMARK       I    between atoms: N3_13  and  C8_15 
REMARK    8  A    between atoms: C8_15  and  C9_17 
REMARK    9  A    between atoms: C9_17  and  N6_23 
REMARK   10  A    between atoms: N4_18  and  N5_20 
REMARK   11  A    between atoms: N6_23  and  N7_25 
REMARK       I    between atoms: C10_28  and  N8_30 
REMARK   12  A    between atoms: N8_30  and  N9_32 
ROOT
HETATM    1  C6  UNL     1      12.365  45.943  -2.444  1.00  0.00     0.189 C 
HETATM    2  C7  UNL     1      11.462  46.263  -3.640  1.00  0.00     0.074 C 
ENDROOT
BRANCH   1   3
HETATM    3  N2  UNL     1      12.829  47.034  -1.726  1.00  0.00    -0.340 N 
HETATM    4  C4  UNL     1      12.436  47.987  -1.037  1.00  0.00     0.138 C 
ATOM      5  H2  UNL     1      13.847  47.063  -1.785  1.00  0.00     0.164 HD
BRANCH   4   6
HETATM    6  N1  UNL     1      13.406  48.916  -0.471  1.00  0.00    -0.371 N 
ATOM      7  H1  UNL     1      14.404  48.874  -0.675  1.00  0.00     0.161 HD
BRANCH   6   8
HETATM    8  C3  UNL     1      12.813  49.912   0.414  1.00  0.00     0.148 C 
BRANCH   8   9
HETATM    9  C2  UNL     1      13.380  51.261   0.195  1.00  0.00    -0.018 C 
HETATM   10  C1  UNL     1      12.594  52.307   0.120  1.00  0.00     0.008 C 
ENDBRANCH   8   9
ENDBRANCH   6   8
ENDBRANCH   4   6
BRANCH   4  11
HETATM   11  C5  UNL     1      11.049  48.265  -0.743  1.00  0.00     0.306 C 
HETATM   12  O1  UNL     1      10.346  48.809  -1.663  1.00  0.00    -0.298 OA
ENDBRANCH   4  11
ENDBRANCH   1   3
BRANCH   1  13
HETATM   13  N3  UNL     1      13.516  45.195  -2.971  1.00  0.00    -0.320 N 
HETATM   14  C8  UNL     1      14.695  45.067  -2.200  1.00  0.00     0.290 C 
HETATM   15  O2  UNL     1      14.731  45.613  -1.071  1.00  0.00    -0.264 OA
ATOM     16  H3  UNL     1      13.464  44.768  -3.896  1.00  0.00     0.165 HD
BRANCH  14  17
HETATM   17  C9  UNL     1      15.861  44.331  -2.657  1.00  0.00     0.203 C 
HETATM   18  N4  UNL     1      15.847  43.054  -2.817  1.00  0.00    -0.286 N 
ATOM     19  H4  UNL     1      16.684  42.570  -3.142  1.00  0.00     0.188 HD
BRANCH  18  20
HETATM   20  N5  UNL     1      14.704  42.344  -2.550  1.00  0.00    -0.343 N 
ATOM     21  H52 UNL     1      13.841  42.850  -2.351  1.00  0.00     0.176 HD
ATOM     22  H51 UNL     1      14.726  41.325  -2.552  1.00  0.00     0.176 HD
ENDBRANCH  18  20
BRANCH  17  23
HETATM   23  N6  UNL     1      17.109  44.984  -2.973  1.00  0.00    -0.286 N 
ATOM     24  H6  UNL     1      17.366  45.213  -3.933  1.00  0.00     0.188 HD
BRANCH  23  25
HETATM   25  N7  UNL     1      17.946  45.285  -1.901  1.00  0.00    -0.343 N 
ATOM     26  H72 UNL     1      17.723  44.965  -0.959  1.00  0.00     0.176 HD
ATOM     27  H71 UNL     1      18.780  45.835  -2.111  1.00  0.00     0.176 HD
ENDBRANCH  23  25
ENDBRANCH  17  23
ENDBRANCH  14  17
ENDBRANCH   1  13
BRANCH   1  28
HETATM   28  C10 UNL     1      11.617  44.946  -1.616  1.00  0.00     0.284 C 
HETATM   29  O3  UNL     1      11.970  43.743  -1.619  1.00  0.00    -0.267 OA
HETATM   30  N8  UNL     1      10.512  45.338  -0.822  1.00  0.00    -0.273 N 
ATOM     31  H8  UNL     1      10.212  46.313  -0.802  1.00  0.00     0.189 HD
BRANCH  30  32
HETATM   32  N9  UNL     1       9.827  44.361  -0.055  1.00  0.00    -0.342 N 
ATOM     33  H92 UNL     1      10.249  43.443   0.077  1.00  0.00     0.176 HD
ATOM     34  H91 UNL     1       8.921  44.593   0.352  1.00  0.00     0.176 HD
ENDBRANCH  30  32
ENDBRANCH   1  28
TORSDOF 12
ENDMDL
MODEL 3
REMARK VINA RESULT: -7.801606741      1.635      2.173
REMARK  12 active torsions:
REMARK  status: ('A' for Active; 'I' for Inactive)
REMARK    1  A    between atoms: C2_2  and  C3_3 
REMARK    2  A    between atoms: C3_3  and  N1_4 
REMARK    3  A    between atoms: N1_4  and  C4_6 
REMARK    4  A    between atoms: C4_6  and  C5_7 
REMARK    5  A    between atoms: N2_9  and  C6_11 
REMARK    6  A    between atoms: C6_11  and  N3_13 
REMARK    7  A    between atoms: C6_11  and  C10_28 
REMARK       I    between atoms: N3_13  and  C8_15 
REMARK    8  A    between atoms: C8_15  and  C9_17 
REMARK    9  A    between atoms: C9_17  and  N6_23 
REMARK   10  A    between atoms: N4_18  and  N5_20 
REMARK   11  A    between atoms: N6_23  and  N7_25 
REMARK       I    between atoms: C10_28  and  N8_30 
REMARK   12  A    between atoms: N8_30  and  N9_32 
ROOT
HETATM    1  C6  UNL     1      12.905  45.880  -2.690  1.00  0.00     0.189 C 
HETATM    2  C7  UNL     1      11.984  46.180  -3.878  1.00  0.00     0.074 C 
ENDROOT
BRANCH   1   3
HETATM    3  N2  UNL     1      13.139  46.935  -1.823  1.00  0.00    -0.340 N 
HETATM    4  C4  UNL     1      12.552  47.733  -1.078  1.00  0.00     0.138 C 
ATOM      5  H2  UNL     1      14.142  47.118  -1.784  1.00  0.00     0.164 HD
BRANCH   4   6
HETATM    6  N1  UNL     1      13.320  48.722  -0.331  1.00  0.00    -0.371 N 
ATOM      7  H1  UNL     1      14.330  48.660  -0.199  1.00  0.00     0.161 HD
BRANCH   6   8
HETATM    8  C3  UNL     1      12.509  49.806   0.209  1.00  0.00     0.148 C 
BRANCH   8   9
HETATM    9  C2  UNL     1      13.316  51.006   0.520  1.00  0.00    -0.018 C 
HETATM   10  C1  UNL     1      12.791  52.203   0.421  1.00  0.00     0.008 C 
ENDBRANCH   8   9
ENDBRANCH   6   8
ENDBRANCH   4   6
BRANCH   4  11
HETATM   11  C5  UNL     1      11.120  47.771  -0.887  1.00  0.00     0.306 C 
HETATM   12  O1  UNL     1      10.413  48.306  -1.809  1.00  0.00    -0.298 OA
ENDBRANCH   4  11
ENDBRANCH   1   3
BRANCH   1  13
HETATM   13  N3  UNL     1      14.188  45.433  -3.253  1.00  0.00    -0.320 N 
HETATM   14  C8  UNL     1      15.281  45.153  -2.399  1.00  0.00     0.290 C 
HETATM   15  O2  UNL     1      15.126  45.306  -1.163  1.00  0.00    -0.264 OA
ATOM     16  H3  UNL     1      14.291  45.324  -4.262  1.00  0.00     0.165 HD
BRANCH  14  17
HETATM   17  C9  UNL     1      16.569  44.695  -2.890  1.00  0.00     0.203 C 
HETATM   18  N4  UNL     1      16.871  43.446  -2.965  1.00  0.00    -0.286 N 
ATOM     19  H4  UNL     1      17.785  43.161  -3.317  1.00  0.00     0.188 HD
BRANCH  18  20
HETATM   20  N5  UNL     1      15.960  42.498  -2.571  1.00  0.00    -0.343 N 
ATOM     21  H52 UNL     1      15.936  42.210  -1.594  1.00  0.00     0.176 HD
ATOM     22  H51 UNL     1      15.319  42.095  -3.254  1.00  0.00     0.176 HD
ENDBRANCH  18  20
BRANCH  17  23
HETATM   23  N6  UNL     1      17.593  45.610  -3.336  1.00  0.00    -0.286 N 
ATOM     24  H6  UNL     1      17.461  46.202  -4.155  1.00  0.00     0.188 HD
BRANCH  23  25
HETATM   25  N7  UNL     1      18.770  45.644  -2.591  1.00  0.00    -0.343 N 
ATOM     26  H72 UNL     1      19.515  46.299  -2.824  1.00  0.00     0.176 HD
ATOM     27  H71 UNL     1      18.840  44.987  -1.814  1.00  0.00     0.176 HD
ENDBRANCH  23  25
ENDBRANCH  17  23
ENDBRANCH  14  17
ENDBRANCH   1  13
BRANCH   1  28
HETATM   28  C10 UNL     1      12.342  44.663  -2.026  1.00  0.00     0.284 C 
HETATM   29  O3  UNL     1      11.746  44.771  -0.929  1.00  0.00    -0.267 OA
HETATM   30  N8  UNL     1      12.470  43.384  -2.619  1.00  0.00    -0.273 N 
ATOM     31  H8  UNL     1      12.948  43.275  -3.514  1.00  0.00     0.189 HD
BRANCH  30  32
HETATM   32  N9  UNL     1      11.927  42.254  -1.955  1.00  0.00    -0.342 N 
ATOM     33  H92 UNL     1      11.352  41.595  -2.479  1.00  0.00     0.176 HD
ATOM     34  H91 UNL     1      12.120  42.117  -0.963  1.00  0.00     0.176 HD
ENDBRANCH  30  32
ENDBRANCH   1  28
TORSDOF 12
ENDMDL
MODEL 4
REMARK VINA RESULT: -7.751876975      2.170      4.331
REMARK  12 active torsions:
REMARK  status: ('A' for Active; 'I' for Inactive)
REMARK    1  A    between atoms: C2_2  and  C3_3 
REMARK    2  A    between atoms: C3_3  and  N1_4 
REMARK    3  A    between atoms: N1_4  and  C4_6 
REMARK    4  A    between atoms: C4_6  and  C5_7 
REMARK    5  A    between atoms: N2_9  and  C6_11 
REMARK    6  A    between atoms: C6_11  and  N3_13 
REMARK    7  A    between atoms: C6_11  and  C10_28 
REMARK       I    between atoms: N3_13  and  C8_15 
REMARK    8  A    between atoms: C8_15  and  C9_17 
REMARK    9  A    between atoms: C9_17  and  N6_23 
REMARK   10  A    between atoms: N4_18  and  N5_20 
REMARK   11  A    between atoms: N6_23  and  N7_25 
REMARK       I    between atoms: C10_28  and  N8_30 
REMARK   12  A    between atoms: N8_30  and  N9_32 
ROOT
HETATM    1  C6  UNL     1      13.252  46.195  -1.830  1.00  0.00     0.189 C 
HETATM    2  C7  UNL     1      12.911  45.098  -0.814  1.00  0.00     0.074 C 
ENDROOT
BRANCH   1   3
HETATM    3  N2  UNL     1      13.433  47.466  -1.310  1.00  0.00    -0.340 N 
HETATM    4  C4  UNL     1      12.817  48.397  -0.771  1.00  0.00     0.138 C 
ATOM      5  H2  UNL     1      14.415  47.728  -1.404  1.00  0.00     0.164 HD
BRANCH   4   6
HETATM    6  N1  UNL     1      13.529  49.610  -0.391  1.00  0.00    -0.371 N 
ATOM      7  H1  UNL     1      14.463  49.839  -0.731  1.00  0.00     0.161 HD
BRANCH   6   8
HETATM    8  C3  UNL     1      12.780  50.467   0.521  1.00  0.00     0.148 C 
BRANCH   8   9
HETATM    9  C2  UNL     1      13.337  51.835   0.586  1.00  0.00    -0.018 C 
HETATM   10  C1  UNL     1      12.875  52.778  -0.197  1.00  0.00     0.008 C 
ENDBRANCH   8   9
ENDBRANCH   6   8
ENDBRANCH   4   6
BRANCH   4  11
HETATM   11  C5  UNL     1      11.400  48.379  -0.482  1.00  0.00     0.306 C 
HETATM   12  O1  UNL     1      10.594  48.412  -1.475  1.00  0.00    -0.298 OA
ENDBRANCH   4  11
ENDBRANCH   1   3
BRANCH   1  13
HETATM   13  N3  UNL     1      12.148  46.229  -2.801  1.00  0.00    -0.320 N 
HETATM   14  C8  UNL     1      11.362  45.075  -3.026  1.00  0.00     0.290 C 
HETATM   15  O2  UNL     1      11.639  44.031  -2.386  1.00  0.00    -0.264 OA
ATOM     16  H3  UNL     1      11.949  47.088  -3.314  1.00  0.00     0.165 HD
BRANCH  14  17
HETATM   17  C9  UNL     1      10.249  45.047  -3.960  1.00  0.00     0.203 C 
HETATM   18  N4  UNL     1      10.169  44.179  -4.907  1.00  0.00    -0.286 N 
ATOM     19  H4  UNL     1       9.372  44.188  -5.543  1.00  0.00     0.188 HD
BRANCH  18  20
HETATM   20  N5  UNL     1      11.160  43.241  -5.059  1.00  0.00    -0.343 N 
ATOM     21  H52 UNL     1      11.252  42.500  -4.365  1.00  0.00     0.176 HD
ATOM     22  H51 UNL     1      11.789  43.294  -5.860  1.00  0.00     0.176 HD
ENDBRANCH  18  20
BRANCH  17  23
HETATM   23  N6  UNL     1       9.154  45.983  -3.880  1.00  0.00    -0.286 N 
ATOM     24  H6  UNL     1       9.312  46.983  -3.757  1.00  0.00     0.188 HD
BRANCH  23  25
HETATM   25  N7  UNL     1       7.869  45.454  -3.980  1.00  0.00    -0.343 N 
ATOM     26  H72 UNL     1       7.448  45.277  -4.892  1.00  0.00     0.176 HD
ATOM     27  H71 UNL     1       7.385  45.258  -3.104  1.00  0.00     0.176 HD
ENDBRANCH  23  25
ENDBRANCH  17  23
ENDBRANCH  14  17
ENDBRANCH   1  13
BRANCH   1  28
HETATM   28  C10 UNL     1      14.422  45.686  -2.611  1.00  0.00     0.284 C 
HETATM   29  O3  UNL     1      15.107  46.481  -3.297  1.00  0.00    -0.267 OA
HETATM   30  N8  UNL     1      14.775  44.315  -2.588  1.00  0.00    -0.273 N 
ATOM     31  H8  UNL     1      14.234  43.653  -2.032  1.00  0.00     0.189 HD
BRANCH  30  32
HETATM   32  N9  UNL     1      15.889  43.872  -3.347  1.00  0.00    -0.342 N 
ATOM     33  H92 UNL     1      16.831  44.027  -2.989  1.00  0.00     0.176 HD
ATOM     34  H91 UNL     1      15.731  43.406  -4.240  1.00  0.00     0.176 HD
ENDBRANCH  30  32
ENDBRANCH   1  28
TORSDOF 12
ENDMDL
MODEL 5
REMARK VINA RESULT: -7.600982589      1.864      2.769
REMARK  12 active torsions:
REMARK  status: ('A' for Active; 'I' for Inactive)
REMARK    1  A    between atoms: C2_2  and  C3_3 
REMARK    2  A    between atoms: C3_3  and  N1_4 
REMARK    3  A    between atoms: N1_4  and  C4_6 
REMARK    4  A    between atoms: C4_6  and  C5_7 
REMARK    5  A    between atoms: N2_9  and  C6_11 
REMARK    6  A    between atoms: C6_11  and  N3_13 
REMARK    7  A    between atoms: C6_11  and  C10_28 
REMARK       I    between atoms: N3_13  and  C8_15 
REMARK    8  A    between atoms: C8_15  and  C9_17 
REMARK    9  A    between atoms: C9_17  and  N6_23 
REMARK   10  A    between atoms: N4_18  and  N5_20 
REMARK   11  A    between atoms: N6_23  and  N7_25 
REMARK       I    between atoms: C10_28  and  N8_30 
REMARK   12  A    between atoms: N8_30  and  N9_32 
ROOT
HETATM    1  C6  UNL     1      10.624  45.487  -1.256  1.00  0.00     0.189 C 
HETATM    2  C7  UNL     1       9.674  45.079  -2.388  1.00  0.00     0.074 C 
ENDROOT
BRANCH   1   3
HETATM    3  N2  UNL     1      11.072  46.798  -1.283  1.00  0.00    -0.340 N 
HETATM    4  C4  UNL     1      12.100  47.480  -1.161  1.00  0.00     0.138 C 
ATOM      5  H2  UNL     1      10.282  47.416  -1.469  1.00  0.00     0.164 HD
BRANCH   4   6
HETATM    6  N1  UNL     1      12.023  48.930  -1.289  1.00  0.00    -0.371 N 
ATOM      7  H1  UNL     1      12.107  49.417  -2.181  1.00  0.00     0.161 HD
BRANCH   6   8
HETATM    8  C3  UNL     1      11.814  49.617  -0.020  1.00  0.00     0.148 C 
BRANCH   8   9
HETATM    9  C2  UNL     1      12.999  50.401   0.392  1.00  0.00    -0.018 C 
HETATM   10  C1  UNL     1      12.975  51.711   0.352  1.00  0.00     0.008 C 
ENDBRANCH   8   9
ENDBRANCH   6   8
ENDBRANCH   4   6
BRANCH   4  11
HETATM   11  C5  UNL     1      13.412  46.938  -0.887  1.00  0.00     0.306 C 
HETATM   12  O1  UNL     1      14.149  46.638  -1.889  1.00  0.00    -0.298 OA
ENDBRANCH   4  11
ENDBRANCH   1   3
BRANCH   1  13
HETATM   13  N3  UNL     1      11.783  44.585  -1.331  1.00  0.00    -0.320 N 
HETATM   14  C8  UNL     1      12.215  44.085  -2.583  1.00  0.00     0.290 C 
HETATM   15  O2  UNL     1      11.580  44.424  -3.611  1.00  0.00    -0.264 OA
ATOM     16  H3  UNL     1      12.276  44.319  -0.479  1.00  0.00     0.165 HD
BRANCH  14  17
HETATM   17  C9  UNL     1      13.360  43.203  -2.728  1.00  0.00     0.203 C 
HETATM   18  N4  UNL     1      13.233  41.928  -2.855  1.00  0.00    -0.286 N 
ATOM     19  H4  UNL     1      14.060  41.340  -2.956  1.00  0.00     0.188 HD
BRANCH  18  20
HETATM   20  N5  UNL     1      11.983  41.363  -2.852  1.00  0.00    -0.343 N 
ATOM     21  H52 UNL     1      11.175  41.946  -2.635  1.00  0.00     0.176 HD
ATOM     22  H51 UNL     1      11.874  40.372  -3.067  1.00  0.00     0.176 HD
ENDBRANCH  18  20
BRANCH  17  23
HETATM   23  N6  UNL     1      14.715  43.698  -2.750  1.00  0.00    -0.286 N 
ATOM     24  H6  UNL     1      14.924  44.677  -2.944  1.00  0.00     0.188 HD
BRANCH  23  25
HETATM   25  N7  UNL     1      15.724  42.773  -2.494  1.00  0.00    -0.343 N 
ATOM     26  H72 UNL     1      15.544  41.950  -1.918  1.00  0.00     0.176 HD
ATOM     27  H71 UNL     1      16.637  42.963  -2.908  1.00  0.00     0.176 HD
ENDBRANCH  23  25
ENDBRANCH  17  23
ENDBRANCH  14  17
ENDBRANCH   1  13
BRANCH   1  28
HETATM   28  C10 UNL     1       9.936  45.108   0.018  1.00  0.00     0.284 C 
HETATM   29  O3  UNL     1       9.283  45.969   0.654  1.00  0.00    -0.267 OA
HETATM   30  N8  UNL     1      10.009  43.787   0.521  1.00  0.00    -0.273 N 
ATOM     31  H8  UNL     1      10.531  43.070   0.016  1.00  0.00     0.189 HD
BRANCH  30  32
HETATM   32  N9  UNL     1       9.347  43.469   1.736  1.00  0.00    -0.342 N 
ATOM     33  H92 UNL     1       9.451  44.089   2.538  1.00  0.00     0.176 HD
ATOM     34  H91 UNL     1       8.777  42.625   1.787  1.00  0.00     0.176 HD
ENDBRANCH  30  32
ENDBRANCH   1  28
TORSDOF 12
ENDMDL
