MODEL 1
REMARK VINA RESULT: -8.691691696      0.000      0.000
REMARK  15 active torsions:
REMARK  status: ('A' for Active; 'I' for Inactive)
REMARK    1  A    between atoms: N2_4  and  N3_6 
REMARK       I    between atoms: N3_6  and  C1_8 
REMARK    2  A    between atoms: N5_10  and  C2_12 
REMARK    3  A    between atoms: C2_12  and  C3_13 
REMARK    4  A    between atoms: C3_13  and  C4_14 
REMARK    5  A    between atoms: C4_14  and  C5_15 
REMARK    6  A    between atoms: C5_15  and  N6_16 
REMARK    7  A    between atoms: C5_15  and  C6_20 
REMARK    8  A    between atoms: C6_20  and  C7_21 
REMARK    9  A    between atoms: C7_21  and  N8_25 
REMARK   10  A    between atoms: N8_25  and  N9_27 
REMARK       I    between atoms: N9_27  and  C8_29 
REMARK   11  A    between atoms: C8_29  and  C9_31 
REMARK   12  A    between atoms: C9_31  and  O2_32 
REMARK   13  A    between atoms: O2_32  and  C10_33 
REMARK   14  A    between atoms: C10_33  and  C11_34 
REMARK   15  A    between atoms: C11_34  and  N10_35 
ROOT
HETATM    1  C5  UNL     1      80.556  27.177  -2.477  1.00  0.00     0.190 C 
ENDROOT
BRANCH   1   2
HETATM    2  C4  UNL     1      81.487  26.705  -1.399  1.00  0.00     0.035 C 
BRANCH   2   3
HETATM    3  C3  UNL     1      81.398  25.248  -1.082  1.00  0.00     0.022 C 
BRANCH   3   4
HETATM    4  C2  UNL     1      82.752  24.663  -0.712  1.00  0.00     0.122 C 
BRANCH   4   5
HETATM    5  N5  UNL     1      83.542  25.598   0.035  1.00  0.00    -0.363 N 
HETATM    6  C1  UNL     1      84.807  25.510   0.191  1.00  0.00     0.204 C 
HETATM    7  N3  UNL     1      85.590  24.468  -0.358  1.00  0.00    -0.260 N 
HETATM    8  N4  UNL     1      85.467  26.509   0.954  1.00  0.00    -0.062 NA
ATOM      9  H3  UNL     1      85.526  23.514  -0.005  1.00  0.00     0.191 HD
ATOM     10  H5  UNL     1      83.062  26.385   0.471  1.00  0.00     0.162 HD
BRANCH   7  11
HETATM   11  N2  UNL     1      86.462  24.801  -1.413  1.00  0.00    -0.247 N 
HETATM   12  N1  UNL     1      86.762  23.996  -2.329  1.00  0.00    -0.331 N 
ATOM     13  H12 UNL     1      86.348  23.064  -2.292  1.00  0.00     0.178 HD
ATOM     14  H11 UNL     1      87.394  24.237  -3.093  1.00  0.00     0.178 HD
ATOM     15  H2  UNL     1      86.867  25.737  -1.434  1.00  0.00     0.207 HD
ENDBRANCH   7  11
ENDBRANCH   4   5
ENDBRANCH   3   4
ENDBRANCH   2   3
ENDBRANCH   1   2
BRANCH   1  16
HETATM   16  N6  UNL     1      80.771  26.370  -3.678  1.00  0.00    -0.075 N 
ATOM     17  H63 UNL     1      81.699  26.509  -4.078  1.00  0.00     0.274 HD
ATOM     18  H62 UNL     1      80.852  25.375  -3.469  1.00  0.00     0.274 HD
ATOM     19  H61 UNL     1      80.026  26.566  -4.347  1.00  0.00     0.274 HD
ENDBRANCH   1  16
BRANCH   1  20
HETATM   20  C6  UNL     1      79.116  26.957  -1.991  1.00  0.00     0.110 C 
BRANCH  20  21
HETATM   21  C7  UNL     1      78.118  27.198  -3.051  1.00  0.00     0.091 C 
HETATM   22  N7  UNL     1      77.655  28.394  -3.277  1.00  0.00    -0.388 N 
ATOM     23  H72 UNL     1      78.007  29.159  -2.700  1.00  0.00     0.157 HD
ATOM     24  H71 UNL     1      76.966  28.561  -4.009  1.00  0.00     0.157 HD
BRANCH  21  25
HETATM   25  N8  UNL     1      77.637  26.153  -3.840  1.00  0.00    -0.287 N 
ATOM     26  H8  UNL     1      77.645  26.268  -4.853  1.00  0.00     0.188 HD
BRANCH  25  27
HETATM   27  N9  UNL     1      77.153  24.975  -3.320  1.00  0.00    -0.267 N 
HETATM   28  C8  UNL     1      77.876  23.803  -3.084  1.00  0.00     0.259 C 
HETATM   29  O1  UNL     1      79.126  23.737  -3.360  1.00  0.00    -0.269 OA
ATOM     30  H9  UNL     1      76.162  24.956  -3.081  1.00  0.00     0.190 HD
BRANCH  28  31
HETATM   31  C9  UNL     1      77.242  22.600  -2.526  1.00  0.00     0.272 C 
BRANCH  31  32
HETATM   32  O2  UNL     1      77.795  21.403  -2.794  1.00  0.00    -0.380 OA
BRANCH  32  33
HETATM   33  C10 UNL     1      77.636  20.810  -3.990  1.00  0.00     0.195 C 
BRANCH  33  34
HETATM   34  C11 UNL     1      78.402  19.592  -4.374  1.00  0.00     0.255 C 
BRANCH  34  35
HETATM   35  N10 UNL     1      79.800  20.065  -4.577  1.00  0.00    -0.077 N 
ATOM     36 3H10 UNL     1      80.215  19.763  -5.459  1.00  0.00     0.274 HD
ATOM     37 2H10 UNL     1      79.877  21.067  -4.750  1.00  0.00     0.274 HD
ATOM     38 1H10 UNL     1      80.309  19.747  -3.752  1.00  0.00     0.274 HD
ENDBRANCH  34  35
ENDBRANCH  33  34
ENDBRANCH  32  33
ENDBRANCH  31  32
ENDBRANCH  28  31
ENDBRANCH  25  27
ENDBRANCH  21  25
ENDBRANCH  20  21
ENDBRANCH   1  20
TORSDOF 15
ENDMDL
MODEL 2
REMARK VINA RESULT: -8.568662265      3.029      6.905
REMARK  15 active torsions:
REMARK  status: ('A' for Active; 'I' for Inactive)
REMARK    1  A    between atoms: N2_4  and  N3_6 
REMARK       I    between atoms: N3_6  and  C1_8 
REMARK    2  A    between atoms: N5_10  and  C2_12 
REMARK    3  A    between atoms: C2_12  and  C3_13 
REMARK    4  A    between atoms: C3_13  and  C4_14 
REMARK    5  A    between atoms: C4_14  and  C5_15 
REMARK    6  A    between atoms: C5_15  and  N6_16 
REMARK    7  A    between atoms: C5_15  and  C6_20 
REMARK    8  A    between atoms: C6_20  and  C7_21 
REMARK    9  A    between atoms: C7_21  and  N8_25 
REMARK   10  A    between atoms: N8_25  and  N9_27 
REMARK       I    between atoms: N9_27  and  C8_29 
REMARK   11  A    between atoms: C8_29  and  C9_31 
REMARK   12  A    between atoms: C9_31  and  O2_32 
REMARK   13  A    between atoms: O2_32  and  C10_33 
REMARK   14  A    between atoms: C10_33  and  C11_34 
REMARK   15  A    between atoms: C11_34  and  N10_35 
ROOT
HETATM    1  C5  UNL     1      77.962  26.090  -2.987  1.00  0.00     0.190 C 
ENDROOT
BRANCH   1   2
HETATM    2  C4  UNL     1      77.263  24.768  -2.852  1.00  0.00     0.035 C 
BRANCH   2   3
HETATM    3  C3  UNL     1      78.035  23.593  -3.356  1.00  0.00     0.022 C 
BRANCH   3   4
HETATM    4  C2  UNL     1      77.572  22.293  -2.716  1.00  0.00     0.122 C 
BRANCH   4   5
HETATM    5  N5  UNL     1      77.900  22.248  -1.320  1.00  0.00    -0.363 N 
HETATM    6  C1  UNL     1      78.170  21.178  -0.677  1.00  0.00     0.204 C 
HETATM    7  N3  UNL     1      78.177  19.893  -1.268  1.00  0.00    -0.260 N 
HETATM    8  N4  UNL     1      78.482  21.278   0.705  1.00  0.00    -0.062 NA
ATOM      9  H3  UNL     1      77.312  19.443  -1.565  1.00  0.00     0.191 HD
ATOM     10  H5  UNL     1      77.920  23.130  -0.808  1.00  0.00     0.162 HD
BRANCH   7  11
HETATM   11  N2  UNL     1      79.425  19.261  -1.430  1.00  0.00    -0.247 N 
HETATM   12  N1  UNL     1      80.142  18.911  -0.461  1.00  0.00    -0.331 N 
ATOM     13  H12 UNL     1      79.790  19.100   0.479  1.00  0.00     0.178 HD
ATOM     14  H11 UNL     1      81.047  18.453  -0.578  1.00  0.00     0.178 HD
ATOM     15  H2  UNL     1      79.762  19.081  -2.375  1.00  0.00     0.207 HD
ENDBRANCH   7  11
ENDBRANCH   4   5
ENDBRANCH   3   4
ENDBRANCH   2   3
ENDBRANCH   1   2
BRANCH   1  16
HETATM   16  N6  UNL     1      77.077  27.148  -2.502  1.00  0.00    -0.075 N 
ATOM     17  H63 UNL     1      76.856  27.047  -1.512  1.00  0.00     0.274 HD
ATOM     18  H62 UNL     1      77.545  28.054  -2.452  1.00  0.00     0.274 HD
ATOM     19  H61 UNL     1      76.242  27.176  -3.087  1.00  0.00     0.274 HD
ENDBRANCH   1  16
BRANCH   1  20
HETATM   20  C6  UNL     1      79.216  26.056  -2.101  1.00  0.00     0.110 C 
BRANCH  20  21
HETATM   21  C7  UNL     1      80.451  26.341  -2.857  1.00  0.00     0.091 C 
HETATM   22  N7  UNL     1      80.514  26.136  -4.141  1.00  0.00    -0.388 N 
ATOM     23  H72 UNL     1      79.682  25.774  -4.608  1.00  0.00     0.157 HD
ATOM     24  H71 UNL     1      81.367  26.333  -4.664  1.00  0.00     0.157 HD
BRANCH  21  25
HETATM   25  N8  UNL     1      81.588  26.836  -2.219  1.00  0.00    -0.287 N 
ATOM     26  H8  UNL     1      81.788  27.834  -2.291  1.00  0.00     0.188 HD
BRANCH  25  27
HETATM   27  N9  UNL     1      82.454  26.046  -1.498  1.00  0.00    -0.267 N 
HETATM   28  C8  UNL     1      83.249  26.441  -0.420  1.00  0.00     0.259 C 
HETATM   29  O1  UNL     1      83.230  27.653  -0.000  1.00  0.00    -0.269 OA
ATOM     30  H9  UNL     1      82.522  25.069  -1.782  1.00  0.00     0.190 HD
BRANCH  28  31
HETATM   31  C9  UNL     1      84.144  25.501   0.270  1.00  0.00     0.272 C 
BRANCH  31  32
HETATM   32  O2  UNL     1      85.035  24.811  -0.464  1.00  0.00    -0.380 OA
BRANCH  32  33
HETATM   33  C10 UNL     1      86.341  25.128  -0.462  1.00  0.00     0.195 C 
BRANCH  33  34
HETATM   34  C11 UNL     1      87.352  24.313  -1.190  1.00  0.00     0.255 C 
BRANCH  34  35
HETATM   35  N10 UNL     1      86.710  23.977  -2.492  1.00  0.00    -0.077 N 
ATOM     36 3H10 UNL     1      85.702  24.131  -2.508  1.00  0.00     0.274 HD
ATOM     37 2H10 UNL     1      86.939  24.625  -3.245  1.00  0.00     0.274 HD
ATOM     38 1H10 UNL     1      86.982  23.012  -2.679  1.00  0.00     0.274 HD
ENDBRANCH  34  35
ENDBRANCH  33  34
ENDBRANCH  32  33
ENDBRANCH  31  32
ENDBRANCH  28  31
ENDBRANCH  25  27
ENDBRANCH  21  25
ENDBRANCH  20  21
ENDBRANCH   1  20
TORSDOF 15
ENDMDL
MODEL 3
REMARK VINA RESULT: -8.474912603      1.389      1.664
REMARK  15 active torsions:
REMARK  status: ('A' for Active; 'I' for Inactive)
REMARK    1  A    between atoms: N2_4  and  N3_6 
REMARK       I    between atoms: N3_6  and  C1_8 
REMARK    2  A    between atoms: N5_10  and  C2_12 
REMARK    3  A    between atoms: C2_12  and  C3_13 
REMARK    4  A    between atoms: C3_13  and  C4_14 
REMARK    5  A    between atoms: C4_14  and  C5_15 
REMARK    6  A    between atoms: C5_15  and  N6_16 
REMARK    7  A    between atoms: C5_15  and  C6_20 
REMARK    8  A    between atoms: C6_20  and  C7_21 
REMARK    9  A    between atoms: C7_21  and  N8_25 
REMARK   10  A    between atoms: N8_25  and  N9_27 
REMARK       I    between atoms: N9_27  and  C8_29 
REMARK   11  A    between atoms: C8_29  and  C9_31 
REMARK   12  A    between atoms: C9_31  and  O2_32 
REMARK   13  A    between atoms: O2_32  and  C10_33 
REMARK   14  A    between atoms: C10_33  and  C11_34 
REMARK   15  A    between atoms: C11_34  and  N10_35 
ROOT
HETATM    1  C5  UNL     1      80.542  26.359  -2.258  1.00  0.00     0.190 C 
ENDROOT
BRANCH   1   2
HETATM    2  C4  UNL     1      80.946  25.052  -1.639  1.00  0.00     0.035 C 
BRANCH   2   3
HETATM    3  C3  UNL     1      82.120  25.127  -0.718  1.00  0.00     0.022 C 
BRANCH   3   4
HETATM    4  C2  UNL     1      82.931  26.396  -0.933  1.00  0.00     0.122 C 
BRANCH   4   5
HETATM    5  N5  UNL     1      83.926  26.562   0.085  1.00  0.00    -0.363 N 
HETATM    6  C1  UNL     1      84.930  25.788   0.245  1.00  0.00     0.204 C 
HETATM    7  N3  UNL     1      85.184  24.661  -0.570  1.00  0.00    -0.260 N 
HETATM    8  N4  UNL     1      85.844  26.071   1.295  1.00  0.00    -0.062 NA
ATOM      9  H3  UNL     1      84.594  23.831  -0.525  1.00  0.00     0.191 HD
ATOM     10  H5  UNL     1      83.826  27.350   0.725  1.00  0.00     0.162 HD
BRANCH   7  11
HETATM   11  N2  UNL     1      86.284  24.731  -1.448  1.00  0.00    -0.247 N 
HETATM   12  N1  UNL     1      87.442  24.381  -1.118  1.00  0.00    -0.331 N 
ATOM     13  H12 UNL     1      87.577  24.032  -0.168  1.00  0.00     0.178 HD
ATOM     14  H11 UNL     1      88.239  24.431  -1.753  1.00  0.00     0.178 HD
ATOM     15  H2  UNL     1      86.131  25.083  -2.393  1.00  0.00     0.207 HD
ENDBRANCH   7  11
ENDBRANCH   4   5
ENDBRANCH   3   4
ENDBRANCH   2   3
ENDBRANCH   1   2
BRANCH   1  16
HETATM   16  N6  UNL     1      80.534  26.215  -3.713  1.00  0.00    -0.075 N 
ATOM     17  H63 UNL     1      79.801  25.582  -4.036  1.00  0.00     0.274 HD
ATOM     18  H62 UNL     1      80.212  27.059  -4.186  1.00  0.00     0.274 HD
ATOM     19  H61 UNL     1      81.462  25.927  -4.023  1.00  0.00     0.274 HD
ENDBRANCH   1  16
BRANCH   1  20
HETATM   20  C6  UNL     1      79.116  26.685  -1.790  1.00  0.00     0.110 C 
BRANCH  20  21
HETATM   21  C7  UNL     1      78.247  27.134  -2.895  1.00  0.00     0.091 C 
HETATM   22  N7  UNL     1      78.050  28.401  -3.121  1.00  0.00    -0.388 N 
ATOM     23  H72 UNL     1      78.517  29.073  -2.511  1.00  0.00     0.157 HD
ATOM     24  H71 UNL     1      77.449  28.712  -3.885  1.00  0.00     0.157 HD
BRANCH  21  25
HETATM   25  N8  UNL     1      77.609  26.215  -3.729  1.00  0.00    -0.287 N 
ATOM     26  H8  UNL     1      77.534  26.434  -4.722  1.00  0.00     0.188 HD
BRANCH  25  27
HETATM   27  N9  UNL     1      77.075  25.030  -3.278  1.00  0.00    -0.267 N 
HETATM   28  C8  UNL     1      77.673  23.769  -3.326  1.00  0.00     0.259 C 
HETATM   29  O1  UNL     1      78.841  23.616  -3.834  1.00  0.00    -0.269 OA
ATOM     30  H9  UNL     1      76.143  25.078  -2.865  1.00  0.00     0.190 HD
BRANCH  28  31
HETATM   31  C9  UNL     1      76.997  22.569  -2.814  1.00  0.00     0.272 C 
BRANCH  31  32
HETATM   32  O2  UNL     1      77.724  21.667  -2.131  1.00  0.00    -0.380 OA
BRANCH  32  33
HETATM   33  C10 UNL     1      78.070  21.874  -0.848  1.00  0.00     0.195 C 
BRANCH  33  34
HETATM   34  C11 UNL     1      78.137  20.762   0.139  1.00  0.00     0.255 C 
BRANCH  34  35
HETATM   35  N10 UNL     1      79.077  19.772  -0.458  1.00  0.00    -0.077 N 
ATOM     36 3H10 UNL     1      79.302  18.991   0.159  1.00  0.00     0.274 HD
ATOM     37 2H10 UNL     1      78.668  19.213  -1.207  1.00  0.00     0.274 HD
ATOM     38 1H10 UNL     1      79.888  20.319  -0.745  1.00  0.00     0.274 HD
ENDBRANCH  34  35
ENDBRANCH  33  34
ENDBRANCH  32  33
ENDBRANCH  31  32
ENDBRANCH  28  31
ENDBRANCH  25  27
ENDBRANCH  21  25
ENDBRANCH  20  21
ENDBRANCH   1  20
TORSDOF 15
ENDMDL
MODEL 4
REMARK VINA RESULT: -8.471755799      0.987      1.307
REMARK  15 active torsions:
REMARK  status: ('A' for Active; 'I' for Inactive)
REMARK    1  A    between atoms: N2_4  and  N3_6 
REMARK       I    between atoms: N3_6  and  C1_8 
REMARK    2  A    between atoms: N5_10  and  C2_12 
REMARK    3  A    between atoms: C2_12  and  C3_13 
REMARK    4  A    between atoms: C3_13  and  C4_14 
REMARK    5  A    between atoms: C4_14  and  C5_15 
REMARK    6  A    between atoms: C5_15  and  N6_16 
REMARK    7  A    between atoms: C5_15  and  C6_20 
REMARK    8  A    between atoms: C6_20  and  C7_21 
REMARK    9  A    between atoms: C7_21  and  N8_25 
REMARK   10  A    between atoms: N8_25  and  N9_27 
REMARK       I    between atoms: N9_27  and  C8_29 
REMARK   11  A    between atoms: C8_29  and  C9_31 
REMARK   12  A    between atoms: C9_31  and  O2_32 
REMARK   13  A    between atoms: O2_32  and  C10_33 
REMARK   14  A    between atoms: C10_33  and  C11_34 
REMARK   15  A    between atoms: C11_34  and  N10_35 
ROOT
HETATM    1  C5  UNL     1      81.133  26.104  -2.199  1.00  0.00     0.190 C 
ENDROOT
BRANCH   1   2
HETATM    2  C4  UNL     1      81.898  26.797  -1.109  1.00  0.00     0.035 C 
BRANCH   2   3
HETATM    3  C3  UNL     1      82.853  25.927  -0.359  1.00  0.00     0.022 C 
BRANCH   3   4
HETATM    4  C2  UNL     1      84.106  26.684   0.053  1.00  0.00     0.122 C 
BRANCH   4   5
HETATM    5  N5  UNL     1      84.975  25.866   0.849  1.00  0.00    -0.363 N 
HETATM    6  C1  UNL     1      85.610  24.849   0.410  1.00  0.00     0.204 C 
HETATM    7  N3  UNL     1      85.532  24.399  -0.929  1.00  0.00    -0.260 N 
HETATM    8  N4  UNL     1      86.442  24.128   1.307  1.00  0.00    -0.062 NA
ATOM      9  H3  UNL     1      84.683  23.970  -1.295  1.00  0.00     0.191 HD
ATOM     10  H5  UNL     1      85.094  26.114   1.831  1.00  0.00     0.162 HD
BRANCH   7  11
HETATM   11  N2  UNL     1      86.674  24.567  -1.736  1.00  0.00    -0.247 N 
HETATM   12  N1  UNL     1      87.089  23.681  -2.522  1.00  0.00    -0.331 N 
ATOM     13  H12 UNL     1      86.565  22.806  -2.566  1.00  0.00     0.178 HD
ATOM     14  H11 UNL     1      87.917  23.803  -3.107  1.00  0.00     0.178 HD
ATOM     15  H2  UNL     1      87.187  25.447  -1.679  1.00  0.00     0.207 HD
ENDBRANCH   7  11
ENDBRANCH   4   5
ENDBRANCH   3   4
ENDBRANCH   2   3
ENDBRANCH   1   2
BRANCH   1  16
HETATM   16  N6  UNL     1      81.048  24.677  -1.888  1.00  0.00    -0.075 N 
ATOM     17  H63 UNL     1      81.310  24.090  -2.680  1.00  0.00     0.274 HD
ATOM     18  H62 UNL     1      81.777  24.377  -1.240  1.00  0.00     0.274 HD
ATOM     19  H61 UNL     1      80.111  24.469  -1.542  1.00  0.00     0.274 HD
ENDBRANCH   1  16
BRANCH   1  20
HETATM   20  C6  UNL     1      79.711  26.685  -2.225  1.00  0.00     0.110 C 
BRANCH  20  21
HETATM   21  C7  UNL     1      79.154  26.755  -3.589  1.00  0.00     0.091 C 
HETATM   22  N7  UNL     1      79.838  27.274  -4.568  1.00  0.00    -0.388 N 
ATOM     23  H72 UNL     1      80.772  27.629  -4.362  1.00  0.00     0.157 HD
ATOM     24  H71 UNL     1      79.453  27.323  -5.511  1.00  0.00     0.157 HD
BRANCH  21  25
HETATM   25  N8  UNL     1      77.877  26.270  -3.872  1.00  0.00    -0.287 N 
ATOM     26  H8  UNL     1      77.290  26.798  -4.518  1.00  0.00     0.188 HD
BRANCH  25  27
HETATM   27  N9  UNL     1      77.369  25.116  -3.322  1.00  0.00    -0.267 N 
HETATM   28  C8  UNL     1      77.969  23.855  -3.317  1.00  0.00     0.259 C 
HETATM   29  O1  UNL     1      79.112  23.670  -3.868  1.00  0.00    -0.269 OA
ATOM     30  H9  UNL     1      76.457  25.189  -2.870  1.00  0.00     0.190 HD
BRANCH  28  31
HETATM   31  C9  UNL     1      77.321  22.689  -2.699  1.00  0.00     0.272 C 
BRANCH  31  32
HETATM   32  O2  UNL     1      77.854  21.473  -2.913  1.00  0.00    -0.380 OA
BRANCH  32  33
HETATM   33  C10 UNL     1      77.580  20.773  -4.028  1.00  0.00     0.195 C 
BRANCH  33  34
HETATM   34  C11 UNL     1      78.388  19.592  -4.436  1.00  0.00     0.255 C 
BRANCH  34  35
HETATM   35  N10 UNL     1      79.785  20.099  -4.544  1.00  0.00    -0.077 N 
ATOM     36 3H10 UNL     1      79.888  21.083  -4.298  1.00  0.00     0.274 HD
ATOM     37 2H10 UNL     1      80.414  19.734  -3.829  1.00  0.00     0.274 HD
ATOM     38 1H10 UNL     1      80.072  19.880  -5.498  1.00  0.00     0.274 HD
ENDBRANCH  34  35
ENDBRANCH  33  34
ENDBRANCH  32  33
ENDBRANCH  31  32
ENDBRANCH  28  31
ENDBRANCH  25  27
ENDBRANCH  21  25
ENDBRANCH  20  21
ENDBRANCH   1  20
TORSDOF 15
ENDMDL
MODEL 5
REMARK VINA RESULT: -8.460895971      1.536      2.079
REMARK  15 active torsions:
REMARK  status: ('A' for Active; 'I' for Inactive)
REMARK    1  A    between atoms: N2_4  and  N3_6 
REMARK       I    between atoms: N3_6  and  C1_8 
REMARK    2  A    between atoms: N5_10  and  C2_12 
REMARK    3  A    between atoms: C2_12  and  C3_13 
REMARK    4  A    between atoms: C3_13  and  C4_14 
REMARK    5  A    between atoms: C4_14  and  C5_15 
REMARK    6  A    between atoms: C5_15  and  N6_16 
REMARK    7  A    between atoms: C5_15  and  C6_20 
REMARK    8  A    between atoms: C6_20  and  C7_21 
REMARK    9  A    between atoms: C7_21  and  N8_25 
REMARK   10  A    between atoms: N8_25  and  N9_27 
REMARK       I    between atoms: N9_27  and  C8_29 
REMARK   11  A    between atoms: C8_29  and  C9_31 
REMARK   12  A    between atoms: C9_31  and  O2_32 
REMARK   13  A    between atoms: O2_32  and  C10_33 
REMARK   14  A    between atoms: C10_33  and  C11_34 
REMARK   15  A    between atoms: C11_34  and  N10_35 
ROOT
HETATM    1  C5  UNL     1      81.701  26.339  -2.137  1.00  0.00     0.190 C 
ENDROOT
BRANCH   1   2
HETATM    2  C4  UNL     1      82.498  26.652  -0.904  1.00  0.00     0.035 C 
BRANCH   2   3
HETATM    3  C3  UNL     1      83.228  25.491  -0.313  1.00  0.00     0.022 C 
BRANCH   3   4
HETATM    4  C2  UNL     1      84.712  25.777  -0.149  1.00  0.00     0.122 C 
BRANCH   4   5
HETATM    5  N5  UNL     1      85.492  25.091  -1.139  1.00  0.00    -0.363 N 
HETATM    6  C1  UNL     1      86.660  24.615  -0.934  1.00  0.00     0.204 C 
HETATM    7  N3  UNL     1      87.334  24.709   0.306  1.00  0.00    -0.260 N 
HETATM    8  N4  UNL     1      87.320  23.956  -2.003  1.00  0.00    -0.062 NA
ATOM      9  H3  UNL     1      87.686  25.601   0.652  1.00  0.00     0.191 HD
ATOM     10  H5  UNL     1      85.087  24.976  -2.067  1.00  0.00     0.162 HD
BRANCH   7  11
HETATM   11  N2  UNL     1      87.499  23.520   1.044  1.00  0.00    -0.247 N 
HETATM   12  N1  UNL     1      88.507  22.782   0.930  1.00  0.00    -0.331 N 
ATOM     13  H12 UNL     1      89.230  23.069   0.269  1.00  0.00     0.178 HD
ATOM     14  H11 UNL     1      88.627  21.921   1.465  1.00  0.00     0.178 HD
ATOM     15  H2  UNL     1      86.767  23.248   1.700  1.00  0.00     0.207 HD
ENDBRANCH   7  11
ENDBRANCH   4   5
ENDBRANCH   3   4
ENDBRANCH   2   3
ENDBRANCH   1   2
BRANCH   1  16
HETATM   16  N6  UNL     1      81.280  24.939  -2.088  1.00  0.00    -0.075 N 
ATOM     17  H63 UNL     1      81.963  24.344  -1.620  1.00  0.00     0.274 HD
ATOM     18  H62 UNL     1      80.499  24.790  -1.448  1.00  0.00     0.274 HD
ATOM     19  H61 UNL     1      81.070  24.623  -3.035  1.00  0.00     0.274 HD
ENDBRANCH   1  16
BRANCH   1  20
HETATM   20  C6  UNL     1      80.449  27.228  -2.132  1.00  0.00     0.110 C 
BRANCH  20  21
HETATM   21  C7  UNL     1      79.555  26.951  -3.273  1.00  0.00     0.091 C 
HETATM   22  N7  UNL     1      79.949  27.148  -4.498  1.00  0.00    -0.388 N 
ATOM     23  H72 UNL     1      80.897  27.497  -4.644  1.00  0.00     0.157 HD
ATOM     24  H71 UNL     1      79.331  26.957  -5.287  1.00  0.00     0.157 HD
BRANCH  21  25
HETATM   25  N8  UNL     1      78.259  26.473  -3.073  1.00  0.00    -0.287 N 
ATOM     26  H8  UNL     1      77.616  27.036  -2.517  1.00  0.00     0.188 HD
BRANCH  25  27
HETATM   27  N9  UNL     1      77.807  25.281  -3.589  1.00  0.00    -0.267 N 
HETATM   28  C8  UNL     1      77.987  24.009  -3.041  1.00  0.00     0.259 C 
HETATM   29  O1  UNL     1      78.637  23.851  -1.947  1.00  0.00    -0.269 OA
ATOM     30  H9  UNL     1      77.284  25.331  -4.463  1.00  0.00     0.190 HD
BRANCH  28  31
HETATM   31  C9  UNL     1      77.458  22.801  -3.692  1.00  0.00     0.272 C 
BRANCH  31  32
HETATM   32  O2  UNL     1      77.874  21.601  -3.249  1.00  0.00    -0.380 OA
BRANCH  32  33
HETATM   33  C10 UNL     1      77.739  20.492  -3.997  1.00  0.00     0.195 C 
BRANCH  33  34
HETATM   34  C11 UNL     1      78.715  19.371  -3.928  1.00  0.00     0.255 C 
BRANCH  34  35
HETATM   35  N10 UNL     1      78.869  19.083  -2.474  1.00  0.00    -0.077 N 
ATOM     36 3H10 UNL     1      79.656  19.564  -2.038  1.00  0.00     0.274 HD
ATOM     37 2H10 UNL     1      78.142  19.497  -1.892  1.00  0.00     0.274 HD
ATOM     38 1H10 UNL     1      78.921  18.066  -2.411  1.00  0.00     0.274 HD
ENDBRANCH  34  35
ENDBRANCH  33  34
ENDBRANCH  32  33
ENDBRANCH  31  32
ENDBRANCH  28  31
ENDBRANCH  25  27
ENDBRANCH  21  25
ENDBRANCH  20  21
ENDBRANCH   1  20
TORSDOF 15
ENDMDL
