MODEL 1
REMARK VINA RESULT: -9.549458989      0.000      0.000
REMARK  14 active torsions:
REMARK  status: ('A' for Active; 'I' for Inactive)
REMARK    1  A    between atoms: C2_2  and  C3_3 
REMARK    2  A    between atoms: C3_3  and  C4_4 
REMARK    3  A    between atoms: C4_4  and  C5_5 
REMARK    4  A    between atoms: C6_6  and  C7_7 
REMARK    5  A    between atoms: C7_7  and  C8_8 
REMARK    6  A    between atoms: C8_8  and  C10_10 
REMARK    7  A    between atoms: C10_10  and  O1_11 
REMARK    8  A    between atoms: C15_20  and  C16_21 
REMARK    9  A    between atoms: C17_22  and  C18_23 
REMARK   10  A    between atoms: C18_23  and  C20_25 
REMARK   11  A    between atoms: C20_25  and  C22_27 
REMARK   12  A    between atoms: C31_37  and  C32_38 
REMARK   13  A    between atoms: C32_38  and  O7_40 
REMARK   14  A    between atoms: O7_40  and  C33_41 
ROOT
HETATM    1  C10 UNL     1       2.021 -38.799   2.251  1.00  0.00     0.179 C 
HETATM    2  C11 UNL     1       1.590 -38.384   0.863  1.00  0.00     0.301 C 
HETATM    3  O2  UNL     1       2.233 -38.304  -0.207  1.00  0.00    -0.261 OA
HETATM    4  O3  UNL     1       0.248 -38.062   0.912  1.00  0.00    -0.278 OA
HETATM    5  C12 UNL     1      -0.242 -37.950   2.169  1.00  0.00     0.097 C 
HETATM    6  C13 UNL     1      -1.221 -37.394   2.841  1.00  0.00     0.025 C 
HETATM    7  C14 UNL     1      -1.316 -37.623   4.275  1.00  0.00     0.178 C 
HETATM    8  O4  UNL     1      -2.032 -38.180   5.074  1.00  0.00    -0.291 OA
HETATM    9  C15 UNL     1      -0.034 -36.850   4.732  1.00  0.00     0.105 C 
HETATM   10  C25 UNL     1      -0.175 -35.581   3.978  1.00  0.00     0.034 C 
HETATM   11  C26 UNL     1      -1.566 -35.222   3.436  1.00  0.00    -0.009 C 
HETATM   12  C27 UNL     1      -1.536 -33.899   2.772  1.00  0.00     0.011 C 
HETATM   13  C28 UNL     1      -1.971 -36.268   2.298  1.00  0.00     0.025 C 
HETATM   14  C29 UNL     1      -3.421 -36.348   2.132  1.00  0.00     0.015 C 
HETATM   15  C30 UNL     1       0.963 -37.831   4.222  1.00  0.00     0.175 C 
HETATM   16  O5  UNL     1       2.002 -37.898   4.800  1.00  0.00    -0.294 OA
HETATM   17  C31 UNL     1       0.771 -38.753   3.034  1.00  0.00     0.199 C 
ENDROOT
BRANCH   1  18
HETATM   18  C8  UNL     1       2.731 -40.094   2.121  1.00  0.00     0.032 C 
HETATM   19  C9  UNL     1       2.501 -40.809   0.838  1.00  0.00     0.014 C 
BRANCH  18  20
HETATM   20  C7  UNL     1       4.192 -40.092   2.372  1.00  0.00     0.034 C 
BRANCH  20  21
HETATM   21  C6  UNL     1       4.605 -41.399   2.949  1.00  0.00    -0.030 C 
HETATM   22  C5  UNL     1       4.361 -41.849   4.150  1.00  0.00    -0.031 C 
BRANCH  22  23
HETATM   23  C4  UNL     1       3.610 -41.162   5.219  1.00  0.00     0.027 C 
BRANCH  23  24
HETATM   24  C3  UNL     1       3.950 -41.734   6.594  1.00  0.00     0.003 C 
BRANCH  24  25
HETATM   25  C2  UNL     1       3.179 -43.025   6.817  1.00  0.00    -0.004 C 
HETATM   26  C1  UNL     1       3.824 -43.821   7.915  1.00  0.00     0.005 C 
ENDBRANCH  24  25
ENDBRANCH  23  24
ENDBRANCH  22  23
ENDBRANCH  20  21
ENDBRANCH  18  20
ENDBRANCH   1  18
BRANCH   1  27
HETATM   27  O1  UNL     1       2.990 -37.855   2.690  1.00  0.00    -0.377 OA
ATOM     28  H1  UNL     1       2.539 -37.267   3.285  1.00  0.00     0.211 HD
ENDBRANCH   1  27
BRANCH  17  29
HETATM   29  C32 UNL     1       0.094 -39.996   3.332  1.00  0.00     0.286 C 
HETATM   30  O6  UNL     1      -0.771 -40.407   2.473  1.00  0.00    -0.263 OA
BRANCH  29  31
HETATM   31  O7  UNL     1       0.236 -40.834   4.418  1.00  0.00    -0.315 OA
BRANCH  31  32
HETATM   32  C33 UNL     1      -0.575 -40.734   5.581  1.00  0.00     0.123 C 
HETATM   33  C34 UNL     1      -1.408 -41.985   5.672  1.00  0.00     0.040 C 
HETATM   34  C35 UNL     1       0.261 -40.630   6.842  1.00  0.00     0.040 C 
ENDBRANCH  31  32
ENDBRANCH  29  31
ENDBRANCH  17  29
BRANCH   9  35
HETATM   35  C16 UNL     1      -0.037 -36.706   6.196  1.00  0.00    -0.005 C 
HETATM   36  C17 UNL     1      -0.052 -35.526   6.731  1.00  0.00    -0.024 C 
BRANCH  36  37
HETATM   37  C18 UNL     1      -0.060 -35.123   8.157  1.00  0.00     0.008 C 
HETATM   38  C19 UNL     1      -0.107 -36.396   8.950  1.00  0.00     0.014 C 
BRANCH  37  39
HETATM   39  C20 UNL     1       0.951 -34.123   8.568  1.00  0.00    -0.008 C 
HETATM   40  C21 UNL     1       1.683 -34.665   9.817  1.00  0.00     0.011 C 
BRANCH  39  41
HETATM   41  C22 UNL     1       2.052 -33.830   7.596  1.00  0.00    -0.018 C 
HETATM   42  C23 UNL     1       1.520 -32.816   6.553  1.00  0.00     0.010 C 
HETATM   43  C24 UNL     1       3.261 -33.138   8.192  1.00  0.00     0.010 C 
ENDBRANCH  39  41
ENDBRANCH  37  39
ENDBRANCH  36  37
ENDBRANCH   9  35
TORSDOF 14
ENDMDL
MODEL 2
REMARK VINA RESULT: -9.178996089      0.975      1.700
REMARK  14 active torsions:
REMARK  status: ('A' for Active; 'I' for Inactive)
REMARK    1  A    between atoms: C2_2  and  C3_3 
REMARK    2  A    between atoms: C3_3  and  C4_4 
REMARK    3  A    between atoms: C4_4  and  C5_5 
REMARK    4  A    between atoms: C6_6  and  C7_7 
REMARK    5  A    between atoms: C7_7  and  C8_8 
REMARK    6  A    between atoms: C8_8  and  C10_10 
REMARK    7  A    between atoms: C10_10  and  O1_11 
REMARK    8  A    between atoms: C15_20  and  C16_21 
REMARK    9  A    between atoms: C17_22  and  C18_23 
REMARK   10  A    between atoms: C18_23  and  C20_25 
REMARK   11  A    between atoms: C20_25  and  C22_27 
REMARK   12  A    between atoms: C31_37  and  C32_38 
REMARK   13  A    between atoms: C32_38  and  O7_40 
REMARK   14  A    between atoms: O7_40  and  C33_41 
ROOT
HETATM    1  C10 UNL     1       2.047 -38.825   2.277  1.00  0.00     0.179 C 
HETATM    2  C11 UNL     1       1.611 -38.416   0.888  1.00  0.00     0.301 C 
HETATM    3  O2  UNL     1       2.251 -38.340  -0.185  1.00  0.00    -0.261 OA
HETATM    4  O3  UNL     1       0.269 -38.095   0.939  1.00  0.00    -0.278 OA
HETATM    5  C12 UNL     1      -0.217 -37.978   2.197  1.00  0.00     0.097 C 
HETATM    6  C13 UNL     1      -1.194 -37.420   2.870  1.00  0.00     0.025 C 
HETATM    7  C14 UNL     1      -1.285 -37.643   4.305  1.00  0.00     0.178 C 
HETATM    8  O4  UNL     1      -1.999 -38.198   5.109  1.00  0.00    -0.291 OA
HETATM    9  C15 UNL     1      -0.002 -36.867   4.755  1.00  0.00     0.105 C 
HETATM   10  C25 UNL     1      -0.147 -35.601   3.996  1.00  0.00     0.034 C 
HETATM   11  C26 UNL     1      -1.540 -35.246   3.457  1.00  0.00    -0.009 C 
HETATM   12  C27 UNL     1      -1.513 -33.926   2.787  1.00  0.00     0.011 C 
HETATM   13  C28 UNL     1      -1.947 -36.297   2.324  1.00  0.00     0.025 C 
HETATM   14  C29 UNL     1      -3.398 -36.379   2.163  1.00  0.00     0.015 C 
HETATM   15  C30 UNL     1       0.994 -37.849   4.246  1.00  0.00     0.175 C 
HETATM   16  O5  UNL     1       2.034 -37.913   4.821  1.00  0.00    -0.294 OA
HETATM   17  C31 UNL     1       0.799 -38.776   3.062  1.00  0.00     0.199 C 
ENDROOT
BRANCH   1  18
HETATM   18  C8  UNL     1       2.757 -40.120   2.149  1.00  0.00     0.032 C 
HETATM   19  C9  UNL     1       2.522 -40.841   0.871  1.00  0.00     0.014 C 
BRANCH  18  20
HETATM   20  C7  UNL     1       4.220 -40.115   2.394  1.00  0.00     0.034 C 
BRANCH  20  21
HETATM   21  C6  UNL     1       4.636 -41.416   2.982  1.00  0.00    -0.030 C 
HETATM   22  C5  UNL     1       4.397 -41.854   4.188  1.00  0.00    -0.031 C 
BRANCH  22  23
HETATM   23  C4  UNL     1       3.650 -41.158   5.253  1.00  0.00     0.027 C 
BRANCH  23  24
HETATM   24  C3  UNL     1       3.948 -41.759   6.626  1.00  0.00     0.003 C 
BRANCH  24  25
HETATM   25  C2  UNL     1       3.110 -43.010   6.829  1.00  0.00    -0.004 C 
HETATM   26  C1  UNL     1       3.738 -43.878   7.881  1.00  0.00     0.005 C 
ENDBRANCH  24  25
ENDBRANCH  23  24
ENDBRANCH  22  23
ENDBRANCH  20  21
ENDBRANCH  18  20
ENDBRANCH   1  18
BRANCH   1  27
HETATM   27  O1  UNL     1       3.016 -37.878   2.709  1.00  0.00    -0.377 OA
ATOM     28  H1  UNL     1       3.812 -38.073   2.229  1.00  0.00     0.211 HD
ENDBRANCH   1  27
BRANCH  17  29
HETATM   29  C32 UNL     1       0.124 -40.019   3.368  1.00  0.00     0.286 C 
HETATM   30  O6  UNL     1      -0.761 -40.422   2.525  1.00  0.00    -0.263 OA
BRANCH  29  31
HETATM   31  O7  UNL     1       0.286 -40.864   4.446  1.00  0.00    -0.315 OA
BRANCH  31  32
HETATM   32  C33 UNL     1      -0.527 -40.793   5.611  1.00  0.00     0.123 C 
HETATM   33  C34 UNL     1      -1.207 -42.125   5.780  1.00  0.00     0.040 C 
HETATM   34  C35 UNL     1       0.297 -40.520   6.854  1.00  0.00     0.040 C 
ENDBRANCH  31  32
ENDBRANCH  29  31
ENDBRANCH  17  29
BRANCH   9  35
HETATM   35  C16 UNL     1      -0.002 -36.717   6.218  1.00  0.00    -0.005 C 
HETATM   36  C17 UNL     1      -0.982 -36.108   6.807  1.00  0.00    -0.024 C 
BRANCH  36  37
HETATM   37  C18 UNL     1      -1.211 -35.834   8.246  1.00  0.00     0.008 C 
HETATM   38  C19 UNL     1      -2.600 -36.315   8.547  1.00  0.00     0.014 C 
BRANCH  37  39
HETATM   39  C20 UNL     1      -0.145 -36.263   9.179  1.00  0.00    -0.008 C 
HETATM   40  C21 UNL     1       0.693 -35.019   9.555  1.00  0.00     0.011 C 
BRANCH  39  41
HETATM   41  C22 UNL     1      -0.581 -36.824  10.498  1.00  0.00    -0.018 C 
HETATM   42  C23 UNL     1       0.491 -37.837  10.972  1.00  0.00     0.010 C 
HETATM   43  C24 UNL     1      -0.654 -35.816  11.626  1.00  0.00     0.010 C 
ENDBRANCH  39  41
ENDBRANCH  37  39
ENDBRANCH  36  37
ENDBRANCH   9  35
TORSDOF 14
ENDMDL
MODEL 3
REMARK VINA RESULT: -8.930214930      2.316      7.082
REMARK  14 active torsions:
REMARK  status: ('A' for Active; 'I' for Inactive)
REMARK    1  A    between atoms: C2_2  and  C3_3 
REMARK    2  A    between atoms: C3_3  and  C4_4 
REMARK    3  A    between atoms: C4_4  and  C5_5 
REMARK    4  A    between atoms: C6_6  and  C7_7 
REMARK    5  A    between atoms: C7_7  and  C8_8 
REMARK    6  A    between atoms: C8_8  and  C10_10 
REMARK    7  A    between atoms: C10_10  and  O1_11 
REMARK    8  A    between atoms: C15_20  and  C16_21 
REMARK    9  A    between atoms: C17_22  and  C18_23 
REMARK   10  A    between atoms: C18_23  and  C20_25 
REMARK   11  A    between atoms: C20_25  and  C22_27 
REMARK   12  A    between atoms: C31_37  and  C32_38 
REMARK   13  A    between atoms: C32_38  and  O7_40 
REMARK   14  A    between atoms: O7_40  and  C33_41 
ROOT
HETATM    1  C10 UNL     1      -3.142 -36.705   5.778  1.00  0.00     0.179 C 
HETATM    2  C11 UNL     1      -4.040 -36.233   4.657  1.00  0.00     0.301 C 
HETATM    3  O2  UNL     1      -5.285 -36.127   4.591  1.00  0.00    -0.261 OA
HETATM    4  O3  UNL     1      -3.240 -35.893   3.584  1.00  0.00    -0.278 OA
HETATM    5  C12 UNL     1      -1.955 -36.298   3.711  1.00  0.00     0.097 C 
HETATM    6  C13 UNL     1      -0.893 -36.575   2.993  1.00  0.00     0.025 C 
HETATM    7  C14 UNL     1       0.334 -36.973   3.667  1.00  0.00     0.178 C 
HETATM    8  O4  UNL     1       1.452 -36.557   3.868  1.00  0.00    -0.291 OA
HETATM    9  C15 UNL     1      -0.133 -38.356   4.232  1.00  0.00     0.105 C 
HETATM   10  C25 UNL     1      -0.778 -38.954   3.037  1.00  0.00     0.034 C 
HETATM   11  C26 UNL     1      -0.425 -38.366   1.664  1.00  0.00    -0.009 C 
HETATM   12  C27 UNL     1      -1.104 -39.123   0.588  1.00  0.00     0.011 C 
HETATM   13  C28 UNL     1      -0.995 -36.876   1.571  1.00  0.00     0.025 C 
HETATM   14  C29 UNL     1      -0.263 -36.081   0.586  1.00  0.00     0.015 C 
HETATM   15  C30 UNL     1      -1.034 -37.827   5.292  1.00  0.00     0.175 C 
HETATM   16  O5  UNL     1      -1.178 -38.497   6.265  1.00  0.00    -0.294 OA
HETATM   17  C31 UNL     1      -1.782 -36.509   5.242  1.00  0.00     0.199 C 
ENDROOT
BRANCH   1  18
HETATM   18  C8  UNL     1      -3.539 -35.964   6.999  1.00  0.00     0.032 C 
HETATM   19  C9  UNL     1      -4.268 -34.692   6.752  1.00  0.00     0.014 C 
BRANCH  18  20
HETATM   20  C7  UNL     1      -4.295 -36.716   8.030  1.00  0.00     0.034 C 
BRANCH  20  21
HETATM   21  C6  UNL     1      -4.500 -35.860   9.228  1.00  0.00    -0.030 C 
HETATM   22  C5  UNL     1      -3.824 -35.884  10.345  1.00  0.00    -0.031 C 
BRANCH  22  23
HETATM   23  C4  UNL     1      -2.690 -36.768  10.677  1.00  0.00     0.027 C 
BRANCH  23  24
HETATM   24  C3  UNL     1      -1.359 -36.151  10.251  1.00  0.00     0.003 C 
BRANCH  24  25
HETATM   25  C2  UNL     1      -0.484 -37.216   9.611  1.00  0.00    -0.004 C 
HETATM   26  C1  UNL     1       0.301 -37.933  10.672  1.00  0.00     0.005 C 
ENDBRANCH  24  25
ENDBRANCH  23  24
ENDBRANCH  22  23
ENDBRANCH  20  21
ENDBRANCH  18  20
ENDBRANCH   1  18
BRANCH   1  27
HETATM   27  O1  UNL     1      -3.456 -38.071   6.020  1.00  0.00    -0.377 OA
ATOM     28  H1  UNL     1      -4.319 -38.216   5.652  1.00  0.00     0.211 HD
ENDBRANCH   1  27
BRANCH  17  29
HETATM   29  C32 UNL     1      -1.022 -35.361   5.686  1.00  0.00     0.286 C 
HETATM   30  O6  UNL     1      -1.288 -34.234   5.124  1.00  0.00    -0.263 OA
BRANCH  29  31
HETATM   31  O7  UNL     1      -0.033 -35.280   6.644  1.00  0.00    -0.315 OA
BRANCH  31  32
HETATM   32  C33 UNL     1       0.669 -34.077   6.930  1.00  0.00     0.123 C 
HETATM   33  C34 UNL     1       1.061 -34.105   8.382  1.00  0.00     0.040 C 
HETATM   34  C35 UNL     1       1.932 -33.953   6.100  1.00  0.00     0.040 C 
ENDBRANCH  31  32
ENDBRANCH  29  31
ENDBRANCH  17  29
BRANCH   9  35
HETATM   35  C16 UNL     1       1.028 -39.098   4.748  1.00  0.00    -0.005 C 
HETATM   36  C17 UNL     1       1.345 -40.244   4.234  1.00  0.00    -0.024 C 
BRANCH  36  37
HETATM   37  C18 UNL     1       2.451 -41.170   4.572  1.00  0.00     0.008 C 
HETATM   38  C19 UNL     1       3.603 -40.784   3.691  1.00  0.00     0.014 C 
BRANCH  37  39
HETATM   39  C20 UNL     1       2.749 -41.349   6.012  1.00  0.00    -0.008 C 
HETATM   40  C21 UNL     1       1.513 -41.993   6.680  1.00  0.00     0.011 C 
BRANCH  39  41
HETATM   41  C22 UNL     1       3.878 -42.268   6.363  1.00  0.00    -0.018 C 
HETATM   42  C23 UNL     1       4.847 -41.508   7.302  1.00  0.00     0.010 C 
HETATM   43  C24 UNL     1       3.479 -43.490   7.164  1.00  0.00     0.010 C 
ENDBRANCH  39  41
ENDBRANCH  37  39
ENDBRANCH  36  37
ENDBRANCH   9  35
TORSDOF 14
ENDMDL
MODEL 4
REMARK VINA RESULT: -8.881620821      2.122      6.735
REMARK  14 active torsions:
REMARK  status: ('A' for Active; 'I' for Inactive)
REMARK    1  A    between atoms: C2_2  and  C3_3 
REMARK    2  A    between atoms: C3_3  and  C4_4 
REMARK    3  A    between atoms: C4_4  and  C5_5 
REMARK    4  A    between atoms: C6_6  and  C7_7 
REMARK    5  A    between atoms: C7_7  and  C8_8 
REMARK    6  A    between atoms: C8_8  and  C10_10 
REMARK    7  A    between atoms: C10_10  and  O1_11 
REMARK    8  A    between atoms: C15_20  and  C16_21 
REMARK    9  A    between atoms: C17_22  and  C18_23 
REMARK   10  A    between atoms: C18_23  and  C20_25 
REMARK   11  A    between atoms: C20_25  and  C22_27 
REMARK   12  A    between atoms: C31_37  and  C32_38 
REMARK   13  A    between atoms: C32_38  and  O7_40 
REMARK   14  A    between atoms: O7_40  and  C33_41 
ROOT
HETATM    1  C10 UNL     1      -2.854 -36.845   5.814  1.00  0.00     0.179 C 
HETATM    2  C11 UNL     1      -3.833 -36.405   4.749  1.00  0.00     0.301 C 
HETATM    3  O2  UNL     1      -5.082 -36.337   4.759  1.00  0.00    -0.261 OA
HETATM    4  O3  UNL     1      -3.110 -36.045   3.629  1.00  0.00    -0.278 OA
HETATM    5  C12 UNL     1      -1.808 -36.412   3.678  1.00  0.00     0.097 C 
HETATM    6  C13 UNL     1      -0.784 -36.659   2.897  1.00  0.00     0.025 C 
HETATM    7  C14 UNL     1       0.494 -37.016   3.496  1.00  0.00     0.178 C 
HETATM    8  O4  UNL     1       1.609 -36.566   3.627  1.00  0.00    -0.291 OA
HETATM    9  C15 UNL     1       0.104 -38.411   4.091  1.00  0.00     0.105 C 
HETATM   10  C25 UNL     1      -0.594 -39.033   2.939  1.00  0.00     0.034 C 
HETATM   11  C26 UNL     1      -0.343 -38.440   1.546  1.00  0.00    -0.009 C 
HETATM   12  C27 UNL     1      -1.063 -39.221   0.515  1.00  0.00     0.011 C 
HETATM   13  C28 UNL     1      -0.963 -36.969   1.484  1.00  0.00     0.025 C 
HETATM   14  C29 UNL     1      -0.317 -36.155   0.455  1.00  0.00     0.015 C 
HETATM   15  C30 UNL     1      -0.746 -37.905   5.203  1.00  0.00     0.175 C 
HETATM   16  O5  UNL     1      -0.810 -38.576   6.184  1.00  0.00    -0.294 OA
HETATM   17  C31 UNL     1      -1.536 -36.610   5.196  1.00  0.00     0.199 C 
ENDROOT
BRANCH   1  18
HETATM   18  C8  UNL     1      -3.199 -36.112   7.056  1.00  0.00     0.032 C 
HETATM   19  C9  UNL     1      -4.230 -35.054   6.894  1.00  0.00     0.014 C 
BRANCH  18  20
HETATM   20  C7  UNL     1      -3.577 -36.924   8.238  1.00  0.00     0.034 C 
BRANCH  20  21
HETATM   21  C6  UNL     1      -2.923 -36.375   9.455  1.00  0.00    -0.030 C 
HETATM   22  C5  UNL     1      -1.705 -36.596   9.869  1.00  0.00    -0.031 C 
BRANCH  22  23
HETATM   23  C4  UNL     1      -0.686 -37.442   9.217  1.00  0.00     0.027 C 
BRANCH  23  24
HETATM   24  C3  UNL     1      -0.202 -38.550  10.152  1.00  0.00     0.003 C 
BRANCH  24  25
HETATM   25  C2  UNL     1      -0.189 -39.876   9.409  1.00  0.00    -0.004 C 
HETATM   26  C1  UNL     1      -1.598 -40.311   9.121  1.00  0.00     0.005 C 
ENDBRANCH  24  25
ENDBRANCH  23  24
ENDBRANCH  22  23
ENDBRANCH  20  21
ENDBRANCH  18  20
ENDBRANCH   1  18
BRANCH   1  27
HETATM   27  O1  UNL     1      -3.110 -38.220   6.078  1.00  0.00    -0.377 OA
ATOM     28  H1  UNL     1      -2.734 -38.705   5.353  1.00  0.00     0.211 HD
ENDBRANCH   1  27
BRANCH  17  29
HETATM   29  C32 UNL     1      -0.785 -35.439   5.590  1.00  0.00     0.286 C 
HETATM   30  O6  UNL     1      -1.138 -34.318   5.065  1.00  0.00    -0.263 OA
BRANCH  29  31
HETATM   31  O7  UNL     1       0.276 -35.328   6.465  1.00  0.00    -0.315 OA
BRANCH  31  32
HETATM   32  C33 UNL     1       0.657 -34.097   7.064  1.00  0.00     0.123 C 
HETATM   33  C34 UNL     1       0.987 -34.369   8.507  1.00  0.00     0.040 C 
HETATM   34  C35 UNL     1       1.886 -33.506   6.400  1.00  0.00     0.040 C 
ENDBRANCH  31  32
ENDBRANCH  29  31
ENDBRANCH  17  29
BRANCH   9  35
HETATM   35  C16 UNL     1       1.316 -39.115   4.537  1.00  0.00    -0.005 C 
HETATM   36  C17 UNL     1       1.439 -40.388   4.330  1.00  0.00    -0.024 C 
BRANCH  36  37
HETATM   37  C18 UNL     1       2.545 -41.311   4.677  1.00  0.00     0.008 C 
HETATM   38  C19 UNL     1       3.709 -40.909   3.819  1.00  0.00     0.014 C 
BRANCH  37  39
HETATM   39  C20 UNL     1       2.820 -41.503   6.119  1.00  0.00    -0.008 C 
HETATM   40  C21 UNL     1       1.555 -42.106   6.772  1.00  0.00     0.011 C 
BRANCH  39  41
HETATM   41  C22 UNL     1       3.913 -42.461   6.481  1.00  0.00    -0.018 C 
HETATM   42  C23 UNL     1       4.956 -41.705   7.341  1.00  0.00     0.010 C 
HETATM   43  C24 UNL     1       3.482 -43.615   7.363  1.00  0.00     0.010 C 
ENDBRANCH  39  41
ENDBRANCH  37  39
ENDBRANCH  36  37
ENDBRANCH   9  35
TORSDOF 14
ENDMDL
MODEL 5
REMARK VINA RESULT: -8.854880157      3.004      7.712
REMARK  14 active torsions:
REMARK  status: ('A' for Active; 'I' for Inactive)
REMARK    1  A    between atoms: C2_2  and  C3_3 
REMARK    2  A    between atoms: C3_3  and  C4_4 
REMARK    3  A    between atoms: C4_4  and  C5_5 
REMARK    4  A    between atoms: C6_6  and  C7_7 
REMARK    5  A    between atoms: C7_7  and  C8_8 
REMARK    6  A    between atoms: C8_8  and  C10_10 
REMARK    7  A    between atoms: C10_10  and  O1_11 
REMARK    8  A    between atoms: C15_20  and  C16_21 
REMARK    9  A    between atoms: C17_22  and  C18_23 
REMARK   10  A    between atoms: C18_23  and  C20_25 
REMARK   11  A    between atoms: C20_25  and  C22_27 
REMARK   12  A    between atoms: C31_37  and  C32_38 
REMARK   13  A    between atoms: C32_38  and  O7_40 
REMARK   14  A    between atoms: O7_40  and  C33_41 
ROOT
HETATM    1  C10 UNL     1      -2.891 -36.651   5.481  1.00  0.00     0.179 C 
HETATM    2  C11 UNL     1      -3.760 -36.210   4.325  1.00  0.00     0.301 C 
HETATM    3  O2  UNL     1      -5.001 -36.074   4.235  1.00  0.00    -0.261 OA
HETATM    4  O3  UNL     1      -2.936 -35.945   3.249  1.00  0.00    -0.278 OA
HETATM    5  C12 UNL     1      -1.664 -36.379   3.415  1.00  0.00     0.097 C 
HETATM    6  C13 UNL     1      -0.600 -36.719   2.728  1.00  0.00     0.025 C 
HETATM    7  C14 UNL     1       0.605 -37.116   3.439  1.00  0.00     0.178 C 
HETATM    8  O4  UNL     1       1.732 -36.722   3.637  1.00  0.00    -0.291 OA
HETATM    9  C15 UNL     1       0.092 -38.457   4.063  1.00  0.00     0.105 C 
HETATM   10  C25 UNL     1      -0.552 -39.095   2.889  1.00  0.00     0.034 C 
HETATM   11  C26 UNL     1      -0.164 -38.584   1.494  1.00  0.00    -0.009 C 
HETATM   12  C27 UNL     1      -0.848 -39.374   0.446  1.00  0.00     0.011 C 
HETATM   13  C28 UNL     1      -0.691 -37.086   1.321  1.00  0.00     0.025 C 
HETATM   14  C29 UNL     1       0.077 -36.359   0.310  1.00  0.00     0.015 C 
HETATM   15  C30 UNL     1      -0.809 -37.853   5.082  1.00  0.00     0.175 C 
HETATM   16  O5  UNL     1      -0.985 -38.471   6.084  1.00  0.00    -0.294 OA
HETATM   17  C31 UNL     1      -1.519 -36.519   4.957  1.00  0.00     0.199 C 
ENDROOT
BRANCH   1  18
HETATM   18  C8  UNL     1      -3.285 -35.842   6.658  1.00  0.00     0.032 C 
HETATM   19  C9  UNL     1      -3.952 -34.553   6.339  1.00  0.00     0.014 C 
BRANCH  18  20
HETATM   20  C7  UNL     1      -4.096 -36.515   7.701  1.00  0.00     0.034 C 
BRANCH  20  21
HETATM   21  C6  UNL     1      -4.217 -35.634   8.893  1.00  0.00    -0.030 C 
HETATM   22  C5  UNL     1      -5.313 -35.273   9.504  1.00  0.00    -0.031 C 
BRANCH  22  23
HETATM   23  C4  UNL     1      -6.693 -35.661   9.156  1.00  0.00     0.027 C 
BRANCH  23  24
HETATM   24  C3  UNL     1      -7.427 -34.527   8.441  1.00  0.00     0.003 C 
BRANCH  24  25
HETATM   25  C2  UNL     1      -7.567 -34.860   6.964  1.00  0.00    -0.004 C 
HETATM   26  C1  UNL     1      -7.626 -36.350   6.782  1.00  0.00     0.005 C 
ENDBRANCH  24  25
ENDBRANCH  23  24
ENDBRANCH  22  23
ENDBRANCH  20  21
ENDBRANCH  18  20
ENDBRANCH   1  18
BRANCH   1  27
HETATM   27  O1  UNL     1      -3.246 -37.996   5.783  1.00  0.00    -0.377 OA
ATOM     28  H1  UNL     1      -4.083 -37.956   6.232  1.00  0.00     0.211 HD
ENDBRANCH   1  27
BRANCH  17  29
HETATM   29  C32 UNL     1      -0.733 -35.373   5.357  1.00  0.00     0.286 C 
HETATM   30  O6  UNL     1      -0.994 -34.256   4.773  1.00  0.00    -0.263 OA
BRANCH  29  31
HETATM   31  O7  UNL     1       0.276 -35.283   6.293  1.00  0.00    -0.315 OA
BRANCH  31  32
HETATM   32  C33 UNL     1       0.061 -34.812   7.617  1.00  0.00     0.123 C 
HETATM   33  C34 UNL     1      -0.073 -36.012   8.516  1.00  0.00     0.040 C 
HETATM   34  C35 UNL     1       1.226 -33.977   8.112  1.00  0.00     0.040 C 
ENDBRANCH  31  32
ENDBRANCH  29  31
ENDBRANCH  17  29
BRANCH   9  35
HETATM   35  C16 UNL     1       1.224 -39.204   4.632  1.00  0.00    -0.005 C 
HETATM   36  C17 UNL     1       1.550 -40.359   4.142  1.00  0.00    -0.024 C 
BRANCH  36  37
HETATM   37  C18 UNL     1       2.633 -41.292   4.533  1.00  0.00     0.008 C 
HETATM   38  C19 UNL     1       3.810 -40.952   3.667  1.00  0.00     0.014 C 
BRANCH  37  39
HETATM   39  C20 UNL     1       2.896 -41.431   5.984  1.00  0.00    -0.008 C 
HETATM   40  C21 UNL     1       1.635 -42.033   6.645  1.00  0.00     0.011 C 
BRANCH  39  41
HETATM   41  C22 UNL     1       4.002 -42.357   6.389  1.00  0.00    -0.018 C 
HETATM   42  C23 UNL     1       4.969 -41.581   7.317  1.00  0.00     0.010 C 
HETATM   43  C24 UNL     1       3.565 -43.541   7.226  1.00  0.00     0.010 C 
ENDBRANCH  39  41
ENDBRANCH  37  39
ENDBRANCH  36  37
ENDBRANCH   9  35
TORSDOF 14
ENDMDL
