MODEL 1
REMARK VINA RESULT: -7.479557800      0.000      0.000
REMARK  6 active torsions:
REMARK  status: ('A' for Active; 'I' for Inactive)
REMARK    1  A    between atoms: C2_2  and  N1_3 
REMARK    2  A    between atoms: N1_3  and  C3_4 
REMARK    3  A    between atoms: N1_3  and  C9_10 
REMARK    4  A    between atoms: N2_13  and  C12_14 
REMARK    5  A    between atoms: C12_14  and  C13_15 
REMARK    6  A    between atoms: C13_15  and  N3_17 
ROOT
HETATM    1  C9  UNL     1       8.810  25.522  -8.942  1.00  0.00     0.362 C 
HETATM    2  C10 UNL     1       7.423  25.646  -9.532  1.00  0.00     0.094 C 
HETATM    3  C11 UNL     1       7.448  27.007 -10.265  1.00  0.00     0.279 C 
HETATM    4  N2  UNL     1       8.126  27.935  -9.422  1.00  0.00     0.113 N 
HETATM    5  C15 UNL     1       8.101  27.535  -8.030  1.00  0.00     0.442 C 
HETATM    6  O1  UNL     1       8.770  26.361  -7.827  1.00  0.00    -0.327 OA
ENDROOT
BRANCH   1   7
HETATM    7  N1  UNL     1       9.187  24.171  -8.602  1.00  0.00     0.121 N 
BRANCH   7   8
HETATM    8  C2  UNL     1       8.255  23.251  -9.260  1.00  0.00     0.272 C 
HETATM    9  C1  UNL     1       7.473  22.381  -8.353  1.00  0.00     0.037 C 
ENDBRANCH   7   8
BRANCH   7  10
HETATM   10  C3  UNL     1      10.534  23.883  -9.007  1.00  0.00     0.226 C 
HETATM   11  C4  UNL     1      10.750  22.390  -9.223  1.00  0.00     0.036 C 
HETATM   12  C5  UNL     1      12.024  21.876  -8.604  1.00  0.00     0.002 C 
HETATM   13  C6  UNL     1      11.950  22.097  -7.117  1.00  0.00     0.000 C 
HETATM   14  C7  UNL     1      11.785  23.570  -6.856  1.00  0.00     0.002 C 
HETATM   15  C8  UNL     1      11.651  24.358  -8.140  1.00  0.00     0.036 C 
ENDBRANCH   7  10
ENDBRANCH   1   7
BRANCH   4  16
HETATM   16  C12 UNL     1       7.651  29.272  -9.555  1.00  0.00     0.307 C 
BRANCH  16  17
HETATM   17  C13 UNL     1       7.257  29.599 -10.967  1.00  0.00     0.207 C 
HETATM   18  C14 UNL     1       8.466  30.114 -11.752  1.00  0.00     0.041 C 
BRANCH  17  19
HETATM   19  N3  UNL     1       6.254  30.617 -11.052  1.00  0.00    -0.074 N 
ATOM     20  H33 UNL     1       6.125  30.919 -12.018  1.00  0.00     0.274 HD
ATOM     21  H32 UNL     1       5.328  30.230 -10.871  1.00  0.00     0.274 HD
ATOM     22  H31 UNL     1       6.439  31.416 -10.445  1.00  0.00     0.274 HD
ENDBRANCH  17  19
ENDBRANCH  16  17
ENDBRANCH   4  16
TORSDOF 6
ENDMDL
MODEL 2
REMARK VINA RESULT: -7.332295643      1.195      1.715
REMARK  6 active torsions:
REMARK  status: ('A' for Active; 'I' for Inactive)
REMARK    1  A    between atoms: C2_2  and  N1_3 
REMARK    2  A    between atoms: N1_3  and  C3_4 
REMARK    3  A    between atoms: N1_3  and  C9_10 
REMARK    4  A    between atoms: N2_13  and  C12_14 
REMARK    5  A    between atoms: C12_14  and  C13_15 
REMARK    6  A    between atoms: C13_15  and  N3_17 
ROOT
HETATM    1  C9  UNL     1       7.598  25.060  -9.128  1.00  0.00     0.362 C 
HETATM    2  C10 UNL     1       6.245  25.670  -9.417  1.00  0.00     0.094 C 
HETATM    3  C11 UNL     1       6.579  26.996 -10.139  1.00  0.00     0.279 C 
HETATM    4  N2  UNL     1       7.678  27.591  -9.455  1.00  0.00     0.113 N 
HETATM    5  C15 UNL     1       7.794  27.125  -8.088  1.00  0.00     0.442 C 
HETATM    6  O1  UNL     1       8.060  25.786  -8.029  1.00  0.00    -0.327 OA
ENDROOT
BRANCH   1   7
HETATM    7  N1  UNL     1       7.563  23.640  -8.875  1.00  0.00     0.121 N 
BRANCH   7   8
HETATM    8  C2  UNL     1       6.163  23.204  -8.877  1.00  0.00     0.272 C 
HETATM    9  C1  UNL     1       5.704  22.533  -7.640  1.00  0.00     0.037 C 
ENDBRANCH   7   8
BRANCH   7  10
HETATM   10  C3  UNL     1       8.310  22.910  -9.860  1.00  0.00     0.226 C 
HETATM   11  C4  UNL     1       8.669  21.512  -9.372  1.00  0.00     0.036 C 
HETATM   12  C5  UNL     1      10.102  21.136  -9.646  1.00  0.00     0.002 C 
HETATM   13  C6  UNL     1      10.994  22.099  -8.908  1.00  0.00     0.000 C 
HETATM   14  C7  UNL     1      10.703  23.493  -9.397  1.00  0.00     0.002 C 
HETATM   15  C8  UNL     1       9.564  23.516 -10.391  1.00  0.00     0.036 C 
ENDBRANCH   7  10
ENDBRANCH   1   7
BRANCH   4  16
HETATM   16  C12 UNL     1       7.659  29.015  -9.486  1.00  0.00     0.307 C 
BRANCH  16  17
HETATM   17  C13 UNL     1       7.299  29.551 -10.842  1.00  0.00     0.207 C 
HETATM   18  C14 UNL     1       8.565  29.851 -11.650  1.00  0.00     0.041 C 
BRANCH  17  19
HETATM   19  N3  UNL     1       6.554  30.773 -10.787  1.00  0.00    -0.074 N 
ATOM     20  H33 UNL     1       6.107  30.966 -11.683  1.00  0.00     0.274 HD
ATOM     21  H32 UNL     1       5.724  30.666 -10.204  1.00  0.00     0.274 HD
ATOM     22  H31 UNL     1       7.112  31.571 -10.481  1.00  0.00     0.274 HD
ENDBRANCH  17  19
ENDBRANCH  16  17
ENDBRANCH   4  16
TORSDOF 6
ENDMDL
MODEL 3
REMARK VINA RESULT: -7.188462835      1.839      3.683
REMARK  6 active torsions:
REMARK  status: ('A' for Active; 'I' for Inactive)
REMARK    1  A    between atoms: C2_2  and  N1_3 
REMARK    2  A    between atoms: N1_3  and  C3_4 
REMARK    3  A    between atoms: N1_3  and  C9_10 
REMARK    4  A    between atoms: N2_13  and  C12_14 
REMARK    5  A    between atoms: C12_14  and  C13_15 
REMARK    6  A    between atoms: C13_15  and  N3_17 
ROOT
HETATM    1  C9  UNL     1       7.617  25.719  -9.313  1.00  0.00     0.362 C 
HETATM    2  C10 UNL     1       8.717  26.484  -8.611  1.00  0.00     0.094 C 
HETATM    3  C11 UNL     1       8.095  27.873  -8.341  1.00  0.00     0.279 C 
HETATM    4  N2  UNL     1       7.373  28.254  -9.509  1.00  0.00     0.113 N 
HETATM    5  C15 UNL     1       7.844  27.569 -10.696  1.00  0.00     0.442 C 
HETATM    6  O1  UNL     1       7.646  26.219 -10.616  1.00  0.00    -0.327 OA
ENDROOT
BRANCH   1   7
HETATM    7  N1  UNL     1       7.774  24.286  -9.269  1.00  0.00     0.121 N 
BRANCH   7   8
HETATM    8  C2  UNL     1       9.186  23.983  -9.020  1.00  0.00     0.272 C 
HETATM    9  C1  UNL     1       9.905  23.334 -10.139  1.00  0.00     0.037 C 
ENDBRANCH   7   8
BRANCH   7  10
HETATM   10  C3  UNL     1       6.954  23.696  -8.249  1.00  0.00     0.226 C 
HETATM   11  C4  UNL     1       7.090  22.179  -8.224  1.00  0.00     0.036 C 
HETATM   12  C5  UNL     1       5.768  21.464  -8.118  1.00  0.00     0.002 C 
HETATM   13  C6  UNL     1       4.944  21.810  -9.330  1.00  0.00     0.000 C 
HETATM   14  C7  UNL     1       4.745  23.301  -9.366  1.00  0.00     0.002 C 
HETATM   15  C8  UNL     1       5.493  23.997  -8.252  1.00  0.00     0.036 C 
ENDBRANCH   7  10
ENDBRANCH   1   7
BRANCH   4  16
HETATM   16  C12 UNL     1       7.358  29.661  -9.730  1.00  0.00     0.307 C 
BRANCH  16  17
HETATM   17  C13 UNL     1       6.864  30.018 -11.103  1.00  0.00     0.207 C 
HETATM   18  C14 UNL     1       7.940  30.788 -11.873  1.00  0.00     0.041 C 
BRANCH  17  19
HETATM   19  N3  UNL     1       5.702  30.854 -11.085  1.00  0.00    -0.074 N 
ATOM     20  H33 UNL     1       5.525  31.210 -10.146  1.00  0.00     0.274 HD
ATOM     21  H32 UNL     1       5.881  31.735 -11.568  1.00  0.00     0.274 HD
ATOM     22  H31 UNL     1       4.871  30.397 -11.462  1.00  0.00     0.274 HD
ENDBRANCH  17  19
ENDBRANCH  16  17
ENDBRANCH   4  16
TORSDOF 6
ENDMDL
MODEL 4
REMARK VINA RESULT: -6.955685416      1.438      2.261
REMARK  6 active torsions:
REMARK  status: ('A' for Active; 'I' for Inactive)
REMARK    1  A    between atoms: C2_2  and  N1_3 
REMARK    2  A    between atoms: N1_3  and  C3_4 
REMARK    3  A    between atoms: N1_3  and  C9_10 
REMARK    4  A    between atoms: N2_13  and  C12_14 
REMARK    5  A    between atoms: C12_14  and  C13_15 
REMARK    6  A    between atoms: C13_15  and  N3_17 
ROOT
HETATM    1  C9  UNL     1       7.474  25.778  -8.729  1.00  0.00     0.362 C 
HETATM    2  C10 UNL     1       8.647  26.563  -8.186  1.00  0.00     0.094 C 
HETATM    3  C11 UNL     1       8.117  28.013  -8.095  1.00  0.00     0.279 C 
HETATM    4  N2  UNL     1       7.366  28.269  -9.278  1.00  0.00     0.113 N 
HETATM    5  C15 UNL     1       7.742  27.396 -10.370  1.00  0.00     0.442 C 
HETATM    6  O1  UNL     1       7.471  26.086 -10.090  1.00  0.00    -0.327 OA
ENDROOT
BRANCH   1   7
HETATM    7  N1  UNL     1       7.551  24.358  -8.486  1.00  0.00     0.121 N 
BRANCH   7   8
HETATM    8  C2  UNL     1       6.210  23.874  -8.143  1.00  0.00     0.272 C 
HETATM    9  C1  UNL     1       5.159  24.913  -8.064  1.00  0.00     0.037 C 
ENDBRANCH   7   8
BRANCH   7  10
HETATM   10  C3  UNL     1       8.053  23.653  -9.631  1.00  0.00     0.226 C 
HETATM   11  C4  UNL     1       7.721  22.167  -9.568  1.00  0.00     0.036 C 
HETATM   12  C5  UNL     1       8.887  21.281  -9.920  1.00  0.00     0.002 C 
HETATM   13  C6  UNL     1       9.987  21.526  -8.921  1.00  0.00     0.000 C 
HETATM   14  C7  UNL     1      10.380  22.978  -8.985  1.00  0.00     0.002 C 
HETATM   15  C8  UNL     1       9.508  23.756  -9.944  1.00  0.00     0.036 C 
ENDBRANCH   7  10
ENDBRANCH   1   7
BRANCH   4  16
HETATM   16  C12 UNL     1       7.420  29.630  -9.698  1.00  0.00     0.307 C 
BRANCH  16  17
HETATM   17  C13 UNL     1       7.042  29.797 -11.142  1.00  0.00     0.207 C 
HETATM   18  C14 UNL     1       8.125  30.580 -11.889  1.00  0.00     0.041 C 
BRANCH  17  19
HETATM   19  N3  UNL     1       5.820  30.519 -11.326  1.00  0.00    -0.074 N 
ATOM     20  H33 UNL     1       5.102  30.189 -10.681  1.00  0.00     0.274 HD
ATOM     21  H32 UNL     1       5.913  31.480 -10.997  1.00  0.00     0.274 HD
ATOM     22  H31 UNL     1       5.479  30.496 -12.288  1.00  0.00     0.274 HD
ENDBRANCH  17  19
ENDBRANCH  16  17
ENDBRANCH   4  16
TORSDOF 6
ENDMDL
MODEL 5
REMARK VINA RESULT: -6.919154260      2.933      4.014
REMARK  6 active torsions:
REMARK  status: ('A' for Active; 'I' for Inactive)
REMARK    1  A    between atoms: C2_2  and  N1_3 
REMARK    2  A    between atoms: N1_3  and  C3_4 
REMARK    3  A    between atoms: N1_3  and  C9_10 
REMARK    4  A    between atoms: N2_13  and  C12_14 
REMARK    5  A    between atoms: C12_14  and  C13_15 
REMARK    6  A    between atoms: C13_15  and  N3_17 
ROOT
HETATM    1  C9  UNL     1      10.666  26.819  -6.889  1.00  0.00     0.362 C 
HETATM    2  C10 UNL     1       9.428  26.948  -6.031  1.00  0.00     0.094 C 
HETATM    3  C11 UNL     1       8.289  27.186  -7.050  1.00  0.00     0.279 C 
HETATM    4  N2  UNL     1       8.774  28.101  -8.029  1.00  0.00     0.113 N 
HETATM    5  C15 UNL     1       9.875  28.902  -7.536  1.00  0.00     0.442 C 
HETATM    6  O1  UNL     1      10.967  28.137  -7.237  1.00  0.00    -0.327 OA
ENDROOT
BRANCH   1   7
HETATM    7  N1  UNL     1      11.769  26.155  -6.237  1.00  0.00     0.121 N 
BRANCH   7   8
HETATM    8  C2  UNL     1      12.129  24.973  -7.026  1.00  0.00     0.272 C 
HETATM    9  C1  UNL     1      11.972  23.674  -6.334  1.00  0.00     0.037 C 
ENDBRANCH   7   8
BRANCH   7  10
HETATM   10  C3  UNL     1      12.903  27.025  -6.104  1.00  0.00     0.226 C 
HETATM   11  C4  UNL     1      14.064  26.575  -6.982  1.00  0.00     0.036 C 
HETATM   12  C5  UNL     1      15.391  26.590  -6.270  1.00  0.00     0.002 C 
HETATM   13  C6  UNL     1      15.319  25.628  -5.114  1.00  0.00     0.000 C 
HETATM   14  C7  UNL     1      14.212  26.065  -4.193  1.00  0.00     0.002 C 
HETATM   15  C8  UNL     1      13.461  27.258  -4.740  1.00  0.00     0.036 C 
ENDBRANCH   7  10
ENDBRANCH   1   7
BRANCH   4  16
HETATM   16  C12 UNL     1       7.759  28.943  -8.568  1.00  0.00     0.307 C 
BRANCH  16  17
HETATM   17  C13 UNL     1       7.630  28.799 -10.058  1.00  0.00     0.207 C 
HETATM   18  C14 UNL     1       7.710  27.324 -10.459  1.00  0.00     0.041 C 
BRANCH  17  19
HETATM   19  N3  UNL     1       8.665  29.473 -10.782  1.00  0.00    -0.074 N 
ATOM     20  H33 UNL     1       9.586  29.190 -10.446  1.00  0.00     0.274 HD
ATOM     21  H32 UNL     1       8.722  29.127 -11.740  1.00  0.00     0.274 HD
ATOM     22  H31 UNL     1       8.570  30.489 -10.767  1.00  0.00     0.274 HD
ENDBRANCH  17  19
ENDBRANCH  16  17
ENDBRANCH   4  16
TORSDOF 6
ENDMDL
