MODEL 1
REMARK VINA RESULT: -7.324691192      0.000      0.000
REMARK  9 active torsions:
REMARK  status: ('A' for Active; 'I' for Inactive)
REMARK    1  A    between atoms: C3_5  and  N2_6 
REMARK    2  A    between atoms: C4_11  and  N4_12 
REMARK    3  A    between atoms: N4_12  and  N5_14 
REMARK    4  A    between atoms: N5_14  and  N6_16 
REMARK    5  A    between atoms: N6_16  and  C5_18 
REMARK    6  A    between atoms: C6_23  and  C7_24 
REMARK    7  A    between atoms: C10_31  and  C11_32 
REMARK    8  A    between atoms: C11_32  and  O1_33 
REMARK    9  A    between atoms: C11_32  and  O2_35 
ROOT
HETATM    1  C5  UNL     1      18.042 -29.787  27.599  1.00  0.00     0.713 A 
HETATM    2  N7  UNL     1      16.698 -29.760  27.618  1.00  0.00    -0.130 N 
ATOM      3  H7  UNL     1      16.172 -30.631  27.539  1.00  0.00     0.205 HD
HETATM    4  N8  UNL     1      16.062 -28.626  27.738  1.00  0.00    -0.281 N 
ATOM      5  H8  UNL     1      15.042 -28.648  27.747  1.00  0.00     0.188 HD
HETATM    6  C6  UNL     1      16.678 -27.412  27.852  1.00  0.00     0.120 A 
HETATM    7  C10 UNL     1      18.031 -27.412  27.838  1.00  0.00     0.112 A 
HETATM    8  N11 UNL     1      18.673 -28.614  27.709  1.00  0.00    -0.185 N 
ATOM      9  H11 UNL     1      19.693 -28.615  27.698  1.00  0.00     0.184 HD
ENDROOT
BRANCH   1  10
HETATM   10  N6  UNL     1      18.769 -31.002  27.468  1.00  0.00    -0.116 N 
ATOM     11  H6  UNL     1      18.288 -31.901  27.470  1.00  0.00     0.207 HD
BRANCH  10  12
HETATM   12  N5  UNL     1      20.049 -30.939  27.346  1.00  0.00    -0.214 N 
ATOM     13  H5  UNL     1      20.454 -30.573  26.484  1.00  0.00     0.209 HD
BRANCH  12  14
HETATM   14  N4  UNL     1      20.892 -31.365  28.377  1.00  0.00    -0.116 N 
ATOM     15  H4  UNL     1      20.578 -32.033  29.080  1.00  0.00     0.207 HD
BRANCH  14  16
HETATM   16  C4  UNL     1      22.083 -30.873  28.398  1.00  0.00     0.713 A 
HETATM   17  N3  UNL     1      22.956 -31.380  29.269  1.00  0.00    -0.021 N 
HETATM   18  C3  UNL     1      24.203 -30.904  29.329  1.00  0.00     0.691 A 
ATOM     19  H3  UNL     1      22.671 -32.136  29.892  1.00  0.00     0.203 HD
HETATM   20  N1  UNL     1      24.575 -29.901  28.500  1.00  0.00    -0.180 N 
HETATM   21  C2  UNL     1      23.722 -29.368  27.613  1.00  0.00     0.109 A 
ATOM     22  H1  UNL     1      25.528 -29.542  28.551  1.00  0.00     0.185 HD
HETATM   23  C1  UNL     1      24.121 -28.270  26.701  1.00  0.00     0.090 C 
HETATM   24  N12 UNL     1      22.474 -29.863  27.569  1.00  0.00    -0.178 N 
ATOM     25  H12 UNL     1      21.805 -29.476  26.903  1.00  0.00     0.185 HD
BRANCH  18  26
HETATM   26  N2  UNL     1      25.023 -31.409  30.174  1.00  0.00    -0.234 N 
ATOM     27  H22 UNL     1      25.367 -30.828  30.940  1.00  0.00     0.174 HD
ATOM     28  H21 UNL     1      25.337 -32.376  30.096  1.00  0.00     0.174 HD
ENDBRANCH  18  26
ENDBRANCH  14  16
ENDBRANCH  12  14
ENDBRANCH  10  12
ENDBRANCH   1  10
BRANCH   7  29
HETATM   29  C11 UNL     1      18.824 -26.196  27.994  1.00  0.00     0.308 C 
BRANCH  29  30
HETATM   30  O1  UNL     1      20.178 -26.417  28.180  1.00  0.00    -0.366 OA
ATOM     31  H1  UNL     1      20.669 -26.544  27.377  1.00  0.00     0.213 HD
ENDBRANCH  29  30
BRANCH  29  32
HETATM   32  O2  UNL     1      18.740 -25.467  26.788  1.00  0.00    -0.366 OA
ATOM     33  H2  UNL     1      19.606 -25.450  26.398  1.00  0.00     0.213 HD
ENDBRANCH  29  32
ENDBRANCH   7  29
BRANCH   6  34
HETATM   34  C7  UNL     1      15.835 -26.218  27.964  1.00  0.00     0.128 C 
HETATM   35  N9  UNL     1      15.247 -25.718  28.967  1.00  0.00    -0.373 N 
HETATM   36  C8  UNL     1      14.497 -24.524  28.703  1.00  0.00     0.141 C 
ATOM     37  H9  UNL     1      15.302 -26.133  29.896  1.00  0.00     0.161 HD
HETATM   38  C9  UNL     1      14.968 -24.154  27.326  1.00  0.00     0.141 C 
HETATM   39  N10 UNL     1      15.541 -25.393  26.842  1.00  0.00    -0.373 N 
ATOM     40  H10 UNL     1      15.707 -25.634  25.865  1.00  0.00     0.161 HD
ENDBRANCH   6  34
TORSDOF 9
ENDMDL
MODEL 2
REMARK VINA RESULT: -7.214591166      2.565      7.428
REMARK  9 active torsions:
REMARK  status: ('A' for Active; 'I' for Inactive)
REMARK    1  A    between atoms: C3_5  and  N2_6 
REMARK    2  A    between atoms: C4_11  and  N4_12 
REMARK    3  A    between atoms: N4_12  and  N5_14 
REMARK    4  A    between atoms: N5_14  and  N6_16 
REMARK    5  A    between atoms: N6_16  and  C5_18 
REMARK    6  A    between atoms: C6_23  and  C7_24 
REMARK    7  A    between atoms: C10_31  and  C11_32 
REMARK    8  A    between atoms: C11_32  and  O1_33 
REMARK    9  A    between atoms: C11_32  and  O2_35 
ROOT
HETATM    1  C5  UNL     1      23.014 -30.910  28.826  1.00  0.00     0.713 A 
HETATM    2  N7  UNL     1      24.305 -30.800  29.180  1.00  0.00    -0.130 N 
ATOM      3  H7  UNL     1      24.698 -31.441  29.870  1.00  0.00     0.205 HD
HETATM    4  N8  UNL     1      25.060 -29.878  28.647  1.00  0.00    -0.281 N 
ATOM      5  H8  UNL     1      26.035 -29.827  28.944  1.00  0.00     0.188 HD
HETATM    6  C6  UNL     1      24.625 -28.978  27.715  1.00  0.00     0.120 A 
HETATM    7  C10 UNL     1      23.328 -29.069  27.339  1.00  0.00     0.112 A 
HETATM    8  N11 UNL     1      22.558 -30.044  27.915  1.00  0.00    -0.185 N 
ATOM      9  H11 UNL     1      21.581 -30.113  27.633  1.00  0.00     0.184 HD
ENDROOT
BRANCH   1  10
HETATM   10  N6  UNL     1      22.160 -31.901  29.386  1.00  0.00    -0.116 N 
ATOM     11  H6  UNL     1      22.544 -32.767  29.763  1.00  0.00     0.207 HD
BRANCH  10  12
HETATM   12  N5  UNL     1      20.893 -31.677  29.406  1.00  0.00    -0.214 N 
ATOM     13  H5  UNL     1      20.515 -30.985  30.054  1.00  0.00     0.209 HD
BRANCH  12  14
HETATM   14  N4  UNL     1      20.026 -32.366  28.554  1.00  0.00    -0.116 N 
ATOM     15  H4  UNL     1      20.199 -33.335  28.288  1.00  0.00     0.207 HD
BRANCH  14  16
HETATM   16  C4  UNL     1      18.999 -31.721  28.118  1.00  0.00     0.713 A 
HETATM   17  N3  UNL     1      18.142 -32.365  27.326  1.00  0.00    -0.021 N 
HETATM   18  C3  UNL     1      17.062 -31.739  26.850  1.00  0.00     0.691 A 
ATOM     19  H3  UNL     1      18.311 -33.341  27.083  1.00  0.00     0.203 HD
HETATM   20  N1  UNL     1      16.843 -30.444  27.175  1.00  0.00    -0.180 N 
HETATM   21  C2  UNL     1      17.686 -29.766  27.969  1.00  0.00     0.109 A 
ATOM     22  H1  UNL     1      16.017 -29.972  26.808  1.00  0.00     0.185 HD
HETATM   23  C1  UNL     1      17.454 -28.348  28.331  1.00  0.00     0.090 C 
HETATM   24  N12 UNL     1      18.764 -30.416  28.437  1.00  0.00    -0.178 N 
ATOM     25  H12 UNL     1      19.420 -29.924  29.044  1.00  0.00     0.185 HD
BRANCH  18  26
HETATM   26  N2  UNL     1      16.253 -32.382  26.090  1.00  0.00    -0.234 N 
ATOM     27  H22 UNL     1      15.797 -31.889  25.322  1.00  0.00     0.174 HD
ATOM     28  H21 UNL     1      16.059 -33.371  26.240  1.00  0.00     0.174 HD
ENDBRANCH  18  26
ENDBRANCH  14  16
ENDBRANCH  12  14
ENDBRANCH  10  12
ENDBRANCH   1  10
BRANCH   7  29
HETATM   29  C11 UNL     1      22.737 -28.204  26.324  1.00  0.00     0.308 C 
BRANCH  29  30
HETATM   30  O1  UNL     1      22.886 -28.662  25.025  1.00  0.00    -0.366 OA
ATOM     31  H1  UNL     1      22.575 -29.549  24.884  1.00  0.00     0.213 HD
ENDBRANCH  29  30
BRANCH  29  32
HETATM   32  O2  UNL     1      21.342 -28.177  26.538  1.00  0.00    -0.366 OA
ATOM     33  H2  UNL     1      21.010 -27.355  26.195  1.00  0.00     0.213 HD
ENDBRANCH  29  32
ENDBRANCH   7  29
BRANCH   6  34
HETATM   34  C7  UNL     1      25.581 -27.986  27.214  1.00  0.00     0.128 C 
HETATM   35  N9  UNL     1      25.837 -27.615  26.032  1.00  0.00    -0.373 N 
HETATM   36  C8  UNL     1      26.850 -26.606  25.914  1.00  0.00     0.141 C 
ATOM     37  H9  UNL     1      25.358 -28.005  25.221  1.00  0.00     0.161 HD
HETATM   38  C9  UNL     1      27.011 -26.153  27.337  1.00  0.00     0.141 C 
HETATM   39  N10 UNL     1      26.429 -27.248  28.087  1.00  0.00    -0.373 N 
ATOM     40  H10 UNL     1      26.597 -27.453  29.071  1.00  0.00     0.161 HD
ENDBRANCH   6  34
TORSDOF 9
ENDMDL
MODEL 3
REMARK VINA RESULT: -7.153196791      4.026      7.958
REMARK  9 active torsions:
REMARK  status: ('A' for Active; 'I' for Inactive)
REMARK    1  A    between atoms: C3_5  and  N2_6 
REMARK    2  A    between atoms: C4_11  and  N4_12 
REMARK    3  A    between atoms: N4_12  and  N5_14 
REMARK    4  A    between atoms: N5_14  and  N6_16 
REMARK    5  A    between atoms: N6_16  and  C5_18 
REMARK    6  A    between atoms: C6_23  and  C7_24 
REMARK    7  A    between atoms: C10_31  and  C11_32 
REMARK    8  A    between atoms: C11_32  and  O1_33 
REMARK    9  A    between atoms: C11_32  and  O2_35 
ROOT
HETATM    1  C5  UNL     1      18.348 -28.599  27.717  1.00  0.00     0.713 A 
HETATM    2  N7  UNL     1      18.908 -27.987  26.660  1.00  0.00    -0.130 N 
ATOM      3  H7  UNL     1      19.197 -27.011  26.733  1.00  0.00     0.205 HD
HETATM    4  N8  UNL     1      19.084 -28.634  25.540  1.00  0.00    -0.281 N 
ATOM      5  H8  UNL     1      19.511 -28.133  24.760  1.00  0.00     0.188 HD
HETATM    6  C6  UNL     1      18.733 -29.940  25.347  1.00  0.00     0.120 A 
HETATM    7  C10 UNL     1      18.169 -30.581  26.398  1.00  0.00     0.112 A 
HETATM    8  N11 UNL     1      17.994 -29.878  27.560  1.00  0.00    -0.185 N 
ATOM      9  H11 UNL     1      17.569 -30.360  28.353  1.00  0.00     0.184 HD
ENDROOT
BRANCH   1  10
HETATM   10  N6  UNL     1      18.138 -27.927  28.953  1.00  0.00    -0.116 N 
ATOM     11  H6  UNL     1      18.549 -28.281  29.816  1.00  0.00     0.207 HD
BRANCH  10  12
HETATM   12  N5  UNL     1      17.417 -26.860  28.955  1.00  0.00    -0.214 N 
ATOM     13  H5  UNL     1      17.832 -25.974  29.245  1.00  0.00     0.209 HD
BRANCH  12  14
HETATM   14  N4  UNL     1      16.075 -26.898  28.566  1.00  0.00    -0.116 N 
ATOM     15  H4  UNL     1      15.477 -27.692  28.790  1.00  0.00     0.207 HD
BRANCH  14  16
HETATM   16  C4  UNL     1      15.628 -25.881  27.911  1.00  0.00     0.713 A 
HETATM   17  N3  UNL     1      16.288 -25.499  26.818  1.00  0.00    -0.021 N 
HETATM   18  C3  UNL     1      15.863 -24.452  26.105  1.00  0.00     0.691 A 
ATOM     19  H3  UNL     1      17.121 -26.008  26.523  1.00  0.00     0.203 HD
HETATM   20  N1  UNL     1      14.758 -23.779  26.501  1.00  0.00    -0.180 N 
HETATM   21  C2  UNL     1      14.071 -24.137  27.597  1.00  0.00     0.109 A 
ATOM     22  H1  UNL     1      14.438 -22.981  25.953  1.00  0.00     0.185 HD
HETATM   23  C1  UNL     1      12.859 -23.407  28.037  1.00  0.00     0.090 C 
HETATM   24  N12 UNL     1      14.515 -25.194  28.297  1.00  0.00    -0.178 N 
ATOM     25  H12 UNL     1      14.011 -25.487  29.133  1.00  0.00     0.185 HD
BRANCH  18  26
HETATM   26  N2  UNL     1      16.515 -24.105  25.058  1.00  0.00    -0.234 N 
ATOM     27  H22 UNL     1      17.389 -23.589  25.166  1.00  0.00     0.174 HD
ATOM     28  H21 UNL     1      16.178 -24.333  24.123  1.00  0.00     0.174 HD
ENDBRANCH  18  26
ENDBRANCH  14  16
ENDBRANCH  12  14
ENDBRANCH  10  12
ENDBRANCH   1  10
BRANCH   7  29
HETATM   29  C11 UNL     1      17.784 -31.987  26.352  1.00  0.00     0.308 C 
BRANCH  29  30
HETATM   30  O1  UNL     1      18.286 -32.752  27.392  1.00  0.00    -0.366 OA
ATOM     31  H1  UNL     1      18.431 -33.665  27.174  1.00  0.00     0.213 HD
ENDBRANCH  29  30
BRANCH  29  32
HETATM   32  O2  UNL     1      16.382 -32.057  26.500  1.00  0.00    -0.366 OA
ATOM     33  H2  UNL     1      16.188 -32.081  27.430  1.00  0.00     0.213 HD
ENDBRANCH  29  32
ENDBRANCH   7  29
BRANCH   6  34
HETATM   34  C7  UNL     1      18.977 -30.534  24.030  1.00  0.00     0.128 C 
HETATM   35  N9  UNL     1      18.256 -30.553  22.990  1.00  0.00    -0.373 N 
HETATM   36  C8  UNL     1      18.824 -31.237  21.864  1.00  0.00     0.141 C 
ATOM     37  H9  UNL     1      17.337 -30.113  22.955  1.00  0.00     0.161 HD
HETATM   38  C9  UNL     1      20.251 -31.420  22.294  1.00  0.00     0.141 C 
HETATM   39  N10 UNL     1      20.176 -31.239  23.730  1.00  0.00    -0.373 N 
ATOM     40  H10 UNL     1      20.865 -31.561  24.409  1.00  0.00     0.161 HD
ENDBRANCH   6  34
TORSDOF 9
ENDMDL
MODEL 4
REMARK VINA RESULT: -7.078129956      3.574      7.496
REMARK  9 active torsions:
REMARK  status: ('A' for Active; 'I' for Inactive)
REMARK    1  A    between atoms: C3_5  and  N2_6 
REMARK    2  A    between atoms: C4_11  and  N4_12 
REMARK    3  A    between atoms: N4_12  and  N5_14 
REMARK    4  A    between atoms: N5_14  and  N6_16 
REMARK    5  A    between atoms: N6_16  and  C5_18 
REMARK    6  A    between atoms: C6_23  and  C7_24 
REMARK    7  A    between atoms: C10_31  and  C11_32 
REMARK    8  A    between atoms: C11_32  and  O1_33 
REMARK    9  A    between atoms: C11_32  and  O2_35 
ROOT
HETATM    1  C5  UNL     1      21.422 -26.566  27.289  1.00  0.00     0.713 A 
HETATM    2  N7  UNL     1      22.206 -25.477  27.222  1.00  0.00    -0.130 N 
ATOM      3  H7  UNL     1      21.782 -24.549  27.178  1.00  0.00     0.205 HD
HETATM    4  N8  UNL     1      23.506 -25.598  27.213  1.00  0.00    -0.281 N 
ATOM      5  H8  UNL     1      24.065 -24.747  27.159  1.00  0.00     0.188 HD
HETATM    6  C6  UNL     1      24.163 -26.795  27.271  1.00  0.00     0.120 A 
HETATM    7  C10 UNL     1      23.396 -27.908  27.341  1.00  0.00     0.112 A 
HETATM    8  N11 UNL     1      22.035 -27.752  27.348  1.00  0.00    -0.185 N 
ATOM      9  H11 UNL     1      21.457 -28.590  27.400  1.00  0.00     0.184 HD
ENDROOT
BRANCH   1  10
HETATM   10  N6  UNL     1      20.003 -26.474  27.299  1.00  0.00    -0.116 N 
ATOM     11  H6  UNL     1      19.534 -25.615  27.012  1.00  0.00     0.207 HD
BRANCH  10  12
HETATM   12  N5  UNL     1      19.325 -27.501  27.678  1.00  0.00    -0.214 N 
ATOM     13  H5  UNL     1      19.250 -27.714  28.672  1.00  0.00     0.209 HD
BRANCH  12  14
HETATM   14  N4  UNL     1      18.690 -28.327  26.747  1.00  0.00    -0.116 N 
ATOM     15  H4  UNL     1      18.301 -27.955  25.881  1.00  0.00     0.207 HD
BRANCH  14  16
HETATM   16  C4  UNL     1      18.618 -29.582  27.033  1.00  0.00     0.713 A 
HETATM   17  N3  UNL     1      17.615 -30.289  26.511  1.00  0.00    -0.021 N 
HETATM   18  C3  UNL     1      17.497 -31.592  26.778  1.00  0.00     0.691 A 
ATOM     19  H3  UNL     1      16.933 -29.832  25.906  1.00  0.00     0.203 HD
HETATM   20  N1  UNL     1      18.404 -32.193  27.584  1.00  0.00    -0.180 N 
HETATM   21  C2  UNL     1      19.425 -31.512  28.125  1.00  0.00     0.109 A 
ATOM     22  H1  UNL     1      18.309 -33.189  27.783  1.00  0.00     0.185 HD
HETATM   23  C1  UNL     1      20.423 -32.161  29.007  1.00  0.00     0.090 C 
HETATM   24  N12 UNL     1      19.524 -30.202  27.842  1.00  0.00    -0.178 N 
ATOM     25  H12 UNL     1      20.291 -29.661  28.240  1.00  0.00     0.185 HD
BRANCH  18  26
HETATM   26  N2  UNL     1      16.524 -32.249  26.265  1.00  0.00    -0.234 N 
ATOM     27  H22 UNL     1      15.711 -32.465  26.842  1.00  0.00     0.174 HD
ATOM     28  H21 UNL     1      16.547 -32.558  25.293  1.00  0.00     0.174 HD
ENDBRANCH  18  26
ENDBRANCH  14  16
ENDBRANCH  12  14
ENDBRANCH  10  12
ENDBRANCH   1  10
BRANCH   7  29
HETATM   29  C11 UNL     1      23.958 -29.250  27.452  1.00  0.00     0.308 C 
BRANCH  29  30
HETATM   30  O1  UNL     1      24.811 -29.426  28.530  1.00  0.00    -0.366 OA
ATOM     31  H1  UNL     1      24.838 -30.313  28.867  1.00  0.00     0.213 HD
ENDBRANCH  29  30
BRANCH  29  32
HETATM   32  O2  UNL     1      22.894 -30.147  27.686  1.00  0.00    -0.366 OA
ATOM     33  H2  UNL     1      23.258 -30.940  28.061  1.00  0.00     0.213 HD
ENDBRANCH  29  32
ENDBRANCH   7  29
BRANCH   6  34
HETATM   34  C7  UNL     1      25.628 -26.781  27.236  1.00  0.00     0.128 C 
HETATM   35  N9  UNL     1      26.427 -26.757  26.256  1.00  0.00    -0.373 N 
HETATM   36  C8  UNL     1      27.819 -26.749  26.603  1.00  0.00     0.141 C 
ATOM     37  H9  UNL     1      26.105 -26.743  25.289  1.00  0.00     0.161 HD
HETATM   38  C9  UNL     1      27.776 -26.464  28.076  1.00  0.00     0.141 C 
HETATM   39  N10 UNL     1      26.411 -26.800  28.425  1.00  0.00    -0.373 N 
ATOM     40  H10 UNL     1      26.068 -27.013  29.362  1.00  0.00     0.161 HD
ENDBRANCH   6  34
TORSDOF 9
ENDMDL
MODEL 5
REMARK VINA RESULT: -6.930882314      5.199      7.866
REMARK  9 active torsions:
REMARK  status: ('A' for Active; 'I' for Inactive)
REMARK    1  A    between atoms: C3_5  and  N2_6 
REMARK    2  A    between atoms: C4_11  and  N4_12 
REMARK    3  A    between atoms: N4_12  and  N5_14 
REMARK    4  A    between atoms: N5_14  and  N6_16 
REMARK    5  A    between atoms: N6_16  and  C5_18 
REMARK    6  A    between atoms: C6_23  and  C7_24 
REMARK    7  A    between atoms: C10_31  and  C11_32 
REMARK    8  A    between atoms: C11_32  and  O1_33 
REMARK    9  A    between atoms: C11_32  and  O2_35 
ROOT
HETATM    1  C5  UNL     1      19.141 -28.759  23.653  1.00  0.00     0.713 A 
HETATM    2  N7  UNL     1      20.442 -29.083  23.566  1.00  0.00    -0.130 N 
ATOM      3  H7  UNL     1      21.132 -28.562  24.109  1.00  0.00     0.205 HD
HETATM    4  N8  UNL     1      20.829 -30.060  22.792  1.00  0.00    -0.281 N 
ATOM      5  H8  UNL     1      21.826 -30.274  22.753  1.00  0.00     0.188 HD
HETATM    6  C6  UNL     1      19.980 -30.815  22.032  1.00  0.00     0.120 A 
HETATM    7  C10 UNL     1      18.664 -30.511  22.104  1.00  0.00     0.112 A 
HETATM    8  N11 UNL     1      18.286 -29.480  22.922  1.00  0.00    -0.185 N 
ATOM      9  H11 UNL     1      17.294 -29.249  22.976  1.00  0.00     0.184 HD
ENDROOT
BRANCH   1  10
HETATM   10  N6  UNL     1      18.682 -27.699  24.484  1.00  0.00    -0.116 N 
ATOM     11  H6  UNL     1      18.947 -26.733  24.291  1.00  0.00     0.207 HD
BRANCH  10  12
HETATM   12  N5  UNL     1      17.925 -27.988  25.484  1.00  0.00    -0.214 N 
ATOM     13  H5  UNL     1      16.912 -27.937  25.378  1.00  0.00     0.209 HD
BRANCH  12  14
HETATM   14  N4  UNL     1      18.470 -28.373  26.712  1.00  0.00    -0.116 N 
ATOM     15  H4  UNL     1      18.877 -27.691  27.352  1.00  0.00     0.207 HD
BRANCH  14  16
HETATM   16  C4  UNL     1      18.436 -29.630  26.999  1.00  0.00     0.713 A 
HETATM   17  N3  UNL     1      17.445 -30.362  26.493  1.00  0.00    -0.021 N 
HETATM   18  C3  UNL     1      17.366 -31.669  26.762  1.00  0.00     0.691 A 
ATOM     19  H3  UNL     1      16.742 -29.924  25.897  1.00  0.00     0.203 HD
HETATM   20  N1  UNL     1      18.300 -32.245  27.554  1.00  0.00    -0.180 N 
HETATM   21  C2  UNL     1      19.310 -31.536  28.080  1.00  0.00     0.109 A 
ATOM     22  H1  UNL     1      18.235 -33.242  27.755  1.00  0.00     0.185 HD
HETATM   23  C1  UNL     1      20.338 -32.158  28.947  1.00  0.00     0.090 C 
HETATM   24  N12 UNL     1      19.370 -30.224  27.795  1.00  0.00    -0.178 N 
ATOM     25  H12 UNL     1      20.129 -29.663  28.181  1.00  0.00     0.185 HD
BRANCH  18  26
HETATM   26  N2  UNL     1      16.403 -32.351  26.263  1.00  0.00    -0.234 N 
ATOM     27  H22 UNL     1      15.486 -32.314  26.708  1.00  0.00     0.174 HD
ATOM     28  H21 UNL     1      16.537 -32.929  25.433  1.00  0.00     0.174 HD
ENDBRANCH  18  26
ENDBRANCH  14  16
ENDBRANCH  12  14
ENDBRANCH  10  12
ENDBRANCH   1  10
BRANCH   7  29
HETATM   29  C11 UNL     1      17.639 -31.258  21.382  1.00  0.00     0.308 C 
BRANCH  29  30
HETATM   30  O1  UNL     1      16.802 -32.008  22.192  1.00  0.00    -0.366 OA
ATOM     31  H1  UNL     1      16.153 -31.499  22.664  1.00  0.00     0.213 HD
ENDBRANCH  29  30
BRANCH  29  32
HETATM   32  O2  UNL     1      16.788 -30.326  20.751  1.00  0.00    -0.366 OA
ATOM     33  H2  UNL     1      16.007 -30.788  20.470  1.00  0.00     0.213 HD
ENDBRANCH  29  32
ENDBRANCH   7  29
BRANCH   6  34
HETATM   34  C7  UNL     1      20.558 -31.872  21.197  1.00  0.00     0.128 C 
HETATM   35  N9  UNL     1      20.700 -33.110  21.418  1.00  0.00    -0.373 N 
HETATM   36  C8  UNL     1      21.316 -33.854  20.358  1.00  0.00     0.141 C 
ATOM     37  H9  UNL     1      20.398 -33.547  22.288  1.00  0.00     0.161 HD
HETATM   38  C9  UNL     1      21.284 -32.872  19.223  1.00  0.00     0.141 C 
HETATM   39  N10 UNL     1      21.088 -31.607  19.903  1.00  0.00    -0.373 N 
ATOM     40  H10 UNL     1      21.295 -30.685  19.520  1.00  0.00     0.161 HD
ENDBRANCH   6  34
TORSDOF 9
ENDMDL
