MODEL 1
REMARK VINA RESULT: -6.308070225      0.000      0.000
REMARK  9 active torsions:
REMARK  status: ('A' for Active; 'I' for Inactive)
REMARK    1  A    between atoms: N1_1  and  C1_5 
REMARK    2  A    between atoms: C1_5  and  C2_6 
REMARK    3  A    between atoms: N3_9  and  C3_10 
REMARK    4  A    between atoms: C4_11  and  N4_12 
REMARK    5  A    between atoms: N5_17  and  N6_19 
REMARK    6  A    between atoms: C7_24  and  C8_25 
REMARK    7  A    between atoms: C8_25  and  O3_26 
REMARK    8  A    between atoms: C8_25  and  N8_28 
REMARK    9  A    between atoms: N8_28  and  N9_30 
ROOT
HETATM    1  C3  UNL     1      19.095 -29.452  25.373  1.00  0.00     0.121 A 
HETATM    2  C4  UNL     1      18.309 -28.398  24.894  1.00  0.00     0.176 A 
HETATM    3  S1  UNL     1      17.305 -27.640  26.029  1.00  0.00    -0.043 SA
HETATM    4  C5  UNL     1      17.425 -28.295  27.574  1.00  0.00     0.116 A 
HETATM    5  N5  UNL     1      16.742 -27.872  28.620  1.00  0.00    -0.299 N 
ATOM      6  H5  UNL     1      16.861 -28.313  29.533  1.00  0.00     0.187 HD
HETATM    7  C6  UNL     1      18.307 -29.335  27.691  1.00  0.00     0.098 A 
HETATM    8  N7  UNL     1      18.373 -29.837  29.056  1.00  0.00    -0.098 NA
HETATM    9  C7  UNL     1      19.105 -29.901  26.679  1.00  0.00     0.075 A 
ENDROOT
BRANCH   1  10
HETATM   10  N3  UNL     1      19.892 -30.097  24.346  1.00  0.00    -0.218 N 
HETATM   11  N2  UNL     1      19.595 -31.058  23.492  1.00  0.00    -0.282 N 
HETATM   12  C2  UNL     1      20.646 -31.304  22.676  1.00  0.00     0.111 A 
ATOM     13  H2  UNL     1      18.700 -31.547  23.453  1.00  0.00     0.188 HD
HETATM   14  S2  UNL     1      21.388 -30.050  23.601  1.00  0.00     0.027 SA
BRANCH  12  15
HETATM   15  C1  UNL     1      21.014 -32.192  21.547  1.00  0.00     0.297 C 
BRANCH  15  16
HETATM   16  N1  UNL     1      21.438 -33.502  22.000  1.00  0.00    -0.073 N 
ATOM     17  H13 UNL     1      22.453 -33.591  21.976  1.00  0.00     0.274 HD
ATOM     18  H12 UNL     1      21.290 -33.612  23.004  1.00  0.00     0.274 HD
ATOM     19  H11 UNL     1      20.988 -34.253  21.476  1.00  0.00     0.274 HD
ENDBRANCH  15  16
ENDBRANCH  12  15
ENDBRANCH   1  10
BRANCH   2  20
HETATM   20  N4  UNL     1      18.310 -27.951  23.545  1.00  0.00    -0.106 N 
HETATM   21  O1  UNL     1      18.835 -26.971  23.047  1.00  0.00    -0.531 OA
HETATM   22  O2  UNL     1      17.605 -28.740  22.596  1.00  0.00    -0.531 OA
ENDBRANCH   2  20
BRANCH   9  23
HETATM   23  C8  UNL     1      19.911 -31.026  27.133  1.00  0.00     0.169 C 
BRANCH  23  24
HETATM   24  O3  UNL     1      21.148 -30.683  27.501  1.00  0.00    -0.344 OA
ATOM     25  H3  UNL     1      21.556 -30.054  26.918  1.00  0.00     0.219 HD
ENDBRANCH  23  24
BRANCH  23  26
HETATM   26  N8  UNL     1      19.723 -32.378  27.277  1.00  0.00    -0.286 N 
ATOM     27  H8  UNL     1      20.499 -33.036  27.200  1.00  0.00     0.188 HD
BRANCH  26  28
HETATM   28  N9  UNL     1      18.368 -32.827  27.544  1.00  0.00    -0.343 N 
ATOM     29  H92 UNL     1      17.813 -32.395  28.282  1.00  0.00     0.176 HD
ATOM     30  H91 UNL     1      18.011 -33.585  26.962  1.00  0.00     0.176 HD
ENDBRANCH  26  28
ENDBRANCH  23  26
ENDBRANCH   9  23
BRANCH   5  31
HETATM   31  N6  UNL     1      15.852 -26.807  28.453  1.00  0.00    -0.344 N 
ATOM     32  H62 UNL     1      14.969 -26.802  28.961  1.00  0.00     0.176 HD
ATOM     33  H61 UNL     1      16.110 -26.051  27.819  1.00  0.00     0.176 HD
ENDBRANCH   5  31
TORSDOF 9
ENDMDL
MODEL 2
REMARK VINA RESULT: -5.987886629      1.262      1.431
REMARK  9 active torsions:
REMARK  status: ('A' for Active; 'I' for Inactive)
REMARK    1  A    between atoms: N1_1  and  C1_5 
REMARK    2  A    between atoms: C1_5  and  C2_6 
REMARK    3  A    between atoms: N3_9  and  C3_10 
REMARK    4  A    between atoms: C4_11  and  N4_12 
REMARK    5  A    between atoms: N5_17  and  N6_19 
REMARK    6  A    between atoms: C7_24  and  C8_25 
REMARK    7  A    between atoms: C8_25  and  O3_26 
REMARK    8  A    between atoms: C8_25  and  N8_28 
REMARK    9  A    between atoms: N8_28  and  N9_30 
ROOT
HETATM    1  C3  UNL     1      18.556 -29.278  25.245  1.00  0.00     0.121 A 
HETATM    2  C4  UNL     1      18.012 -28.042  24.877  1.00  0.00     0.176 A 
HETATM    3  S1  UNL     1      17.376 -27.102  26.135  1.00  0.00    -0.043 SA
HETATM    4  C5  UNL     1      17.509 -27.828  27.647  1.00  0.00     0.116 A 
HETATM    5  N5  UNL     1      17.085 -27.289  28.774  1.00  0.00    -0.299 N 
ATOM      6  H5  UNL     1      17.195 -27.781  29.661  1.00  0.00     0.187 HD
HETATM    7  C6  UNL     1      18.104 -29.059  27.644  1.00  0.00     0.098 A 
HETATM    8  N7  UNL     1      18.202 -29.615  28.986  1.00  0.00    -0.098 NA
HETATM    9  C7  UNL     1      18.606 -29.766  26.535  1.00  0.00     0.075 A 
ENDROOT
BRANCH   1  10
HETATM   10  N3  UNL     1      19.035 -30.060  24.121  1.00  0.00    -0.218 N 
HETATM   11  N2  UNL     1      20.261 -30.347  23.722  1.00  0.00    -0.282 N 
HETATM   12  C2  UNL     1      20.224 -31.162  22.642  1.00  0.00     0.111 A 
ATOM     13  H2  UNL     1      21.113 -30.003  24.164  1.00  0.00     0.188 HD
HETATM   14  S2  UNL     1      18.518 -31.022  22.855  1.00  0.00     0.027 SA
BRANCH  12  15
HETATM   15  C1  UNL     1      21.157 -31.849  21.717  1.00  0.00     0.297 C 
BRANCH  15  16
HETATM   16  N1  UNL     1      21.268 -33.266  22.006  1.00  0.00    -0.073 N 
ATOM     17  H13 UNL     1      21.959 -33.441  22.736  1.00  0.00     0.274 HD
ATOM     18  H12 UNL     1      20.436 -33.611  22.485  1.00  0.00     0.274 HD
ATOM     19  H11 UNL     1      21.467 -33.814  21.169  1.00  0.00     0.274 HD
ENDBRANCH  15  16
ENDBRANCH  12  15
ENDBRANCH   1  10
BRANCH   2  20
HETATM   20  N4  UNL     1      17.967 -27.556  23.542  1.00  0.00    -0.106 N 
HETATM   21  O1  UNL     1      17.071 -27.616  22.719  1.00  0.00    -0.531 OA
HETATM   22  O2  UNL     1      19.122 -26.890  23.052  1.00  0.00    -0.531 OA
ENDBRANCH   2  20
BRANCH   9  23
HETATM   23  C8  UNL     1      19.148 -31.075  26.875  1.00  0.00     0.169 C 
BRANCH  23  24
HETATM   24  O3  UNL     1      18.253 -32.062  26.792  1.00  0.00    -0.344 OA
ATOM     25  H3  UNL     1      17.976 -32.250  25.903  1.00  0.00     0.219 HD
ENDBRANCH  23  24
BRANCH  23  26
HETATM   26  N8  UNL     1      20.367 -31.564  27.273  1.00  0.00    -0.286 N 
ATOM     27  H8  UNL     1      21.082 -31.832  26.596  1.00  0.00     0.188 HD
BRANCH  26  28
HETATM   28  N9  UNL     1      20.593 -31.679  28.703  1.00  0.00    -0.343 N 
ATOM     29  H92 UNL     1      20.422 -30.887  29.322  1.00  0.00     0.176 HD
ATOM     30  H91 UNL     1      20.925 -32.581  29.046  1.00  0.00     0.176 HD
ENDBRANCH  26  28
ENDBRANCH  23  26
ENDBRANCH   9  23
BRANCH   5  31
HETATM   31  N6  UNL     1      16.481 -26.029  28.728  1.00  0.00    -0.344 N 
ATOM     32  H62 UNL     1      15.964 -25.686  29.537  1.00  0.00     0.176 HD
ATOM     33  H61 UNL     1      16.573 -25.474  27.878  1.00  0.00     0.176 HD
ENDBRANCH   5  31
TORSDOF 9
ENDMDL
MODEL 3
REMARK VINA RESULT: -5.916792452      3.781      5.680
REMARK  9 active torsions:
REMARK  status: ('A' for Active; 'I' for Inactive)
REMARK    1  A    between atoms: N1_1  and  C1_5 
REMARK    2  A    between atoms: C1_5  and  C2_6 
REMARK    3  A    between atoms: N3_9  and  C3_10 
REMARK    4  A    between atoms: C4_11  and  N4_12 
REMARK    5  A    between atoms: N5_17  and  N6_19 
REMARK    6  A    between atoms: C7_24  and  C8_25 
REMARK    7  A    between atoms: C8_25  and  O3_26 
REMARK    8  A    between atoms: C8_25  and  N8_28 
REMARK    9  A    between atoms: N8_28  and  N9_30 
ROOT
HETATM    1  C3  UNL     1      17.625 -26.536  26.643  1.00  0.00     0.121 A 
HETATM    2  C4  UNL     1      16.907 -27.078  27.715  1.00  0.00     0.176 A 
HETATM    3  S1  UNL     1      15.488 -26.261  28.153  1.00  0.00    -0.043 SA
HETATM    4  C5  UNL     1      15.174 -24.907  27.204  1.00  0.00     0.116 A 
HETATM    5  N5  UNL     1      14.131 -24.115  27.356  1.00  0.00    -0.299 N 
ATOM      6  H5  UNL     1      13.997 -23.308  26.746  1.00  0.00     0.187 HD
HETATM    7  C6  UNL     1      16.100 -24.663  26.226  1.00  0.00     0.098 A 
HETATM    8  N7  UNL     1      15.753 -23.491  25.435  1.00  0.00    -0.098 NA
HETATM    9  C7  UNL     1      17.259 -25.407  25.937  1.00  0.00     0.075 A 
ENDROOT
BRANCH   1  10
HETATM   10  N3  UNL     1      18.857 -27.245  26.350  1.00  0.00    -0.218 N 
HETATM   11  N2  UNL     1      20.083 -27.084  26.812  1.00  0.00    -0.282 N 
HETATM   12  C2  UNL     1      20.908 -28.020  26.289  1.00  0.00     0.111 A 
ATOM     13  H2  UNL     1      20.368 -26.357  27.468  1.00  0.00     0.188 HD
HETATM   14  S2  UNL     1      19.472 -28.538  25.486  1.00  0.00     0.027 SA
BRANCH  12  15
HETATM   15  C1  UNL     1      22.333 -28.428  26.351  1.00  0.00     0.297 C 
BRANCH  15  16
HETATM   16  N1  UNL     1      22.568 -29.432  27.370  1.00  0.00    -0.073 N 
ATOM     17  H13 UNL     1      21.931 -29.316  28.158  1.00  0.00     0.274 HD
ATOM     18  H12 UNL     1      22.269 -30.355  27.055  1.00  0.00     0.274 HD
ATOM     19  H11 UNL     1      23.540 -29.444  27.679  1.00  0.00     0.274 HD
ENDBRANCH  15  16
ENDBRANCH  12  15
ENDBRANCH   1  10
BRANCH   2  20
HETATM   20  N4  UNL     1      17.301 -28.240  28.432  1.00  0.00    -0.106 N 
HETATM   21  O1  UNL     1      18.276 -28.431  29.136  1.00  0.00    -0.531 OA
HETATM   22  O2  UNL     1      16.454 -29.378  28.345  1.00  0.00    -0.531 OA
ENDBRANCH   2  20
BRANCH   9  23
HETATM   23  C8  UNL     1      18.052 -24.851  24.849  1.00  0.00     0.169 C 
BRANCH  23  24
HETATM   24  O3  UNL     1      19.238 -24.379  25.240  1.00  0.00    -0.344 OA
ATOM     25  H3  UNL     1      19.470 -24.624  26.127  1.00  0.00     0.219 HD
ENDBRANCH  23  24
BRANCH  23  26
HETATM   26  N8  UNL     1      17.887 -24.680  23.498  1.00  0.00    -0.286 N 
ATOM     27  H8  UNL     1      18.524 -24.099  22.951  1.00  0.00     0.188 HD
BRANCH  26  28
HETATM   28  N9  UNL     1      16.764 -25.364  22.882  1.00  0.00    -0.343 N 
ATOM     29  H92 UNL     1      16.779 -26.375  22.751  1.00  0.00     0.176 HD
ATOM     30  H91 UNL     1      15.974 -24.786  22.594  1.00  0.00     0.176 HD
ENDBRANCH  26  28
ENDBRANCH  23  26
ENDBRANCH   9  23
BRANCH   5  31
HETATM   31  N6  UNL     1      13.212 -24.403  28.369  1.00  0.00    -0.344 N 
ATOM     32  H62 UNL     1      13.547 -24.640  29.303  1.00  0.00     0.176 HD
ATOM     33  H61 UNL     1      12.217 -24.371  28.149  1.00  0.00     0.176 HD
ENDBRANCH   5  31
TORSDOF 9
ENDMDL
MODEL 4
REMARK VINA RESULT: -5.906792553      2.637      4.824
REMARK  9 active torsions:
REMARK  status: ('A' for Active; 'I' for Inactive)
REMARK    1  A    between atoms: N1_1  and  C1_5 
REMARK    2  A    between atoms: C1_5  and  C2_6 
REMARK    3  A    between atoms: N3_9  and  C3_10 
REMARK    4  A    between atoms: C4_11  and  N4_12 
REMARK    5  A    between atoms: N5_17  and  N6_19 
REMARK    6  A    between atoms: C7_24  and  C8_25 
REMARK    7  A    between atoms: C8_25  and  O3_26 
REMARK    8  A    between atoms: C8_25  and  N8_28 
REMARK    9  A    between atoms: N8_28  and  N9_30 
ROOT
HETATM    1  C3  UNL     1      18.034 -28.824  25.761  1.00  0.00     0.121 A 
HETATM    2  C4  UNL     1      18.550 -28.922  24.464  1.00  0.00     0.176 A 
HETATM    3  S1  UNL     1      18.176 -27.645  23.413  1.00  0.00    -0.043 SA
HETATM    4  C5  UNL     1      17.228 -26.449  24.122  1.00  0.00     0.116 A 
HETATM    5  N5  UNL     1      16.812 -25.362  23.503  1.00  0.00    -0.299 N 
ATOM      6  H5  UNL     1      16.238 -24.673  23.990  1.00  0.00     0.187 HD
HETATM    7  C6  UNL     1      16.899 -26.677  25.431  1.00  0.00     0.098 A 
HETATM    8  N7  UNL     1      16.098 -25.593  25.982  1.00  0.00    -0.098 NA
HETATM    9  C7  UNL     1      17.261 -27.779  26.227  1.00  0.00     0.075 A 
ENDROOT
BRANCH   1  10
HETATM   10  N3  UNL     1      18.341 -29.969  26.597  1.00  0.00    -0.218 N 
HETATM   11  N2  UNL     1      19.364 -30.213  27.395  1.00  0.00    -0.282 N 
HETATM   12  C2  UNL     1      19.198 -31.401  28.022  1.00  0.00     0.111 A 
ATOM     13  H2  UNL     1      20.166 -29.594  27.521  1.00  0.00     0.188 HD
HETATM   14  S2  UNL     1      17.731 -31.437  27.115  1.00  0.00     0.027 SA
BRANCH  12  15
HETATM   15  C1  UNL     1      19.901 -32.267  29.000  1.00  0.00     0.297 C 
BRANCH  15  16
HETATM   16  N1  UNL     1      21.225 -31.769  29.317  1.00  0.00    -0.073 N 
ATOM     17  H13 UNL     1      21.553 -31.114  28.607  1.00  0.00     0.274 HD
ATOM     18  H12 UNL     1      21.200 -31.138  30.118  1.00  0.00     0.274 HD
ATOM     19  H11 UNL     1      21.895 -32.524  29.460  1.00  0.00     0.274 HD
ENDBRANCH  15  16
ENDBRANCH  12  15
ENDBRANCH   1  10
BRANCH   2  20
HETATM   20  N4  UNL     1      19.343 -30.007  24.000  1.00  0.00    -0.106 N 
HETATM   21  O1  UNL     1      19.037 -30.952  23.296  1.00  0.00    -0.531 OA
HETATM   22  O2  UNL     1      20.708 -30.030  24.393  1.00  0.00    -0.531 OA
ENDBRANCH   2  20
BRANCH   9  23
HETATM   23  C8  UNL     1      16.711 -27.730  27.576  1.00  0.00     0.169 C 
BRANCH  23  24
HETATM   24  O3  UNL     1      15.572 -28.412  27.713  1.00  0.00    -0.344 OA
ATOM     25  H3  UNL     1      15.321 -28.553  28.618  1.00  0.00     0.219 HD
ENDBRANCH  23  24
BRANCH  23  26
HETATM   26  N8  UNL     1      17.068 -27.144  28.764  1.00  0.00    -0.286 N 
ATOM     27  H8  UNL     1      16.530 -26.375  29.163  1.00  0.00     0.188 HD
BRANCH  26  28
HETATM   28  N9  UNL     1      18.248 -27.671  29.427  1.00  0.00    -0.343 N 
ATOM     29  H92 UNL     1      19.138 -27.734  28.933  1.00  0.00     0.176 HD
ATOM     30  H91 UNL     1      18.137 -27.969  30.396  1.00  0.00     0.176 HD
ENDBRANCH  26  28
ENDBRANCH  23  26
ENDBRANCH   9  23
BRANCH   5  31
HETATM   31  N6  UNL     1      17.172 -25.173  22.166  1.00  0.00    -0.344 N 
ATOM     32  H62 UNL     1      16.495 -24.787  21.509  1.00  0.00     0.176 HD
ATOM     33  H61 UNL     1      18.116 -25.428  21.874  1.00  0.00     0.176 HD
ENDBRANCH   5  31
TORSDOF 9
ENDMDL
MODEL 5
REMARK VINA RESULT: -5.808254197      1.189      1.296
REMARK  9 active torsions:
REMARK  status: ('A' for Active; 'I' for Inactive)
REMARK    1  A    between atoms: N1_1  and  C1_5 
REMARK    2  A    between atoms: C1_5  and  C2_6 
REMARK    3  A    between atoms: N3_9  and  C3_10 
REMARK    4  A    between atoms: C4_11  and  N4_12 
REMARK    5  A    between atoms: N5_17  and  N6_19 
REMARK    6  A    between atoms: C7_24  and  C8_25 
REMARK    7  A    between atoms: C8_25  and  O3_26 
REMARK    8  A    between atoms: C8_25  and  N8_28 
REMARK    9  A    between atoms: N8_28  and  N9_30 
ROOT
HETATM    1  C3  UNL     1      18.155 -28.804  25.361  1.00  0.00     0.121 A 
HETATM    2  C4  UNL     1      17.607 -27.578  24.967  1.00  0.00     0.176 A 
HETATM    3  S1  UNL     1      16.699 -26.756  26.138  1.00  0.00    -0.043 SA
HETATM    4  C5  UNL     1      16.608 -27.569  27.609  1.00  0.00     0.116 A 
HETATM    5  N5  UNL     1      15.957 -27.126  28.668  1.00  0.00    -0.299 N 
ATOM      6  H5  UNL     1      15.941 -27.668  29.532  1.00  0.00     0.187 HD
HETATM    7  C6  UNL     1      17.273 -28.764  27.648  1.00  0.00     0.098 A 
HETATM    8  N7  UNL     1      17.167 -29.399  28.953  1.00  0.00    -0.098 NA
HETATM    9  C7  UNL     1      18.007 -29.371  26.611  1.00  0.00     0.075 A 
ENDROOT
BRANCH   1  10
HETATM   10  N3  UNL     1      18.875 -29.486  24.302  1.00  0.00    -0.218 N 
HETATM   11  N2  UNL     1      18.448 -30.251  23.314  1.00  0.00    -0.282 N 
HETATM   12  C2  UNL     1      19.484 -30.628  22.530  1.00  0.00     0.111 A 
ATOM     13  H2  UNL     1      17.475 -30.519  23.163  1.00  0.00     0.188 HD
HETATM   14  S2  UNL     1      20.401 -29.689  23.649  1.00  0.00     0.027 SA
BRANCH  12  15
HETATM   15  C1  UNL     1      19.742 -31.438  21.315  1.00  0.00     0.297 C 
BRANCH  15  16
HETATM   16  N1  UNL     1      20.462 -32.660  21.617  1.00  0.00    -0.073 N 
ATOM     17  H13 UNL     1      21.339 -32.710  21.099  1.00  0.00     0.274 HD
ATOM     18  H12 UNL     1      20.835 -32.644  22.566  1.00  0.00     0.274 HD
ATOM     19  H11 UNL     1      19.891 -33.490  21.458  1.00  0.00     0.274 HD
ENDBRANCH  15  16
ENDBRANCH  12  15
ENDBRANCH   1  10
BRANCH   2  20
HETATM   20  N4  UNL     1      17.768 -27.011  23.674  1.00  0.00    -0.106 N 
HETATM   21  O1  UNL     1      18.554 -26.167  23.284  1.00  0.00    -0.531 OA
HETATM   22  O2  UNL     1      16.900 -27.473  22.648  1.00  0.00    -0.531 OA
ENDBRANCH   2  20
BRANCH   9  23
HETATM   23  C8  UNL     1      18.564 -30.668  26.973  1.00  0.00     0.169 C 
BRANCH  23  24
HETATM   24  O3  UNL     1      19.784 -30.595  27.509  1.00  0.00    -0.344 OA
ATOM     25  H3  UNL     1      19.873 -29.907  28.158  1.00  0.00     0.219 HD
ENDBRANCH  23  24
BRANCH  23  26
HETATM   26  N8  UNL     1      18.148 -31.973  26.898  1.00  0.00    -0.286 N 
ATOM     27  H8  UNL     1      18.747 -32.743  27.198  1.00  0.00     0.188 HD
BRANCH  26  28
HETATM   28  N9  UNL     1      16.814 -32.209  26.373  1.00  0.00    -0.343 N 
ATOM     29  H92 UNL     1      16.195 -32.889  26.812  1.00  0.00     0.176 HD
ATOM     30  H91 UNL     1      16.539 -31.664  25.556  1.00  0.00     0.176 HD
ENDBRANCH  26  28
ENDBRANCH  23  26
ENDBRANCH   9  23
BRANCH   5  31
HETATM   31  N6  UNL     1      15.292 -25.901  28.581  1.00  0.00    -0.344 N 
ATOM     32  H62 UNL     1      15.802 -25.068  28.286  1.00  0.00     0.176 HD
ATOM     33  H61 UNL     1      14.301 -25.865  28.818  1.00  0.00     0.176 HD
ENDBRANCH   5  31
TORSDOF 9
ENDMDL
