MODEL 1
REMARK VINA RESULT: -9.004411322      0.000      0.000
REMARK  8 active torsions:
REMARK  status: ('A' for Active; 'I' for Inactive)
REMARK    1  A    between atoms: O1_2  and  C2_3 
REMARK    2  A    between atoms: C4_5  and  O2_6 
REMARK    3  A    between atoms: C6_8  and  C7_9 
REMARK    4  A    between atoms: C7_9  and  N1_10 
REMARK       I    between atoms: N1_10  and  C8_12 
REMARK    5  A    between atoms: C8_12  and  C9_14 
REMARK    6  A    between atoms: C10_17  and  C11_18 
REMARK    7  A    between atoms: C11_18  and  C12_20 
REMARK    8  A    between atoms: C13_21  and  C14_22 
ROOT
HETATM    1  C2  UNL     1     -39.493  22.288  -4.321  1.00  0.00     0.093 A 
HETATM    2  C3  UNL     1     -40.022  23.395  -4.929  1.00  0.00     0.076 A 
HETATM    3  C4  UNL     1     -40.509  23.311  -6.217  1.00  0.00     0.079 A 
HETATM    4  C6  UNL     1     -40.486  22.140  -6.934  1.00  0.00     0.009 A 
HETATM    5  C10 UNL     1     -39.947  21.025  -6.304  1.00  0.00     0.049 A 
HETATM    6  C19 UNL     1     -39.454  21.111  -5.000  1.00  0.00     0.082 A 
HETATM    7 CL4  UNL     1     -38.775  19.686  -4.216  1.00  0.00    -0.080 Cl
ENDROOT
BRANCH   5   8
HETATM    8  C11 UNL     1     -39.890  19.752  -6.946  1.00  0.00     0.184 C 
HETATM    9  O4  UNL     1     -40.691  18.857  -6.568  1.00  0.00    -0.287 OA
BRANCH   8  10
HETATM   10  C12 UNL     1     -38.946  19.460  -8.005  1.00  0.00     0.057 C 
HETATM   11  C13 UNL     1     -37.809  18.846  -7.833  1.00  0.00     0.023 C 
BRANCH  11  12
HETATM   12  C14 UNL     1     -36.918  18.595  -8.958  1.00  0.00     0.007 A 
HETATM   13  C15 UNL     1     -37.206  18.552 -10.297  1.00  0.00     0.027 A 
HETATM   14  C16 UNL     1     -36.198  18.298 -11.142  1.00  0.00    -0.032 A 
HETATM   15  C17 UNL     1     -36.382  18.225 -12.655  1.00  0.00     0.050 C 
HETATM   16  C18 UNL     1     -34.956  18.099 -10.598  1.00  0.00     0.081 A 
HETATM   17 CL3  UNL     1     -33.446  17.748 -11.465  1.00  0.00    -0.076 Cl
HETATM   18  S1  UNL     1     -35.232  18.273  -8.928  1.00  0.00    -0.078 SA
ENDBRANCH  11  12
ENDBRANCH   8  10
ENDBRANCH   5   8
BRANCH   4  19
HETATM   19  C7  UNL     1     -41.066  22.006  -8.280  1.00  0.00     0.165 C 
BRANCH  19  20
HETATM   20  N1  UNL     1     -42.379  21.483  -8.374  1.00  0.00    -0.354 N 
HETATM   21  C8  UNL     1     -43.154  21.197  -9.513  1.00  0.00     0.251 C 
HETATM   22  O3  UNL     1     -42.681  21.422 -10.647  1.00  0.00    -0.271 OA
ATOM     23  H1  UNL     1     -42.831  21.285  -7.481  1.00  0.00     0.162 HD
BRANCH  21  24
HETATM   24  C9  UNL     1     -44.530  20.632  -9.432  1.00  0.00     0.269 C 
HETATM   25 CL1  UNL     1     -45.384  20.801 -10.984  1.00  0.00    -0.098 Cl
HETATM   26 CL2  UNL     1     -44.427  18.954  -8.927  1.00  0.00    -0.098 Cl
ENDBRANCH  21  24
ENDBRANCH  19  20
ENDBRANCH   4  19
BRANCH   3  27
HETATM   27  O2  UNL     1     -41.037  24.442  -6.805  1.00  0.00    -0.355 OA
HETATM   28  C5  UNL     1     -42.243  25.045  -6.378  1.00  0.00     0.210 C 
ENDBRANCH   3  27
BRANCH   1  29
HETATM   29  O1  UNL     1     -38.986  22.320  -3.016  1.00  0.00    -0.354 OA
HETATM   30  C1  UNL     1     -38.471  23.492  -2.436  1.00  0.00     0.210 C 
ENDBRANCH   1  29
TORSDOF 8
ENDMDL
MODEL 2
REMARK VINA RESULT: -8.866342917      2.685      3.152
REMARK  8 active torsions:
REMARK  status: ('A' for Active; 'I' for Inactive)
REMARK    1  A    between atoms: O1_2  and  C2_3 
REMARK    2  A    between atoms: C4_5  and  O2_6 
REMARK    3  A    between atoms: C6_8  and  C7_9 
REMARK    4  A    between atoms: C7_9  and  N1_10 
REMARK       I    between atoms: N1_10  and  C8_12 
REMARK    5  A    between atoms: C8_12  and  C9_14 
REMARK    6  A    between atoms: C10_17  and  C11_18 
REMARK    7  A    between atoms: C11_18  and  C12_20 
REMARK    8  A    between atoms: C13_21  and  C14_22 
ROOT
HETATM    1  C2  UNL     1     -41.595  24.063  -5.266  1.00  0.00     0.093 A 
HETATM    2  C3  UNL     1     -42.920  23.724  -5.336  1.00  0.00     0.076 A 
HETATM    3  C4  UNL     1     -43.290  22.461  -5.749  1.00  0.00     0.079 A 
HETATM    4  C6  UNL     1     -42.368  21.506  -6.101  1.00  0.00     0.009 A 
HETATM    5  C10 UNL     1     -41.028  21.863  -6.024  1.00  0.00     0.049 A 
HETATM    6  C19 UNL     1     -40.654  23.142  -5.607  1.00  0.00     0.082 A 
HETATM    7 CL4  UNL     1     -38.949  23.579  -5.515  1.00  0.00    -0.080 Cl
ENDROOT
BRANCH   5   8
HETATM    8  C11 UNL     1     -39.984  20.945  -6.348  1.00  0.00     0.184 C 
HETATM    9  O4  UNL     1     -39.405  20.345  -5.405  1.00  0.00    -0.287 OA
BRANCH   8  10
HETATM   10  C12 UNL     1     -39.572  20.690  -7.712  1.00  0.00     0.057 C 
HETATM   11  C13 UNL     1     -39.026  21.577  -8.497  1.00  0.00     0.023 C 
BRANCH  11  12
HETATM   12  C14 UNL     1     -38.642  21.233  -9.860  1.00  0.00     0.007 A 
HETATM   13  C15 UNL     1     -38.692  22.002 -10.993  1.00  0.00     0.027 A 
HETATM   14  C16 UNL     1     -38.278  21.447 -12.140  1.00  0.00    -0.032 A 
HETATM   15  C17 UNL     1     -38.279  22.194 -13.471  1.00  0.00     0.050 C 
HETATM   16  C18 UNL     1     -37.838  20.150 -12.089  1.00  0.00     0.081 A 
HETATM   17 CL3  UNL     1     -37.234  19.166 -13.438  1.00  0.00    -0.076 Cl
HETATM   18  S1  UNL     1     -38.014  19.746 -10.446  1.00  0.00    -0.078 SA
ENDBRANCH  11  12
ENDBRANCH   8  10
ENDBRANCH   5   8
BRANCH   4  19
HETATM   19  C7  UNL     1     -42.734  20.129  -6.473  1.00  0.00     0.165 C 
BRANCH  19  20
HETATM   20  N1  UNL     1     -43.692  19.967  -7.504  1.00  0.00    -0.354 N 
HETATM   21  C8  UNL     1     -43.665  20.421  -8.836  1.00  0.00     0.251 C 
HETATM   22  O3  UNL     1     -42.684  21.082  -9.237  1.00  0.00    -0.271 OA
ATOM     23  H1  UNL     1     -44.526  19.443  -7.242  1.00  0.00     0.162 HD
BRANCH  21  24
HETATM   24  C9  UNL     1     -44.765  20.149  -9.804  1.00  0.00     0.269 C 
HETATM   25 CL1  UNL     1     -44.554  21.098 -11.295  1.00  0.00    -0.098 Cl
HETATM   26 CL2  UNL     1     -44.819  18.427 -10.133  1.00  0.00    -0.098 Cl
ENDBRANCH  21  24
ENDBRANCH  19  20
ENDBRANCH   4  19
BRANCH   3  27
HETATM   27  O2  UNL     1     -44.631  22.146  -5.809  1.00  0.00    -0.355 OA
HETATM   28  C5  UNL     1     -45.448  22.010  -4.662  1.00  0.00     0.210 C 
ENDBRANCH   3  27
BRANCH   1  29
HETATM   29  O1  UNL     1     -41.167  25.330  -4.854  1.00  0.00    -0.354 OA
HETATM   30  C1  UNL     1     -41.236  26.458  -5.689  1.00  0.00     0.210 C 
ENDBRANCH   1  29
TORSDOF 8
ENDMDL
MODEL 3
REMARK VINA RESULT: -8.850084119      3.556      6.501
REMARK  8 active torsions:
REMARK  status: ('A' for Active; 'I' for Inactive)
REMARK    1  A    between atoms: O1_2  and  C2_3 
REMARK    2  A    between atoms: C4_5  and  O2_6 
REMARK    3  A    between atoms: C6_8  and  C7_9 
REMARK    4  A    between atoms: C7_9  and  N1_10 
REMARK       I    between atoms: N1_10  and  C8_12 
REMARK    5  A    between atoms: C8_12  and  C9_14 
REMARK    6  A    between atoms: C10_17  and  C11_18 
REMARK    7  A    between atoms: C11_18  and  C12_20 
REMARK    8  A    between atoms: C13_21  and  C14_22 
ROOT
HETATM    1  C2  UNL     1     -43.042  23.659  -5.517  1.00  0.00     0.093 A 
HETATM    2  C3  UNL     1     -41.675  23.575  -5.547  1.00  0.00     0.076 A 
HETATM    3  C4  UNL     1     -41.060  22.354  -5.730  1.00  0.00     0.079 A 
HETATM    4  C6  UNL     1     -41.773  21.190  -5.885  1.00  0.00     0.009 A 
HETATM    5  C10 UNL     1     -43.158  21.290  -5.854  1.00  0.00     0.049 A 
HETATM    6  C19 UNL     1     -43.780  22.526  -5.669  1.00  0.00     0.082 A 
HETATM    7 CL4  UNL     1     -45.539  22.634  -5.632  1.00  0.00    -0.080 Cl
ENDROOT
BRANCH   5   8
HETATM    8  C11 UNL     1     -43.999  20.150  -6.025  1.00  0.00     0.184 C 
HETATM    9  O4  UNL     1     -44.496  19.617  -4.998  1.00  0.00    -0.287 OA
BRANCH   8  10
HETATM   10  C12 UNL     1     -44.289  19.590  -7.328  1.00  0.00     0.057 C 
HETATM   11  C13 UNL     1     -44.299  20.271  -8.440  1.00  0.00     0.023 C 
BRANCH  11  12
HETATM   12  C14 UNL     1     -44.604  19.625  -9.710  1.00  0.00     0.007 A 
HETATM   13  C15 UNL     1     -44.649  18.289 -10.011  1.00  0.00     0.027 A 
HETATM   14  C16 UNL     1     -44.957  17.946 -11.269  1.00  0.00    -0.032 A 
HETATM   15  C17 UNL     1     -45.043  16.496 -11.736  1.00  0.00     0.050 C 
HETATM   16  C18 UNL     1     -45.201  18.962 -12.157  1.00  0.00     0.081 A 
HETATM   17 CL3  UNL     1     -45.630  18.810 -13.874  1.00  0.00    -0.076 Cl
HETATM   18  S1  UNL     1     -44.996  20.361 -11.211  1.00  0.00    -0.078 SA
ENDBRANCH  11  12
ENDBRANCH   8  10
ENDBRANCH   5   8
BRANCH   4  19
HETATM   19  C7  UNL     1     -41.142  19.888  -6.155  1.00  0.00     0.165 C 
BRANCH  19  20
HETATM   20  N1  UNL     1     -39.935  19.891  -6.897  1.00  0.00    -0.354 N 
HETATM   21  C8  UNL     1     -38.793  19.080  -6.758  1.00  0.00     0.251 C 
HETATM   22  O3  UNL     1     -38.764  18.212  -5.861  1.00  0.00    -0.271 OA
ATOM     23  H1  UNL     1     -39.886  20.585  -7.642  1.00  0.00     0.162 HD
BRANCH  21  24
HETATM   24  C9  UNL     1     -37.599  19.209  -7.641  1.00  0.00     0.269 C 
HETATM   25 CL1  UNL     1     -37.875  18.418  -9.211  1.00  0.00    -0.098 Cl
HETATM   26 CL2  UNL     1     -37.213  20.911  -7.830  1.00  0.00    -0.098 Cl
ENDBRANCH  21  24
ENDBRANCH  19  20
ENDBRANCH   4  19
BRANCH   3  27
HETATM   27  O2  UNL     1     -39.682  22.300  -5.757  1.00  0.00    -0.355 OA
HETATM   28  C5  UNL     1     -38.864  23.445  -5.901  1.00  0.00     0.210 C 
ENDBRANCH   3  27
BRANCH   1  29
HETATM   29  O1  UNL     1     -43.715  24.872  -5.335  1.00  0.00    -0.354 OA
HETATM   30  C1  UNL     1     -43.476  25.709  -4.231  1.00  0.00     0.210 C 
ENDBRANCH   1  29
TORSDOF 8
ENDMDL
MODEL 4
REMARK VINA RESULT: -8.802750614      3.605      6.321
REMARK  8 active torsions:
REMARK  status: ('A' for Active; 'I' for Inactive)
REMARK    1  A    between atoms: O1_2  and  C2_3 
REMARK    2  A    between atoms: C4_5  and  O2_6 
REMARK    3  A    between atoms: C6_8  and  C7_9 
REMARK    4  A    between atoms: C7_9  and  N1_10 
REMARK       I    between atoms: N1_10  and  C8_12 
REMARK    5  A    between atoms: C8_12  and  C9_14 
REMARK    6  A    between atoms: C10_17  and  C11_18 
REMARK    7  A    between atoms: C11_18  and  C12_20 
REMARK    8  A    between atoms: C13_21  and  C14_22 
ROOT
HETATM    1  C2  UNL     1     -43.492  24.065  -5.502  1.00  0.00     0.093 A 
HETATM    2  C3  UNL     1     -42.155  24.284  -5.702  1.00  0.00     0.076 A 
HETATM    3  C4  UNL     1     -41.318  23.229  -6.000  1.00  0.00     0.079 A 
HETATM    4  C6  UNL     1     -41.775  21.938  -6.107  1.00  0.00     0.009 A 
HETATM    5  C10 UNL     1     -43.133  21.731  -5.903  1.00  0.00     0.049 A 
HETATM    6  C19 UNL     1     -43.981  22.799  -5.601  1.00  0.00     0.082 A 
HETATM    7 CL4  UNL     1     -45.702  22.518  -5.345  1.00  0.00    -0.080 Cl
ENDROOT
BRANCH   5   8
HETATM    8  C11 UNL     1     -43.721  20.435  -6.008  1.00  0.00     0.184 C 
HETATM    9  O4  UNL     1     -43.952  19.797  -4.947  1.00  0.00    -0.287 OA
BRANCH   8  10
HETATM   10  C12 UNL     1     -44.052  19.835  -7.284  1.00  0.00     0.057 C 
HETATM   11  C13 UNL     1     -44.279  20.506  -8.379  1.00  0.00     0.023 C 
BRANCH  11  12
HETATM   12  C14 UNL     1     -44.607  19.819  -9.621  1.00  0.00     0.007 A 
HETATM   13  C15 UNL     1     -44.590  18.477  -9.898  1.00  0.00     0.027 A 
HETATM   14  C16 UNL     1     -44.937  18.093 -11.134  1.00  0.00    -0.032 A 
HETATM   15  C17 UNL     1     -44.962  16.631 -11.572  1.00  0.00     0.050 C 
HETATM   16  C18 UNL     1     -45.281  19.076 -12.025  1.00  0.00     0.081 A 
HETATM   17 CL3  UNL     1     -45.781  18.866 -13.716  1.00  0.00    -0.076 Cl
HETATM   18  S1  UNL     1     -45.111  20.502 -11.114  1.00  0.00    -0.078 SA
ENDBRANCH  11  12
ENDBRANCH   8  10
ENDBRANCH   5   8
BRANCH   4  19
HETATM   19  C7  UNL     1     -40.917  20.807  -6.496  1.00  0.00     0.165 C 
BRANCH  19  20
HETATM   20  N1  UNL     1     -40.300  20.868  -7.771  1.00  0.00    -0.354 N 
HETATM   21  C8  UNL     1     -38.934  20.855  -8.109  1.00  0.00     0.251 C 
HETATM   22  O3  UNL     1     -38.079  20.792  -7.202  1.00  0.00    -0.271 OA
ATOM     23  H1  UNL     1     -40.942  20.930  -8.560  1.00  0.00     0.162 HD
BRANCH  21  24
HETATM   24  C9  UNL     1     -38.451  20.914  -9.518  1.00  0.00     0.269 C 
HETATM   25 CL1  UNL     1     -37.821  19.336 -10.045  1.00  0.00    -0.098 Cl
HETATM   26 CL2  UNL     1     -39.762  21.466 -10.546  1.00  0.00    -0.098 Cl
ENDBRANCH  21  24
ENDBRANCH  19  20
ENDBRANCH   4  19
BRANCH   3  27
HETATM   27  O2  UNL     1     -39.976  23.479  -6.198  1.00  0.00    -0.355 OA
HETATM   28  C5  UNL     1     -39.084  23.796  -5.146  1.00  0.00     0.210 C 
ENDBRANCH   3  27
BRANCH   1  29
HETATM   29  O1  UNL     1     -44.384  25.100  -5.197  1.00  0.00    -0.354 OA
HETATM   30  C1  UNL     1     -43.979  26.277  -4.546  1.00  0.00     0.210 C 
ENDBRANCH   1  29
TORSDOF 8
ENDMDL
MODEL 5
REMARK VINA RESULT: -8.700894992      2.380      3.195
REMARK  8 active torsions:
REMARK  status: ('A' for Active; 'I' for Inactive)
REMARK    1  A    between atoms: O1_2  and  C2_3 
REMARK    2  A    between atoms: C4_5  and  O2_6 
REMARK    3  A    between atoms: C6_8  and  C7_9 
REMARK    4  A    between atoms: C7_9  and  N1_10 
REMARK       I    between atoms: N1_10  and  C8_12 
REMARK    5  A    between atoms: C8_12  and  C9_14 
REMARK    6  A    between atoms: C10_17  and  C11_18 
REMARK    7  A    between atoms: C11_18  and  C12_20 
REMARK    8  A    between atoms: C13_21  and  C14_22 
ROOT
HETATM    1  C2  UNL     1     -38.406  23.547  -6.495  1.00  0.00     0.093 A 
HETATM    2  C3  UNL     1     -38.975  23.013  -5.369  1.00  0.00     0.076 A 
HETATM    3  C4  UNL     1     -39.471  21.726  -5.389  1.00  0.00     0.079 A 
HETATM    4  C6  UNL     1     -39.420  20.938  -6.513  1.00  0.00     0.009 A 
HETATM    5  C10 UNL     1     -38.840  21.492  -7.646  1.00  0.00     0.049 A 
HETATM    6  C19 UNL     1     -38.338  22.795  -7.626  1.00  0.00     0.082 A 
HETATM    7 CL4  UNL     1     -37.606  23.483  -9.074  1.00  0.00    -0.080 Cl
ENDROOT
BRANCH   5   8
HETATM    8  C11 UNL     1     -38.716  20.758  -8.864  1.00  0.00     0.184 C 
HETATM    9  O4  UNL     1     -39.615  20.893  -9.735  1.00  0.00    -0.287 OA
BRANCH   8  10
HETATM   10  C12 UNL     1     -37.603  19.869  -9.123  1.00  0.00     0.057 C 
HETATM   11  C13 UNL     1     -37.397  19.252 -10.253  1.00  0.00     0.023 C 
BRANCH  11  12
HETATM   12  C14 UNL     1     -36.249  18.373 -10.425  1.00  0.00     0.007 A 
HETATM   13  C15 UNL     1     -35.704  17.879 -11.582  1.00  0.00     0.027 A 
HETATM   14  C16 UNL     1     -34.635  17.078 -11.472  1.00  0.00    -0.032 A 
HETATM   15  C17 UNL     1     -33.932  16.464 -12.680  1.00  0.00     0.050 C 
HETATM   16  C18 UNL     1     -34.172  16.814 -10.210  1.00  0.00     0.081 A 
HETATM   17 CL3  UNL     1     -32.786  15.798  -9.763  1.00  0.00    -0.076 Cl
HETATM   18  S1  UNL     1     -35.239  17.691  -9.216  1.00  0.00    -0.078 SA
ENDBRANCH  11  12
ENDBRANCH   8  10
ENDBRANCH   5   8
BRANCH   4  19
HETATM   19  C7  UNL     1     -39.875  19.538  -6.538  1.00  0.00     0.165 C 
BRANCH  19  20
HETATM   20  N1  UNL     1     -41.264  19.302  -6.383  1.00  0.00    -0.354 N 
HETATM   21  C8  UNL     1     -42.356  19.913  -7.026  1.00  0.00     0.251 C 
HETATM   22  O3  UNL     1     -42.147  20.813  -7.866  1.00  0.00    -0.271 OA
ATOM     23  H1  UNL     1     -41.508  18.583  -5.703  1.00  0.00     0.162 HD
BRANCH  21  24
HETATM   24  C9  UNL     1     -43.771  19.533  -6.752  1.00  0.00     0.269 C 
HETATM   25 CL1  UNL     1     -44.705  20.927  -6.163  1.00  0.00    -0.098 Cl
HETATM   26 CL2  UNL     1     -44.470  18.851  -8.209  1.00  0.00    -0.098 Cl
ENDBRANCH  21  24
ENDBRANCH  19  20
ENDBRANCH   4  19
BRANCH   3  27
HETATM   27  O2  UNL     1     -40.037  21.213  -4.241  1.00  0.00    -0.355 OA
HETATM   28  C5  UNL     1     -39.364  21.170  -2.997  1.00  0.00     0.210 C 
ENDBRANCH   3  27
BRANCH   1  29
HETATM   29  O1  UNL     1     -37.889  24.847  -6.528  1.00  0.00    -0.354 OA
HETATM   30  C1  UNL     1     -38.704  25.987  -6.423  1.00  0.00     0.210 C 
ENDBRANCH   1  29
TORSDOF 8
ENDMDL
