MODEL 1
REMARK VINA RESULT: -6.850850678      0.000      0.000
REMARK  6 active torsions:
REMARK  status: ('A' for Active; 'I' for Inactive)
REMARK    1  A    between atoms: C1_2  and  O2_3 
REMARK    2  A    between atoms: C1_2  and  C9_17 
REMARK    3  A    between atoms: O2_3  and  C2_4 
REMARK    4  A    between atoms: C2_4  and  C3_5 
REMARK    5  A    between atoms: C6_11  and  O4_12 
REMARK    6  A    between atoms: C7_14  and  C8_15 
ROOT
HETATM    1  C3  UNL     1      -3.858   1.161  12.651  1.00  0.00    -0.017 A 
HETATM    2  C4  UNL     1      -4.056  -0.189  12.474  1.00  0.00     0.084 A 
HETATM    3  C5  UNL     1      -3.447  -0.923  11.452  1.00  0.00     0.247 A 
HETATM    4  O3  UNL     1      -3.687  -2.160  11.365  1.00  0.00    -0.268 OA
HETATM    5  N1  UNL     1      -2.640  -0.275  10.616  1.00  0.00    -0.304 N 
ATOM      6  H1  UNL     1      -2.183  -0.785   9.861  1.00  0.00     0.171 HD
HETATM    7  C6  UNL     1      -2.417   1.044  10.753  1.00  0.00     0.150 A 
HETATM    8  C7  UNL     1      -2.998   1.792  11.743  1.00  0.00     0.011 A 
ENDROOT
BRANCH   1   9
HETATM    9  C2  UNL     1      -4.455   1.933  13.764  1.00  0.00     0.218 C 
BRANCH   9  10
HETATM   10  O2  UNL     1      -5.091   1.202  14.739  1.00  0.00    -0.313 OA
BRANCH  10  11
HETATM   11  C1  UNL     1      -4.951   1.312  16.110  1.00  0.00     0.314 C 
HETATM   12  O1  UNL     1      -3.880   0.927  16.628  1.00  0.00    -0.260 OA
BRANCH  11  13
HETATM   13  C9  UNL     1      -6.074   1.881  16.911  1.00  0.00     0.276 C 
HETATM   14 CL1  UNL     1      -7.497   0.857  16.727  1.00  0.00    -0.073 Cl
HETATM   15 CL2  UNL     1      -5.660   2.007  18.624  1.00  0.00    -0.073 Cl
HETATM   16 CL3  UNL     1      -6.389   3.534  16.322  1.00  0.00    -0.073 Cl
ENDBRANCH  11  13
ENDBRANCH  10  11
ENDBRANCH   9  10
ENDBRANCH   1   9
BRANCH   8  17
HETATM   17  C8  UNL     1      -2.764   3.244  11.877  1.00  0.00     0.128 C 
HETATM   18 BR1  UNL     1      -3.954   4.271  10.728  1.00  0.00    -0.091 Br
ENDBRANCH   8  17
BRANCH   7  19
HETATM   19  O4  UNL     1      -1.570   1.707   9.872  1.00  0.00    -0.346 OA
ATOM     20  H4  UNL     1      -1.806   2.562   9.534  1.00  0.00     0.219 HD
ENDBRANCH   7  19
TORSDOF 6
ENDMDL
MODEL 2
REMARK VINA RESULT: -6.837285852      0.107      1.184
REMARK  6 active torsions:
REMARK  status: ('A' for Active; 'I' for Inactive)
REMARK    1  A    between atoms: C1_2  and  O2_3 
REMARK    2  A    between atoms: C1_2  and  C9_17 
REMARK    3  A    between atoms: O2_3  and  C2_4 
REMARK    4  A    between atoms: C2_4  and  C3_5 
REMARK    5  A    between atoms: C6_11  and  O4_12 
REMARK    6  A    between atoms: C7_14  and  C8_15 
ROOT
HETATM    1  C3  UNL     1      -3.823   1.070  12.604  1.00  0.00    -0.017 A 
HETATM    2  C4  UNL     1      -4.006  -0.284  12.442  1.00  0.00     0.084 A 
HETATM    3  C5  UNL     1      -3.389  -1.023  11.427  1.00  0.00     0.247 A 
HETATM    4  O3  UNL     1      -3.616  -2.263  11.353  1.00  0.00    -0.268 OA
HETATM    5  N1  UNL     1      -2.588  -0.375  10.584  1.00  0.00    -0.304 N 
ATOM      6  H1  UNL     1      -2.126  -0.888   9.834  1.00  0.00     0.171 HD
HETATM    7  C6  UNL     1      -2.380   0.948  10.707  1.00  0.00     0.150 A 
HETATM    8  C7  UNL     1      -2.969   1.700  11.689  1.00  0.00     0.011 A 
ENDROOT
BRANCH   1   9
HETATM    9  C2  UNL     1      -4.428   1.847  13.708  1.00  0.00     0.218 C 
BRANCH   9  10
HETATM   10  O2  UNL     1      -5.048   1.119  14.696  1.00  0.00    -0.313 OA
BRANCH  10  11
HETATM   11  C1  UNL     1      -4.936   1.278  16.065  1.00  0.00     0.314 C 
HETATM   12  O1  UNL     1      -3.880   0.903  16.618  1.00  0.00    -0.260 OA
BRANCH  11  13
HETATM   13  C9  UNL     1      -6.071   1.884  16.821  1.00  0.00     0.276 C 
HETATM   14 CL1  UNL     1      -6.386   3.503  16.197  1.00  0.00    -0.073 Cl
HETATM   15 CL2  UNL     1      -7.539   0.911  16.694  1.00  0.00    -0.073 Cl
HETATM   16 CL3  UNL     1      -5.619   1.935  18.545  1.00  0.00    -0.073 Cl
ENDBRANCH  11  13
ENDBRANCH  10  11
ENDBRANCH   9  10
ENDBRANCH   1   9
BRANCH   8  17
HETATM   17  C8  UNL     1      -2.751   3.156  11.808  1.00  0.00     0.128 C 
HETATM   18 BR1  UNL     1      -3.964   4.158  10.661  1.00  0.00    -0.091 Br
ENDBRANCH   8  17
BRANCH   7  19
HETATM   19  O4  UNL     1      -1.540   1.611   9.819  1.00  0.00    -0.346 OA
ATOM     20  H4  UNL     1      -1.453   2.555   9.857  1.00  0.00     0.219 HD
ENDBRANCH   7  19
TORSDOF 6
ENDMDL
MODEL 3
REMARK VINA RESULT: -6.832615572      2.267      3.238
REMARK  6 active torsions:
REMARK  status: ('A' for Active; 'I' for Inactive)
REMARK    1  A    between atoms: C1_2  and  O2_3 
REMARK    2  A    between atoms: C1_2  and  C9_17 
REMARK    3  A    between atoms: O2_3  and  C2_4 
REMARK    4  A    between atoms: C2_4  and  C3_5 
REMARK    5  A    between atoms: C6_11  and  O4_12 
REMARK    6  A    between atoms: C7_14  and  C8_15 
ROOT
HETATM    1  C3  UNL     1      -4.189   0.791  13.127  1.00  0.00    -0.017 A 
HETATM    2  C4  UNL     1      -4.210   2.167  13.131  1.00  0.00     0.084 A 
HETATM    3  C5  UNL     1      -4.369   2.932  11.972  1.00  0.00     0.247 A 
HETATM    4  O3  UNL     1      -4.375   4.191  12.069  1.00  0.00    -0.268 OA
HETATM    5  N1  UNL     1      -4.504   2.288  10.814  1.00  0.00    -0.304 N 
ATOM      6  H1  UNL     1      -4.620   2.821   9.953  1.00  0.00     0.171 HD
HETATM    7  C6  UNL     1      -4.490   0.945  10.765  1.00  0.00     0.150 A 
HETATM    8  C7  UNL     1      -4.337   0.166  11.882  1.00  0.00     0.011 A 
ENDROOT
BRANCH   1   9
HETATM    9  C2  UNL     1      -4.078  -0.025  14.356  1.00  0.00     0.218 C 
BRANCH   9  10
HETATM   10  O2  UNL     1      -4.964   0.272  15.365  1.00  0.00    -0.313 OA
BRANCH  10  11
HETATM   11  C1  UNL     1      -4.822   1.209  16.371  1.00  0.00     0.314 C 
HETATM   12  O1  UNL     1      -3.667   1.500  16.749  1.00  0.00    -0.260 OA
BRANCH  11  13
HETATM   13  C9  UNL     1      -6.043   1.831  16.962  1.00  0.00     0.276 C 
HETATM   14 CL1  UNL     1      -6.353   3.374  16.167  1.00  0.00    -0.073 Cl
HETATM   15 CL2  UNL     1      -7.458   0.788  16.792  1.00  0.00    -0.073 Cl
HETATM   16 CL3  UNL     1      -5.759   2.053  18.708  1.00  0.00    -0.073 Cl
ENDBRANCH  11  13
ENDBRANCH  10  11
ENDBRANCH   9  10
ENDBRANCH   1   9
BRANCH   8  17
HETATM   17  C8  UNL     1      -4.305  -1.309  11.819  1.00  0.00     0.128 C 
HETATM   18 BR1  UNL     1      -2.562  -1.963  11.246  1.00  0.00    -0.091 Br
ENDBRANCH   8  17
BRANCH   7  19
HETATM   19  O4  UNL     1      -4.634   0.287   9.549  1.00  0.00    -0.346 OA
ATOM     20  H4  UNL     1      -4.895  -0.626   9.527  1.00  0.00     0.219 HD
ENDBRANCH   7  19
TORSDOF 6
ENDMDL
MODEL 4
REMARK VINA RESULT: -6.702239084      1.071      1.602
REMARK  6 active torsions:
REMARK  status: ('A' for Active; 'I' for Inactive)
REMARK    1  A    between atoms: C1_2  and  O2_3 
REMARK    2  A    between atoms: C1_2  and  C9_17 
REMARK    3  A    between atoms: O2_3  and  C2_4 
REMARK    4  A    between atoms: C2_4  and  C3_5 
REMARK    5  A    between atoms: C6_11  and  O4_12 
REMARK    6  A    between atoms: C7_14  and  C8_15 
ROOT
HETATM    1  C3  UNL     1      -4.225   1.834  12.869  1.00  0.00    -0.017 A 
HETATM    2  C4  UNL     1      -4.216   0.470  12.698  1.00  0.00     0.084 A 
HETATM    3  C5  UNL     1      -3.495  -0.169  11.683  1.00  0.00     0.247 A 
HETATM    4  O3  UNL     1      -3.545  -1.428  11.600  1.00  0.00    -0.268 OA
HETATM    5  N1  UNL     1      -2.788   0.591  10.849  1.00  0.00    -0.304 N 
ATOM      6  H1  UNL     1      -2.254   0.152  10.100  1.00  0.00     0.171 HD
HETATM    7  C6  UNL     1      -2.769   1.929  10.981  1.00  0.00     0.150 A 
HETATM    8  C7  UNL     1      -3.463   2.585  11.964  1.00  0.00     0.011 A 
ENDROOT
BRANCH   1   9
HETATM    9  C2  UNL     1      -4.939   2.512  13.973  1.00  0.00     0.218 C 
BRANCH   9  10
HETATM   10  O2  UNL     1      -4.353   2.435  15.215  1.00  0.00    -0.313 OA
BRANCH  10  11
HETATM   11  C1  UNL     1      -4.751   1.672  16.297  1.00  0.00     0.314 C 
HETATM   12  O1  UNL     1      -4.028   0.710  16.637  1.00  0.00    -0.260 OA
BRANCH  11  13
HETATM   13  C9  UNL     1      -6.014   2.022  17.008  1.00  0.00     0.276 C 
HETATM   14 CL1  UNL     1      -6.536   3.631  16.509  1.00  0.00    -0.073 Cl
HETATM   15 CL2  UNL     1      -7.300   0.859  16.673  1.00  0.00    -0.073 Cl
HETATM   16 CL3  UNL     1      -5.694   1.964  18.761  1.00  0.00    -0.073 Cl
ENDBRANCH  11  13
ENDBRANCH  10  11
ENDBRANCH   9  10
ENDBRANCH   1   9
BRANCH   8  17
HETATM   17  C8  UNL     1      -3.452   4.056  12.092  1.00  0.00     0.128 C 
HETATM   18 BR1  UNL     1      -1.944   4.670  13.160  1.00  0.00    -0.091 Br
ENDBRANCH   8  17
BRANCH   7  19
HETATM   19  O4  UNL     1      -2.025   2.709  10.103  1.00  0.00    -0.346 OA
ATOM     20  H4  UNL     1      -2.259   2.750   9.183  1.00  0.00     0.219 HD
ENDBRANCH   7  19
TORSDOF 6
ENDMDL
MODEL 5
REMARK VINA RESULT: -6.685847525      1.360      1.855
REMARK  6 active torsions:
REMARK  status: ('A' for Active; 'I' for Inactive)
REMARK    1  A    between atoms: C1_2  and  O2_3 
REMARK    2  A    between atoms: C1_2  and  C9_17 
REMARK    3  A    between atoms: O2_3  and  C2_4 
REMARK    4  A    between atoms: C2_4  and  C3_5 
REMARK    5  A    between atoms: C6_11  and  O4_12 
REMARK    6  A    between atoms: C7_14  and  C8_15 
ROOT
HETATM    1  C3  UNL     1      -4.166   2.111  13.089  1.00  0.00    -0.017 A 
HETATM    2  C4  UNL     1      -4.142   0.784  12.730  1.00  0.00     0.084 A 
HETATM    3  C5  UNL     1      -3.317   0.280  11.720  1.00  0.00     0.247 A 
HETATM    4  O3  UNL     1      -3.361  -0.954  11.456  1.00  0.00    -0.268 OA
HETATM    5  N1  UNL     1      -2.521   1.135  11.081  1.00  0.00    -0.304 N 
ATOM      6  H1  UNL     1      -1.910   0.795  10.340  1.00  0.00     0.171 HD
HETATM    7  C6  UNL     1      -2.512   2.441  11.401  1.00  0.00     0.150 A 
HETATM    8  C7  UNL     1      -3.308   2.966  12.385  1.00  0.00     0.011 A 
ENDROOT
BRANCH   1   9
HETATM    9  C2  UNL     1      -4.995   2.641  14.194  1.00  0.00     0.218 C 
BRANCH   9  10
HETATM   10  O2  UNL     1      -4.474   2.515  15.460  1.00  0.00    -0.313 OA
BRANCH  10  11
HETATM   11  C1  UNL     1      -4.906   1.686  16.478  1.00  0.00     0.314 C 
HETATM   12  O1  UNL     1      -4.237   0.660  16.728  1.00  0.00    -0.260 OA
BRANCH  11  13
HETATM   13  C9  UNL     1      -6.143   2.044  17.232  1.00  0.00     0.276 C 
HETATM   14 CL1  UNL     1      -5.800   2.015  18.961  1.00  0.00    -0.073 Cl
HETATM   15 CL2  UNL     1      -6.748   3.640  16.780  1.00  0.00    -0.073 Cl
HETATM   16 CL3  UNL     1      -7.408   0.861  16.807  1.00  0.00    -0.073 Cl
ENDBRANCH  11  13
ENDBRANCH  10  11
ENDBRANCH   9  10
ENDBRANCH   1   9
BRANCH   8  17
HETATM   17  C8  UNL     1      -3.306   4.405  12.719  1.00  0.00     0.128 C 
HETATM   18 BR1  UNL     1      -1.940   4.833  14.038  1.00  0.00    -0.091 Br
ENDBRANCH   8  17
BRANCH   7  19
HETATM   19  O4  UNL     1      -1.675   3.322  10.726  1.00  0.00    -0.346 OA
ATOM     20  H4  UNL     1      -1.264   4.042  11.189  1.00  0.00     0.219 HD
ENDBRANCH   7  19
TORSDOF 6
ENDMDL
