MODEL 1
REMARK VINA RESULT: -6.543169839      0.000      0.000
REMARK  5 active torsions:
REMARK  status: ('A' for Active; 'I' for Inactive)
REMARK    1  A    between atoms: O1_2  and  C2_3 
REMARK       I    between atoms: N1_6  and  C5_7 
REMARK       I    between atoms: C5_7  and  N2_9 
REMARK    2  A    between atoms: N2_9  and  C6_11 
REMARK    3  A    between atoms: C8_15  and  C9_16 
REMARK    4  A    between atoms: C9_16  and  O3_18 
REMARK    5  A    between atoms: C9_16  and  C12_20 
ROOT
HETATM    1  C6  UNL     1      -1.686   3.480  11.981  1.00  0.00     0.073 A 
HETATM    2  C7  UNL     1      -1.159   4.731  11.804  1.00  0.00     0.119 A 
HETATM    3  N3  UNL     1      -0.316   4.967  10.744  1.00  0.00    -0.364 N 
ATOM      4  H3  UNL     1       0.066   5.906  10.631  1.00  0.00     0.165 HD
HETATM    5  C8  UNL     1       0.026   4.043   9.866  1.00  0.00     0.054 A 
HETATM    6  C13 UNL     1      -0.489   2.778  10.022  1.00  0.00     0.054 A 
HETATM    7  C14 UNL     1      -1.332   2.505  11.065  1.00  0.00     0.064 A 
HETATM    8 CL1  UNL     1      -1.965   0.902  11.232  1.00  0.00    -0.082 Cl
ENDROOT
BRANCH   1   9
HETATM    9  N2  UNL     1      -2.529   3.158  13.039  1.00  0.00    -0.306 N 
HETATM   10  C5  UNL     1      -3.746   3.772  13.376  1.00  0.00     0.323 C 
HETATM   11  N1  UNL     1      -4.488   3.311  14.513  1.00  0.00    -0.334 N 
HETATM   12  O2  UNL     1      -4.292   4.734  12.760  1.00  0.00    -0.247 OA
HETATM   13  C4  UNL     1      -5.736   3.958  14.804  1.00  0.00     0.130 C 
HETATM   14  C15 UNL     1      -3.925   2.241  15.294  1.00  0.00     0.130 C 
HETATM   15  C3  UNL     1      -6.482   3.452  15.976  1.00  0.00     0.052 C 
HETATM   16  C2  UNL     1      -6.143   2.012  16.272  1.00  0.00     0.123 C 
HETATM   17  C16 UNL     1      -4.669   2.004  16.598  1.00  0.00     0.052 C 
ATOM     18  H2  UNL     1      -2.230   2.388  13.639  1.00  0.00     0.171 HD
BRANCH  16  19
HETATM   19  O1  UNL     1      -6.911   1.552  17.339  1.00  0.00    -0.391 OA
HETATM   20  C1  UNL     1      -6.274   1.909  18.519  1.00  0.00     0.202 C 
ENDBRANCH  16  19
ENDBRANCH   1   9
BRANCH   5  21
HETATM   21  C9  UNL     1       0.968   4.380   8.733  1.00  0.00     0.196 C 
HETATM   22  C10 UNL     1       0.730   5.810   8.357  1.00  0.00     0.063 C 
BRANCH  21  23
HETATM   23  O3  UNL     1       0.737   3.492   7.728  1.00  0.00    -0.370 OA
HETATM   24  C11 UNL     1       0.461   3.953   6.485  1.00  0.00     0.203 C 
ENDBRANCH  21  23
BRANCH  21  25
HETATM   25  C12 UNL     1       2.387   4.253   9.275  1.00  0.00     0.423 C 
HETATM   26  F1  UNL     1       3.101   5.404   9.090  1.00  0.00    -0.167 F 
HETATM   27  F2  UNL     1       3.014   3.230   8.544  1.00  0.00    -0.167 F 
HETATM   28  F3  UNL     1       2.431   3.866  10.583  1.00  0.00    -0.167 F 
ENDBRANCH  21  25
ENDBRANCH   5  21
TORSDOF 5
ENDMDL
MODEL 2
REMARK VINA RESULT: -6.490233882      1.558      1.963
REMARK  5 active torsions:
REMARK  status: ('A' for Active; 'I' for Inactive)
REMARK    1  A    between atoms: O1_2  and  C2_3 
REMARK       I    between atoms: N1_6  and  C5_7 
REMARK       I    between atoms: C5_7  and  N2_9 
REMARK    2  A    between atoms: N2_9  and  C6_11 
REMARK    3  A    between atoms: C8_15  and  C9_16 
REMARK    4  A    between atoms: C9_16  and  O3_18 
REMARK    5  A    between atoms: C9_16  and  C12_20 
ROOT
HETATM    1  C6  UNL     1      -1.869   3.526  11.884  1.00  0.00     0.073 A 
HETATM    2  C7  UNL     1      -1.530   4.825  11.620  1.00  0.00     0.119 A 
HETATM    3  N3  UNL     1      -0.734   5.111  10.537  1.00  0.00    -0.364 N 
ATOM      4  H3  UNL     1      -0.494   6.086  10.357  1.00  0.00     0.165 HD
HETATM    5  C8  UNL     1      -0.264   4.191   9.716  1.00  0.00     0.054 A 
HETATM    6  C13 UNL     1      -0.588   2.877   9.960  1.00  0.00     0.054 A 
HETATM    7  C14 UNL     1      -1.379   2.554  11.029  1.00  0.00     0.064 A 
HETATM    8 CL1  UNL     1      -1.770   0.890  11.308  1.00  0.00    -0.082 Cl
ENDROOT
BRANCH   1   9
HETATM    9  N2  UNL     1      -2.653   3.154  12.972  1.00  0.00    -0.306 N 
HETATM   10  C5  UNL     1      -3.929   3.634  13.304  1.00  0.00     0.323 C 
HETATM   11  N1  UNL     1      -4.595   3.141  14.474  1.00  0.00    -0.334 N 
HETATM   12  O2  UNL     1      -4.595   4.493  12.657  1.00  0.00    -0.247 OA
HETATM   13  C4  UNL     1      -5.907   3.647  14.760  1.00  0.00     0.130 C 
HETATM   14  C15 UNL     1      -3.897   2.183  15.292  1.00  0.00     0.130 C 
HETATM   15  C3  UNL     1      -6.571   3.111  15.968  1.00  0.00     0.052 C 
HETATM   16  C2  UNL     1      -6.057   1.737  16.322  1.00  0.00     0.123 C 
HETATM   17  C16 UNL     1      -4.589   1.920  16.620  1.00  0.00     0.052 C 
ATOM     18  H2  UNL     1      -2.255   2.455  13.599  1.00  0.00     0.171 HD
BRANCH  16  19
HETATM   19  O1  UNL     1      -6.750   1.239  17.423  1.00  0.00    -0.391 OA
HETATM   20  C1  UNL     1      -6.213   1.808  18.568  1.00  0.00     0.202 C 
ENDBRANCH  16  19
ENDBRANCH   1   9
BRANCH   5  21
HETATM   21  C9  UNL     1       0.615   4.586   8.551  1.00  0.00     0.196 C 
HETATM   22  C10 UNL     1       1.847   3.737   8.607  1.00  0.00     0.063 C 
BRANCH  21  23
HETATM   23  O3  UNL     1       0.852   5.922   8.648  1.00  0.00    -0.370 OA
HETATM   24  C11 UNL     1       2.126   6.363   8.776  1.00  0.00     0.203 C 
ENDBRANCH  21  23
BRANCH  21  25
HETATM   25  C12 UNL     1      -0.149   4.245   7.277  1.00  0.00     0.423 C 
HETATM   26  F1  UNL     1       0.155   2.990   6.828  1.00  0.00    -0.167 F 
HETATM   27  F2  UNL     1       0.258   5.167   6.297  1.00  0.00    -0.167 F 
HETATM   28  F3  UNL     1      -1.499   4.396   7.402  1.00  0.00    -0.167 F 
ENDBRANCH  21  25
ENDBRANCH   5  21
TORSDOF 5
ENDMDL
MODEL 3
REMARK VINA RESULT: -6.348904696      5.064      6.727
REMARK  5 active torsions:
REMARK  status: ('A' for Active; 'I' for Inactive)
REMARK    1  A    between atoms: O1_2  and  C2_3 
REMARK       I    between atoms: N1_6  and  C5_7 
REMARK       I    between atoms: C5_7  and  N2_9 
REMARK    2  A    between atoms: N2_9  and  C6_11 
REMARK    3  A    between atoms: C8_15  and  C9_16 
REMARK    4  A    between atoms: C9_16  and  O3_18 
REMARK    5  A    between atoms: C9_16  and  C12_20 
ROOT
HETATM    1  C6  UNL     1      -1.737   6.006  12.839  1.00  0.00     0.073 A 
HETATM    2  C7  UNL     1      -0.749   6.622  12.120  1.00  0.00     0.119 A 
HETATM    3  N3  UNL     1      -0.315   7.870  12.497  1.00  0.00    -0.364 N 
ATOM      4  H3  UNL     1       0.422   8.312  11.948  1.00  0.00     0.165 HD
HETATM    5  C8  UNL     1      -0.803   8.528  13.533  1.00  0.00     0.054 A 
HETATM    6  C13 UNL     1      -1.797   7.931  14.271  1.00  0.00     0.054 A 
HETATM    7  C14 UNL     1      -2.254   6.688  13.926  1.00  0.00     0.064 A 
HETATM    8 CL1  UNL     1      -3.507   5.963  14.877  1.00  0.00    -0.082 Cl
ENDROOT
BRANCH   1   9
HETATM    9  N2  UNL     1      -2.244   4.753  12.508  1.00  0.00    -0.306 N 
HETATM   10  C5  UNL     1      -1.533   3.656  11.995  1.00  0.00     0.323 C 
HETATM   11  N1  UNL     1      -2.222   2.433  11.703  1.00  0.00    -0.334 N 
HETATM   12  O2  UNL     1      -0.293   3.619  11.749  1.00  0.00    -0.247 OA
HETATM   13  C4  UNL     1      -1.448   1.334  11.199  1.00  0.00     0.130 C 
HETATM   14  C15 UNL     1      -3.645   2.394  11.920  1.00  0.00     0.130 C 
HETATM   15  C3  UNL     1      -2.186   0.083  10.918  1.00  0.00     0.052 C 
HETATM   16  C2  UNL     1      -3.435  -0.026  11.758  1.00  0.00     0.123 C 
HETATM   17  C16 UNL     1      -4.297   1.144  11.352  1.00  0.00     0.052 C 
ATOM     18  H2  UNL     1      -3.244   4.615  12.654  1.00  0.00     0.171 HD
BRANCH  16  19
HETATM   19  O1  UNL     1      -4.067  -1.243  11.514  1.00  0.00    -0.391 OA
HETATM   20  C1  UNL     1      -3.096  -2.230  11.439  1.00  0.00     0.202 C 
ENDBRANCH  16  19
ENDBRANCH   1   9
BRANCH   5  21
HETATM   21  C9  UNL     1      -0.279   9.904  13.878  1.00  0.00     0.196 C 
HETATM   22  C10 UNL     1       0.944  10.143  13.047  1.00  0.00     0.063 C 
BRANCH  21  23
HETATM   23  O3  UNL     1      -0.058   9.936  15.220  1.00  0.00    -0.370 OA
HETATM   24  C11 UNL     1       0.948  10.699  15.709  1.00  0.00     0.203 C 
ENDBRANCH  21  23
BRANCH  21  25
HETATM   25  C12 UNL     1      -1.348  10.908  13.463  1.00  0.00     0.423 C 
HETATM   26  F1  UNL     1      -2.014  10.499  12.341  1.00  0.00    -0.167 F 
HETATM   27  F2  UNL     1      -0.685  12.110  13.162  1.00  0.00    -0.167 F 
HETATM   28  F3  UNL     1      -2.228  11.202  14.464  1.00  0.00    -0.167 F 
ENDBRANCH  21  25
ENDBRANCH   5  21
TORSDOF 5
ENDMDL
MODEL 4
REMARK VINA RESULT: -6.316733228      5.030      6.373
REMARK  5 active torsions:
REMARK  status: ('A' for Active; 'I' for Inactive)
REMARK    1  A    between atoms: O1_2  and  C2_3 
REMARK       I    between atoms: N1_6  and  C5_7 
REMARK       I    between atoms: C5_7  and  N2_9 
REMARK    2  A    between atoms: N2_9  and  C6_11 
REMARK    3  A    between atoms: C8_15  and  C9_16 
REMARK    4  A    between atoms: C9_16  and  O3_18 
REMARK    5  A    between atoms: C9_16  and  C12_20 
ROOT
HETATM    1  C6  UNL     1      -2.360   5.667  12.422  1.00  0.00     0.073 A 
HETATM    2  C7  UNL     1      -1.201   5.983  13.077  1.00  0.00     0.119 A 
HETATM    3  N3  UNL     1      -0.842   7.302  13.221  1.00  0.00    -0.364 N 
ATOM      4  H3  UNL     1       0.025   7.516  13.713  1.00  0.00     0.165 HD
HETATM    5  C8  UNL     1      -1.561   8.307  12.756  1.00  0.00     0.054 A 
HETATM    6  C13 UNL     1      -2.729   8.016  12.092  1.00  0.00     0.054 A 
HETATM    7  C14 UNL     1      -3.120   6.714  11.930  1.00  0.00     0.064 A 
HETATM    8 CL1  UNL     1      -4.598   6.382  11.091  1.00  0.00    -0.082 Cl
ENDROOT
BRANCH   1   9
HETATM    9  N2  UNL     1      -2.781   4.356  12.218  1.00  0.00    -0.306 N 
HETATM   10  C5  UNL     1      -2.037   3.300  11.668  1.00  0.00     0.323 C 
HETATM   11  N1  UNL     1      -2.635   2.005  11.524  1.00  0.00    -0.334 N 
HETATM   12  O2  UNL     1      -0.839   3.361  11.264  1.00  0.00    -0.247 OA
HETATM   13  C4  UNL     1      -1.828   0.952  10.976  1.00  0.00     0.130 C 
HETATM   14  C15 UNL     1      -4.009   1.850  11.926  1.00  0.00     0.130 C 
HETATM   15  C3  UNL     1      -2.471  -0.374  10.851  1.00  0.00     0.052 C 
HETATM   16  C2  UNL     1      -3.588  -0.546  11.850  1.00  0.00     0.123 C 
HETATM   17  C16 UNL     1      -4.604   0.516  11.507  1.00  0.00     0.052 C 
ATOM     18  H2  UNL     1      -3.736   4.138  12.499  1.00  0.00     0.171 HD
BRANCH  16  19
HETATM   19  O1  UNL     1      -4.125  -1.827  11.747  1.00  0.00    -0.391 OA
HETATM   20  C1  UNL     1      -3.099  -2.704  11.430  1.00  0.00     0.202 C 
ENDBRANCH  16  19
ENDBRANCH   1   9
BRANCH   5  21
HETATM   21  C9  UNL     1      -1.092   9.731  12.946  1.00  0.00     0.196 C 
HETATM   22  C10 UNL     1      -1.843  10.587  11.974  1.00  0.00     0.063 C 
BRANCH  21  23
HETATM   23  O3  UNL     1       0.258   9.747  12.779  1.00  0.00    -0.370 OA
HETATM   24  C11 UNL     1       0.811  10.641  11.925  1.00  0.00     0.203 C 
ENDBRANCH  21  23
BRANCH  21  25
HETATM   25  C12 UNL     1      -1.484  10.147  14.359  1.00  0.00     0.423 C 
HETATM   26  F1  UNL     1      -2.191  11.319  14.361  1.00  0.00    -0.167 F 
HETATM   27  F2  UNL     1      -0.290  10.359  15.070  1.00  0.00    -0.167 F 
HETATM   28  F3  UNL     1      -2.162   9.177  15.039  1.00  0.00    -0.167 F 
ENDBRANCH  21  25
ENDBRANCH   5  21
TORSDOF 5
ENDMDL
MODEL 5
REMARK VINA RESULT: -6.295143442      2.527      2.878
REMARK  5 active torsions:
REMARK  status: ('A' for Active; 'I' for Inactive)
REMARK    1  A    between atoms: O1_2  and  C2_3 
REMARK       I    between atoms: N1_6  and  C5_7 
REMARK       I    between atoms: C5_7  and  N2_9 
REMARK    2  A    between atoms: N2_9  and  C6_11 
REMARK    3  A    between atoms: C8_15  and  C9_16 
REMARK    4  A    between atoms: C9_16  and  O3_18 
REMARK    5  A    between atoms: C9_16  and  C12_20 
ROOT
HETATM    1  C6  UNL     1      -3.249   3.967  11.446  1.00  0.00     0.073 A 
HETATM    2  C7  UNL     1      -3.895   3.870  10.243  1.00  0.00     0.119 A 
HETATM    3  N3  UNL     1      -3.297   4.367   9.111  1.00  0.00    -0.364 N 
ATOM      4  H3  UNL     1      -3.796   4.285   8.224  1.00  0.00     0.165 HD
HETATM    5  C8  UNL     1      -2.111   4.948   9.108  1.00  0.00     0.054 A 
HETATM    6  C13 UNL     1      -1.442   5.058  10.304  1.00  0.00     0.054 A 
HETATM    7  C14 UNL     1      -2.006   4.574  11.453  1.00  0.00     0.064 A 
HETATM    8 CL1  UNL     1      -1.135   4.728  12.943  1.00  0.00    -0.082 Cl
ENDROOT
BRANCH   1   9
HETATM    9  N2  UNL     1      -3.798   3.506  12.639  1.00  0.00    -0.306 N 
HETATM   10  C5  UNL     1      -3.762   2.196  13.141  1.00  0.00     0.323 C 
HETATM   11  N1  UNL     1      -4.389   1.894  14.395  1.00  0.00    -0.334 N 
HETATM   12  O2  UNL     1      -3.212   1.199  12.589  1.00  0.00    -0.247 OA
HETATM   13  C4  UNL     1      -4.308   0.545  14.876  1.00  0.00     0.130 C 
HETATM   14  C15 UNL     1      -5.071   2.962  15.079  1.00  0.00     0.130 C 
HETATM   15  C3  UNL     1      -4.955   0.270  16.177  1.00  0.00     0.052 C 
HETATM   16  C2  UNL     1      -5.034   1.510  17.033  1.00  0.00     0.123 C 
HETATM   17  C16 UNL     1      -5.897   2.479  16.260  1.00  0.00     0.052 C 
ATOM     18  H2  UNL     1      -4.280   4.197  13.213  1.00  0.00     0.171 HD
BRANCH  16  19
HETATM   19  O1  UNL     1      -5.589   1.199  18.272  1.00  0.00    -0.391 OA
HETATM   20  C1  UNL     1      -6.239   2.325  18.752  1.00  0.00     0.202 C 
ENDBRANCH  16  19
ENDBRANCH   1   9
BRANCH   5  21
HETATM   21  C9  UNL     1      -1.525   5.479   7.821  1.00  0.00     0.196 C 
HETATM   22  C10 UNL     1      -0.976   6.843   8.104  1.00  0.00     0.063 C 
BRANCH  21  23
HETATM   23  O3  UNL     1      -2.508   5.456   6.880  1.00  0.00    -0.370 OA
HETATM   24  C11 UNL     1      -2.935   6.621   6.338  1.00  0.00     0.203 C 
ENDBRANCH  21  23
BRANCH  21  25
HETATM   25  C12 UNL     1      -0.368   4.562   7.442  1.00  0.00     0.423 C 
HETATM   26  F1  UNL     1       0.834   5.074   7.846  1.00  0.00    -0.167 F 
HETATM   27  F2  UNL     1      -0.355   4.478   6.039  1.00  0.00    -0.167 F 
HETATM   28  F3  UNL     1      -0.523   3.284   7.896  1.00  0.00    -0.167 F 
ENDBRANCH  21  25
ENDBRANCH   5  21
TORSDOF 5
ENDMDL
