MODEL 1
REMARK VINA RESULT: -7.219065018      0.000      0.000
REMARK  8 active torsions:
REMARK  status: ('A' for Active; 'I' for Inactive)
REMARK    1  A    between atoms: C2_2  and  C3_3 
REMARK    2  A    between atoms: C5_5  and  C6_6 
REMARK    3  A    between atoms: C6_6  and  N1_7 
REMARK    4  A    between atoms: N1_7  and  S1_9 
REMARK    5  A    between atoms: S1_9  and  C7_12 
REMARK    6  A    between atoms: C7_12  and  C8_13 
REMARK    7  A    between atoms: C14_22  and  O5_23 
REMARK    8  A    between atoms: C24_34  and  C25_35 
ROOT
HETATM    1  C8  UNL     1      11.843  50.181  82.689  1.00  0.00     0.008 C 
HETATM    2  C9  UNL     1      12.370  49.160  83.641  1.00  0.00     0.024 C 
HETATM    3  C10 UNL     1      11.772  47.802  83.488  1.00  0.00     0.076 C 
HETATM    4  S2  UNL     1      11.567  47.258  81.787  1.00  0.00    -0.143 SA
HETATM    5  C11 UNL     1      11.407  48.687  80.693  1.00  0.00     0.149 C 
HETATM    6  C12 UNL     1      10.030  48.855  80.136  1.00  0.00     0.213 C 
HETATM    7  O3  UNL     1      10.411  47.823  79.207  1.00  0.00    -0.318 OA
HETATM    8  C13 UNL     1      11.691  48.414  79.289  1.00  0.00     0.283 C 
HETATM    9  O4  UNL     1      12.500  48.505  78.338  1.00  0.00    -0.263 OA
HETATM   10  C14 UNL     1      12.100  49.895  81.245  1.00  0.00     0.095 C 
HETATM   11  C15 UNL     1      13.588  49.887  81.001  1.00  0.00     0.046 C 
HETATM   12  C16 UNL     1      14.025  51.359  81.055  1.00  0.00    -0.007 C 
HETATM   13  C17 UNL     1      15.475  51.372  80.681  1.00  0.00     0.005 C 
HETATM   14  C18 UNL     1      16.287  52.390  81.420  1.00  0.00     0.000 C 
HETATM   15  C19 UNL     1      16.128  52.339  82.908  1.00  0.00     0.000 C 
HETATM   16  C20 UNL     1      14.971  51.403  83.296  1.00  0.00     0.005 C 
HETATM   17  C21 UNL     1      13.785  51.825  82.459  1.00  0.00    -0.010 C 
HETATM   18  C22 UNL     1      12.467  51.518  83.018  1.00  0.00     0.018 C 
ENDROOT
BRANCH   1  19
HETATM   19  C7  UNL     1      10.367  50.336  82.886  1.00  0.00     0.175 C 
BRANCH  19  20
HETATM   20  S1  UNL     1       9.770  50.746  84.457  1.00  0.00     0.227 S 
HETATM   21  O1  UNL     1      10.661  50.373  85.596  1.00  0.00    -0.206 OA
HETATM   22  O2  UNL     1       8.382  50.317  84.779  1.00  0.00    -0.206 OA
BRANCH  20  23
HETATM   23  N1  UNL     1       9.691  52.503  84.496  1.00  0.00    -0.319 N 
ATOM     24  H1  UNL     1       9.975  53.127  83.741  1.00  0.00     0.172 HD
BRANCH  23  25
HETATM   25  C6  UNL     1       9.149  52.924  85.797  1.00  0.00     0.136 C 
BRANCH  25  26
HETATM   26  C5  UNL     1      10.174  53.844  86.418  1.00  0.00     0.005 C 
HETATM   27  C4  UNL     1      11.505  53.680  85.748  1.00  0.00     0.011 C 
HETATM   28  C3  UNL     1      12.524  53.444  86.813  1.00  0.00    -0.000 C 
HETATM   29  C24 UNL     1      11.822  53.528  88.129  1.00  0.00     0.091 C 
HETATM   30  C23 UNL     1      10.347  53.619  87.883  1.00  0.00     0.022 C 
BRANCH  28  31
HETATM   31  C2  UNL     1      13.630  54.503  86.777  1.00  0.00     0.001 C 
HETATM   32  C1  UNL     1      14.574  54.210  85.626  1.00  0.00     0.005 C 
ENDBRANCH  28  31
BRANCH  29  33
HETATM   33  C25 UNL     1      12.140  52.277  88.893  1.00  0.00     0.177 C 
HETATM   34  O6  UNL     1      12.035  51.134  88.383  1.00  0.00    -0.648 OA
HETATM   35  O7  UNL     1      12.561  52.403  90.202  1.00  0.00    -0.648 OA
ENDBRANCH  29  33
ENDBRANCH  25  26
ENDBRANCH  23  25
ENDBRANCH  20  23
ENDBRANCH  19  20
ENDBRANCH   1  19
BRANCH  10  36
HETATM   36  O5  UNL     1      11.602  51.007  80.523  1.00  0.00    -0.387 OA
ATOM     37  H5  UNL     1      11.409  50.693  79.647  1.00  0.00     0.210 HD
ENDBRANCH  10  36
TORSDOF 8
ENDMDL
MODEL 2
REMARK VINA RESULT: -7.094169761      7.294     12.969
REMARK  8 active torsions:
REMARK  status: ('A' for Active; 'I' for Inactive)
REMARK    1  A    between atoms: C2_2  and  C3_3 
REMARK    2  A    between atoms: C5_5  and  C6_6 
REMARK    3  A    between atoms: C6_6  and  N1_7 
REMARK    4  A    between atoms: N1_7  and  S1_9 
REMARK    5  A    between atoms: S1_9  and  C7_12 
REMARK    6  A    between atoms: C7_12  and  C8_13 
REMARK    7  A    between atoms: C14_22  and  O5_23 
REMARK    8  A    between atoms: C24_34  and  C25_35 
ROOT
HETATM    1  C8  UNL     1      12.867  53.469  95.485  1.00  0.00     0.008 C 
HETATM    2  C9  UNL     1      13.962  54.444  95.206  1.00  0.00     0.024 C 
HETATM    3  C10 UNL     1      13.511  55.719  94.575  1.00  0.00     0.076 C 
HETATM    4  S2  UNL     1      12.001  56.408  95.267  1.00  0.00    -0.143 SA
HETATM    5  C11 UNL     1      10.995  55.095  95.992  1.00  0.00     0.149 C 
HETATM    6  C12 UNL     1       9.752  54.805  95.215  1.00  0.00     0.213 C 
HETATM    7  O3  UNL     1       9.217  55.971  95.867  1.00  0.00    -0.318 OA
HETATM    8  C13 UNL     1      10.005  55.551  96.961  1.00  0.00     0.283 C 
HETATM    9  O4  UNL     1       9.683  55.671  98.164  1.00  0.00    -0.263 OA
HETATM   10  C14 UNL     1      11.829  53.939  96.452  1.00  0.00     0.095 C 
HETATM   11  C15 UNL     1      12.475  54.172  97.794  1.00  0.00     0.046 C 
HETATM   12  C16 UNL     1      12.751  52.774  98.369  1.00  0.00    -0.007 C 
HETATM   13  C17 UNL     1      13.268  52.995  99.758  1.00  0.00     0.005 C 
HETATM   14  C18 UNL     1      14.326  52.021 100.177  1.00  0.00     0.000 C 
HETATM   15  C19 UNL     1      15.460  51.893  99.207  1.00  0.00     0.000 C 
HETATM   16  C20 UNL     1      15.132  52.619  97.892  1.00  0.00     0.005 C 
HETATM   17  C21 UNL     1      13.764  52.133  97.469  1.00  0.00    -0.010 C 
HETATM   18  C22 UNL     1      13.477  52.201  96.035  1.00  0.00     0.018 C 
ENDROOT
BRANCH   1  19
HETATM   19  C7  UNL     1      12.187  53.098  94.203  1.00  0.00     0.175 C 
BRANCH  19  20
HETATM   20  S1  UNL     1      12.979  52.005  93.122  1.00  0.00     0.227 S 
HETATM   21  O1  UNL     1      12.613  50.566  93.287  1.00  0.00    -0.206 OA
HETATM   22  O2  UNL     1      14.461  52.110  93.028  1.00  0.00    -0.206 OA
BRANCH  20  23
HETATM   23  N1  UNL     1      12.420  52.435  91.510  1.00  0.00    -0.319 N 
ATOM     24  H1  UNL     1      12.694  51.972  90.644  1.00  0.00     0.172 HD
BRANCH  23  25
HETATM   25  C6  UNL     1      11.492  53.572  91.618  1.00  0.00     0.136 C 
BRANCH  25  26
HETATM   26  C5  UNL     1      11.838  54.522  90.496  1.00  0.00     0.005 C 
HETATM   27  C4  UNL     1      12.652  53.826  89.446  1.00  0.00     0.011 C 
HETATM   28  C3  UNL     1      13.869  54.652  89.194  1.00  0.00    -0.000 C 
HETATM   29  C24 UNL     1      13.762  55.876  90.042  1.00  0.00     0.091 C 
HETATM   30  C23 UNL     1      12.589  55.725  90.961  1.00  0.00     0.022 C 
BRANCH  28  31
HETATM   31  C2  UNL     1      13.965  55.077  87.726  1.00  0.00     0.001 C 
HETATM   32  C1  UNL     1      13.191  54.099  86.863  1.00  0.00     0.005 C 
ENDBRANCH  28  31
BRANCH  29  33
HETATM   33  C25 UNL     1      15.028  55.989  90.839  1.00  0.00     0.177 C 
HETATM   34  O6  UNL     1      15.539  55.004  91.428  1.00  0.00    -0.648 OA
HETATM   35  O7  UNL     1      15.641  57.224  90.918  1.00  0.00    -0.648 OA
ENDBRANCH  29  33
ENDBRANCH  25  26
ENDBRANCH  23  25
ENDBRANCH  20  23
ENDBRANCH  19  20
ENDBRANCH   1  19
BRANCH  10  36
HETATM   36  O5  UNL     1      10.939  52.853  96.641  1.00  0.00    -0.387 OA
ATOM     37  H5  UNL     1      10.927  52.371  95.822  1.00  0.00     0.210 HD
ENDBRANCH  10  36
TORSDOF 8
ENDMDL
MODEL 3
REMARK VINA RESULT: -7.090874942      5.768     11.442
REMARK  8 active torsions:
REMARK  status: ('A' for Active; 'I' for Inactive)
REMARK    1  A    between atoms: C2_2  and  C3_3 
REMARK    2  A    between atoms: C5_5  and  C6_6 
REMARK    3  A    between atoms: C6_6  and  N1_7 
REMARK    4  A    between atoms: N1_7  and  S1_9 
REMARK    5  A    between atoms: S1_9  and  C7_12 
REMARK    6  A    between atoms: C7_12  and  C8_13 
REMARK    7  A    between atoms: C14_22  and  O5_23 
REMARK    8  A    between atoms: C24_34  and  C25_35 
ROOT
HETATM    1  C8  UNL     1      12.608  54.424  93.574  1.00  0.00     0.008 C 
HETATM    2  C9  UNL     1      11.253  54.707  93.019  1.00  0.00     0.024 C 
HETATM    3  C10 UNL     1      10.688  53.614  92.176  1.00  0.00     0.076 C 
HETATM    4  S2  UNL     1      10.942  51.956  92.822  1.00  0.00    -0.143 SA
HETATM    5  C11 UNL     1      12.409  51.919  93.875  1.00  0.00     0.149 C 
HETATM    6  C12 UNL     1      13.553  51.172  93.270  1.00  0.00     0.213 C 
HETATM    7  O3  UNL     1      12.856  49.991  93.707  1.00  0.00    -0.318 OA
HETATM    8  C13 UNL     1      12.467  50.794  94.802  1.00  0.00     0.283 C 
HETATM    9  O4  UNL     1      12.322  50.384  95.975  1.00  0.00    -0.263 OA
HETATM   10  C14 UNL     1      12.685  53.253  94.499  1.00  0.00     0.095 C 
HETATM   11  C15 UNL     1      11.833  53.526  95.712  1.00  0.00     0.046 C 
HETATM   12  C16 UNL     1      12.610  54.561  96.540  1.00  0.00    -0.007 C 
HETATM   13  C17 UNL     1      11.837  54.738  97.811  1.00  0.00     0.005 C 
HETATM   14  C18 UNL     1      11.844  56.138  98.341  1.00  0.00     0.000 C 
HETATM   15  C19 UNL     1      11.449  57.176  97.335  1.00  0.00     0.000 C 
HETATM   16  C20 UNL     1      11.370  56.563  95.927  1.00  0.00     0.005 C 
HETATM   17  C21 UNL     1      12.666  55.813  95.717  1.00  0.00    -0.010 C 
HETATM   18  C22 UNL     1      13.088  55.644  94.326  1.00  0.00     0.018 C 
ENDROOT
BRANCH   1  19
HETATM   19  C7  UNL     1      13.574  54.204  92.451  1.00  0.00     0.175 C 
BRANCH  19  20
HETATM   20  S1  UNL     1      14.045  55.553  91.475  1.00  0.00     0.227 S 
HETATM   21  O1  UNL     1      15.117  56.417  92.053  1.00  0.00    -0.206 OA
HETATM   22  O2  UNL     1      12.951  56.428  90.970  1.00  0.00    -0.206 OA
BRANCH  20  23
HETATM   23  N1  UNL     1      14.748  54.868  90.016  1.00  0.00    -0.319 N 
ATOM     24  H1  UNL     1      15.585  54.286  89.977  1.00  0.00     0.172 HD
BRANCH  23  25
HETATM   25  C6  UNL     1      13.931  55.272  88.861  1.00  0.00     0.136 C 
BRANCH  25  26
HETATM   26  C5  UNL     1      13.563  54.005  88.125  1.00  0.00     0.005 C 
HETATM   27  C4  UNL     1      13.574  54.234  86.643  1.00  0.00     0.011 C 
HETATM   28  C3  UNL     1      12.270  53.753  86.100  1.00  0.00    -0.000 C 
HETATM   29  C24 UNL     1      11.496  53.177  87.240  1.00  0.00     0.091 C 
HETATM   30  C23 UNL     1      12.225  53.472  88.515  1.00  0.00     0.022 C 
BRANCH  28  31
HETATM   31  C2  UNL     1      12.469  52.665  85.041  1.00  0.00     0.001 C 
HETATM   32  C1  UNL     1      13.934  52.595  84.654  1.00  0.00     0.005 C 
ENDBRANCH  28  31
BRANCH  29  33
HETATM   33  C25 UNL     1      10.148  53.837  87.253  1.00  0.00     0.177 C 
HETATM   34  O6  UNL     1       9.518  54.052  88.318  1.00  0.00    -0.648 OA
HETATM   35  O7  UNL     1       9.595  54.214  86.046  1.00  0.00    -0.648 OA
ENDBRANCH  29  33
ENDBRANCH  25  26
ENDBRANCH  23  25
ENDBRANCH  20  23
ENDBRANCH  19  20
ENDBRANCH   1  19
BRANCH  10  36
HETATM   36  O5  UNL     1      14.019  53.205  94.973  1.00  0.00    -0.387 OA
ATOM     37  H5  UNL     1      13.996  52.716  95.788  1.00  0.00     0.210 HD
ENDBRANCH  10  36
TORSDOF 8
ENDMDL
MODEL 4
REMARK VINA RESULT: -7.064121091      0.727      1.108
REMARK  8 active torsions:
REMARK  status: ('A' for Active; 'I' for Inactive)
REMARK    1  A    between atoms: C2_2  and  C3_3 
REMARK    2  A    between atoms: C5_5  and  C6_6 
REMARK    3  A    between atoms: C6_6  and  N1_7 
REMARK    4  A    between atoms: N1_7  and  S1_9 
REMARK    5  A    between atoms: S1_9  and  C7_12 
REMARK    6  A    between atoms: C7_12  and  C8_13 
REMARK    7  A    between atoms: C14_22  and  O5_23 
REMARK    8  A    between atoms: C24_34  and  C25_35 
ROOT
HETATM    1  C8  UNL     1      11.842  49.920  82.520  1.00  0.00     0.008 C 
HETATM    2  C9  UNL     1      12.407  48.929  83.481  1.00  0.00     0.024 C 
HETATM    3  C10 UNL     1      11.894  47.538  83.313  1.00  0.00     0.076 C 
HETATM    4  S2  UNL     1      11.756  46.989  81.606  1.00  0.00    -0.143 SA
HETATM    5  C11 UNL     1      11.536  48.409  80.513  1.00  0.00     0.149 C 
HETATM    6  C12 UNL     1      10.163  48.498  79.927  1.00  0.00     0.213 C 
HETATM    7  O3  UNL     1      10.623  47.493  79.005  1.00  0.00    -0.318 OA
HETATM    8  C13 UNL     1      11.864  48.158  79.114  1.00  0.00     0.283 C 
HETATM    9  O4  UNL     1      12.686  48.299  78.181  1.00  0.00    -0.263 OA
HETATM   10  C14 UNL     1      12.145  49.654  81.081  1.00  0.00     0.095 C 
HETATM   11  C15 UNL     1      13.635  49.733  80.868  1.00  0.00     0.046 C 
HETATM   12  C16 UNL     1      13.984  51.228  80.935  1.00  0.00    -0.007 C 
HETATM   13  C17 UNL     1      15.439  51.328  80.591  1.00  0.00     0.005 C 
HETATM   14  C18 UNL     1      16.174  52.389  81.348  1.00  0.00     0.000 C 
HETATM   15  C19 UNL     1      15.988  52.324  82.833  1.00  0.00     0.000 C 
HETATM   16  C20 UNL     1      14.880  51.321  83.195  1.00  0.00     0.005 C 
HETATM   17  C21 UNL     1      13.688  51.676  82.335  1.00  0.00    -0.010 C 
HETATM   18  C22 UNL     1      12.380  51.289  82.865  1.00  0.00     0.018 C 
ENDROOT
BRANCH   1  19
HETATM   19  C7  UNL     1      10.355  49.987  82.686  1.00  0.00     0.175 C 
BRANCH  19  20
HETATM   20  S1  UNL     1       9.636  51.476  83.195  1.00  0.00     0.227 S 
HETATM   21  O1  UNL     1       8.143  51.483  83.237  1.00  0.00    -0.206 OA
HETATM   22  O2  UNL     1      10.098  52.712  82.506  1.00  0.00    -0.206 OA
BRANCH  20  23
HETATM   23  N1  UNL     1      10.140  51.707  84.865  1.00  0.00    -0.319 N 
ATOM     24  H1  UNL     1      10.872  51.180  85.342  1.00  0.00     0.172 HD
BRANCH  23  25
HETATM   25  C6  UNL     1       9.333  52.784  85.458  1.00  0.00     0.136 C 
BRANCH  25  26
HETATM   26  C5  UNL     1      10.300  53.731  86.130  1.00  0.00     0.005 C 
HETATM   27  C4  UNL     1      11.677  53.575  85.557  1.00  0.00     0.011 C 
HETATM   28  C3  UNL     1      12.622  53.375  86.695  1.00  0.00    -0.000 C 
HETATM   29  C24 UNL     1      11.830  53.472  87.957  1.00  0.00     0.091 C 
HETATM   30  C23 UNL     1      10.374  53.536  87.608  1.00  0.00     0.022 C 
BRANCH  28  31
HETATM   31  C2  UNL     1      13.712  54.450  86.714  1.00  0.00     0.001 C 
HETATM   32  C1  UNL     1      14.660  54.232  85.549  1.00  0.00     0.005 C 
ENDBRANCH  28  31
BRANCH  29  33
HETATM   33  C25 UNL     1      12.111  52.241  88.766  1.00  0.00     0.177 C 
HETATM   34  O6  UNL     1      12.507  52.298  89.956  1.00  0.00    -0.648 OA
HETATM   35  O7  UNL     1      11.925  51.011  88.167  1.00  0.00    -0.648 OA
ENDBRANCH  29  33
ENDBRANCH  25  26
ENDBRANCH  23  25
ENDBRANCH  20  23
ENDBRANCH  19  20
ENDBRANCH   1  19
BRANCH  10  36
HETATM   36  O5  UNL     1      11.598  50.737  80.351  1.00  0.00    -0.387 OA
ATOM     37  H5  UNL     1      11.910  50.644  79.459  1.00  0.00     0.210 HD
ENDBRANCH  10  36
TORSDOF 8
ENDMDL
MODEL 5
REMARK VINA RESULT: -7.008339635      3.126      4.181
REMARK  8 active torsions:
REMARK  status: ('A' for Active; 'I' for Inactive)
REMARK    1  A    between atoms: C2_2  and  C3_3 
REMARK    2  A    between atoms: C5_5  and  C6_6 
REMARK    3  A    between atoms: C6_6  and  N1_7 
REMARK    4  A    between atoms: N1_7  and  S1_9 
REMARK    5  A    between atoms: S1_9  and  C7_12 
REMARK    6  A    between atoms: C7_12  and  C8_13 
REMARK    7  A    between atoms: C14_22  and  O5_23 
REMARK    8  A    between atoms: C24_34  and  C25_35 
ROOT
HETATM    1  C8  UNL     1      12.675  51.169  84.814  1.00  0.00     0.008 C 
HETATM    2  C9  UNL     1      13.499  50.118  85.479  1.00  0.00     0.024 C 
HETATM    3  C10 UNL     1      12.726  48.933  85.953  1.00  0.00     0.076 C 
HETATM    4  S2  UNL     1      11.473  48.343  84.807  1.00  0.00    -0.143 SA
HETATM    5  C11 UNL     1      10.920  49.694  83.743  1.00  0.00     0.149 C 
HETATM    6  C12 UNL     1       9.526  50.147  84.039  1.00  0.00     0.213 C 
HETATM    7  O3  UNL     1       9.119  48.995  83.277  1.00  0.00    -0.318 OA
HETATM    8  C13 UNL     1      10.271  49.270  82.507  1.00  0.00     0.283 C 
HETATM    9  O4  UNL     1      10.364  49.103  81.270  1.00  0.00    -0.263 OA
HETATM   10  C14 UNL     1      11.981  50.737  83.564  1.00  0.00     0.095 C 
HETATM   11  C15 UNL     1      13.012  50.359  82.531  1.00  0.00     0.046 C 
HETATM   12  C16 UNL     1      13.616  51.686  82.046  1.00  0.00    -0.007 C 
HETATM   13  C17 UNL     1      14.545  51.330  80.925  1.00  0.00     0.005 C 
HETATM   14  C18 UNL     1      15.781  52.172  80.866  1.00  0.00     0.000 C 
HETATM   15  C19 UNL     1      16.528  52.258  82.161  1.00  0.00     0.000 C 
HETATM   16  C20 UNL     1      15.698  51.651  83.305  1.00  0.00     0.005 C 
HETATM   17  C21 UNL     1      14.329  52.287  83.220  1.00  0.00    -0.010 C 
HETATM   18  C22 UNL     1      13.570  52.338  84.470  1.00  0.00     0.018 C 
ENDROOT
BRANCH   1  19
HETATM   19  C7  UNL     1      11.647  51.683  85.774  1.00  0.00     0.175 C 
BRANCH  19  20
HETATM   20  S1  UNL     1      11.887  53.230  86.509  1.00  0.00     0.227 S 
HETATM   21  O1  UNL     1      10.949  54.303  86.060  1.00  0.00    -0.206 OA
HETATM   22  O2  UNL     1      13.273  53.773  86.490  1.00  0.00    -0.206 OA
BRANCH  20  23
HETATM   23  N1  UNL     1      11.541  53.008  88.219  1.00  0.00    -0.319 N 
ATOM     24  H1  UNL     1      11.201  52.148  88.649  1.00  0.00     0.172 HD
BRANCH  23  25
HETATM   25  C6  UNL     1      11.823  54.267  88.927  1.00  0.00     0.136 C 
BRANCH  25  26
HETATM   26  C5  UNL     1      12.897  53.961  89.944  1.00  0.00     0.005 C 
HETATM   27  C4  UNL     1      12.384  54.182  91.336  1.00  0.00     0.011 C 
HETATM   28  C3  UNL     1      13.355  55.070  92.042  1.00  0.00    -0.000 C 
HETATM   29  C24 UNL     1      14.484  55.335  91.101  1.00  0.00     0.091 C 
HETATM   30  C23 UNL     1      14.129  54.781  89.755  1.00  0.00     0.022 C 
BRANCH  28  31
HETATM   31  C2  UNL     1      13.911  54.403  93.303  1.00  0.00     0.001 C 
HETATM   32  C1  UNL     1      13.586  55.258  94.514  1.00  0.00     0.005 C 
ENDBRANCH  28  31
BRANCH  29  33
HETATM   33  C25 UNL     1      14.663  56.822  91.015  1.00  0.00     0.177 C 
HETATM   34  O6  UNL     1      13.702  57.621  91.134  1.00  0.00    -0.648 OA
HETATM   35  O7  UNL     1      15.935  57.313  90.796  1.00  0.00    -0.648 OA
ENDBRANCH  29  33
ENDBRANCH  25  26
ENDBRANCH  23  25
ENDBRANCH  20  23
ENDBRANCH  19  20
ENDBRANCH   1  19
BRANCH  10  36
HETATM   36  O5  UNL     1      11.330  51.885  83.051  1.00  0.00    -0.387 OA
ATOM     37  H5  UNL     1      10.401  51.686  83.044  1.00  0.00     0.210 HD
ENDBRANCH  10  36
TORSDOF 8
ENDMDL
