MODEL 1
REMARK VINA RESULT: -6.892188375      0.000      0.000
REMARK  8 active torsions:
REMARK  status: ('A' for Active; 'I' for Inactive)
REMARK    1  A    between atoms: C2_2  and  C3_4 
REMARK    2  A    between atoms: C3_4  and  N1_5 
REMARK    3  A    between atoms: N2_8  and  C6_9 
REMARK    4  A    between atoms: C6_9  and  C7_10 
REMARK    5  A    between atoms: C7_10  and  O1_11 
REMARK    6  A    between atoms: C7_10  and  C8_13 
REMARK    7  A    between atoms: C8_13  and  N3_14 
REMARK    8  A    between atoms: C11_19  and  N5_20 
ROOT
HETATM    1  N3  UNL     1      24.480   7.747  14.932  1.00  0.00    -0.324 N 
HETATM    2  C9  UNL     1      23.875   7.555  16.114  1.00  0.00     0.185 A 
HETATM    3  N4  UNL     1      23.340   6.328  16.180  1.00  0.00    -0.346 N 
ATOM      4  H4  UNL     1      22.826   5.934  16.969  1.00  0.00     0.167 HD
HETATM    5  C10 UNL     1      23.604   5.715  15.019  1.00  0.00     0.122 A 
HETATM    6  C11 UNL     1      23.303   4.451  14.528  1.00  0.00     0.132 A 
HETATM    7  N6  UNL     1      23.683   4.064  13.316  1.00  0.00    -0.317 N 
ATOM      8  H6  UNL     1      23.459   3.134  12.961  1.00  0.00     0.170 HD
HETATM    9  C12 UNL     1      24.386   4.958  12.564  1.00  0.00     0.182 A 
HETATM   10 CL1  UNL     1      24.890   4.453  10.967  1.00  0.00    -0.045 Cl
HETATM   11  N7  UNL     1      24.694   6.187  13.007  1.00  0.00    -0.317 N 
ATOM     12  H7  UNL     1      25.221   6.820  12.405  1.00  0.00     0.170 HD
HETATM   13  C13 UNL     1      24.314   6.605  14.247  1.00  0.00     0.141 A 
ENDROOT
BRANCH   1  14
HETATM   14  C8  UNL     1      25.172   8.912  14.448  1.00  0.00     0.168 C 
BRANCH  14  15
HETATM   15  C7  UNL     1      24.207   9.864  13.724  1.00  0.00     0.175 C 
BRANCH  15  16
HETATM   16  C6  UNL     1      24.973  10.531  12.636  1.00  0.00     0.096 C 
BRANCH  16  17
HETATM   17  N2  UNL     1      25.910   9.769  11.919  1.00  0.00    -0.365 N 
HETATM   18  C5  UNL     1      25.485   8.939  10.867  1.00  0.00     0.093 C 
HETATM   19  C4  UNL     1      26.600   8.155  10.211  1.00  0.00     0.321 C 
HETATM   20  N1  UNL     1      27.811   8.893  10.091  1.00  0.00     0.133 N 
HETATM   21  C15 UNL     1      27.710  10.278  10.396  1.00  0.00     0.423 C 
HETATM   22  C14 UNL     1      27.154  10.451  11.777  1.00  0.00     0.196 C 
HETATM   23  F1  UNL     1      26.949  10.895   9.426  1.00  0.00    -0.214 F 
BRANCH  20  24
HETATM   24  C3  UNL     1      28.851   8.293  10.895  1.00  0.00     0.322 C 
BRANCH  24  25
HETATM   25  C2  UNL     1      29.340   7.030  10.257  1.00  0.00     0.007 C 
HETATM   26  C1  UNL     1      29.551   5.955  10.972  1.00  0.00     0.029 C 
HETATM   27 BR1  UNL     1      29.660   7.005   8.384  1.00  0.00    -0.055 Br
ENDBRANCH  24  25
ENDBRANCH  20  24
ENDBRANCH  16  17
ENDBRANCH  15  16
BRANCH  15  28
HETATM   28  O1  UNL     1      23.143   9.081  13.299  1.00  0.00    -0.389 OA
ATOM     29  H1  UNL     1      22.409   9.038  13.901  1.00  0.00     0.210 HD
ENDBRANCH  15  28
ENDBRANCH  14  15
ENDBRANCH   1  14
BRANCH   6  30
HETATM   30  N5  UNL     1      22.634   3.687  15.322  1.00  0.00    -0.383 N 
ATOM     31  H52 UNL     1      23.043   2.864  15.764  1.00  0.00     0.157 HD
ATOM     32  H51 UNL     1      21.664   3.956  15.482  1.00  0.00     0.157 HD
ENDBRANCH   6  30
TORSDOF 8
ENDMDL
MODEL 2
REMARK VINA RESULT: -6.830113479      3.674      5.240
REMARK  8 active torsions:
REMARK  status: ('A' for Active; 'I' for Inactive)
REMARK    1  A    between atoms: C2_2  and  C3_4 
REMARK    2  A    between atoms: C3_4  and  N1_5 
REMARK    3  A    between atoms: N2_8  and  C6_9 
REMARK    4  A    between atoms: C6_9  and  C7_10 
REMARK    5  A    between atoms: C7_10  and  O1_11 
REMARK    6  A    between atoms: C7_10  and  C8_13 
REMARK    7  A    between atoms: C8_13  and  N3_14 
REMARK    8  A    between atoms: C11_19  and  N5_20 
ROOT
HETATM    1  N3  UNL     1      24.487   4.814  14.496  1.00  0.00    -0.324 N 
HETATM    2  C9  UNL     1      23.294   4.257  14.753  1.00  0.00     0.185 A 
HETATM    3  N4  UNL     1      22.754   3.752  13.635  1.00  0.00    -0.346 N 
ATOM      4  H4  UNL     1      21.854   3.277  13.559  1.00  0.00     0.167 HD
HETATM    5  C10 UNL     1      23.614   3.987  12.635  1.00  0.00     0.122 A 
HETATM    6  C11 UNL     1      23.588   3.694  11.278  1.00  0.00     0.132 A 
HETATM    7  N6  UNL     1      24.586   4.037  10.471  1.00  0.00    -0.317 N 
ATOM      8  H6  UNL     1      24.561   3.818   9.475  1.00  0.00     0.170 HD
HETATM    9  C12 UNL     1      25.644   4.692  11.026  1.00  0.00     0.182 A 
HETATM   10 CL1  UNL     1      26.960   5.146   9.966  1.00  0.00    -0.045 Cl
HETATM   11  N7  UNL     1      25.702   4.992  12.333  1.00  0.00    -0.317 N 
ATOM     12  H7  UNL     1      26.517   5.484  12.699  1.00  0.00     0.170 HD
HETATM   13  C13 UNL     1      24.691   4.649  13.179  1.00  0.00     0.141 A 
ENDROOT
BRANCH   1  14
HETATM   14  C8  UNL     1      25.395   5.468  15.400  1.00  0.00     0.168 C 
BRANCH  14  15
HETATM   15  C7  UNL     1      25.540   6.958  15.054  1.00  0.00     0.175 C 
BRANCH  15  16
HETATM   16  C6  UNL     1      24.336   7.657  15.583  1.00  0.00     0.096 C 
BRANCH  16  17
HETATM   17  N2  UNL     1      24.185   9.025  15.303  1.00  0.00    -0.365 N 
HETATM   18  C5  UNL     1      24.664   9.986  16.211  1.00  0.00     0.093 C 
HETATM   19  C4  UNL     1      24.398  11.415  15.792  1.00  0.00     0.321 C 
HETATM   20  N1  UNL     1      24.539  11.626  14.391  1.00  0.00     0.133 N 
HETATM   21  C15 UNL     1      25.106  10.541  13.669  1.00  0.00     0.423 C 
HETATM   22  C14 UNL     1      24.301   9.300  13.909  1.00  0.00     0.196 C 
HETATM   23  F1  UNL     1      26.429  10.405  14.031  1.00  0.00    -0.214 F 
BRANCH  20  24
HETATM   24  C3  UNL     1      23.269  11.990  13.805  1.00  0.00     0.322 C 
BRANCH  24  25
HETATM   25  C2  UNL     1      23.363  13.334  13.152  1.00  0.00     0.007 C 
HETATM   26  C1  UNL     1      23.305  13.453  11.850  1.00  0.00     0.029 C 
HETATM   27 BR1  UNL     1      23.575  14.878  14.240  1.00  0.00    -0.055 Br
ENDBRANCH  24  25
ENDBRANCH  20  24
ENDBRANCH  16  17
ENDBRANCH  15  16
BRANCH  15  28
HETATM   28  O1  UNL     1      26.746   7.365  15.606  1.00  0.00    -0.389 OA
ATOM     29  H1  UNL     1      27.410   6.688  15.665  1.00  0.00     0.210 HD
ENDBRANCH  15  28
ENDBRANCH  14  15
ENDBRANCH   1  14
BRANCH   6  30
HETATM   30  N5  UNL     1      22.540   3.072  10.860  1.00  0.00    -0.383 N 
ATOM     31  H52 UNL     1      21.621   3.200  11.284  1.00  0.00     0.157 HD
ATOM     32  H51 UNL     1      22.685   2.440  10.073  1.00  0.00     0.157 HD
ENDBRANCH   6  30
TORSDOF 8
ENDMDL
MODEL 3
REMARK VINA RESULT: -6.795276508      3.418      5.049
REMARK  8 active torsions:
REMARK  status: ('A' for Active; 'I' for Inactive)
REMARK    1  A    between atoms: C2_2  and  C3_4 
REMARK    2  A    between atoms: C3_4  and  N1_5 
REMARK    3  A    between atoms: N2_8  and  C6_9 
REMARK    4  A    between atoms: C6_9  and  C7_10 
REMARK    5  A    between atoms: C7_10  and  O1_11 
REMARK    6  A    between atoms: C7_10  and  C8_13 
REMARK    7  A    between atoms: C8_13  and  N3_14 
REMARK    8  A    between atoms: C11_19  and  N5_20 
ROOT
HETATM    1  N3  UNL     1      24.382   4.764  14.527  1.00  0.00    -0.324 N 
HETATM    2  C9  UNL     1      23.215   4.126  14.709  1.00  0.00     0.185 A 
HETATM    3  N4  UNL     1      22.742   3.660  13.545  1.00  0.00    -0.346 N 
ATOM      4  H4  UNL     1      21.874   3.140  13.410  1.00  0.00     0.167 HD
HETATM    5  C10 UNL     1      23.618   4.003  12.592  1.00  0.00     0.122 A 
HETATM    6  C11 UNL     1      23.652   3.791  11.220  1.00  0.00     0.132 A 
HETATM    7  N6  UNL     1      24.652   4.238  10.469  1.00  0.00    -0.317 N 
ATOM      8  H6  UNL     1      24.671   4.080   9.461  1.00  0.00     0.170 HD
HETATM    9  C12 UNL     1      25.653   4.918  11.098  1.00  0.00     0.182 A 
HETATM   10 CL1  UNL     1      26.972   5.509  10.113  1.00  0.00    -0.045 Cl
HETATM   11  N7  UNL     1      25.651   5.140  12.422  1.00  0.00    -0.317 N 
ATOM     12  H7  UNL     1      26.424   5.655  12.844  1.00  0.00     0.170 HD
HETATM   13  C13 UNL     1      24.636   4.691  13.210  1.00  0.00     0.141 A 
ENDROOT
BRANCH   1  14
HETATM   14  C8  UNL     1      25.221   5.412  15.499  1.00  0.00     0.168 C 
BRANCH  14  15
HETATM   15  C7  UNL     1      24.472   6.560  16.195  1.00  0.00     0.175 C 
BRANCH  15  16
HETATM   16  C6  UNL     1      23.635   7.233  15.165  1.00  0.00     0.096 C 
BRANCH  16  17
HETATM   17  N2  UNL     1      23.759   8.624  15.011  1.00  0.00    -0.365 N 
HETATM   18  C5  UNL     1      24.354   9.393  16.026  1.00  0.00     0.093 C 
HETATM   19  C4  UNL     1      24.387  10.878  15.735  1.00  0.00     0.321 C 
HETATM   20  N1  UNL     1      24.649  11.177  14.368  1.00  0.00     0.133 N 
HETATM   21  C15 UNL     1      25.046  10.069  13.571  1.00  0.00     0.423 C 
HETATM   22  C14 UNL     1      24.009   8.990  13.656  1.00  0.00     0.196 C 
HETATM   23  F1  UNL     1      26.295   9.651  13.974  1.00  0.00    -0.214 F 
BRANCH  20  24
HETATM   24  C3  UNL     1      23.508  11.828  13.766  1.00  0.00     0.322 C 
BRANCH  24  25
HETATM   25  C2  UNL     1      23.950  12.999  12.945  1.00  0.00     0.007 C 
HETATM   26  C1  UNL     1      23.237  13.413  11.929  1.00  0.00     0.029 C 
HETATM   27 BR1  UNL     1      25.572  13.882  13.391  1.00  0.00    -0.055 Br
ENDBRANCH  24  25
ENDBRANCH  20  24
ENDBRANCH  16  17
ENDBRANCH  15  16
BRANCH  15  28
HETATM   28  O1  UNL     1      23.766   5.980  17.239  1.00  0.00    -0.389 OA
ATOM     29  H1  UNL     1      23.140   5.313  16.981  1.00  0.00     0.210 HD
ENDBRANCH  15  28
ENDBRANCH  14  15
ENDBRANCH   1  14
BRANCH   6  30
HETATM   30  N5  UNL     1      22.656   3.138  10.729  1.00  0.00    -0.383 N 
ATOM     31  H52 UNL     1      21.755   3.075  11.203  1.00  0.00     0.157 HD
ATOM     32  H51 UNL     1      22.823   2.683   9.832  1.00  0.00     0.157 HD
ENDBRANCH   6  30
TORSDOF 8
ENDMDL
MODEL 4
REMARK VINA RESULT: -6.745028685      3.223      4.467
REMARK  8 active torsions:
REMARK  status: ('A' for Active; 'I' for Inactive)
REMARK    1  A    between atoms: C2_2  and  C3_4 
REMARK    2  A    between atoms: C3_4  and  N1_5 
REMARK    3  A    between atoms: N2_8  and  C6_9 
REMARK    4  A    between atoms: C6_9  and  C7_10 
REMARK    5  A    between atoms: C7_10  and  O1_11 
REMARK    6  A    between atoms: C7_10  and  C8_13 
REMARK    7  A    between atoms: C8_13  and  N3_14 
REMARK    8  A    between atoms: C11_19  and  N5_20 
ROOT
HETATM    1  N3  UNL     1      24.662   4.819  14.654  1.00  0.00    -0.324 N 
HETATM    2  C9  UNL     1      23.451   4.323  14.948  1.00  0.00     0.185 A 
HETATM    3  N4  UNL     1      22.834   3.889  13.840  1.00  0.00    -0.346 N 
ATOM      4  H4  UNL     1      21.906   3.469  13.790  1.00  0.00     0.167 HD
HETATM    5  C10 UNL     1      23.662   4.109  12.810  1.00  0.00     0.122 A 
HETATM    6  C11 UNL     1      23.559   3.865  11.447  1.00  0.00     0.132 A 
HETATM    7  N6  UNL     1      24.539   4.179  10.606  1.00  0.00    -0.317 N 
ATOM      8  H6  UNL     1      24.457   3.997   9.606  1.00  0.00     0.170 HD
HETATM    9  C12 UNL     1      25.657   4.753  11.133  1.00  0.00     0.182 A 
HETATM   10 CL1  UNL     1      26.949   5.168  10.029  1.00  0.00    -0.045 Cl
HETATM   11  N7  UNL     1      25.789   5.003  12.445  1.00  0.00    -0.317 N 
ATOM     12  H7  UNL     1      26.647   5.435  12.789  1.00  0.00     0.170 HD
HETATM   13  C13 UNL     1      24.798   4.689  13.325  1.00  0.00     0.141 A 
ENDROOT
BRANCH   1  14
HETATM   14  C8  UNL     1      25.646   5.388  15.537  1.00  0.00     0.168 C 
BRANCH  14  15
HETATM   15  C7  UNL     1      26.170   6.725  14.989  1.00  0.00     0.175 C 
BRANCH  15  16
HETATM   16  C6  UNL     1      25.083   7.729  15.151  1.00  0.00     0.096 C 
BRANCH  16  17
HETATM   17  N2  UNL     1      25.187   8.940  14.447  1.00  0.00    -0.365 N 
HETATM   18  C5  UNL     1      25.532  10.121  15.127  1.00  0.00     0.093 C 
HETATM   19  C4  UNL     1      25.571  11.351  14.246  1.00  0.00     0.321 C 
HETATM   20  N1  UNL     1      26.098  11.095  12.948  1.00  0.00     0.133 N 
HETATM   21  C15 UNL     1      26.689   9.814  12.775  1.00  0.00     0.423 C 
HETATM   22  C14 UNL     1      25.696   8.749  13.129  1.00  0.00     0.196 C 
HETATM   23  F1  UNL     1      27.843   9.749  13.525  1.00  0.00    -0.214 F 
BRANCH  20  24
HETATM   24  C3  UNL     1      25.082  11.303  11.941  1.00  0.00     0.322 C 
BRANCH  24  25
HETATM   25  C2  UNL     1      24.840  12.766  11.740  1.00  0.00     0.007 C 
HETATM   26  C1  UNL     1      25.746  13.526  11.180  1.00  0.00     0.029 C 
HETATM   27 BR1  UNL     1      23.192  13.518  12.315  1.00  0.00    -0.055 Br
ENDBRANCH  24  25
ENDBRANCH  20  24
ENDBRANCH  16  17
ENDBRANCH  15  16
BRANCH  15  28
HETATM   28  O1  UNL     1      27.333   6.999  15.694  1.00  0.00    -0.389 OA
ATOM     29  H1  UNL     1      27.212   7.508  16.488  1.00  0.00     0.210 HD
ENDBRANCH  15  28
ENDBRANCH  14  15
ENDBRANCH   1  14
BRANCH   6  30
HETATM   30  N5  UNL     1      22.459   3.320  11.057  1.00  0.00    -0.383 N 
ATOM     31  H52 UNL     1      22.143   2.414  11.404  1.00  0.00     0.157 HD
ATOM     32  H51 UNL     1      21.919   3.851  10.375  1.00  0.00     0.157 HD
ENDBRANCH   6  30
TORSDOF 8
ENDMDL
MODEL 5
REMARK VINA RESULT: -6.700649114      2.305      3.376
REMARK  8 active torsions:
REMARK  status: ('A' for Active; 'I' for Inactive)
REMARK    1  A    between atoms: C2_2  and  C3_4 
REMARK    2  A    between atoms: C3_4  and  N1_5 
REMARK    3  A    between atoms: N2_8  and  C6_9 
REMARK    4  A    between atoms: C6_9  and  C7_10 
REMARK    5  A    between atoms: C7_10  and  O1_11 
REMARK    6  A    between atoms: C7_10  and  C8_13 
REMARK    7  A    between atoms: C8_13  and  N3_14 
REMARK    8  A    between atoms: C11_19  and  N5_20 
ROOT
HETATM    1  N3  UNL     1      24.595   4.861  14.729  1.00  0.00    -0.324 N 
HETATM    2  C9  UNL     1      23.368   4.406  15.023  1.00  0.00     0.185 A 
HETATM    3  N4  UNL     1      22.754   3.950  13.923  1.00  0.00    -0.346 N 
ATOM      4  H4  UNL     1      21.816   3.552  13.875  1.00  0.00     0.167 HD
HETATM    5  C10 UNL     1      23.600   4.112  12.898  1.00  0.00     0.122 A 
HETATM    6  C11 UNL     1      23.508   3.824  11.542  1.00  0.00     0.132 A 
HETATM    7  N6  UNL     1      24.506   4.083  10.704  1.00  0.00    -0.317 N 
ATOM      8  H6  UNL     1      24.432   3.868   9.710  1.00  0.00     0.170 HD
HETATM    9  C12 UNL     1      25.632   4.646  11.226  1.00  0.00     0.182 A 
HETATM   10 CL1  UNL     1      26.948   4.989  10.126  1.00  0.00    -0.045 Cl
HETATM   11  N7  UNL     1      25.754   4.938  12.530  1.00  0.00    -0.317 N 
ATOM     12  H7  UNL     1      26.619   5.360  12.871  1.00  0.00     0.170 HD
HETATM   13  C13 UNL     1      24.745   4.681  13.407  1.00  0.00     0.141 A 
ENDROOT
BRANCH   1  14
HETATM   14  C8  UNL     1      25.582   5.436  15.605  1.00  0.00     0.168 C 
BRANCH  14  15
HETATM   15  C7  UNL     1      26.283   6.629  14.937  1.00  0.00     0.175 C 
BRANCH  15  16
HETATM   16  C6  UNL     1      25.290   7.734  14.847  1.00  0.00     0.096 C 
BRANCH  16  17
HETATM   17  N2  UNL     1      25.347   8.590  13.735  1.00  0.00    -0.365 N 
HETATM   18  C5  UNL     1      24.967   9.937  13.864  1.00  0.00     0.093 C 
HETATM   19  C4  UNL     1      25.048  10.727  12.576  1.00  0.00     0.321 C 
HETATM   20  N1  UNL     1      26.169  10.377  11.771  1.00  0.00     0.133 N 
HETATM   21  C15 UNL     1      27.121   9.526  12.396  1.00  0.00     0.423 C 
HETATM   22  C14 UNL     1      26.444   8.280  12.879  1.00  0.00     0.196 C 
HETATM   23  F1  UNL     1      27.751  10.224  13.404  1.00  0.00    -0.214 F 
BRANCH  20  24
HETATM   24  C3  UNL     1      25.733   9.787  10.526  1.00  0.00     0.322 C 
BRANCH  24  25
HETATM   25  C2  UNL     1      26.788   9.945   9.476  1.00  0.00     0.007 C 
HETATM   26  C1  UNL     1      27.058  11.121   8.968  1.00  0.00     0.029 C 
HETATM   27 BR1  UNL     1      27.736   8.410   8.879  1.00  0.00    -0.055 Br
ENDBRANCH  24  25
ENDBRANCH  20  24
ENDBRANCH  16  17
ENDBRANCH  15  16
BRANCH  15  28
HETATM   28  O1  UNL     1      27.398   6.904  15.716  1.00  0.00    -0.389 OA
ATOM     29  H1  UNL     1      27.905   7.659  15.441  1.00  0.00     0.210 HD
ENDBRANCH  15  28
ENDBRANCH  14  15
ENDBRANCH   1  14
BRANCH   6  30
HETATM   30  N5  UNL     1      22.399   3.293  11.157  1.00  0.00    -0.383 N 
ATOM     31  H52 UNL     1      21.846   3.675  10.390  1.00  0.00     0.157 HD
ATOM     32  H51 UNL     1      22.105   2.462  11.669  1.00  0.00     0.157 HD
ENDBRANCH   6  30
TORSDOF 8
ENDMDL
