MODEL 1
REMARK VINA RESULT: -8.232037966      0.000      0.000
REMARK  8 active torsions:
REMARK  status: ('A' for Active; 'I' for Inactive)
REMARK    1  A    between atoms: O1_2  and  C2_3 
REMARK    2  A    between atoms: C4_5  and  C5_6 
REMARK    3  A    between atoms: C6_10  and  O2_11 
REMARK    4  A    between atoms: O2_11  and  C7_12 
REMARK    5  A    between atoms: C7_12  and  C8_13 
REMARK    6  A    between atoms: C12_18  and  C13_19 
REMARK    7  A    between atoms: C15_23  and  N2_24 
REMARK    8  A    between atoms: C18_31  and  N4_32 
REMARK       I    between atoms: N4_32  and  C19_34 
REMARK       I    between atoms: C19_34  and  N5_36 
ROOT
HETATM    1  C2  UNL     1      24.474   5.346  14.531  1.00  0.00     0.144 C 
HETATM    2  C3  UNL     1      23.838   4.314  13.633  1.00  0.00     0.050 C 
HETATM    3  C4  UNL     1      24.072   4.736  12.192  1.00  0.00     0.125 C 
HETATM    4  C6  UNL     1      25.488   5.234  12.095  1.00  0.00     0.136 C 
HETATM    5  C17 UNL     1      25.366   6.725  12.616  1.00  0.00     0.060 C 
HETATM    6  C18 UNL     1      24.476   6.682  13.822  1.00  0.00     0.117 C 
ENDROOT
BRANCH   4   7
HETATM    7  O2  UNL     1      26.053   5.215  10.910  1.00  0.00    -0.385 OA
BRANCH   7   8
HETATM    8  C7  UNL     1      27.328   5.335  10.635  1.00  0.00     0.175 C 
BRANCH   8   9
HETATM    9  C8  UNL     1      28.138   6.561  10.746  1.00  0.00     0.042 C 
HETATM   10  C9  UNL     1      27.882   7.616   9.725  1.00  0.00     0.174 C 
HETATM   11  O3  UNL     1      28.152   7.070   8.468  1.00  0.00    -0.391 OA
HETATM   12  C10 UNL     1      29.504   6.917   8.250  1.00  0.00     0.168 C 
HETATM   13  C11 UNL     1      30.279   6.392   9.388  1.00  0.00     0.036 C 
HETATM   14  C12 UNL     1      29.605   6.177  10.679  1.00  0.00     0.031 C 
BRANCH  14  15
HETATM   15  C13 UNL     1      30.360   6.749  11.854  1.00  0.00    -0.021 A 
HETATM   16  C14 UNL     1      29.695   7.240  12.977  1.00  0.00     0.115 A 
HETATM   17  N1  UNL     1      30.382   7.737  14.018  1.00  0.00    -0.202 N 
HETATM   18  C15 UNL     1      31.714   7.769  13.995  1.00  0.00     0.675 A 
ATOM     19  H1  UNL     1      29.881   8.092  14.833  1.00  0.00     0.183 HD
HETATM   20  N3  UNL     1      32.377   7.308  12.938  1.00  0.00    -0.202 N 
HETATM   21  C16 UNL     1      31.734   6.804  11.878  1.00  0.00     0.115 A 
ATOM     22  H3  UNL     1      33.396   7.340  12.936  1.00  0.00     0.183 HD
BRANCH  18  23
HETATM   23  N2  UNL     1      32.299   8.270  15.051  1.00  0.00    -0.234 N 
ATOM     24  H22 UNL     1      31.966   8.119  16.003  1.00  0.00     0.174 HD
ATOM     25  H21 UNL     1      33.129   8.837  14.880  1.00  0.00     0.174 HD
ENDBRANCH  18  23
ENDBRANCH  14  15
ENDBRANCH   8   9
ENDBRANCH   7   8
ENDBRANCH   4   7
BRANCH   3  26
HETATM   26  C5  UNL     1      23.644   3.734  11.189  1.00  0.00     0.393 C 
HETATM   27  F1  UNL     1      24.563   2.841  10.760  1.00  0.00    -0.171 F 
HETATM   28  F2  UNL     1      23.018   4.401  10.148  1.00  0.00    -0.171 F 
HETATM   29  F3  UNL     1      22.614   2.989  11.787  1.00  0.00    -0.171 F 
ENDBRANCH   3  26
BRANCH   6  30
HETATM   30  N4  UNL     1      24.865   7.724  14.791  1.00  0.00    -0.336 N 
HETATM   31  C19 UNL     1      24.279   9.012  14.768  1.00  0.00     0.317 C 
HETATM   32  O4  UNL     1      23.407   9.246  13.886  1.00  0.00    -0.247 OA
HETATM   33  N5  UNL     1      24.604  10.040  15.659  1.00  0.00    -0.343 N 
HETATM   34  C20 UNL     1      23.984  11.352  15.601  1.00  0.00     0.154 C 
HETATM   35  C21 UNL     1      25.600   9.829  16.708  1.00  0.00     0.154 C 
ATOM     36  H4  UNL     1      25.573   7.511  15.494  1.00  0.00     0.164 HD
ENDBRANCH   6  30
BRANCH   1  37
HETATM   37  O1  UNL     1      23.816   5.459  15.751  1.00  0.00    -0.389 OA
HETATM   38  C1  UNL     1      22.618   4.759  15.797  1.00  0.00     0.202 C 
ENDBRANCH   1  37
TORSDOF 8
ENDMDL
MODEL 2
REMARK VINA RESULT: -8.186199815      2.741      3.468
REMARK  8 active torsions:
REMARK  status: ('A' for Active; 'I' for Inactive)
REMARK    1  A    between atoms: O1_2  and  C2_3 
REMARK    2  A    between atoms: C4_5  and  C5_6 
REMARK    3  A    between atoms: C6_10  and  O2_11 
REMARK    4  A    between atoms: O2_11  and  C7_12 
REMARK    5  A    between atoms: C7_12  and  C8_13 
REMARK    6  A    between atoms: C12_18  and  C13_19 
REMARK    7  A    between atoms: C15_23  and  N2_24 
REMARK    8  A    between atoms: C18_31  and  N4_32 
REMARK       I    between atoms: N4_32  and  C19_34 
REMARK       I    between atoms: C19_34  and  N5_36 
ROOT
HETATM    1  C2  UNL     1      25.521   5.857  14.298  1.00  0.00     0.144 C 
HETATM    2  C3  UNL     1      24.980   4.736  13.445  1.00  0.00     0.050 C 
HETATM    3  C4  UNL     1      24.788   5.268  12.034  1.00  0.00     0.125 C 
HETATM    4  C6  UNL     1      25.984   6.121  11.711  1.00  0.00     0.136 C 
HETATM    5  C17 UNL     1      25.616   7.504  12.388  1.00  0.00     0.060 C 
HETATM    6  C18 UNL     1      25.043   7.178  13.735  1.00  0.00     0.117 C 
ENDROOT
BRANCH   4   7
HETATM    7  O2  UNL     1      26.269   6.302  10.442  1.00  0.00    -0.385 OA
BRANCH   7   8
HETATM    8  C7  UNL     1      27.408   6.063   9.840  1.00  0.00     0.175 C 
BRANCH   8   9
HETATM    9  C8  UNL     1      28.259   7.048   9.150  1.00  0.00     0.042 C 
HETATM   10  C9  UNL     1      29.541   6.534   8.587  1.00  0.00     0.174 C 
HETATM   11  O3  UNL     1      30.296   6.021   9.644  1.00  0.00    -0.391 OA
HETATM   12  C10 UNL     1      30.822   7.019  10.436  1.00  0.00     0.168 C 
HETATM   13  C11 UNL     1      29.910   8.136  10.745  1.00  0.00     0.036 C 
HETATM   14  C12 UNL     1      28.579   8.171  10.118  1.00  0.00     0.031 C 
BRANCH  14  15
HETATM   15  C13 UNL     1      28.235   9.510   9.514  1.00  0.00    -0.021 A 
HETATM   16  C14 UNL     1      26.998   9.740   8.911  1.00  0.00     0.115 A 
HETATM   17  N1  UNL     1      26.704  10.941   8.387  1.00  0.00    -0.202 N 
HETATM   18  C15 UNL     1      27.591  11.934   8.434  1.00  0.00     0.675 A 
ATOM     19  H1  UNL     1      25.795  11.094   7.950  1.00  0.00     0.183 HD
HETATM   20  N3  UNL     1      28.778  11.746   9.002  1.00  0.00    -0.202 N 
HETATM   21  C16 UNL     1      29.115  10.567   9.538  1.00  0.00     0.115 A 
ATOM     22  H3  UNL     1      29.445  12.517   9.030  1.00  0.00     0.183 HD
BRANCH  18  23
HETATM   23  N2  UNL     1      27.218  13.067   7.899  1.00  0.00    -0.234 N 
ATOM     24  H22 UNL     1      26.614  13.131   7.079  1.00  0.00     0.174 HD
ATOM     25  H21 UNL     1      27.568  13.914   8.347  1.00  0.00     0.174 HD
ENDBRANCH  18  23
ENDBRANCH  14  15
ENDBRANCH   8   9
ENDBRANCH   7   8
ENDBRANCH   4   7
BRANCH   3  26
HETATM   26  C5  UNL     1      24.415   4.234  11.041  1.00  0.00     0.393 C 
HETATM   27  F1  UNL     1      25.401   3.463  10.534  1.00  0.00    -0.171 F 
HETATM   28  F2  UNL     1      23.643   4.835  10.059  1.00  0.00    -0.171 F 
HETATM   29  F3  UNL     1      23.523   3.364  11.692  1.00  0.00    -0.171 F 
ENDBRANCH   3  26
BRANCH   6  30
HETATM   30  N4  UNL     1      25.363   8.241  14.707  1.00  0.00    -0.336 N 
HETATM   31  C19 UNL     1      24.563   9.403  14.823  1.00  0.00     0.317 C 
HETATM   32  O4  UNL     1      23.559   9.504  14.064  1.00  0.00    -0.247 OA
HETATM   33  N5  UNL     1      24.813  10.444  15.723  1.00  0.00    -0.343 N 
HETATM   34  C20 UNL     1      23.972  11.623  15.809  1.00  0.00     0.154 C 
HETATM   35  C21 UNL     1      25.956  10.382  16.634  1.00  0.00     0.154 C 
ATOM     36  H4  UNL     1      26.180   8.136  15.308  1.00  0.00     0.164 HD
ENDBRANCH   6  30
BRANCH   1  37
HETATM   37  O1  UNL     1      25.132   5.741  15.628  1.00  0.00    -0.389 OA
HETATM   38  C1  UNL     1      25.006   4.425  16.051  1.00  0.00     0.202 C 
ENDBRANCH   1  37
TORSDOF 8
ENDMDL
MODEL 3
REMARK VINA RESULT: -8.147903318      4.501      7.114
REMARK  8 active torsions:
REMARK  status: ('A' for Active; 'I' for Inactive)
REMARK    1  A    between atoms: O1_2  and  C2_3 
REMARK    2  A    between atoms: C4_5  and  C5_6 
REMARK    3  A    between atoms: C6_10  and  O2_11 
REMARK    4  A    between atoms: O2_11  and  C7_12 
REMARK    5  A    between atoms: C7_12  and  C8_13 
REMARK    6  A    between atoms: C12_18  and  C13_19 
REMARK    7  A    between atoms: C15_23  and  N2_24 
REMARK    8  A    between atoms: C18_31  and  N4_32 
REMARK       I    between atoms: N4_32  and  C19_34 
REMARK       I    between atoms: C19_34  and  N5_36 
ROOT
HETATM    1  C2  UNL     1      24.841  11.824  14.328  1.00  0.00     0.144 C 
HETATM    2  C3  UNL     1      25.435  11.076  13.160  1.00  0.00     0.050 C 
HETATM    3  C4  UNL     1      25.334   9.589  13.452  1.00  0.00     0.125 C 
HETATM    4  C6  UNL     1      23.980   9.342  14.058  1.00  0.00     0.136 C 
HETATM    5  C17 UNL     1      24.206   9.726  15.578  1.00  0.00     0.060 C 
HETATM    6  C18 UNL     1      25.009  10.992  15.581  1.00  0.00     0.117 C 
ENDROOT
BRANCH   4   7
HETATM    7  O2  UNL     1      23.492   8.126  13.968  1.00  0.00    -0.385 OA
BRANCH   7   8
HETATM    8  C7  UNL     1      23.433   7.221  14.913  1.00  0.00     0.175 C 
BRANCH   8   9
HETATM    9  C8  UNL     1      23.270   5.768  14.727  1.00  0.00     0.042 C 
HETATM   10  C9  UNL     1      23.103   4.958  15.967  1.00  0.00     0.174 C 
HETATM   11  O3  UNL     1      24.244   5.137  16.752  1.00  0.00    -0.391 OA
HETATM   12  C10 UNL     1      25.336   4.473  16.236  1.00  0.00     0.168 C 
HETATM   13  C11 UNL     1      25.506   4.564  14.774  1.00  0.00     0.036 C 
HETATM   14  C12 UNL     1      24.475   5.241  13.971  1.00  0.00     0.031 C 
BRANCH  14  15
HETATM   15  C13 UNL     1      24.042   4.451  12.761  1.00  0.00    -0.021 A 
HETATM   16  C14 UNL     1      24.801   4.439  11.590  1.00  0.00     0.115 A 
HETATM   17  N1  UNL     1      24.407   3.722  10.525  1.00  0.00    -0.202 N 
HETATM   18  C15 UNL     1      23.282   3.011  10.568  1.00  0.00     0.675 A 
ATOM     19  H1  UNL     1      24.974   3.723   9.677  1.00  0.00     0.183 HD
HETATM   20  N3  UNL     1      22.536   3.002  11.670  1.00  0.00    -0.202 N 
HETATM   21  C16 UNL     1      22.890   3.700  12.756  1.00  0.00     0.115 A 
ATOM     22  H3  UNL     1      21.678   2.452  11.687  1.00  0.00     0.183 HD
BRANCH  18  23
HETATM   23  N2  UNL     1      22.977   2.345   9.486  1.00  0.00    -0.234 N 
ATOM     24  H22 UNL     1      23.548   1.587   9.112  1.00  0.00     0.174 HD
ATOM     25  H21 UNL     1      22.116   2.622   9.013  1.00  0.00     0.174 HD
ENDBRANCH  18  23
ENDBRANCH  14  15
ENDBRANCH   8   9
ENDBRANCH   7   8
ENDBRANCH   4   7
BRANCH   3  26
HETATM   26  C5  UNL     1      25.730   8.719  12.320  1.00  0.00     0.393 C 
HETATM   27  F1  UNL     1      24.787   8.412  11.403  1.00  0.00    -0.171 F 
HETATM   28  F2  UNL     1      26.366   7.600  12.835  1.00  0.00    -0.171 F 
HETATM   29  F3  UNL     1      26.747   9.404  11.633  1.00  0.00    -0.171 F 
ENDBRANCH   3  26
BRANCH   6  30
HETATM   30  N4  UNL     1      24.657  11.827  16.745  1.00  0.00    -0.336 N 
HETATM   31  C19 UNL     1      25.397  11.767  17.950  1.00  0.00     0.317 C 
HETATM   32  O4  UNL     1      26.376  10.971  18.000  1.00  0.00    -0.247 OA
HETATM   33  N5  UNL     1      25.115  12.531  19.086  1.00  0.00    -0.343 N 
HETATM   34  C20 UNL     1      25.895  12.438  20.307  1.00  0.00     0.154 C 
HETATM   35  C21 UNL     1      24.000  13.478  19.088  1.00  0.00     0.154 C 
ATOM     36  H4  UNL     1      23.862  12.462  16.680  1.00  0.00     0.164 HD
ENDBRANCH   6  30
BRANCH   1  37
HETATM   37  O1  UNL     1      25.427  13.073  14.507  1.00  0.00    -0.389 OA
HETATM   38  C1  UNL     1      25.353  13.882  13.382  1.00  0.00     0.202 C 
ENDBRANCH   1  37
TORSDOF 8
ENDMDL
MODEL 4
REMARK VINA RESULT: -8.087030641      3.056      7.384
REMARK  8 active torsions:
REMARK  status: ('A' for Active; 'I' for Inactive)
REMARK    1  A    between atoms: O1_2  and  C2_3 
REMARK    2  A    between atoms: C4_5  and  C5_6 
REMARK    3  A    between atoms: C6_10  and  O2_11 
REMARK    4  A    between atoms: O2_11  and  C7_12 
REMARK    5  A    between atoms: C7_12  and  C8_13 
REMARK    6  A    between atoms: C12_18  and  C13_19 
REMARK    7  A    between atoms: C15_23  and  N2_24 
REMARK    8  A    between atoms: C18_31  and  N4_32 
REMARK       I    between atoms: N4_32  and  C19_34 
REMARK       I    between atoms: C19_34  and  N5_36 
ROOT
HETATM    1  C2  UNL     1      24.794   5.391  12.110  1.00  0.00     0.144 C 
HETATM    2  C3  UNL     1      24.366   4.607  13.326  1.00  0.00     0.050 C 
HETATM    3  C4  UNL     1      25.068   5.197  14.538  1.00  0.00     0.125 C 
HETATM    4  C6  UNL     1      25.025   6.694  14.396  1.00  0.00     0.136 C 
HETATM    5  C17 UNL     1      26.242   6.985  13.425  1.00  0.00     0.060 C 
HETATM    6  C18 UNL     1      26.182   5.946  12.345  1.00  0.00     0.117 C 
ENDROOT
BRANCH   4   7
HETATM    7  O2  UNL     1      25.142   7.407  15.492  1.00  0.00    -0.385 OA
BRANCH   7   8
HETATM    8  C7  UNL     1      24.657   8.602  15.720  1.00  0.00     0.175 C 
BRANCH   8   9
HETATM    9  C8  UNL     1      25.319   9.887  15.434  1.00  0.00     0.042 C 
HETATM   10  C9  UNL     1      26.776   9.961  15.740  1.00  0.00     0.174 C 
HETATM   11  O3  UNL     1      26.939   9.722  17.107  1.00  0.00    -0.391 OA
HETATM   12  C10 UNL     1      26.527  10.791  17.872  1.00  0.00     0.168 C 
HETATM   13  C11 UNL     1      25.269  11.433  17.450  1.00  0.00     0.036 C 
HETATM   14  C12 UNL     1      24.611  10.978  16.214  1.00  0.00     0.031 C 
BRANCH  14  15
HETATM   15  C13 UNL     1      24.204  12.109  15.300  1.00  0.00    -0.021 A 
HETATM   16  C14 UNL     1      24.095  13.418  15.768  1.00  0.00     0.115 A 
HETATM   17  N1  UNL     1      23.742  14.415  14.940  1.00  0.00    -0.202 N 
HETATM   18  C15 UNL     1      23.487  14.168  13.656  1.00  0.00     0.675 A 
ATOM     19  H1  UNL     1      23.668  15.368  15.297  1.00  0.00     0.183 HD
HETATM   20  N3  UNL     1      23.581  12.930  13.180  1.00  0.00    -0.202 N 
HETATM   21  C16 UNL     1      23.931  11.905  13.968  1.00  0.00     0.115 A 
ATOM     22  H3  UNL     1      23.383  12.757  12.195  1.00  0.00     0.183 HD
BRANCH  18  23
HETATM   23  N2  UNL     1      23.149  15.197  12.925  1.00  0.00    -0.234 N 
ATOM     24  H22 UNL     1      23.047  16.142  13.296  1.00  0.00     0.174 HD
ATOM     25  H21 UNL     1      22.987  15.014  11.935  1.00  0.00     0.174 HD
ENDBRANCH  18  23
ENDBRANCH  14  15
ENDBRANCH   8   9
ENDBRANCH   7   8
ENDBRANCH   4   7
BRANCH   3  26
HETATM   26  C5  UNL     1      24.621   4.634  15.833  1.00  0.00     0.393 C 
HETATM   27  F1  UNL     1      23.900   5.432  16.650  1.00  0.00    -0.171 F 
HETATM   28  F2  UNL     1      25.719   4.070  16.463  1.00  0.00    -0.171 F 
HETATM   29  F3  UNL     1      23.801   3.535  15.524  1.00  0.00    -0.171 F 
ENDBRANCH   3  26
BRANCH   6  30
HETATM   30  N4  UNL     1      26.687   6.492  11.071  1.00  0.00    -0.336 N 
HETATM   31  C19 UNL     1      27.986   6.184  10.598  1.00  0.00     0.317 C 
HETATM   32  O4  UNL     1      28.705   5.424  11.304  1.00  0.00    -0.247 OA
HETATM   33  N5  UNL     1      28.522   6.669   9.401  1.00  0.00    -0.343 N 
HETATM   34  C20 UNL     1      29.861   6.335   8.950  1.00  0.00     0.154 C 
HETATM   35  C21 UNL     1      27.736   7.547   8.535  1.00  0.00     0.154 C 
ATOM     36  H4  UNL     1      26.088   7.105  10.519  1.00  0.00     0.164 HD
ENDBRANCH   6  30
BRANCH   1  37
HETATM   37  O1  UNL     1      24.784   4.617  10.954  1.00  0.00    -0.389 OA
HETATM   38  C1  UNL     1      23.628   3.864  10.807  1.00  0.00     0.202 C 
ENDBRANCH   1  37
TORSDOF 8
ENDMDL
MODEL 5
REMARK VINA RESULT: -8.079128650      2.340      6.973
REMARK  8 active torsions:
REMARK  status: ('A' for Active; 'I' for Inactive)
REMARK    1  A    between atoms: O1_2  and  C2_3 
REMARK    2  A    between atoms: C4_5  and  C5_6 
REMARK    3  A    between atoms: C6_10  and  O2_11 
REMARK    4  A    between atoms: O2_11  and  C7_12 
REMARK    5  A    between atoms: C7_12  and  C8_13 
REMARK    6  A    between atoms: C12_18  and  C13_19 
REMARK    7  A    between atoms: C15_23  and  N2_24 
REMARK    8  A    between atoms: C18_31  and  N4_32 
REMARK       I    between atoms: N4_32  and  C19_34 
REMARK       I    between atoms: C19_34  and  N5_36 
ROOT
HETATM    1  C2  UNL     1      28.389   6.481   9.640  1.00  0.00     0.144 C 
HETATM    2  C3  UNL     1      27.361   5.379   9.566  1.00  0.00     0.050 C 
HETATM    3  C4  UNL     1      26.404   5.548  10.733  1.00  0.00     0.125 C 
HETATM    4  C6  UNL     1      26.110   7.018  10.861  1.00  0.00     0.136 C 
HETATM    5  C17 UNL     1      27.357   7.550  11.679  1.00  0.00     0.060 C 
HETATM    6  C18 UNL     1      28.567   6.892  11.085  1.00  0.00     0.117 C 
ENDROOT
BRANCH   4   7
HETATM    7  O2  UNL     1      24.995   7.359  11.466  1.00  0.00    -0.385 OA
BRANCH   7   8
HETATM    8  C7  UNL     1      24.845   8.251  12.414  1.00  0.00     0.175 C 
BRANCH   8   9
HETATM    9  C8  UNL     1      24.531   7.984  13.828  1.00  0.00     0.042 C 
HETATM   10  C9  UNL     1      25.072   8.956  14.820  1.00  0.00     0.174 C 
HETATM   11  O3  UNL     1      26.464   8.949  14.710  1.00  0.00    -0.391 OA
HETATM   12  C10 UNL     1      27.019   7.805  15.242  1.00  0.00     0.168 C 
HETATM   13  C11 UNL     1      26.315   6.548  14.927  1.00  0.00     0.036 C 
HETATM   14  C12 UNL     1      25.046   6.602  14.183  1.00  0.00     0.031 C 
BRANCH  14  15
HETATM   15  C13 UNL     1      23.951   5.768  14.803  1.00  0.00    -0.021 A 
HETATM   16  C14 UNL     1      22.873   6.357  15.463  1.00  0.00     0.115 A 
HETATM   17  N1  UNL     1      21.902   5.601  16.000  1.00  0.00    -0.202 N 
HETATM   18  C15 UNL     1      21.954   4.272  15.913  1.00  0.00     0.675 A 
ATOM     19  H1  UNL     1      21.119   6.046  16.479  1.00  0.00     0.183 HD
HETATM   20  N3  UNL     1      22.969   3.681  15.291  1.00  0.00    -0.202 N 
HETATM   21  C16 UNL     1      23.959   4.394  14.739  1.00  0.00     0.115 A 
ATOM     22  H3  UNL     1      22.994   2.663  15.232  1.00  0.00     0.183 HD
BRANCH  18  23
HETATM   23  N2  UNL     1      20.967   3.617  16.465  1.00  0.00    -0.234 N 
ATOM     24  H22 UNL     1      20.058   4.034  16.665  1.00  0.00     0.174 HD
ATOM     25  H21 UNL     1      21.147   2.640  16.696  1.00  0.00     0.174 HD
ENDBRANCH  18  23
ENDBRANCH  14  15
ENDBRANCH   8   9
ENDBRANCH   7   8
ENDBRANCH   4   7
BRANCH   3  26
HETATM   26  C5  UNL     1      25.240   4.633  10.702  1.00  0.00     0.393 C 
HETATM   27  F1  UNL     1      24.091   5.094  10.161  1.00  0.00    -0.171 F 
HETATM   28  F2  UNL     1      25.064   4.111  11.974  1.00  0.00    -0.171 F 
HETATM   29  F3  UNL     1      25.628   3.526   9.929  1.00  0.00    -0.171 F 
ENDBRANCH   3  26
BRANCH   6  30
HETATM   30  N4  UNL     1      29.739   7.783  11.175  1.00  0.00    -0.336 N 
HETATM   31  C19 UNL     1      30.679   7.666  12.228  1.00  0.00     0.317 C 
HETATM   32  O4  UNL     1      30.481   6.770  13.095  1.00  0.00    -0.247 OA
HETATM   33  N5  UNL     1      31.808   8.478  12.368  1.00  0.00    -0.343 N 
HETATM   34  C20 UNL     1      32.747   8.331  13.465  1.00  0.00     0.154 C 
HETATM   35  C21 UNL     1      32.096   9.528  11.392  1.00  0.00     0.154 C 
ATOM     36  H4  UNL     1      29.876   8.499  10.462  1.00  0.00     0.164 HD
ENDBRANCH   6  30
BRANCH   1  37
HETATM   37  O1  UNL     1      29.613   6.096   9.103  1.00  0.00    -0.389 OA
HETATM   38  C1  UNL     1      30.075   6.954   8.115  1.00  0.00     0.202 C 
ENDBRANCH   1  37
TORSDOF 8
ENDMDL
