MODEL 1
REMARK VINA RESULT: -7.871700461      0.000      0.000
REMARK  11 active torsions:
REMARK  status: ('A' for Active; 'I' for Inactive)
REMARK    1  A    between atoms: N1_1  and  N2_4 
REMARK    2  A    between atoms: C1_6  and  N3_7 
REMARK    3  A    between atoms: C1_6  and  C2_12 
REMARK    4  A    between atoms: N3_7  and  N4_9 
REMARK    5  A    between atoms: C2_12  and  N5_13 
REMARK    6  A    between atoms: C2_12  and  C4_17 
REMARK    7  A    between atoms: N5_13  and  C3_15 
REMARK       I    between atoms: C4_17  and  N6_19 
REMARK       I    between atoms: N6_19  and  C5_21 
REMARK    8  A    between atoms: C5_21  and  C6_23 
REMARK    9  A    between atoms: C6_23  and  N7_24 
REMARK   10  A    between atoms: C6_23  and  C7_28 
REMARK   11  A    between atoms: C7_28  and  C8_29 
ROOT
HETATM    1  C4  UNL     1      44.473 -70.220  30.543  1.00  0.00     0.254 C 
HETATM    2  O2  UNL     1      45.342 -70.027  29.621  1.00  0.00    -0.270 OA
HETATM    3  N6  UNL     1      43.267 -69.514  30.468  1.00  0.00    -0.294 N 
ATOM      4  H6  UNL     1      43.124 -68.936  29.640  1.00  0.00     0.171 HD
HETATM    5  C5  UNL     1      42.216 -69.523  31.440  1.00  0.00     0.255 C 
HETATM    6  O3  UNL     1      42.297 -70.188  32.478  1.00  0.00    -0.271 OA
ENDROOT
BRANCH   1   7
HETATM    7  C2  UNL     1      44.862 -71.186  31.593  1.00  0.00     0.247 C 
BRANCH   7   8
HETATM    8  C1  UNL     1      46.113 -71.907  31.146  1.00  0.00     0.142 C 
HETATM    9  N2  UNL     1      46.096 -72.992  30.461  1.00  0.00    -0.292 N 
ATOM     10  H2  UNL     1      45.200 -73.411  30.213  1.00  0.00     0.187 HD
BRANCH   9  11
HETATM   11  N1  UNL     1      47.276 -73.611  30.048  1.00  0.00    -0.344 N 
ATOM     12  H12 UNL     1      47.662 -73.355  29.139  1.00  0.00     0.176 HD
ATOM     13  H11 UNL     1      47.747 -74.302  30.630  1.00  0.00     0.176 HD
ENDBRANCH   9  11
BRANCH   8  14
HETATM   14  N3  UNL     1      47.373 -71.347  31.474  1.00  0.00    -0.292 N 
ATOM     15  H3  UNL     1      48.002 -71.872  32.081  1.00  0.00     0.187 HD
BRANCH  14  16
HETATM   16  N4  UNL     1      47.786 -70.094  30.993  1.00  0.00    -0.344 N 
ATOM     17  H42 UNL     1      47.101 -69.339  30.982  1.00  0.00     0.176 HD
ATOM     18  H41 UNL     1      48.736 -69.923  30.661  1.00  0.00     0.176 HD
ENDBRANCH  14  16
ENDBRANCH   8  14
ENDBRANCH   7   8
BRANCH   7  19
HETATM   19  N5  UNL     1      45.204 -70.438  32.821  1.00  0.00    -0.349 N 
ATOM     20  H5  UNL     1      45.183 -69.418  32.822  1.00  0.00     0.163 HD
BRANCH  19  21
HETATM   21  C3  UNL     1      45.559 -71.142  33.991  1.00  0.00     0.349 C 
HETATM   22  O1  UNL     1      46.220 -70.583  34.926  1.00  0.00    -0.284 OA
ENDBRANCH  19  21
ENDBRANCH   7  19
ENDBRANCH   1   7
BRANCH   5  23
HETATM   23  C6  UNL     1      41.022 -68.710  31.165  1.00  0.00     0.280 C 
BRANCH  23  24
HETATM   24  N7  UNL     1      40.031 -68.852  32.236  1.00  0.00    -0.066 N 
ATOM     25  H73 UNL     1      40.456 -69.189  33.100  1.00  0.00     0.275 HD
ATOM     26  H72 UNL     1      39.702 -67.945  32.567  1.00  0.00     0.275 HD
ATOM     27  H71 UNL     1      39.257 -69.448  31.941  1.00  0.00     0.275 HD
ENDBRANCH  23  24
BRANCH  23  28
HETATM   28  C7  UNL     1      41.335 -67.274  31.023  1.00  0.00     0.101 C 
BRANCH  28  29
HETATM   29  C8  UNL     1      41.308 -66.436  32.222  1.00  0.00     0.028 A 
HETATM   30  C9  UNL     1      40.327 -65.463  32.442  1.00  0.00     0.114 A 
HETATM   31  N8  UNL     1      40.588 -64.825  33.597  1.00  0.00    -0.360 N 
HETATM   32  C10 UNL     1      41.711 -65.378  34.103  1.00  0.00     0.180 A 
ATOM     33  H8  UNL     1      40.043 -64.069  34.010  1.00  0.00     0.166 HD
HETATM   34  N9  UNL     1      42.124 -66.342  33.262  1.00  0.00    -0.355 N 
ATOM     35  H9  UNL     1      42.952 -66.920  33.404  1.00  0.00     0.166 HD
ENDBRANCH  28  29
ENDBRANCH  23  28
ENDBRANCH   5  23
TORSDOF 11
ENDMDL
MODEL 2
REMARK VINA RESULT: -7.773195676      1.194      1.630
REMARK  11 active torsions:
REMARK  status: ('A' for Active; 'I' for Inactive)
REMARK    1  A    between atoms: N1_1  and  N2_4 
REMARK    2  A    between atoms: C1_6  and  N3_7 
REMARK    3  A    between atoms: C1_6  and  C2_12 
REMARK    4  A    between atoms: N3_7  and  N4_9 
REMARK    5  A    between atoms: C2_12  and  N5_13 
REMARK    6  A    between atoms: C2_12  and  C4_17 
REMARK    7  A    between atoms: N5_13  and  C3_15 
REMARK       I    between atoms: C4_17  and  N6_19 
REMARK       I    between atoms: N6_19  and  C5_21 
REMARK    8  A    between atoms: C5_21  and  C6_23 
REMARK    9  A    between atoms: C6_23  and  N7_24 
REMARK   10  A    between atoms: C6_23  and  C7_28 
REMARK   11  A    between atoms: C7_28  and  C8_29 
ROOT
HETATM    1  C4  UNL     1      45.011 -69.849  30.240  1.00  0.00     0.254 C 
HETATM    2  O2  UNL     1      45.635 -69.602  29.148  1.00  0.00    -0.270 OA
HETATM    3  N6  UNL     1      43.641 -69.567  30.292  1.00  0.00    -0.294 N 
ATOM      4  H6  UNL     1      43.205 -69.246  29.428  1.00  0.00     0.171 HD
HETATM    5  C5  UNL     1      42.793 -69.686  31.439  1.00  0.00     0.255 C 
HETATM    6  O3  UNL     1      43.228 -70.064  32.532  1.00  0.00    -0.271 OA
ENDROOT
BRANCH   1   7
HETATM    7  C2  UNL     1      45.834 -70.412  31.332  1.00  0.00     0.247 C 
BRANCH   7   8
HETATM    8  C1  UNL     1      45.742 -71.920  31.278  1.00  0.00     0.142 C 
HETATM    9  N2  UNL     1      46.158 -72.618  30.284  1.00  0.00    -0.292 N 
ATOM     10  H2  UNL     1      46.558 -72.143  29.475  1.00  0.00     0.187 HD
BRANCH   9  11
HETATM   11  N1  UNL     1      46.075 -74.010  30.287  1.00  0.00    -0.344 N 
ATOM     12  H12 UNL     1      45.516 -74.459  31.013  1.00  0.00     0.176 HD
ATOM     13  H11 UNL     1      46.556 -74.574  29.587  1.00  0.00     0.176 HD
ENDBRANCH   9  11
BRANCH   8  14
HETATM   14  N3  UNL     1      45.192 -72.606  32.389  1.00  0.00    -0.292 N 
ATOM     15  H3  UNL     1      44.880 -73.569  32.268  1.00  0.00     0.187 HD
BRANCH  14  16
HETATM   16  N4  UNL     1      45.061 -72.006  33.653  1.00  0.00    -0.344 N 
ATOM     17  H42 UNL     1      45.549 -71.125  33.814  1.00  0.00     0.176 HD
ATOM     18  H41 UNL     1      44.503 -72.422  34.399  1.00  0.00     0.176 HD
ENDBRANCH  14  16
ENDBRANCH   8  14
ENDBRANCH   7   8
BRANCH   7  19
HETATM   19  N5  UNL     1      47.247 -70.052  31.095  1.00  0.00    -0.349 N 
ATOM     20  H5  UNL     1      47.605 -69.983  30.142  1.00  0.00     0.163 HD
BRANCH  19  21
HETATM   21  C3  UNL     1      48.099 -69.804  32.192  1.00  0.00     0.349 C 
HETATM   22  O1  UNL     1      47.670 -69.857  33.390  1.00  0.00    -0.284 OA
ENDBRANCH  19  21
ENDBRANCH   7  19
ENDBRANCH   1   7
BRANCH   5  23
HETATM   23  C6  UNL     1      41.372 -69.343  31.278  1.00  0.00     0.280 C 
BRANCH  23  24
HETATM   24  N7  UNL     1      40.615 -69.651  32.496  1.00  0.00    -0.066 N 
ATOM     25  H73 UNL     1      40.635 -70.649  32.708  1.00  0.00     0.275 HD
ATOM     26  H72 UNL     1      41.088 -69.305  33.330  1.00  0.00     0.275 HD
ATOM     27  H71 UNL     1      39.660 -69.300  32.432  1.00  0.00     0.275 HD
ENDBRANCH  23  24
BRANCH  23  28
HETATM   28  C7  UNL     1      41.165 -67.916  30.964  1.00  0.00     0.101 C 
BRANCH  28  29
HETATM   29  C8  UNL     1      41.193 -66.952  32.064  1.00  0.00     0.028 A 
HETATM   30  C9  UNL     1      40.171 -66.020  32.277  1.00  0.00     0.114 A 
HETATM   31  N8  UNL     1      40.493 -65.242  33.326  1.00  0.00    -0.360 N 
HETATM   32  C10 UNL     1      41.695 -65.667  33.773  1.00  0.00     0.180 A 
ATOM     33  H8  UNL     1      39.938 -64.477  33.710  1.00  0.00     0.166 HD
HETATM   34  N9  UNL     1      42.093 -66.693  33.001  1.00  0.00    -0.355 N 
ATOM     35  H9  UNL     1      42.969 -67.203  33.120  1.00  0.00     0.166 HD
ENDBRANCH  28  29
ENDBRANCH  23  28
ENDBRANCH   5  23
TORSDOF 11
ENDMDL
MODEL 3
REMARK VINA RESULT: -7.367542382      1.522      2.517
REMARK  11 active torsions:
REMARK  status: ('A' for Active; 'I' for Inactive)
REMARK    1  A    between atoms: N1_1  and  N2_4 
REMARK    2  A    between atoms: C1_6  and  N3_7 
REMARK    3  A    between atoms: C1_6  and  C2_12 
REMARK    4  A    between atoms: N3_7  and  N4_9 
REMARK    5  A    between atoms: C2_12  and  N5_13 
REMARK    6  A    between atoms: C2_12  and  C4_17 
REMARK    7  A    between atoms: N5_13  and  C3_15 
REMARK       I    between atoms: C4_17  and  N6_19 
REMARK       I    between atoms: N6_19  and  C5_21 
REMARK    8  A    between atoms: C5_21  and  C6_23 
REMARK    9  A    between atoms: C6_23  and  N7_24 
REMARK   10  A    between atoms: C6_23  and  C7_28 
REMARK   11  A    between atoms: C7_28  and  C8_29 
ROOT
HETATM    1  C4  UNL     1      43.912 -70.855  32.352  1.00  0.00     0.254 C 
HETATM    2  O2  UNL     1      44.337 -71.246  33.496  1.00  0.00    -0.270 OA
HETATM    3  N6  UNL     1      42.794 -70.014  32.318  1.00  0.00    -0.294 N 
ATOM      4  H6  UNL     1      42.425 -69.704  33.216  1.00  0.00     0.171 HD
HETATM    5  C5  UNL     1      42.118 -69.547  31.145  1.00  0.00     0.255 C 
HETATM    6  O3  UNL     1      42.487 -69.870  30.011  1.00  0.00    -0.271 OA
ENDROOT
BRANCH   1   7
HETATM    7  C2  UNL     1      44.672 -71.354  31.185  1.00  0.00     0.247 C 
BRANCH   7   8
HETATM    8  C1  UNL     1      45.898 -70.488  31.003  1.00  0.00     0.142 C 
HETATM    9  N2  UNL     1      46.797 -70.338  31.906  1.00  0.00    -0.292 N 
ATOM     10  H2  UNL     1      46.683 -70.807  32.805  1.00  0.00     0.187 HD
BRANCH   9  11
HETATM   11  N1  UNL     1      47.926 -69.549  31.686  1.00  0.00    -0.344 N 
ATOM     12  H12 UNL     1      48.833 -69.914  31.977  1.00  0.00     0.176 HD
ATOM     13  H11 UNL     1      47.858 -68.632  31.247  1.00  0.00     0.176 HD
ENDBRANCH   9  11
BRANCH   8  14
HETATM   14  N3  UNL     1      46.084 -69.828  29.763  1.00  0.00    -0.292 N 
ATOM     15  H3  UNL     1      46.717 -69.030  29.721  1.00  0.00     0.187 HD
BRANCH  14  16
HETATM   16  N4  UNL     1      45.426 -70.233  28.590  1.00  0.00    -0.344 N 
ATOM     17  H42 UNL     1      44.788 -71.026  28.652  1.00  0.00     0.176 HD
ATOM     18  H41 UNL     1      45.568 -69.764  27.695  1.00  0.00     0.176 HD
ENDBRANCH  14  16
ENDBRANCH   8  14
ENDBRANCH   7   8
BRANCH   7  19
HETATM   19  N5  UNL     1      45.142 -72.723  31.476  1.00  0.00    -0.349 N 
ATOM     20  H5  UNL     1      44.965 -73.143  32.388  1.00  0.00     0.163 HD
BRANCH  19  21
HETATM   21  C3  UNL     1      45.839 -73.448  30.485  1.00  0.00     0.349 C 
HETATM   22  O1  UNL     1      46.691 -72.883  29.725  1.00  0.00    -0.284 OA
ENDBRANCH  19  21
ENDBRANCH   7  19
ENDBRANCH   1   7
BRANCH   5  23
HETATM   23  C6  UNL     1      40.959 -68.661  31.331  1.00  0.00     0.280 C 
BRANCH  23  24
HETATM   24  N7  UNL     1      40.356 -68.853  32.653  1.00  0.00    -0.066 N 
ATOM     25  H73 UNL     1      39.643 -69.582  32.638  1.00  0.00     0.275 HD
ATOM     26  H72 UNL     1      41.010 -69.288  33.305  1.00  0.00     0.275 HD
ATOM     27  H71 UNL     1      39.988 -67.975  33.019  1.00  0.00     0.275 HD
ENDBRANCH  23  24
BRANCH  23  28
HETATM   28  C7  UNL     1      41.309 -67.234  31.194  1.00  0.00     0.101 C 
BRANCH  28  29
HETATM   29  C8  UNL     1      41.325 -66.405  32.400  1.00  0.00     0.028 A 
HETATM   30  C9  UNL     1      40.315 -65.484  32.697  1.00  0.00     0.114 A 
HETATM   31  N8  UNL     1      40.625 -64.839  33.836  1.00  0.00    -0.360 N 
HETATM   32  C10 UNL     1      41.808 -65.338  34.257  1.00  0.00     0.180 A 
ATOM     33  H8  UNL     1      40.074 -64.114  34.294  1.00  0.00     0.166 HD
HETATM   34  N9  UNL     1      42.207 -66.275  33.380  1.00  0.00    -0.355 N 
ATOM     35  H9  UNL     1      43.071 -66.812  33.459  1.00  0.00     0.166 HD
ENDBRANCH  28  29
ENDBRANCH  23  28
ENDBRANCH   5  23
TORSDOF 11
ENDMDL
MODEL 4
REMARK VINA RESULT: -7.307454039      2.687      7.463
REMARK  11 active torsions:
REMARK  status: ('A' for Active; 'I' for Inactive)
REMARK    1  A    between atoms: N1_1  and  N2_4 
REMARK    2  A    between atoms: C1_6  and  N3_7 
REMARK    3  A    between atoms: C1_6  and  C2_12 
REMARK    4  A    between atoms: N3_7  and  N4_9 
REMARK    5  A    between atoms: C2_12  and  N5_13 
REMARK    6  A    between atoms: C2_12  and  C4_17 
REMARK    7  A    between atoms: N5_13  and  C3_15 
REMARK       I    between atoms: C4_17  and  N6_19 
REMARK       I    between atoms: N6_19  and  C5_21 
REMARK    8  A    between atoms: C5_21  and  C6_23 
REMARK    9  A    between atoms: C6_23  and  N7_24 
REMARK   10  A    between atoms: C6_23  and  C7_28 
REMARK   11  A    between atoms: C7_28  and  C8_29 
ROOT
HETATM    1  C4  UNL     1      42.314 -65.913  33.377  1.00  0.00     0.254 C 
HETATM    2  O2  UNL     1      43.065 -65.718  34.397  1.00  0.00    -0.270 OA
HETATM    3  N6  UNL     1      42.074 -67.234  32.982  1.00  0.00    -0.294 N 
ATOM      4  H6  UNL     1      42.456 -67.969  33.576  1.00  0.00     0.171 HD
HETATM    5  C5  UNL     1      41.343 -67.654  31.824  1.00  0.00     0.255 C 
HETATM    6  O3  UNL     1      40.844 -66.840  31.040  1.00  0.00    -0.271 OA
ENDROOT
BRANCH   1   7
HETATM    7  C2  UNL     1      41.786 -64.693  32.730  1.00  0.00     0.247 C 
BRANCH   7   8
HETATM    8  C1  UNL     1      41.061 -63.871  33.772  1.00  0.00     0.142 C 
HETATM    9  N2  UNL     1      40.432 -62.785  33.503  1.00  0.00    -0.292 N 
ATOM     10  H2  UNL     1      40.427 -62.437  32.544  1.00  0.00     0.187 HD
BRANCH   9  11
HETATM   11  N1  UNL     1      39.754 -62.072  34.492  1.00  0.00    -0.344 N 
ATOM     12  H12 UNL     1      40.101 -62.128  35.449  1.00  0.00     0.176 HD
ATOM     13  H11 UNL     1      38.934 -61.507  34.274  1.00  0.00     0.176 HD
ENDBRANCH   9  11
BRANCH   8  14
HETATM   14  N3  UNL     1      41.049 -64.333  35.112  1.00  0.00    -0.292 N 
ATOM     15  H3  UNL     1      40.377 -65.053  35.378  1.00  0.00     0.187 HD
BRANCH  14  16
HETATM   16  N4  UNL     1      41.929 -63.835  36.087  1.00  0.00    -0.344 N 
ATOM     17  H42 UNL     1      42.915 -64.083  36.007  1.00  0.00     0.176 HD
ATOM     18  H41 UNL     1      41.613 -63.245  36.856  1.00  0.00     0.176 HD
ENDBRANCH  14  16
ENDBRANCH   8  14
ENDBRANCH   7   8
BRANCH   7  19
HETATM   19  N5  UNL     1      42.923 -63.882  32.249  1.00  0.00    -0.349 N 
ATOM     20  H5  UNL     1      43.163 -63.874  31.257  1.00  0.00     0.163 HD
BRANCH  19  21
HETATM   21  C3  UNL     1      43.675 -63.118  33.166  1.00  0.00     0.349 C 
HETATM   22  O1  UNL     1      44.942 -63.229  33.240  1.00  0.00    -0.284 OA
ENDBRANCH  19  21
ENDBRANCH   7  19
ENDBRANCH   1   7
BRANCH   5  23
HETATM   23  C6  UNL     1      41.200 -69.099  31.592  1.00  0.00     0.280 C 
BRANCH  23  24
HETATM   24  N7  UNL     1      41.178 -69.402  30.157  1.00  0.00    -0.066 N 
ATOM     25  H73 UNL     1      40.521 -70.152  29.941  1.00  0.00     0.275 HD
ATOM     26  H72 UNL     1      40.741 -68.652  29.622  1.00  0.00     0.275 HD
ATOM     27  H71 UNL     1      42.115 -69.612  29.813  1.00  0.00     0.275 HD
ENDBRANCH  23  24
BRANCH  23  28
HETATM   28  C7  UNL     1      42.290 -69.882  32.205  1.00  0.00     0.101 C 
BRANCH  28  29
HETATM   29  C8  UNL     1      43.462 -70.198  31.388  1.00  0.00     0.028 A 
HETATM   30  C9  UNL     1      44.225 -71.356  31.576  1.00  0.00     0.114 A 
HETATM   31  N8  UNL     1      45.259 -71.349  30.716  1.00  0.00    -0.360 N 
HETATM   32  C10 UNL     1      45.160 -70.211  29.995  1.00  0.00     0.180 A 
ATOM     33  H8  UNL     1      45.980 -72.064  30.626  1.00  0.00     0.166 HD
HETATM   34  N9  UNL     1      44.075 -69.538  30.415  1.00  0.00    -0.355 N 
ATOM     35  H9  UNL     1      43.766 -68.643  30.038  1.00  0.00     0.166 HD
ENDBRANCH  28  29
ENDBRANCH  23  28
ENDBRANCH   5  23
TORSDOF 11
ENDMDL
MODEL 5
REMARK VINA RESULT: -7.229816432      0.573      1.401
REMARK  11 active torsions:
REMARK  status: ('A' for Active; 'I' for Inactive)
REMARK    1  A    between atoms: N1_1  and  N2_4 
REMARK    2  A    between atoms: C1_6  and  N3_7 
REMARK    3  A    between atoms: C1_6  and  C2_12 
REMARK    4  A    between atoms: N3_7  and  N4_9 
REMARK    5  A    between atoms: C2_12  and  N5_13 
REMARK    6  A    between atoms: C2_12  and  C4_17 
REMARK    7  A    between atoms: N5_13  and  C3_15 
REMARK       I    between atoms: C4_17  and  N6_19 
REMARK       I    between atoms: N6_19  and  C5_21 
REMARK    8  A    between atoms: C5_21  and  C6_23 
REMARK    9  A    between atoms: C6_23  and  N7_24 
REMARK   10  A    between atoms: C6_23  and  C7_28 
REMARK   11  A    between atoms: C7_28  and  C8_29 
ROOT
HETATM    1  C4  UNL     1      44.721 -69.994  30.590  1.00  0.00     0.254 C 
HETATM    2  O2  UNL     1      45.624 -69.611  29.765  1.00  0.00    -0.270 OA
HETATM    3  N6  UNL     1      43.450 -69.417  30.486  1.00  0.00    -0.294 N 
ATOM      4  H6  UNL     1      43.299 -68.773  29.710  1.00  0.00     0.171 HD
HETATM    5  C5  UNL     1      42.341 -69.642  31.364  1.00  0.00     0.255 C 
HETATM    6  O3  UNL     1      42.425 -70.402  32.334  1.00  0.00    -0.271 OA
ENDROOT
BRANCH   1   7
HETATM    7  C2  UNL     1      45.143 -71.018  31.569  1.00  0.00     0.247 C 
BRANCH   7   8
HETATM    8  C1  UNL     1      46.651 -71.122  31.537  1.00  0.00     0.142 C 
HETATM    9  N2  UNL     1      47.433 -70.176  31.914  1.00  0.00    -0.292 N 
ATOM     10  H2  UNL     1      47.030 -69.297  32.237  1.00  0.00     0.187 HD
BRANCH   9  11
HETATM   11  N1  UNL     1      48.819 -70.324  31.891  1.00  0.00    -0.344 N 
ATOM     12  H12 UNL     1      49.336 -70.169  32.756  1.00  0.00     0.176 HD
ATOM     13  H11 UNL     1      49.314 -70.581  31.037  1.00  0.00     0.176 HD
ENDBRANCH   9  11
BRANCH   8  14
HETATM   14  N3  UNL     1      47.238 -72.334  31.094  1.00  0.00    -0.292 N 
ATOM     15  H3  UNL     1      48.074 -72.677  31.567  1.00  0.00     0.187 HD
BRANCH  14  16
HETATM   16  N4  UNL     1      46.710 -73.079  30.027  1.00  0.00    -0.344 N 
ATOM     17  H42 UNL     1      46.519 -74.068  30.186  1.00  0.00     0.176 HD
ATOM     18  H41 UNL     1      46.517 -72.664  29.115  1.00  0.00     0.176 HD
ENDBRANCH  14  16
ENDBRANCH   8  14
ENDBRANCH   7   8
BRANCH   7  19
HETATM   19  N5  UNL     1      44.765 -70.564  32.922  1.00  0.00    -0.349 N 
ATOM     20  H5  UNL     1      43.997 -69.905  33.046  1.00  0.00     0.163 HD
BRANCH  19  21
HETATM   21  C3  UNL     1      45.472 -71.048  34.044  1.00  0.00     0.349 C 
HETATM   22  O1  UNL     1      46.201 -70.279  34.751  1.00  0.00    -0.284 OA
ENDBRANCH  19  21
ENDBRANCH   7  19
ENDBRANCH   1   7
BRANCH   5  23
HETATM   23  C6  UNL     1      41.084 -68.937  31.073  1.00  0.00     0.280 C 
BRANCH  23  24
HETATM   24  N7  UNL     1      40.113 -69.125  32.156  1.00  0.00    -0.066 N 
ATOM     25  H73 UNL     1      40.422 -69.837  32.819  1.00  0.00     0.275 HD
ATOM     26  H72 UNL     1      40.092 -68.323  32.786  1.00  0.00     0.275 HD
ATOM     27  H71 UNL     1      39.187 -69.336  31.784  1.00  0.00     0.275 HD
ENDBRANCH  23  24
BRANCH  23  28
HETATM   28  C7  UNL     1      41.278 -67.486  30.884  1.00  0.00     0.101 C 
BRANCH  28  29
HETATM   29  C8  UNL     1      41.244 -66.622  32.064  1.00  0.00     0.028 A 
HETATM   30  C9  UNL     1      40.259 -65.648  32.259  1.00  0.00     0.114 A 
HETATM   31  N8  UNL     1      40.513 -64.983  33.400  1.00  0.00    -0.360 N 
HETATM   32  C10 UNL     1      41.636 -65.520  33.923  1.00  0.00     0.180 A 
ATOM     33  H8  UNL     1      39.964 -64.220  33.795  1.00  0.00     0.166 HD
HETATM   34  N9  UNL     1      42.055 -66.501  33.105  1.00  0.00    -0.355 N 
ATOM     35  H9  UNL     1      42.884 -67.074  33.263  1.00  0.00     0.166 HD
ENDBRANCH  28  29
ENDBRANCH  23  28
ENDBRANCH   5  23
TORSDOF 11
ENDMDL
