MODEL 1
REMARK VINA RESULT: -11.276365886      0.000      0.000
REMARK  2 active torsions:
REMARK  status: ('A' for Active; 'I' for Inactive)
REMARK    1  A    between atoms: C8_11  and  C9_12 
REMARK    2  A    between atoms: C15_18  and  C16_19 
ROOT
HETATM    1  O1  UNL     1      11.589  18.391   9.098  1.00  0.00    -0.266 OA
HETATM    2  C1  UNL     1      11.995  19.494   9.497  1.00  0.00     0.273 C 
HETATM    3  N1  UNL     1      10.961  20.319   9.997  1.00  0.00    -0.321 N 
ATOM      4  H1  UNL     1      10.217  19.814  10.478  1.00  0.00     0.169 HD
HETATM    5  C2  UNL     1      10.776  21.720   9.948  1.00  0.00     0.046 A 
HETATM    6  C3  UNL     1       9.425  21.844  10.262  1.00  0.00     0.030 A 
HETATM    7  C4  UNL     1       8.839  23.090  10.256  1.00  0.00     0.002 A 
HETATM    8  C5  UNL     1       9.596  24.198   9.938  1.00  0.00     0.001 A 
HETATM    9  C6  UNL     1      10.955  24.079   9.621  1.00  0.00     0.014 A 
HETATM   10  C7  UNL     1      11.546  22.853   9.628  1.00  0.00     0.003 A 
HETATM   11  C8  UNL     1      12.977  23.093   9.256  1.00  0.00    -0.001 C 
HETATM   12  C15 UNL     1      14.045  22.327   9.064  1.00  0.00     0.001 C 
HETATM   13  C24 UNL     1      14.225  20.854   9.240  1.00  0.00     0.009 A 
HETATM   14  C25 UNL     1      15.566  20.673   9.247  1.00  0.00     0.028 A 
HETATM   15  C26 UNL     1      16.077  19.373   9.381  1.00  0.00    -0.009 A 
HETATM   16  C27 UNL     1      17.463  19.244   9.379  1.00  0.00     0.014 A 
HETATM   17  C28 UNL     1      18.007  17.969   9.509  1.00  0.00     0.001 A 
HETATM   18  C29 UNL     1      17.171  16.875   9.636  1.00  0.00     0.002 A 
HETATM   19  C30 UNL     1      15.808  17.017   9.637  1.00  0.00     0.030 A 
HETATM   20  C31 UNL     1      15.274  18.260   9.510  1.00  0.00     0.043 A 
HETATM   21  N3  UNL     1      13.949  18.483   9.502  1.00  0.00    -0.350 N 
ATOM     22  H3  UNL     1      13.316  17.690   9.596  1.00  0.00     0.166 HD
HETATM   23  C32 UNL     1      13.430  19.719   9.375  1.00  0.00     0.112 A 
ENDROOT
BRANCH  12  24
HETATM   24  C16 UNL     1      15.243  23.009   8.688  1.00  0.00     0.004 A 
HETATM   25  C17 UNL     1      16.440  23.396   9.242  1.00  0.00     0.101 A 
HETATM   26  N2  UNL     1      17.200  24.081   8.391  1.00  0.00    -0.364 N 
HETATM   27  C18 UNL     1      16.578  24.198   7.229  1.00  0.00     0.043 A 
ATOM     28  H2  UNL     1      18.124  24.459   8.602  1.00  0.00     0.165 HD
HETATM   29  C19 UNL     1      16.952  24.809   6.043  1.00  0.00     0.030 A 
HETATM   30  C23 UNL     1      15.373  23.553   7.368  1.00  0.00     0.003 A 
HETATM   31  C20 UNL     1      16.104  24.777   4.970  1.00  0.00     0.002 A 
HETATM   32  C21 UNL     1      14.903  24.144   5.081  1.00  0.00     0.001 A 
HETATM   33  C22 UNL     1      14.537  23.532   6.280  1.00  0.00     0.014 A 
ENDBRANCH  12  24
BRANCH  11  34
HETATM   34  C9  UNL     1      13.299  24.504   9.121  1.00  0.00    -0.024 A 
HETATM   35  C10 UNL     1      12.949  25.330   8.063  1.00  0.00     0.012 A 
HETATM   36  C11 UNL     1      13.276  26.648   7.955  1.00  0.00     0.001 A 
HETATM   37  C12 UNL     1      14.014  27.245   8.955  1.00  0.00     0.000 A 
HETATM   38  C13 UNL     1      14.399  26.503  10.035  1.00  0.00     0.001 A 
HETATM   39  C14 UNL     1      14.057  25.185  10.118  1.00  0.00     0.012 A 
ENDBRANCH  11  34
TORSDOF 2
ENDMDL
MODEL 2
REMARK VINA RESULT: -10.904442210      0.787      1.171
REMARK  2 active torsions:
REMARK  status: ('A' for Active; 'I' for Inactive)
REMARK    1  A    between atoms: C8_11  and  C9_12 
REMARK    2  A    between atoms: C15_18  and  C16_19 
ROOT
HETATM    1  O1  UNL     1      12.488  18.092   8.996  1.00  0.00    -0.266 OA
HETATM    2  C1  UNL     1      12.665  19.253   9.397  1.00  0.00     0.273 C 
HETATM    3  N1  UNL     1      11.506  19.826   9.969  1.00  0.00    -0.321 N 
ATOM      4  H1  UNL     1      10.918  19.165  10.477  1.00  0.00     0.169 HD
HETATM    5  C2  UNL     1      11.017  21.153   9.962  1.00  0.00     0.046 A 
HETATM    6  C3  UNL     1       9.691  20.975  10.349  1.00  0.00     0.030 A 
HETATM    7  C4  UNL     1       8.848  22.062  10.402  1.00  0.00     0.002 A 
HETATM    8  C5  UNL     1       9.326  23.313  10.071  1.00  0.00     0.001 A 
HETATM    9  C6  UNL     1      10.658  23.498   9.680  1.00  0.00     0.014 A 
HETATM   10  C7  UNL     1      11.502  22.431   9.628  1.00  0.00     0.003 A 
HETATM   11  C8  UNL     1      12.823  22.983   9.187  1.00  0.00    -0.001 C 
HETATM   12  C15 UNL     1      14.020  22.471   8.922  1.00  0.00     0.001 C 
HETATM   13  C24 UNL     1      14.527  21.072   9.055  1.00  0.00     0.009 A 
HETATM   14  C25 UNL     1      15.873  21.189   8.987  1.00  0.00     0.028 A 
HETATM   15  C26 UNL     1      16.662  20.031   9.065  1.00  0.00    -0.009 A 
HETATM   16  C27 UNL     1      18.040  20.209   8.987  1.00  0.00     0.014 A 
HETATM   17  C28 UNL     1      18.856  19.083   9.059  1.00  0.00     0.001 A 
HETATM   18  C29 UNL     1      18.288  17.831   9.205  1.00  0.00     0.002 A 
HETATM   19  C30 UNL     1      16.929  17.671   9.281  1.00  0.00     0.030 A 
HETATM   20  C31 UNL     1      16.130  18.768   9.211  1.00  0.00     0.043 A 
HETATM   21  N3  UNL     1      14.790  18.696   9.278  1.00  0.00    -0.350 N 
ATOM     22  H3  UNL     1      14.352  17.782   9.386  1.00  0.00     0.166 HD
HETATM   23  C32 UNL     1      14.007  19.789   9.206  1.00  0.00     0.112 A 
ENDROOT
BRANCH  12  24
HETATM   24  C16 UNL     1      15.017  23.404   8.500  1.00  0.00     0.004 A 
HETATM   25  C17 UNL     1      16.063  24.121   9.027  1.00  0.00     0.101 A 
HETATM   26  N2  UNL     1      16.649  24.909   8.128  1.00  0.00    -0.364 N 
HETATM   27  C18 UNL     1      16.048  24.776   6.957  1.00  0.00     0.043 A 
ATOM     28  H2  UNL     1      17.442  25.524   8.314  1.00  0.00     0.165 HD
HETATM   29  C19 UNL     1      16.287  25.369   5.728  1.00  0.00     0.030 A 
HETATM   30  C23 UNL     1      15.040  23.860   7.140  1.00  0.00     0.003 A 
HETATM   31  C20 UNL     1      15.502  25.042   4.656  1.00  0.00     0.002 A 
HETATM   32  C21 UNL     1      14.497  24.137   4.811  1.00  0.00     0.001 A 
HETATM   33  C22 UNL     1      14.265  23.545   6.052  1.00  0.00     0.014 A 
ENDBRANCH  12  24
BRANCH  11  34
HETATM   34  C9  UNL     1      12.821  24.431   9.067  1.00  0.00    -0.024 A 
HETATM   35  C10 UNL     1      13.316  25.334   9.997  1.00  0.00     0.012 A 
HETATM   36  C11 UNL     1      13.289  26.689   9.867  1.00  0.00     0.001 A 
HETATM   37  C12 UNL     1      12.731  27.248   8.736  1.00  0.00     0.000 A 
HETATM   38  C13 UNL     1      12.220  26.429   7.769  1.00  0.00     0.001 A 
HETATM   39  C14 UNL     1      12.262  25.075   7.925  1.00  0.00     0.012 A 
ENDBRANCH  11  34
TORSDOF 2
ENDMDL
MODEL 3
REMARK VINA RESULT: -10.777506541      1.679      5.639
REMARK  2 active torsions:
REMARK  status: ('A' for Active; 'I' for Inactive)
REMARK    1  A    between atoms: C8_11  and  C9_12 
REMARK    2  A    between atoms: C15_18  and  C16_19 
ROOT
HETATM    1  O1  UNL     1      13.984  19.118  10.866  1.00  0.00    -0.266 OA
HETATM    2  C1  UNL     1      14.487  19.812   9.969  1.00  0.00     0.273 C 
HETATM    3  N1  UNL     1      15.659  19.243   9.418  1.00  0.00    -0.321 N 
ATOM      4  H1  UNL     1      15.646  18.225   9.367  1.00  0.00     0.169 HD
HETATM    5  C2  UNL     1      16.845  19.836   8.925  1.00  0.00     0.046 A 
HETATM    6  C3  UNL     1      17.719  18.753   8.898  1.00  0.00     0.030 A 
HETATM    7  C4  UNL     1      19.029  18.948   8.520  1.00  0.00     0.002 A 
HETATM    8  C5  UNL     1      19.458  20.212   8.176  1.00  0.00     0.001 A 
HETATM    9  C6  UNL     1      18.583  21.306   8.202  1.00  0.00     0.014 A 
HETATM   10  C7  UNL     1      17.285  21.125   8.569  1.00  0.00     0.003 A 
HETATM   11  C8  UNL     1      16.647  22.477   8.481  1.00  0.00    -0.001 C 
HETATM   12  C15 UNL     1      15.439  22.970   8.728  1.00  0.00     0.001 C 
HETATM   13  C24 UNL     1      14.177  22.283   9.139  1.00  0.00     0.009 A 
HETATM   14  C25 UNL     1      13.203  23.194   8.909  1.00  0.00     0.028 A 
HETATM   15  C26 UNL     1      11.874  22.859   9.211  1.00  0.00    -0.009 A 
HETATM   16  C27 UNL     1      10.913  23.834   8.958  1.00  0.00     0.014 A 
HETATM   17  C28 UNL     1       9.583  23.539   9.247  1.00  0.00     0.001 A 
HETATM   18  C29 UNL     1       9.251  22.304   9.772  1.00  0.00     0.002 A 
HETATM   19  C30 UNL     1      10.208  21.354  10.016  1.00  0.00     0.030 A 
HETATM   20  C31 UNL     1      11.506  21.639   9.735  1.00  0.00     0.043 A 
HETATM   21  N3  UNL     1      12.503  20.762   9.945  1.00  0.00    -0.350 N 
ATOM     22  H3  UNL     1      12.279  19.845  10.330  1.00  0.00     0.166 HD
HETATM   23  C32 UNL     1      13.788  21.054   9.664  1.00  0.00     0.112 A 
ENDROOT
BRANCH  12  24
HETATM   24  C16 UNL     1      15.282  24.374   8.511  1.00  0.00     0.004 A 
HETATM   25  C17 UNL     1      15.352  25.551   9.216  1.00  0.00     0.101 A 
HETATM   26  N2  UNL     1      15.051  26.612   8.471  1.00  0.00    -0.364 N 
HETATM   27  C18 UNL     1      14.766  26.228   7.238  1.00  0.00     0.043 A 
ATOM     28  H2  UNL     1      15.042  27.578   8.801  1.00  0.00     0.165 HD
HETATM   29  C19 UNL     1      14.403  26.947   6.111  1.00  0.00     0.030 A 
HETATM   30  C23 UNL     1      14.896  24.860   7.219  1.00  0.00     0.003 A 
HETATM   31  C20 UNL     1      14.165  26.287   4.936  1.00  0.00     0.002 A 
HETATM   32  C21 UNL     1      14.287  24.932   4.890  1.00  0.00     0.001 A 
HETATM   33  C22 UNL     1      14.653  24.217   6.031  1.00  0.00     0.014 A 
ENDBRANCH  12  24
BRANCH  11  34
HETATM   34  C9  UNL     1      17.541  23.491   7.947  1.00  0.00    -0.024 A 
HETATM   35  C10 UNL     1      18.267  24.417   8.681  1.00  0.00     0.012 A 
HETATM   36  C11 UNL     1      19.088  25.367   8.155  1.00  0.00     0.001 A 
HETATM   37  C12 UNL     1      19.235  25.449   6.786  1.00  0.00     0.000 A 
HETATM   38  C13 UNL     1      18.555  24.573   5.987  1.00  0.00     0.001 A 
HETATM   39  C14 UNL     1      17.740  23.631   6.542  1.00  0.00     0.012 A 
ENDBRANCH  11  34
TORSDOF 2
ENDMDL
MODEL 4
REMARK VINA RESULT: -9.954395073      1.662      2.632
REMARK  2 active torsions:
REMARK  status: ('A' for Active; 'I' for Inactive)
REMARK    1  A    between atoms: C8_11  and  C9_12 
REMARK    2  A    between atoms: C15_18  and  C16_19 
ROOT
HETATM    1  O1  UNL     1      13.155  19.242   9.784  1.00  0.00    -0.266 OA
HETATM    2  C1  UNL     1      13.514  20.418   9.614  1.00  0.00     0.273 C 
HETATM    3  N1  UNL     1      12.520  21.359   9.968  1.00  0.00    -0.321 N 
ATOM      4  H1  UNL     1      11.944  21.082  10.763  1.00  0.00     0.169 HD
HETATM    5  C2  UNL     1      12.183  22.616   9.415  1.00  0.00     0.046 A 
HETATM    6  C3  UNL     1      10.916  22.837   9.950  1.00  0.00     0.030 A 
HETATM    7  C4  UNL     1      10.213  23.964   9.586  1.00  0.00     0.002 A 
HETATM    8  C5  UNL     1      10.771  24.858   8.697  1.00  0.00     0.001 A 
HETATM    9  C6  UNL     1      12.045  24.641   8.155  1.00  0.00     0.014 A 
HETATM   10  C7  UNL     1      12.751  23.533   8.510  1.00  0.00     0.003 A 
HETATM   11  C8  UNL     1      14.045  23.622   7.762  1.00  0.00    -0.001 C 
HETATM   12  C15 UNL     1      15.128  22.860   7.653  1.00  0.00     0.001 C 
HETATM   13  C24 UNL     1      15.493  21.589   8.349  1.00  0.00     0.009 A 
HETATM   14  C25 UNL     1      16.820  21.447   8.124  1.00  0.00     0.028 A 
HETATM   15  C26 UNL     1      17.481  20.322   8.641  1.00  0.00    -0.009 A 
HETATM   16  C27 UNL     1      18.844  20.224   8.377  1.00  0.00     0.014 A 
HETATM   17  C28 UNL     1      19.534  19.120   8.872  1.00  0.00     0.001 A 
HETATM   18  C29 UNL     1      18.860  18.160   9.604  1.00  0.00     0.002 A 
HETATM   19  C30 UNL     1      17.517  18.270   9.855  1.00  0.00     0.030 A 
HETATM   20  C31 UNL     1      16.841  19.345   9.374  1.00  0.00     0.043 A 
HETATM   21  N3  UNL     1      15.526  19.527   9.577  1.00  0.00    -0.350 N 
ATOM     22  H3  UNL     1      15.011  18.830  10.115  1.00  0.00     0.166 HD
HETATM   23  C32 UNL     1      14.864  20.596   9.095  1.00  0.00     0.112 A 
ENDROOT
BRANCH  12  24
HETATM   24  C16 UNL     1      16.148  23.349   6.780  1.00  0.00     0.004 A 
HETATM   25  C17 UNL     1      16.562  23.206   5.477  1.00  0.00     0.101 A 
HETATM   26  N2  UNL     1      17.661  23.909   5.210  1.00  0.00    -0.364 N 
HETATM   27  C18 UNL     1      18.051  24.560   6.293  1.00  0.00     0.043 A 
ATOM     28  H2  UNL     1      18.131  23.940   4.305  1.00  0.00     0.165 HD
HETATM   29  C19 UNL     1      19.119  25.414   6.518  1.00  0.00     0.030 A 
HETATM   30  C23 UNL     1      17.150  24.245   7.281  1.00  0.00     0.003 A 
HETATM   31  C20 UNL     1      19.292  25.966   7.757  1.00  0.00     0.002 A 
HETATM   32  C21 UNL     1      18.413  25.670   8.754  1.00  0.00     0.001 A 
HETATM   33  C22 UNL     1      17.342  24.809   8.517  1.00  0.00     0.014 A 
ENDBRANCH  12  24
BRANCH  11  34
HETATM   34  C9  UNL     1      14.183  24.861   7.015  1.00  0.00    -0.024 A 
HETATM   35  C10 UNL     1      14.540  26.098   7.532  1.00  0.00     0.012 A 
HETATM   36  C11 UNL     1      14.649  27.248   6.811  1.00  0.00     0.001 A 
HETATM   37  C12 UNL     1      14.390  27.223   5.456  1.00  0.00     0.000 A 
HETATM   38  C13 UNL     1      14.033  26.044   4.866  1.00  0.00     0.001 A 
HETATM   39  C14 UNL     1      13.932  24.907   5.613  1.00  0.00     0.012 A 
ENDBRANCH  11  34
TORSDOF 2
ENDMDL
MODEL 5
REMARK VINA RESULT: -9.851493544      1.738      5.725
REMARK  2 active torsions:
REMARK  status: ('A' for Active; 'I' for Inactive)
REMARK    1  A    between atoms: C8_11  and  C9_12 
REMARK    2  A    between atoms: C15_18  and  C16_19 
ROOT
HETATM    1  O1  UNL     1      10.008  21.350  10.831  1.00  0.00    -0.266 OA
HETATM    2  C1  UNL     1      10.983  21.407  10.066  1.00  0.00     0.273 C 
HETATM    3  N1  UNL     1      11.553  20.141   9.796  1.00  0.00    -0.321 N 
ATOM      4  H1  UNL     1      10.878  19.379   9.750  1.00  0.00     0.169 HD
HETATM    5  C2  UNL     1      12.894  19.745   9.579  1.00  0.00     0.046 A 
HETATM    6  C3  UNL     1      12.820  18.366   9.757  1.00  0.00     0.030 A 
HETATM    7  C4  UNL     1      13.969  17.611   9.683  1.00  0.00     0.002 A 
HETATM    8  C5  UNL     1      15.177  18.228   9.436  1.00  0.00     0.001 A 
HETATM    9  C6  UNL     1      15.257  19.615   9.256  1.00  0.00     0.014 A 
HETATM   10  C7  UNL     1      14.127  20.372   9.323  1.00  0.00     0.003 A 
HETATM   11  C8  UNL     1      14.572  21.783   9.084  1.00  0.00    -0.001 C 
HETATM   12  C15 UNL     1      13.974  22.969   9.050  1.00  0.00     0.001 C 
HETATM   13  C24 UNL     1      12.530  23.330   9.170  1.00  0.00     0.009 A 
HETATM   14  C25 UNL     1      12.458  24.605   8.721  1.00  0.00     0.028 A 
HETATM   15  C26 UNL     1      11.216  25.257   8.719  1.00  0.00    -0.009 A 
HETATM   16  C27 UNL     1      11.201  26.567   8.249  1.00  0.00     0.014 A 
HETATM   17  C28 UNL     1       9.986  27.248   8.233  1.00  0.00     0.001 A 
HETATM   18  C29 UNL     1       8.839  26.617   8.677  1.00  0.00     0.002 A 
HETATM   19  C30 UNL     1       8.869  25.327   9.137  1.00  0.00     0.030 A 
HETATM   20  C31 UNL     1      10.053  24.660   9.154  1.00  0.00     0.043 A 
HETATM   21  N3  UNL     1      10.166  23.393   9.589  1.00  0.00    -0.350 N 
ATOM     22  H3  UNL     1       9.332  22.910   9.920  1.00  0.00     0.166 HD
HETATM   23  C32 UNL     1      11.344  22.741   9.602  1.00  0.00     0.112 A 
ENDROOT
BRANCH  12  24
HETATM   24  C16 UNL     1      14.825  24.088   8.795  1.00  0.00     0.004 A 
HETATM   25  C17 UNL     1      15.603  24.985   9.486  1.00  0.00     0.101 A 
HETATM   26  N2  UNL     1      16.167  25.892   8.692  1.00  0.00    -0.364 N 
HETATM   27  C18 UNL     1      15.815  25.669   7.436  1.00  0.00     0.043 A 
ATOM     28  H2  UNL     1      16.780  26.646   9.005  1.00  0.00     0.165 HD
HETATM   29  C19 UNL     1      16.140  26.325   6.260  1.00  0.00     0.030 A 
HETATM   30  C23 UNL     1      14.991  24.570   7.454  1.00  0.00     0.003 A 
HETATM   31  C20 UNL     1      15.631  25.874   5.073  1.00  0.00     0.002 A 
HETATM   32  C21 UNL     1      14.812  24.787   5.063  1.00  0.00     0.001 A 
HETATM   33  C22 UNL     1      14.492  24.134   6.253  1.00  0.00     0.014 A 
ENDBRANCH  12  24
BRANCH  11  34
HETATM   34  C9  UNL     1      15.984  21.884   8.759  1.00  0.00    -0.024 A 
HETATM   35  C10 UNL     1      16.527  22.060   7.494  1.00  0.00     0.012 A 
HETATM   36  C11 UNL     1      17.857  22.138   7.215  1.00  0.00     0.001 A 
HETATM   37  C12 UNL     1      18.771  22.036   8.243  1.00  0.00     0.000 A 
HETATM   38  C13 UNL     1      18.321  21.862   9.521  1.00  0.00     0.001 A 
HETATM   39  C14 UNL     1      16.982  21.788   9.772  1.00  0.00     0.012 A 
ENDBRANCH  11  34
TORSDOF 2
ENDMDL
