MODEL 1
REMARK VINA RESULT: -4.745006243      0.000      0.000
REMARK  5 active torsions:
REMARK  status: ('A' for Active; 'I' for Inactive)
REMARK    1  A    between atoms: C2_2  and  C5_6 
REMARK    2  A    between atoms: C5_6  and  C6_7 
REMARK    3  A    between atoms: C6_7  and  N2_8 
REMARK    4  A    between atoms: N2_8  and  C7_10 
REMARK    5  A    between atoms: C7_10  and  C8_11 
ROOT
HETATM    1  C1  UNL     1     -40.259 -15.586   6.230  1.00  0.00     0.031 C 
HETATM    2  C2  UNL     1     -39.348 -16.541   6.962  1.00  0.00     0.043 C 
HETATM    3  C3  UNL     1     -39.170 -16.112   8.391  1.00  0.00     0.031 C 
HETATM    4  C4  UNL     1     -39.953 -17.869   6.917  1.00  0.00     0.068 C 
HETATM    5  N1  UNL     1     -40.428 -18.944   6.897  1.00  0.00    -0.196 NA
ENDROOT
BRANCH   2   6
HETATM    6  C5  UNL     1     -37.980 -16.627   6.332  1.00  0.00     0.043 C 
BRANCH   6   7
HETATM    7  C6  UNL     1     -37.405 -15.274   6.023  1.00  0.00     0.115 C 
BRANCH   7   8
HETATM    8  N2  UNL     1     -36.654 -15.347   4.821  1.00  0.00    -0.421 N 
ATOM      9  H2  UNL     1     -36.120 -14.547   4.480  1.00  0.00     0.153 HD
BRANCH   8  10
HETATM   10  C7  UNL     1     -36.672 -16.575   4.110  1.00  0.00     0.120 C 
BRANCH  10  11
HETATM   11  C8  UNL     1     -35.846 -16.355   2.851  1.00  0.00     0.029 C 
HETATM   12  C9  UNL     1     -36.860 -16.213   1.715  1.00  0.00     0.034 C 
HETATM   13  C10 UNL     1     -36.252 -15.029   0.965  1.00  0.00     0.168 C 
HETATM   14  O1  UNL     1     -35.906 -14.195   2.038  1.00  0.00    -0.391 OA
HETATM   15  C11 UNL     1     -35.118 -15.059   2.821  1.00  0.00     0.173 C 
ENDBRANCH  10  11
ENDBRANCH   8  10
ENDBRANCH   7   8
ENDBRANCH   6   7
ENDBRANCH   2   6
TORSDOF 5
ENDMDL
MODEL 2
REMARK VINA RESULT: -4.683702889      1.322      1.488
REMARK  5 active torsions:
REMARK  status: ('A' for Active; 'I' for Inactive)
REMARK    1  A    between atoms: C2_2  and  C5_6 
REMARK    2  A    between atoms: C5_6  and  C6_7 
REMARK    3  A    between atoms: C6_7  and  N2_8 
REMARK    4  A    between atoms: N2_8  and  C7_10 
REMARK    5  A    between atoms: C7_10  and  C8_11 
ROOT
HETATM    1  C1  UNL     1     -39.067 -13.465   6.971  1.00  0.00     0.031 C 
HETATM    2  C2  UNL     1     -39.157 -14.970   7.056  1.00  0.00     0.043 C 
HETATM    3  C3  UNL     1     -39.343 -15.409   8.481  1.00  0.00     0.031 C 
HETATM    4  C4  UNL     1     -40.297 -15.401   6.253  1.00  0.00     0.068 C 
HETATM    5  N1  UNL     1     -41.215 -15.767   5.616  1.00  0.00    -0.196 NA
ENDROOT
BRANCH   2   6
HETATM    6  C5  UNL     1     -37.921 -15.651   6.521  1.00  0.00     0.043 C 
BRANCH   6   7
HETATM    7  C6  UNL     1     -36.814 -14.680   6.227  1.00  0.00     0.115 C 
BRANCH   7   8
HETATM    8  N2  UNL     1     -36.340 -14.894   4.906  1.00  0.00    -0.421 N 
ATOM      9  H2  UNL     1     -35.834 -14.167   4.401  1.00  0.00     0.153 HD
BRANCH   8  10
HETATM   10  C7  UNL     1     -36.597 -16.158   4.314  1.00  0.00     0.120 C 
BRANCH  10  11
HETATM   11  C8  UNL     1     -35.813 -16.189   3.011  1.00  0.00     0.029 C 
HETATM   12  C9  UNL     1     -36.865 -16.248   1.901  1.00  0.00     0.034 C 
HETATM   13  C10 UNL     1     -36.274 -15.234   0.923  1.00  0.00     0.168 C 
HETATM   14  O1  UNL     1     -35.884 -14.219   1.809  1.00  0.00    -0.391 OA
HETATM   15  C11 UNL     1     -35.077 -14.932   2.714  1.00  0.00     0.173 C 
ENDBRANCH  10  11
ENDBRANCH   8  10
ENDBRANCH   7   8
ENDBRANCH   6   7
ENDBRANCH   2   6
TORSDOF 5
ENDMDL
MODEL 3
REMARK VINA RESULT: -4.623889063      2.931      3.651
REMARK  5 active torsions:
REMARK  status: ('A' for Active; 'I' for Inactive)
REMARK    1  A    between atoms: C2_2  and  C5_6 
REMARK    2  A    between atoms: C5_6  and  C6_7 
REMARK    3  A    between atoms: C6_7  and  N2_8 
REMARK    4  A    between atoms: N2_8  and  C7_10 
REMARK    5  A    between atoms: C7_10  and  C8_11 
ROOT
HETATM    1  C1  UNL     1     -35.760 -17.999   8.679  1.00  0.00     0.031 C 
HETATM    2  C2  UNL     1     -35.241 -18.312   7.296  1.00  0.00     0.043 C 
HETATM    3  C3  UNL     1     -34.313 -17.229   6.821  1.00  0.00     0.031 C 
HETATM    4  C4  UNL     1     -34.526 -19.582   7.357  1.00  0.00     0.068 C 
HETATM    5  N1  UNL     1     -33.940 -20.601   7.389  1.00  0.00    -0.196 NA
ENDROOT
BRANCH   2   6
HETATM    6  C5  UNL     1     -36.351 -18.445   6.282  1.00  0.00     0.043 C 
BRANCH   6   7
HETATM    7  C6  UNL     1     -35.832 -18.587   4.880  1.00  0.00     0.115 C 
BRANCH   7   8
HETATM    8  N2  UNL     1     -36.809 -18.106   3.968  1.00  0.00    -0.421 N 
ATOM      9  H2  UNL     1     -37.434 -18.745   3.476  1.00  0.00     0.153 HD
BRANCH   8  10
HETATM   10  C7  UNL     1     -36.883 -16.704   3.766  1.00  0.00     0.120 C 
BRANCH  10  11
HETATM   11  C8  UNL     1     -35.944 -16.385   2.613  1.00  0.00     0.029 C 
HETATM   12  C9  UNL     1     -36.849 -16.123   1.407  1.00  0.00     0.034 C 
HETATM   13  C10 UNL     1     -36.164 -14.886   0.828  1.00  0.00     0.168 C 
HETATM   14  O1  UNL     1     -35.909 -14.159   2.000  1.00  0.00    -0.391 OA
HETATM   15  C11 UNL     1     -35.204 -15.104   2.768  1.00  0.00     0.173 C 
ENDBRANCH  10  11
ENDBRANCH   8  10
ENDBRANCH   7   8
ENDBRANCH   6   7
ENDBRANCH   2   6
TORSDOF 5
ENDMDL
MODEL 4
REMARK VINA RESULT: -4.601271018      1.754      2.325
REMARK  5 active torsions:
REMARK  status: ('A' for Active; 'I' for Inactive)
REMARK    1  A    between atoms: C2_2  and  C5_6 
REMARK    2  A    between atoms: C5_6  and  C6_7 
REMARK    3  A    between atoms: C6_7  and  N2_8 
REMARK    4  A    between atoms: N2_8  and  C7_10 
REMARK    5  A    between atoms: C7_10  and  C8_11 
ROOT
HETATM    1  C1  UNL     1     -39.829 -15.498   8.156  1.00  0.00     0.031 C 
HETATM    2  C2  UNL     1     -39.526 -15.184   6.710  1.00  0.00     0.043 C 
HETATM    3  C3  UNL     1     -40.727 -15.450   5.848  1.00  0.00     0.031 C 
HETATM    4  C4  UNL     1     -39.155 -13.776   6.620  1.00  0.00     0.068 C 
HETATM    5  N1  UNL     1     -38.860 -12.641   6.528  1.00  0.00    -0.196 NA
ENDROOT
BRANCH   2   6
HETATM    6  C5  UNL     1     -38.381 -16.006   6.172  1.00  0.00     0.043 C 
BRANCH   6   7
HETATM    7  C6  UNL     1     -37.094 -15.234   6.121  1.00  0.00     0.115 C 
BRANCH   7   8
HETATM    8  N2  UNL     1     -36.577 -15.269   4.798  1.00  0.00    -0.421 N 
ATOM      9  H2  UNL     1     -36.186 -14.435   4.360  1.00  0.00     0.153 HD
BRANCH   8  10
HETATM   10  C7  UNL     1     -36.625 -16.509   4.110  1.00  0.00     0.120 C 
BRANCH  10  11
HETATM   11  C8  UNL     1     -35.811 -16.325   2.837  1.00  0.00     0.029 C 
HETATM   12  C9  UNL     1     -36.837 -16.224   1.706  1.00  0.00     0.034 C 
HETATM   13  C10 UNL     1     -36.242 -15.061   0.914  1.00  0.00     0.168 C 
HETATM   14  O1  UNL     1     -35.891 -14.191   1.957  1.00  0.00    -0.391 OA
HETATM   15  C11 UNL     1     -35.091 -15.026   2.760  1.00  0.00     0.173 C 
ENDBRANCH  10  11
ENDBRANCH   8  10
ENDBRANCH   7   8
ENDBRANCH   6   7
ENDBRANCH   2   6
TORSDOF 5
ENDMDL
MODEL 5
REMARK VINA RESULT: -4.589197832      1.305      1.504
REMARK  5 active torsions:
REMARK  status: ('A' for Active; 'I' for Inactive)
REMARK    1  A    between atoms: C2_2  and  C5_6 
REMARK    2  A    between atoms: C5_6  and  C6_7 
REMARK    3  A    between atoms: C6_7  and  N2_8 
REMARK    4  A    between atoms: N2_8  and  C7_10 
REMARK    5  A    between atoms: C7_10  and  C8_11 
ROOT
HETATM    1  C1  UNL     1     -40.746 -15.489   5.857  1.00  0.00     0.031 C 
HETATM    2  C2  UNL     1     -39.528 -15.197   6.701  1.00  0.00     0.043 C 
HETATM    3  C3  UNL     1     -39.243 -13.722   6.726  1.00  0.00     0.031 C 
HETATM    4  C4  UNL     1     -39.791 -15.672   8.055  1.00  0.00     0.068 C 
HETATM    5  N1  UNL     1     -39.988 -16.043   9.154  1.00  0.00    -0.196 NA
ENDROOT
BRANCH   2   6
HETATM    6  C5  UNL     1     -38.294 -15.897   6.189  1.00  0.00     0.043 C 
BRANCH   6   7
HETATM    7  C6  UNL     1     -37.104 -14.984   6.120  1.00  0.00     0.115 C 
BRANCH   7   8
HETATM    8  N2  UNL     1     -36.461 -15.143   4.864  1.00  0.00    -0.421 N 
ATOM      9  H2  UNL     1     -35.864 -14.412   4.478  1.00  0.00     0.153 HD
BRANCH   8  10
HETATM   10  C7  UNL     1     -36.681 -16.359   4.165  1.00  0.00     0.120 C 
BRANCH  10  11
HETATM   11  C8  UNL     1     -35.871 -16.268   2.881  1.00  0.00     0.029 C 
HETATM   12  C9  UNL     1     -36.900 -16.194   1.751  1.00  0.00     0.034 C 
HETATM   13  C10 UNL     1     -36.274 -15.094   0.895  1.00  0.00     0.168 C 
HETATM   14  O1  UNL     1     -35.887 -14.183   1.889  1.00  0.00    -0.391 OA
HETATM   15  C11 UNL     1     -35.110 -14.999   2.731  1.00  0.00     0.173 C 
ENDBRANCH  10  11
ENDBRANCH   8  10
ENDBRANCH   7   8
ENDBRANCH   6   7
ENDBRANCH   2   6
TORSDOF 5
ENDMDL
