MODEL 1
REMARK VINA RESULT: -4.256542055      0.000      0.000
REMARK  4 active torsions:
REMARK  status: ('A' for Active; 'I' for Inactive)
REMARK    1  A    between atoms: N1_2  and  C2_4 
REMARK    2  A    between atoms: C2_4  and  C3_5 
REMARK    3  A    between atoms: C3_5  and  C6_8 
REMARK    4  A    between atoms: C6_8  and  N2_9 
ROOT
HETATM    1  C3  UNL     1     -35.583 -17.075   5.213  1.00  0.00     0.000 C 
HETATM    2  C4  UNL     1     -36.358 -18.406   5.029  1.00  0.00     0.022 C 
HETATM    3  C5  UNL     1     -34.655 -17.345   6.394  1.00  0.00     0.022 C 
ENDROOT
BRANCH   1   4
HETATM    4  C2  UNL     1     -36.623 -16.066   5.603  1.00  0.00     0.065 C 
BRANCH   4   5
HETATM    5  N1  UNL     1     -37.979 -16.364   5.590  1.00  0.00    -0.406 N 
HETATM    6  C1  UNL     1     -38.937 -15.578   6.258  1.00  0.00     0.145 C 
ATOM      7  H1  UNL     1     -38.294 -17.186   5.075  1.00  0.00     0.158 HD
ENDBRANCH   4   5
ENDBRANCH   1   4
BRANCH   1   8
HETATM    8  C6  UNL     1     -34.876 -16.713   3.954  1.00  0.00     0.136 C 
BRANCH   8   9
HETATM    9  N2  UNL     1     -35.455 -15.723   3.128  1.00  0.00    -0.388 N 
HETATM   10  C7  UNL     1     -36.498 -16.034   2.280  1.00  0.00     0.148 C 
HETATM   11  C8  UNL     1     -36.166 -15.408   0.901  1.00  0.00     0.187 C 
HETATM   12  O1  UNL     1     -36.162 -14.057   1.099  1.00  0.00    -0.385 OA
HETATM   13  C9  UNL     1     -35.161 -13.595   1.926  1.00  0.00     0.212 C 
HETATM   14  C10 UNL     1     -34.839 -14.473   3.081  1.00  0.00     0.084 C 
ENDBRANCH   8   9
ENDBRANCH   1   8
TORSDOF 4
ENDMDL
MODEL 2
REMARK VINA RESULT: -4.235928603      1.860      2.458
REMARK  4 active torsions:
REMARK  status: ('A' for Active; 'I' for Inactive)
REMARK    1  A    between atoms: N1_2  and  C2_4 
REMARK    2  A    between atoms: C2_4  and  C3_5 
REMARK    3  A    between atoms: C3_5  and  C6_8 
REMARK    4  A    between atoms: C6_8  and  N2_9 
ROOT
HETATM    1  C3  UNL     1     -33.883 -15.993   5.457  1.00  0.00     0.000 C 
HETATM    2  C4  UNL     1     -32.595 -15.715   6.274  1.00  0.00     0.022 C 
HETATM    3  C5  UNL     1     -34.925 -15.066   6.076  1.00  0.00     0.022 C 
ENDROOT
BRANCH   1   4
HETATM    4  C2  UNL     1     -34.235 -17.422   5.753  1.00  0.00     0.065 C 
BRANCH   4   5
HETATM    5  N1  UNL     1     -34.909 -18.218   4.838  1.00  0.00    -0.406 N 
HETATM    6  C1  UNL     1     -36.302 -18.419   4.885  1.00  0.00     0.145 C 
ATOM      7  H1  UNL     1     -34.374 -18.677   4.102  1.00  0.00     0.158 HD
ENDBRANCH   4   5
ENDBRANCH   1   4
BRANCH   1   8
HETATM    8  C6  UNL     1     -33.636 -15.751   4.010  1.00  0.00     0.136 C 
BRANCH   8   9
HETATM    9  N2  UNL     1     -34.539 -14.917   3.312  1.00  0.00    -0.388 N 
HETATM   10  C7  UNL     1     -35.674 -15.439   2.728  1.00  0.00     0.148 C 
HETATM   11  C8  UNL     1     -35.761 -14.853   1.295  1.00  0.00     0.187 C 
HETATM   12  O1  UNL     1     -35.940 -13.509   1.455  1.00  0.00    -0.385 OA
HETATM   13  C9  UNL     1     -34.875 -12.845   2.025  1.00  0.00     0.212 C 
HETATM   14  C10 UNL     1     -34.166 -13.590   3.098  1.00  0.00     0.084 C 
ENDBRANCH   8   9
ENDBRANCH   1   8
TORSDOF 4
ENDMDL
MODEL 3
REMARK VINA RESULT: -4.226538213      1.093      1.858
REMARK  4 active torsions:
REMARK  status: ('A' for Active; 'I' for Inactive)
REMARK    1  A    between atoms: N1_2  and  C2_4 
REMARK    2  A    between atoms: C2_4  and  C3_5 
REMARK    3  A    between atoms: C3_5  and  C6_8 
REMARK    4  A    between atoms: C6_8  and  N2_9 
ROOT
HETATM    1  C3  UNL     1     -35.575 -16.967   5.572  1.00  0.00     0.000 C 
HETATM    2  C4  UNL     1     -34.417 -17.665   4.815  1.00  0.00     0.022 C 
HETATM    3  C5  UNL     1     -34.967 -16.592   6.920  1.00  0.00     0.022 C 
ENDROOT
BRANCH   1   4
HETATM    4  C2  UNL     1     -36.617 -18.031   5.763  1.00  0.00     0.065 C 
BRANCH   4   5
HETATM    5  N1  UNL     1     -37.968 -17.729   5.862  1.00  0.00    -0.406 N 
HETATM    6  C1  UNL     1     -38.638 -17.634   7.097  1.00  0.00     0.145 C 
ATOM      7  H1  UNL     1     -38.497 -17.569   5.005  1.00  0.00     0.158 HD
ENDBRANCH   4   5
ENDBRANCH   1   4
BRANCH   1   8
HETATM    8  C6  UNL     1     -36.078 -15.807   4.788  1.00  0.00     0.136 C 
BRANCH   8   9
HETATM    9  N2  UNL     1     -35.820 -15.782   3.398  1.00  0.00    -0.388 N 
HETATM   10  C7  UNL     1     -34.824 -14.979   2.880  1.00  0.00     0.148 C 
HETATM   11  C8  UNL     1     -35.424 -14.244   1.654  1.00  0.00     0.187 C 
HETATM   12  O1  UNL     1     -35.708 -15.218   0.740  1.00  0.00    -0.385 OA
HETATM   13  C9  UNL     1     -36.698 -16.099   1.120  1.00  0.00     0.212 C 
HETATM   14  C10 UNL     1     -36.700 -16.467   2.560  1.00  0.00     0.084 C 
ENDBRANCH   8   9
ENDBRANCH   1   8
TORSDOF 4
ENDMDL
MODEL 4
REMARK VINA RESULT: -4.219271337      0.948      1.386
REMARK  4 active torsions:
REMARK  status: ('A' for Active; 'I' for Inactive)
REMARK    1  A    between atoms: N1_2  and  C2_4 
REMARK    2  A    between atoms: C2_4  and  C3_5 
REMARK    3  A    between atoms: C3_5  and  C6_8 
REMARK    4  A    between atoms: C6_8  and  N2_9 
ROOT
HETATM    1  C3  UNL     1     -35.519 -16.930   5.557  1.00  0.00     0.000 C 
HETATM    2  C4  UNL     1     -34.408 -17.421   6.520  1.00  0.00     0.022 C 
HETATM    3  C5  UNL     1     -35.918 -15.566   6.112  1.00  0.00     0.022 C 
ENDROOT
BRANCH   1   4
HETATM    4  C2  UNL     1     -36.649 -17.902   5.734  1.00  0.00     0.065 C 
BRANCH   4   5
HETATM    5  N1  UNL     1     -37.950 -17.482   5.974  1.00  0.00    -0.406 N 
HETATM    6  C1  UNL     1     -38.629 -17.757   7.176  1.00  0.00     0.145 C 
ATOM      7  H1  UNL     1     -38.434 -16.953   5.249  1.00  0.00     0.158 HD
ENDBRANCH   4   5
ENDBRANCH   1   4
BRANCH   1   8
HETATM    8  C6  UNL     1     -35.008 -16.893   4.160  1.00  0.00     0.136 C 
BRANCH   8   9
HETATM    9  N2  UNL     1     -35.642 -16.022   3.244  1.00  0.00    -0.388 N 
HETATM   10  C7  UNL     1     -36.817 -16.388   2.620  1.00  0.00     0.148 C 
HETATM   11  C8  UNL     1     -36.656 -16.056   1.114  1.00  0.00     0.187 C 
HETATM   12  O1  UNL     1     -36.539 -14.697   1.045  1.00  0.00    -0.385 OA
HETATM   13  C9  UNL     1     -35.400 -14.183   1.625  1.00  0.00     0.212 C 
HETATM   14  C10 UNL     1     -34.963 -14.861   2.873  1.00  0.00     0.084 C 
ENDBRANCH   8   9
ENDBRANCH   1   8
TORSDOF 4
ENDMDL
MODEL 5
REMARK VINA RESULT: -4.138387214      1.532      2.763
REMARK  4 active torsions:
REMARK  status: ('A' for Active; 'I' for Inactive)
REMARK    1  A    between atoms: N1_2  and  C2_4 
REMARK    2  A    between atoms: C2_4  and  C3_5 
REMARK    3  A    between atoms: C3_5  and  C6_8 
REMARK    4  A    between atoms: C6_8  and  N2_9 
ROOT
HETATM    1  C3  UNL     1     -36.300 -17.110   5.651  1.00  0.00     0.000 C 
HETATM    2  C4  UNL     1     -37.432 -17.567   6.606  1.00  0.00     0.022 C 
HETATM    3  C5  UNL     1     -35.880 -18.389   4.932  1.00  0.00     0.022 C 
ENDROOT
BRANCH   1   4
HETATM    4  C2  UNL     1     -35.192 -16.645   6.551  1.00  0.00     0.065 C 
BRANCH   4   5
HETATM    5  N1  UNL     1     -33.857 -16.899   6.267  1.00  0.00    -0.406 N 
HETATM    6  C1  UNL     1     -32.889 -15.881   6.190  1.00  0.00     0.145 C 
ATOM      7  H1  UNL     1     -33.567 -17.863   6.108  1.00  0.00     0.158 HD
ENDBRANCH   4   5
ENDBRANCH   1   4
BRANCH   1   8
HETATM    8  C6  UNL     1     -36.792 -16.036   4.746  1.00  0.00     0.136 C 
BRANCH   8   9
HETATM    9  N2  UNL     1     -36.239 -15.956   3.448  1.00  0.00    -0.388 N 
HETATM   10  C7  UNL     1     -35.068 -15.262   3.222  1.00  0.00     0.148 C 
HETATM   11  C8  UNL     1     -35.298 -14.374   1.972  1.00  0.00     0.187 C 
HETATM   12  O1  UNL     1     -35.491 -15.239   0.933  1.00  0.00    -0.385 OA
HETATM   13  C9  UNL     1     -36.636 -16.002   1.019  1.00  0.00     0.212 C 
HETATM   14  C10 UNL     1     -36.991 -16.459   2.387  1.00  0.00     0.084 C 
ENDBRANCH   8   9
ENDBRANCH   1   8
TORSDOF 4
ENDMDL
