MODEL 1
REMARK VINA RESULT: -4.558230884      0.000      0.000
REMARK  0 active torsions:
REMARK  status: ('A' for Active; 'I' for Inactive)
ROOT
HETATM    1  C1  UNL     1      -4.520  19.560  -7.677  1.00  0.00     0.035 C 
HETATM    2  C2  UNL     1      -4.908  20.960  -7.909  1.00  0.00     0.116 C 
HETATM    3  N1  UNL     1      -5.972  21.206  -8.807  1.00  0.00    -0.403 N 
ATOM      4  H1  UNL     1      -6.105  22.143  -9.188  1.00  0.00     0.154 HD
HETATM    5  C3  UNL     1      -6.828  20.192  -9.170  1.00  0.00     0.184 C 
HETATM    6  C4  UNL     1      -6.790  19.907 -10.674  1.00  0.00     0.170 C 
HETATM    7  N2  UNL     1      -6.714  18.499 -10.334  1.00  0.00    -0.160 NA
HETATM    8  N3  UNL     1      -6.492  18.851  -8.986  1.00  0.00    -0.211 NA
HETATM    9  C5  UNL     1      -5.218  18.522  -8.469  1.00  0.00     0.113 C 
ENDROOT
TORSDOF 0
ENDMDL
MODEL 2
REMARK VINA RESULT: -4.373245738      1.408      2.307
REMARK  0 active torsions:
REMARK  status: ('A' for Active; 'I' for Inactive)
ROOT
HETATM    1  C1  UNL     1      -7.259  21.860  -8.798  1.00  0.00     0.035 C 
HETATM    2  C2  UNL     1      -6.683  21.386  -7.530  1.00  0.00     0.116 C 
HETATM    3  N1  UNL     1      -6.050  20.122  -7.528  1.00  0.00    -0.403 N 
ATOM      4  H1  UNL     1      -5.869  19.648  -6.644  1.00  0.00     0.154 HD
HETATM    5  C3  UNL     1      -5.678  19.526  -8.711  1.00  0.00     0.184 C 
HETATM    6  C4  UNL     1      -6.389  18.189  -8.940  1.00  0.00     0.170 C 
HETATM    7  N2  UNL     1      -6.647  18.637 -10.296  1.00  0.00    -0.160 NA
HETATM    8  N3  UNL     1      -6.213  19.931  -9.934  1.00  0.00    -0.211 NA
HETATM    9  C5  UNL     1      -7.206  20.937  -9.955  1.00  0.00     0.113 C 
ENDROOT
TORSDOF 0
ENDMDL
MODEL 3
REMARK VINA RESULT: -4.310572828      1.723      2.505
REMARK  0 active torsions:
REMARK  status: ('A' for Active; 'I' for Inactive)
ROOT
HETATM    1  C1  UNL     1      -5.671  22.928  -9.306  1.00  0.00     0.035 C 
HETATM    2  C2  UNL     1      -6.814  22.862 -10.230  1.00  0.00     0.116 C 
HETATM    3  N1  UNL     1      -7.364  21.588 -10.502  1.00  0.00    -0.403 N 
ATOM      4  H1  UNL     1      -7.972  21.462 -11.311  1.00  0.00     0.154 HD
HETATM    5  C3  UNL     1      -7.084  20.517  -9.685  1.00  0.00     0.184 C 
HETATM    6  C4  UNL     1      -6.360  19.390 -10.427  1.00  0.00     0.170 C 
HETATM    7  N2  UNL     1      -5.447  19.330  -9.302  1.00  0.00    -0.160 NA
HETATM    8  N3  UNL     1      -6.000  20.531  -8.808  1.00  0.00    -0.211 NA
HETATM    9  C5  UNL     1      -5.131  21.646  -8.800  1.00  0.00     0.113 C 
ENDROOT
TORSDOF 0
ENDMDL
MODEL 4
REMARK VINA RESULT: -4.194128286      1.380      1.700
REMARK  0 active torsions:
REMARK  status: ('A' for Active; 'I' for Inactive)
ROOT
HETATM    1  C1  UNL     1      -5.338  18.690  -8.563  1.00  0.00     0.035 C 
HETATM    2  C2  UNL     1      -5.010  19.768  -7.617  1.00  0.00     0.116 C 
HETATM    3  N1  UNL     1      -5.706  20.991  -7.749  1.00  0.00    -0.403 N 
ATOM      4  H1  UNL     1      -5.343  21.831  -7.298  1.00  0.00     0.154 HD
HETATM    5  C3  UNL     1      -6.868  21.058  -8.482  1.00  0.00     0.184 C 
HETATM    6  C4  UNL     1      -6.750  22.009  -9.677  1.00  0.00     0.170 C 
HETATM    7  N2  UNL     1      -7.372  20.971 -10.476  1.00  0.00    -0.160 NA
HETATM    8  N3  UNL     1      -7.208  20.068  -9.404  1.00  0.00    -0.211 NA
HETATM    9  C5  UNL     1      -6.312  19.000  -9.635  1.00  0.00     0.113 C 
ENDROOT
TORSDOF 0
ENDMDL
MODEL 5
REMARK VINA RESULT: -4.088025743      1.542      2.941
REMARK  0 active torsions:
REMARK  status: ('A' for Active; 'I' for Inactive)
ROOT
HETATM    1  C1  UNL     1      -6.199  21.972  -9.263  1.00  0.00     0.035 C 
HETATM    2  C2  UNL     1      -7.212  20.906  -9.287  1.00  0.00     0.116 C 
HETATM    3  N1  UNL     1      -6.885  19.675  -8.674  1.00  0.00    -0.403 N 
ATOM      4  H1  UNL     1      -7.436  18.843  -8.883  1.00  0.00     0.154 HD
HETATM    5  C3  UNL     1      -5.828  19.591  -7.797  1.00  0.00     0.184 C 
HETATM    6  C4  UNL     1      -4.739  18.631  -8.286  1.00  0.00     0.170 C 
HETATM    7  N2  UNL     1      -3.775  19.656  -7.937  1.00  0.00    -0.160 NA
HETATM    8  N3  UNL     1      -4.835  20.570  -7.754  1.00  0.00    -0.211 NA
HETATM    9  C5  UNL     1      -4.882  21.644  -8.672  1.00  0.00     0.113 C 
ENDROOT
TORSDOF 0
ENDMDL
