MODEL 1
REMARK VINA RESULT: -6.278187811      0.000      0.000
REMARK  1 active torsions:
REMARK  status: ('A' for Active; 'I' for Inactive)
REMARK    1  A    between atoms: C9_10  and  O2_11 
ROOT
HETATM    1  C1  UNL     1     -14.732  -0.238  -7.619  1.00  0.00     0.017 C 
HETATM    2  C2  UNL     1     -15.138  -1.609  -7.206  1.00  0.00    -0.020 C 
HETATM    3  C3  UNL     1     -14.450  -1.964  -5.917  1.00  0.00     0.017 C 
HETATM    4  C4  UNL     1     -16.639  -1.735  -6.950  1.00  0.00     0.177 C 
HETATM    5  O1  UNL     1     -16.868  -3.107  -7.204  1.00  0.00    -0.379 OA
HETATM    6  C5  UNL     1     -16.262  -3.236  -8.450  1.00  0.00     0.061 C 
HETATM    7  C6  UNL     1     -17.084  -2.357  -9.403  1.00  0.00     0.046 C 
HETATM    8  C7  UNL     1     -16.395  -4.634  -8.908  1.00  0.00     0.040 C 
HETATM    9  C8  UNL     1     -16.044  -5.611  -7.833  1.00  0.00     0.034 C 
HETATM   10  C9  UNL     1     -14.756  -6.308  -7.972  1.00  0.00     0.118 C 
HETATM   11  C10 UNL     1     -13.806  -5.832  -9.006  1.00  0.00     0.032 C 
HETATM   12  C11 UNL     1     -13.346  -4.453  -9.004  1.00  0.00     0.003 C 
HETATM   13  C12 UNL     1     -13.805  -3.546  -7.908  1.00  0.00     0.009 C 
HETATM   14  C13 UNL     1     -14.947  -2.654  -8.284  1.00  0.00     0.030 C 
ENDROOT
BRANCH  10  15
HETATM   15  O2  UNL     1     -14.151  -6.471  -6.700  1.00  0.00    -0.396 OA
ATOM     16  H2  UNL     1     -13.302  -6.045  -6.686  1.00  0.00     0.210 HD
ENDBRANCH  10  15
TORSDOF 1
ENDMDL
MODEL 2
REMARK VINA RESULT: -5.861061338      3.811      6.607
REMARK  1 active torsions:
REMARK  status: ('A' for Active; 'I' for Inactive)
REMARK    1  A    between atoms: C9_10  and  O2_11 
ROOT
HETATM    1  C1  UNL     1     -17.370  -2.771  -6.856  1.00  0.00     0.017 C 
HETATM    2  C2  UNL     1     -17.637  -1.626  -7.767  1.00  0.00    -0.020 C 
HETATM    3  C3  UNL     1     -16.619  -0.547  -7.522  1.00  0.00     0.017 C 
HETATM    4  C4  UNL     1     -17.529  -2.002  -9.245  1.00  0.00     0.177 C 
HETATM    5  O1  UNL     1     -18.384  -1.054  -9.853  1.00  0.00    -0.379 OA
HETATM    6  C5  UNL     1     -19.528  -1.211  -9.077  1.00  0.00     0.061 C 
HETATM    7  C6  UNL     1     -20.016  -2.642  -9.344  1.00  0.00     0.046 C 
HETATM    8  C7  UNL     1     -20.571  -0.287  -9.563  1.00  0.00     0.040 C 
HETATM    9  C8  UNL     1     -20.039   1.092  -9.787  1.00  0.00     0.034 C 
HETATM   10  C9  UNL     1     -20.422   2.114  -8.801  1.00  0.00     0.118 C 
HETATM   11  C10 UNL     1     -21.089   1.673  -7.553  1.00  0.00     0.032 C 
HETATM   12  C11 UNL     1     -20.447   0.708  -6.676  1.00  0.00     0.003 C 
HETATM   13  C12 UNL     1     -19.081   0.217  -7.030  1.00  0.00     0.009 C 
HETATM   14  C13 UNL     1     -19.062  -1.117  -7.709  1.00  0.00     0.030 C 
ENDROOT
BRANCH  10  15
HETATM   15  O2  UNL     1     -19.336   2.994  -8.566  1.00  0.00    -0.396 OA
ATOM     16  H2  UNL     1     -19.050   3.385  -9.383  1.00  0.00     0.210 HD
ENDBRANCH  10  15
TORSDOF 1
ENDMDL
MODEL 3
REMARK VINA RESULT: -5.844564245      2.659      5.412
REMARK  1 active torsions:
REMARK  status: ('A' for Active; 'I' for Inactive)
REMARK    1  A    between atoms: C9_10  and  O2_11 
ROOT
HETATM    1  C1  UNL     1     -14.370  -1.598  -6.026  1.00  0.00     0.017 C 
HETATM    2  C2  UNL     1     -15.248  -1.150  -7.141  1.00  0.00    -0.020 C 
HETATM    3  C3  UNL     1     -14.636   0.055  -7.802  1.00  0.00     0.017 C 
HETATM    4  C4  UNL     1     -15.416  -2.208  -8.231  1.00  0.00     0.177 C 
HETATM    5  O1  UNL     1     -16.674  -1.868  -8.780  1.00  0.00    -0.379 OA
HETATM    6  C5  UNL     1     -17.442  -1.793  -7.622  1.00  0.00     0.061 C 
HETATM    7  C6  UNL     1     -17.460  -3.216  -7.045  1.00  0.00     0.046 C 
HETATM    8  C7  UNL     1     -18.829  -1.442  -7.986  1.00  0.00     0.040 C 
HETATM    9  C8  UNL     1     -18.883  -0.309  -8.960  1.00  0.00     0.034 C 
HETATM   10  C9  UNL     1     -19.316   0.993  -8.431  1.00  0.00     0.118 C 
HETATM   11  C10 UNL     1     -19.432   1.153  -6.962  1.00  0.00     0.032 C 
HETATM   12  C11 UNL     1     -18.288   0.901  -6.101  1.00  0.00     0.003 C 
HETATM   13  C12 UNL     1     -16.983   0.537  -6.733  1.00  0.00     0.009 C 
HETATM   14  C13 UNL     1     -16.690  -0.932  -6.735  1.00  0.00     0.030 C 
ENDROOT
BRANCH  10  15
HETATM   15  O2  UNL     1     -18.578   2.037  -9.043  1.00  0.00    -0.396 OA
ATOM     16  H2  UNL     1     -19.133   2.520  -9.644  1.00  0.00     0.210 HD
ENDBRANCH  10  15
TORSDOF 1
ENDMDL
MODEL 4
REMARK VINA RESULT: -5.779574849      3.214      5.407
REMARK  1 active torsions:
REMARK  status: ('A' for Active; 'I' for Inactive)
REMARK    1  A    between atoms: C9_10  and  O2_11 
ROOT
HETATM    1  C1  UNL     1     -21.318   0.433  -9.492  1.00  0.00     0.017 C 
HETATM    2  C2  UNL     1     -19.841   0.347  -9.340  1.00  0.00    -0.020 C 
HETATM    3  C3  UNL     1     -19.247  -0.247 -10.587  1.00  0.00     0.017 C 
HETATM    4  C4  UNL     1     -19.180   1.712  -9.149  1.00  0.00     0.177 C 
HETATM    5  O1  UNL     1     -18.009   1.375  -8.433  1.00  0.00    -0.379 OA
HETATM    6  C5  UNL     1     -18.553   0.606  -7.408  1.00  0.00     0.061 C 
HETATM    7  C6  UNL     1     -19.437   1.565  -6.597  1.00  0.00     0.046 C 
HETATM    8  C7  UNL     1     -17.466   0.145  -6.522  1.00  0.00     0.040 C 
HETATM    9  C8  UNL     1     -16.308  -0.402  -7.293  1.00  0.00     0.034 C 
HETATM   10  C9  UNL     1     -16.141  -1.863  -7.282  1.00  0.00     0.118 C 
HETATM   11  C10 UNL     1     -17.237  -2.693  -6.728  1.00  0.00     0.032 C 
HETATM   12  C11 UNL     1     -18.581  -2.598  -7.275  1.00  0.00     0.003 C 
HETATM   13  C12 UNL     1     -18.817  -1.694  -8.441  1.00  0.00     0.009 C 
HETATM   14  C13 UNL     1     -19.395  -0.361  -8.079  1.00  0.00     0.030 C 
ENDROOT
BRANCH  10  15
HETATM   15  O2  UNL     1     -15.697  -2.312  -8.551  1.00  0.00    -0.396 OA
ATOM     16  H2  UNL     1     -14.822  -2.675  -8.480  1.00  0.00     0.210 HD
ENDBRANCH  10  15
TORSDOF 1
ENDMDL
MODEL 5
REMARK VINA RESULT: -5.740960711      3.635      5.323
REMARK  1 active torsions:
REMARK  status: ('A' for Active; 'I' for Inactive)
REMARK    1  A    between atoms: C9_10  and  O2_11 
ROOT
HETATM    1  C1  UNL     1     -20.043   2.452  -7.689  1.00  0.00     0.017 C 
HETATM    2  C2  UNL     1     -20.364   1.008  -7.836  1.00  0.00    -0.020 C 
HETATM    3  C3  UNL     1     -21.174   0.555  -6.653  1.00  0.00     0.017 C 
HETATM    4  C4  UNL     1     -21.199   0.706  -9.080  1.00  0.00     0.177 C 
HETATM    5  O1  UNL     1     -20.849  -0.637  -9.352  1.00  0.00    -0.379 OA
HETATM    6  C5  UNL     1     -19.460  -0.544  -9.332  1.00  0.00     0.061 C 
HETATM    7  C6  UNL     1     -19.090   0.369 -10.509  1.00  0.00     0.046 C 
HETATM    8  C7  UNL     1     -18.885  -1.876  -9.603  1.00  0.00     0.040 C 
HETATM    9  C8  UNL     1     -19.545  -2.948  -8.797  1.00  0.00     0.034 C 
HETATM   10  C9  UNL     1     -18.773  -3.493  -7.669  1.00  0.00     0.118 C 
HETATM   11  C10 UNL     1     -17.527  -2.797  -7.267  1.00  0.00     0.032 C 
HETATM   12  C11 UNL     1     -17.556  -1.392  -6.894  1.00  0.00     0.003 C 
HETATM   13  C12 UNL     1     -18.872  -0.685  -6.870  1.00  0.00     0.009 C 
HETATM   14  C13 UNL     1     -19.153   0.135  -8.091  1.00  0.00     0.030 C 
ENDROOT
BRANCH  10  15
HETATM   15  O2  UNL     1     -19.633  -3.762  -6.575  1.00  0.00    -0.396 OA
ATOM     16  H2  UNL     1     -19.184  -4.296  -5.931  1.00  0.00     0.210 HD
ENDBRANCH  10  15
TORSDOF 1
ENDMDL
