MODEL 1
REMARK VINA RESULT: -6.221595275      0.000      0.000
REMARK  3 active torsions:
REMARK  status: ('A' for Active; 'I' for Inactive)
REMARK    1  A    between atoms: C3_3  and  C4_4 
REMARK    2  A    between atoms: C4_4  and  C7_7 
REMARK    3  A    between atoms: C13_14  and  O2_15 
ROOT
HETATM    1  C1  UNL     1     -17.660  -6.882  -8.729  1.00  0.00     0.112 C 
HETATM    2  C2  UNL     1     -17.895  -5.493  -8.344  1.00  0.00    -0.110 C 
HETATM    3  C3  UNL     1     -18.070  -4.343  -8.019  1.00  0.00    -0.097 C 
ENDROOT
BRANCH   3   4
HETATM    4  C4  UNL     1     -18.309  -2.921  -7.629  1.00  0.00     0.024 C 
HETATM    5  C5  UNL     1     -18.346  -2.901  -6.151  1.00  0.00     0.029 C 
HETATM    6  C6  UNL     1     -19.696  -2.620  -8.194  1.00  0.00     0.029 C 
BRANCH   4   7
HETATM    7  C7  UNL     1     -17.269  -2.127  -8.297  1.00  0.00    -0.018 C 
HETATM    8  C8  UNL     1     -17.713  -2.021  -9.773  1.00  0.00     0.017 C 
HETATM    9  C9  UNL     1     -15.955  -2.929  -8.360  1.00  0.00     0.012 C 
HETATM   10  C10 UNL     1     -14.881  -2.006  -7.756  1.00  0.00     0.008 C 
HETATM   11  C11 UNL     1     -15.682  -1.146  -6.894  1.00  0.00     0.019 C 
HETATM   12  C12 UNL     1     -15.310   0.267  -6.694  1.00  0.00     0.176 C 
HETATM   13  C14 UNL     1     -16.845  -0.851  -7.872  1.00  0.00     0.057 C 
HETATM   14  O1  UNL     1     -16.537   0.882  -6.447  1.00  0.00    -0.361 OA
HETATM   15  C13 UNL     1     -17.541   0.149  -7.127  1.00  0.00     0.262 C 
BRANCH  15  16
HETATM   16  O2  UNL     1     -18.126   1.109  -7.990  1.00  0.00    -0.371 OA
ATOM     17  H2  UNL     1     -18.617   0.582  -8.610  1.00  0.00     0.212 HD
ENDBRANCH  15  16
ENDBRANCH   4   7
ENDBRANCH   3   4
TORSDOF 3
ENDMDL
MODEL 2
REMARK VINA RESULT: -5.990572050      1.820      2.977
REMARK  3 active torsions:
REMARK  status: ('A' for Active; 'I' for Inactive)
REMARK    1  A    between atoms: C3_3  and  C4_4 
REMARK    2  A    between atoms: C4_4  and  C7_7 
REMARK    3  A    between atoms: C13_14  and  O2_15 
ROOT
HETATM    1  C1  UNL     1     -22.466  -2.391  -9.160  1.00  0.00     0.112 C 
HETATM    2  C2  UNL     1     -21.220  -2.145  -8.439  1.00  0.00    -0.110 C 
HETATM    3  C3  UNL     1     -20.184  -1.929  -7.857  1.00  0.00    -0.097 C 
ENDROOT
BRANCH   3   4
HETATM    4  C4  UNL     1     -18.913  -1.673  -7.117  1.00  0.00     0.024 C 
HETATM    5  C5  UNL     1     -18.695  -2.853  -6.253  1.00  0.00     0.029 C 
HETATM    6  C6  UNL     1     -19.233  -0.448  -6.262  1.00  0.00     0.029 C 
BRANCH   4   7
HETATM    7  C7  UNL     1     -17.894  -1.372  -8.132  1.00  0.00    -0.018 C 
HETATM    8  C8  UNL     1     -18.350  -0.056  -8.799  1.00  0.00     0.017 C 
HETATM    9  C9  UNL     1     -17.963  -2.410  -9.269  1.00  0.00     0.012 C 
HETATM   10  C10 UNL     1     -16.531  -2.953  -9.418  1.00  0.00     0.008 C 
HETATM   11  C11 UNL     1     -15.987  -2.717  -8.086  1.00  0.00     0.019 C 
HETATM   12  C12 UNL     1     -14.563  -2.371  -7.910  1.00  0.00     0.176 C 
HETATM   13  C14 UNL     1     -16.512  -1.277  -7.870  1.00  0.00     0.057 C 
HETATM   14  O1  UNL     1     -14.570  -1.598  -6.751  1.00  0.00    -0.361 OA
HETATM   15  C13 UNL     1     -15.825  -0.946  -6.662  1.00  0.00     0.262 C 
BRANCH  15  16
HETATM   16  O2  UNL     1     -15.484   0.429  -6.633  1.00  0.00    -0.371 OA
ATOM     17  H2  UNL     1     -16.029   0.808  -7.313  1.00  0.00     0.212 HD
ENDBRANCH  15  16
ENDBRANCH   4   7
ENDBRANCH   3   4
TORSDOF 3
ENDMDL
MODEL 3
REMARK VINA RESULT: -5.910083890      1.702      2.334
REMARK  3 active torsions:
REMARK  status: ('A' for Active; 'I' for Inactive)
REMARK    1  A    between atoms: C3_3  and  C4_4 
REMARK    2  A    between atoms: C4_4  and  C7_7 
REMARK    3  A    between atoms: C13_14  and  O2_15 
ROOT
HETATM    1  C1  UNL     1     -14.898  -6.510  -7.756  1.00  0.00     0.112 C 
HETATM    2  C2  UNL     1     -15.971  -5.529  -7.894  1.00  0.00    -0.110 C 
HETATM    3  C3  UNL     1     -16.846  -4.704  -8.001  1.00  0.00    -0.097 C 
ENDROOT
BRANCH   3   4
HETATM    4  C4  UNL     1     -17.942  -3.700  -8.147  1.00  0.00     0.024 C 
HETATM    5  C5  UNL     1     -18.680  -3.708  -6.865  1.00  0.00     0.029 C 
HETATM    6  C6  UNL     1     -18.815  -4.278  -9.259  1.00  0.00     0.029 C 
BRANCH   4   7
HETATM    7  C7  UNL     1     -17.302  -2.444  -8.559  1.00  0.00    -0.018 C 
HETATM    8  C8  UNL     1     -16.495  -2.788  -9.831  1.00  0.00     0.017 C 
HETATM    9  C9  UNL     1     -16.226  -2.041  -7.533  1.00  0.00     0.012 C 
HETATM   10  C10 UNL     1     -16.557  -0.591  -7.138  1.00  0.00     0.008 C 
HETATM   11  C11 UNL     1     -17.987  -0.530  -7.412  1.00  0.00     0.019 C 
HETATM   12  C12 UNL     1     -18.604   0.719  -7.897  1.00  0.00     0.176 C 
HETATM   13  C14 UNL     1     -17.993  -1.236  -8.789  1.00  0.00     0.057 C 
HETATM   14  O1  UNL     1     -19.683   0.264  -8.652  1.00  0.00    -0.361 OA
HETATM   15  C13 UNL     1     -19.350  -1.011  -9.174  1.00  0.00     0.262 C 
BRANCH  15  16
HETATM   16  O2  UNL     1     -19.457  -0.835 -10.575  1.00  0.00    -0.371 OA
ATOM     17  H2  UNL     1     -18.700  -1.296 -10.917  1.00  0.00     0.212 HD
ENDBRANCH  15  16
ENDBRANCH   4   7
ENDBRANCH   3   4
TORSDOF 3
ENDMDL
MODEL 4
REMARK VINA RESULT: -5.849268638      1.613      2.358
REMARK  3 active torsions:
REMARK  status: ('A' for Active; 'I' for Inactive)
REMARK    1  A    between atoms: C3_3  and  C4_4 
REMARK    2  A    between atoms: C4_4  and  C7_7 
REMARK    3  A    between atoms: C13_14  and  O2_15 
ROOT
HETATM    1  C1  UNL     1     -21.710  -3.536 -10.668  1.00  0.00     0.112 C 
HETATM    2  C2  UNL     1     -20.757  -3.096  -9.653  1.00  0.00    -0.110 C 
HETATM    3  C3  UNL     1     -19.962  -2.718  -8.826  1.00  0.00    -0.097 C 
ENDROOT
BRANCH   3   4
HETATM    4  C4  UNL     1     -18.991  -2.266  -7.786  1.00  0.00     0.024 C 
HETATM    5  C5  UNL     1     -18.791  -3.418  -6.881  1.00  0.00     0.029 C 
HETATM    6  C6  UNL     1     -19.737  -1.149  -7.057  1.00  0.00     0.029 C 
BRANCH   4   7
HETATM    7  C7  UNL     1     -17.819  -1.752  -8.508  1.00  0.00    -0.018 C 
HETATM    8  C8  UNL     1     -18.360  -0.649  -9.444  1.00  0.00     0.017 C 
HETATM    9  C9  UNL     1     -17.282  -2.828  -9.470  1.00  0.00     0.012 C 
HETATM   10  C10 UNL     1     -15.785  -2.965  -9.141  1.00  0.00     0.008 C 
HETATM   11  C11 UNL     1     -15.746  -2.518  -7.754  1.00  0.00     0.019 C 
HETATM   12  C12 UNL     1     -14.575  -1.785  -7.236  1.00  0.00     0.176 C 
HETATM   13  C14 UNL     1     -16.650  -1.267  -7.885  1.00  0.00     0.057 C 
HETATM   14  O1  UNL     1     -15.124  -0.983  -6.237  1.00  0.00    -0.361 OA
HETATM   15  C13 UNL     1     -16.466  -0.696  -6.589  1.00  0.00     0.262 C 
BRANCH  15  16
HETATM   16  O2  UNL     1     -16.500   0.718  -6.649  1.00  0.00    -0.371 OA
ATOM     17  H2  UNL     1     -17.110   0.898  -7.355  1.00  0.00     0.212 HD
ENDBRANCH  15  16
ENDBRANCH   4   7
ENDBRANCH   3   4
TORSDOF 3
ENDMDL
MODEL 5
REMARK VINA RESULT: -5.793147873      1.740      3.143
REMARK  3 active torsions:
REMARK  status: ('A' for Active; 'I' for Inactive)
REMARK    1  A    between atoms: C3_3  and  C4_4 
REMARK    2  A    between atoms: C4_4  and  C7_7 
REMARK    3  A    between atoms: C13_14  and  O2_15 
ROOT
HETATM    1  C1  UNL     1     -14.787  -3.906  -9.180  1.00  0.00     0.112 C 
HETATM    2  C2  UNL     1     -16.124  -3.331  -9.064  1.00  0.00    -0.110 C 
HETATM    3  C3  UNL     1     -17.230  -2.859  -8.949  1.00  0.00    -0.097 C 
ENDROOT
BRANCH   3   4
HETATM    4  C4  UNL     1     -18.595  -2.265  -8.830  1.00  0.00     0.024 C 
HETATM    5  C5  UNL     1     -19.525  -3.252  -9.422  1.00  0.00     0.029 C 
HETATM    6  C6  UNL     1     -18.524  -1.017  -9.708  1.00  0.00     0.029 C 
BRANCH   4   7
HETATM    7  C7  UNL     1     -18.776  -1.921  -7.413  1.00  0.00    -0.018 C 
HETATM    8  C8  UNL     1     -18.647  -3.253  -6.643  1.00  0.00     0.017 C 
HETATM    9  C9  UNL     1     -20.231  -1.484  -7.161  1.00  0.00     0.012 C 
HETATM   10  C10 UNL     1     -20.135  -0.117  -6.460  1.00  0.00     0.008 C 
HETATM   11  C11 UNL     1     -18.838   0.361  -6.923  1.00  0.00     0.019 C 
HETATM   12  C12 UNL     1     -17.986   1.185  -6.044  1.00  0.00     0.176 C 
HETATM   13  C14 UNL     1     -18.025  -0.942  -6.730  1.00  0.00     0.057 C 
HETATM   14  O1  UNL     1     -16.698   0.875  -6.476  1.00  0.00    -0.361 OA
HETATM   15  C13 UNL     1     -16.709  -0.448  -6.983  1.00  0.00     0.262 C 
BRANCH  15  16
HETATM   16  O2  UNL     1     -15.753  -1.119  -6.183  1.00  0.00    -0.371 OA
ATOM     17  H2  UNL     1     -14.971  -1.122  -6.723  1.00  0.00     0.212 HD
ENDBRANCH  15  16
ENDBRANCH   4   7
ENDBRANCH   3   4
TORSDOF 3
ENDMDL
