MODEL 1
REMARK VINA RESULT: -6.702312770      0.000      0.000
REMARK  15 active torsions:
REMARK  status: ('A' for Active; 'I' for Inactive)
REMARK    1  A    between atoms: C3_3  and  C4_4 
REMARK    2  A    between atoms: C4_4  and  C5_5 
REMARK    3  A    between atoms: C5_5  and  C6_6 
REMARK    4  A    between atoms: C6_6  and  C7_7 
REMARK    5  A    between atoms: C7_7  and  C8_8 
REMARK    6  A    between atoms: C8_8  and  N1_9 
REMARK    7  A    between atoms: N1_9  and  C9_11 
REMARK    8  A    between atoms: C10_14  and  N3_15 
REMARK    9  A    between atoms: C12_21  and  S1_22 
REMARK   10  A    between atoms: S1_22  and  C13_23 
REMARK   11  A    between atoms: C13_23  and  C14_24 
REMARK   12  A    between atoms: C14_24  and  N5_25 
REMARK   13  A    between atoms: C16_34  and  N8_35 
REMARK   14  A    between atoms: N8_35  and  C17_37 
REMARK   15  A    between atoms: C17_37  and  C18_38 
ROOT
HETATM    1  C1  UNL     1      17.639  45.122  -8.111  1.00  0.00     0.012 C 
HETATM    2  C2  UNL     1      16.645  44.429  -8.125  1.00  0.00    -0.117 C 
HETATM    3  C3  UNL     1      15.450  43.565  -8.140  1.00  0.00     0.093 C 
ENDROOT
BRANCH   3   4
HETATM    4  C4  UNL     1      14.631  43.802  -6.836  1.00  0.00     0.012 C 
BRANCH   4   5
HETATM    5  C5  UNL     1      13.658  44.854  -7.175  1.00  0.00     0.001 C 
BRANCH   5   6
HETATM    6  C6  UNL     1      12.556  44.603  -8.102  1.00  0.00     0.002 C 
BRANCH   6   7
HETATM    7  C7  UNL     1      11.303  43.967  -7.717  1.00  0.00     0.020 C 
BRANCH   7   8
HETATM    8  C8  UNL     1      10.997  42.589  -8.184  1.00  0.00     0.121 C 
BRANCH   8   9
HETATM    9  N1  UNL     1      11.859  41.607  -7.494  1.00  0.00    -0.373 N 
ATOM     10  H1  UNL     1      11.907  41.589  -6.475  1.00  0.00     0.161 HD
BRANCH   9  11
HETATM   11  C9  UNL     1      12.547  40.776  -8.193  1.00  0.00     0.147 C 
HETATM   12  N2  UNL     1      13.225  41.243  -9.277  1.00  0.00    -0.324 N 
HETATM   13  C10 UNL     1      13.590  40.623 -10.423  1.00  0.00     0.131 C 
ATOM     14  H2  UNL     1      13.505  42.223  -9.215  1.00  0.00     0.169 HD
HETATM   15  C11 UNL     1      13.667  39.264 -10.631  1.00  0.00     0.123 A 
HETATM   16  N4  UNL     1      14.206  38.713 -11.741  1.00  0.00    -0.331 N 
HETATM   17  C15 UNL     1      13.245  38.231  -9.819  1.00  0.00     0.140 A 
HETATM   18  C12 UNL     1      14.136  37.374 -11.649  1.00  0.00     0.146 A 
ATOM     19  H4  UNL     1      14.604  39.231 -12.525  1.00  0.00     0.168 HD
HETATM   20  N6  UNL     1      13.544  37.106 -10.465  1.00  0.00    -0.321 N 
ATOM     21  H6  UNL     1      13.351  36.167 -10.114  1.00  0.00     0.169 HD
HETATM   22  N7  UNL     1      12.653  38.371  -8.619  1.00  0.00    -0.323 N 
HETATM   23  C16 UNL     1      12.543  39.458  -7.794  1.00  0.00     0.151 C 
ATOM     24  H7  UNL     1      12.211  37.523  -8.263  1.00  0.00     0.169 HD
BRANCH  13  25
HETATM   25  N3  UNL     1      13.897  41.374 -11.424  1.00  0.00    -0.383 N 
ATOM     26  H32 UNL     1      14.499  40.961 -12.135  1.00  0.00     0.157 HD
ATOM     27  H31 UNL     1      13.514  42.319 -11.427  1.00  0.00     0.157 HD
ENDBRANCH  13  25
BRANCH  18  28
HETATM   28  S1  UNL     1      14.715  36.178 -12.861  1.00  0.00    -0.092 SA
BRANCH  28  29
HETATM   29  C13 UNL     1      13.381  35.922 -14.081  1.00  0.00     0.109 C 
BRANCH  29  30
HETATM   30  C14 UNL     1      13.997  35.786 -15.479  1.00  0.00     0.240 C 
BRANCH  30  31
HETATM   31  N5  UNL     1      13.072  34.999 -16.255  1.00  0.00    -0.079 N 
ATOM     32  H53 UNL     1      12.960  34.047 -15.907  1.00  0.00     0.274 HD
ATOM     33  H52 UNL     1      12.101  35.290 -16.143  1.00  0.00     0.274 HD
ATOM     34  H51 UNL     1      13.398  35.042 -17.221  1.00  0.00     0.274 HD
ENDBRANCH  30  31
ENDBRANCH  29  30
ENDBRANCH  28  29
ENDBRANCH  18  28
BRANCH  23  35
HETATM   35  N8  UNL     1      12.435  39.188  -6.591  1.00  0.00    -0.343 N 
ATOM     36  H8  UNL     1      13.075  39.758  -6.038  1.00  0.00     0.167 HD
BRANCH  35  37
HETATM   37  C17 UNL     1      11.699  38.337  -5.766  1.00  0.00     0.174 C 
BRANCH  37  38
HETATM   38  C18 UNL     1      10.351  38.915  -5.463  1.00  0.00     0.214 C 
HETATM   39  O1  UNL     1      10.256  40.164  -5.421  1.00  0.00    -0.643 OA
HETATM   40  O2  UNL     1       9.240  38.147  -5.234  1.00  0.00    -0.643 OA
ENDBRANCH  37  38
ENDBRANCH  35  37
ENDBRANCH  23  35
ENDBRANCH   9  11
ENDBRANCH   8   9
ENDBRANCH   7   8
ENDBRANCH   6   7
ENDBRANCH   5   6
ENDBRANCH   4   5
ENDBRANCH   3   4
TORSDOF 15
ENDMDL
MODEL 2
REMARK VINA RESULT: -6.590980926      3.756      7.085
REMARK  15 active torsions:
REMARK  status: ('A' for Active; 'I' for Inactive)
REMARK    1  A    between atoms: C3_3  and  C4_4 
REMARK    2  A    between atoms: C4_4  and  C5_5 
REMARK    3  A    between atoms: C5_5  and  C6_6 
REMARK    4  A    between atoms: C6_6  and  C7_7 
REMARK    5  A    between atoms: C7_7  and  C8_8 
REMARK    6  A    between atoms: C8_8  and  N1_9 
REMARK    7  A    between atoms: N1_9  and  C9_11 
REMARK    8  A    between atoms: C10_14  and  N3_15 
REMARK    9  A    between atoms: C12_21  and  S1_22 
REMARK   10  A    between atoms: S1_22  and  C13_23 
REMARK   11  A    between atoms: C13_23  and  C14_24 
REMARK   12  A    between atoms: C14_24  and  N5_25 
REMARK   13  A    between atoms: C16_34  and  N8_35 
REMARK   14  A    between atoms: N8_35  and  C17_37 
REMARK   15  A    between atoms: C17_37  and  C18_38 
ROOT
HETATM    1  C1  UNL     1      14.781  43.638  -7.254  1.00  0.00     0.012 C 
HETATM    2  C2  UNL     1      15.768  43.873  -7.918  1.00  0.00    -0.117 C 
HETATM    3  C3  UNL     1      16.974  44.133  -8.725  1.00  0.00     0.093 C 
ENDROOT
BRANCH   3   4
HETATM    4  C4  UNL     1      16.546  44.642 -10.133  1.00  0.00     0.012 C 
BRANCH   4   5
HETATM    5  C5  UNL     1      15.832  43.515 -10.753  1.00  0.00     0.001 C 
BRANCH   5   6
HETATM    6  C6  UNL     1      16.542  42.326 -11.222  1.00  0.00     0.002 C 
BRANCH   6   7
HETATM    7  C7  UNL     1      16.134  40.963 -10.908  1.00  0.00     0.020 C 
BRANCH   7   8
HETATM    8  C8  UNL     1      15.322  40.693  -9.692  1.00  0.00     0.121 C 
BRANCH   8   9
HETATM    9  N1  UNL     1      13.917  40.423 -10.060  1.00  0.00    -0.373 N 
ATOM     10  H1  UNL     1      13.601  40.553 -11.021  1.00  0.00     0.161 HD
BRANCH   9  11
HETATM   11  C9  UNL     1      13.098  40.023  -9.154  1.00  0.00     0.147 C 
HETATM   12  N2  UNL     1      12.183  40.906  -8.667  1.00  0.00    -0.324 N 
HETATM   13  C10 UNL     1      11.574  40.969  -7.460  1.00  0.00     0.131 C 
ATOM     14  H2  UNL     1      11.913  41.643  -9.320  1.00  0.00     0.169 HD
HETATM   15  C11 UNL     1      11.470  39.949  -6.541  1.00  0.00     0.123 A 
HETATM   16  N4  UNL     1      10.698  40.024  -5.434  1.00  0.00    -0.331 N 
HETATM   17  C15 UNL     1      12.079  38.711  -6.537  1.00  0.00     0.140 A 
HETATM   18  C12 UNL     1      10.804  38.878  -4.741  1.00  0.00     0.146 A 
ATOM     19  H4  UNL     1      10.125  40.825  -5.167  1.00  0.00     0.168 HD
HETATM   20  N6  UNL     1      11.655  38.093  -5.436  1.00  0.00    -0.321 N 
ATOM     21  H6  UNL     1      11.935  37.152  -5.156  1.00  0.00     0.169 HD
HETATM   22  N7  UNL     1      12.928  38.254  -7.475  1.00  0.00    -0.323 N 
HETATM   23  C16 UNL     1      13.209  38.716  -8.732  1.00  0.00     0.151 C 
ATOM     24  H7  UNL     1      13.450  37.420  -7.204  1.00  0.00     0.169 HD
BRANCH  13  25
HETATM   25  N3  UNL     1      11.037  42.093  -7.133  1.00  0.00    -0.383 N 
ATOM     26  H32 UNL     1      11.449  42.579  -6.337  1.00  0.00     0.157 HD
ATOM     27  H31 UNL     1      10.246  42.409  -7.694  1.00  0.00     0.157 HD
ENDBRANCH  13  25
BRANCH  18  28
HETATM   28  S1  UNL     1       9.978  38.471  -3.197  1.00  0.00    -0.092 SA
BRANCH  28  29
HETATM   29  C13 UNL     1      10.979  39.150  -1.828  1.00  0.00     0.109 C 
BRANCH  29  30
HETATM   30  C14 UNL     1      10.043  39.661  -0.725  1.00  0.00     0.240 C 
BRANCH  30  31
HETATM   31  N5  UNL     1       9.877  41.073  -0.953  1.00  0.00    -0.079 N 
ATOM     32  H53 UNL     1       9.313  41.287  -1.775  1.00  0.00     0.274 HD
ATOM     33  H52 UNL     1       9.275  41.526  -0.265  1.00  0.00     0.274 HD
ATOM     34  H51 UNL     1      10.816  41.471  -0.992  1.00  0.00     0.274 HD
ENDBRANCH  30  31
ENDBRANCH  29  30
ENDBRANCH  28  29
ENDBRANCH  18  28
BRANCH  23  35
HETATM   35  N8  UNL     1      13.593  37.851  -9.530  1.00  0.00    -0.343 N 
ATOM     36  H8  UNL     1      14.530  37.530  -9.286  1.00  0.00     0.167 HD
BRANCH  35  37
HETATM   37  C17 UNL     1      13.126  37.184 -10.663  1.00  0.00     0.174 C 
BRANCH  37  38
HETATM   38  C18 UNL     1      14.061  37.370 -11.819  1.00  0.00     0.214 C 
HETATM   39  O1  UNL     1      14.829  36.421 -12.099  1.00  0.00    -0.643 OA
HETATM   40  O2  UNL     1      14.106  38.516 -12.569  1.00  0.00    -0.643 OA
ENDBRANCH  37  38
ENDBRANCH  35  37
ENDBRANCH  23  35
ENDBRANCH   9  11
ENDBRANCH   8   9
ENDBRANCH   7   8
ENDBRANCH   6   7
ENDBRANCH   5   6
ENDBRANCH   4   5
ENDBRANCH   3   4
TORSDOF 15
ENDMDL
MODEL 3
REMARK VINA RESULT: -6.448394346      4.172      7.618
REMARK  15 active torsions:
REMARK  status: ('A' for Active; 'I' for Inactive)
REMARK    1  A    between atoms: C3_3  and  C4_4 
REMARK    2  A    between atoms: C4_4  and  C5_5 
REMARK    3  A    between atoms: C5_5  and  C6_6 
REMARK    4  A    between atoms: C6_6  and  C7_7 
REMARK    5  A    between atoms: C7_7  and  C8_8 
REMARK    6  A    between atoms: C8_8  and  N1_9 
REMARK    7  A    between atoms: N1_9  and  C9_11 
REMARK    8  A    between atoms: C10_14  and  N3_15 
REMARK    9  A    between atoms: C12_21  and  S1_22 
REMARK   10  A    between atoms: S1_22  and  C13_23 
REMARK   11  A    between atoms: C13_23  and  C14_24 
REMARK   12  A    between atoms: C14_24  and  N5_25 
REMARK   13  A    between atoms: C16_34  and  N8_35 
REMARK   14  A    between atoms: N8_35  and  C17_37 
REMARK   15  A    between atoms: C17_37  and  C18_38 
ROOT
HETATM    1  C1  UNL     1       9.311  36.124  -1.341  1.00  0.00     0.012 C 
HETATM    2  C2  UNL     1       8.946  36.851  -0.442  1.00  0.00    -0.117 C 
HETATM    3  C3  UNL     1       8.504  37.714   0.669  1.00  0.00     0.093 C 
ENDROOT
BRANCH   3   4
HETATM    4  C4  UNL     1       9.592  38.795   0.939  1.00  0.00     0.012 C 
BRANCH   4   5
HETATM    5  C5  UNL     1      10.158  39.115  -0.381  1.00  0.00     0.001 C 
BRANCH   5   6
HETATM    6  C6  UNL     1      10.349  40.498  -0.815  1.00  0.00     0.002 C 
BRANCH   6   7
HETATM    7  C7  UNL     1       9.311  41.519  -0.746  1.00  0.00     0.020 C 
BRANCH   7   8
HETATM    8  C8  UNL     1       8.728  42.069  -1.998  1.00  0.00     0.121 C 
BRANCH   8   9
HETATM    9  N1  UNL     1       8.308  40.974  -2.896  1.00  0.00    -0.373 N 
ATOM     10  H1  UNL     1       7.531  40.364  -2.639  1.00  0.00     0.161 HD
BRANCH   9  11
HETATM   11  C9  UNL     1       8.934  40.797  -4.005  1.00  0.00     0.147 C 
HETATM   12  N2  UNL     1       9.636  39.644  -4.181  1.00  0.00    -0.324 N 
HETATM   13  C10 UNL     1      10.727  39.383  -4.938  1.00  0.00     0.131 C 
ATOM     14  H2  UNL     1       9.280  38.845  -3.655  1.00  0.00     0.169 HD
HETATM   15  C11 UNL     1      11.194  40.138  -5.990  1.00  0.00     0.123 A 
HETATM   16  N4  UNL     1      12.185  39.729  -6.814  1.00  0.00    -0.331 N 
HETATM   17  C15 UNL     1      10.792  41.388  -6.415  1.00  0.00     0.140 A 
HETATM   18  C12 UNL     1      12.413  40.679  -7.737  1.00  0.00     0.146 A 
ATOM     19  H4  UNL     1      12.681  38.840  -6.745  1.00  0.00     0.168 HD
HETATM   20  N6  UNL     1      11.550  41.682  -7.470  1.00  0.00    -0.321 N 
ATOM     21  H6  UNL     1      11.486  42.548  -8.005  1.00  0.00     0.169 HD
HETATM   22  N7  UNL     1       9.824  42.131  -5.851  1.00  0.00    -0.323 N 
HETATM   23  C16 UNL     1       8.853  41.802  -4.944  1.00  0.00     0.151 C 
ATOM     24  H7  UNL     1       9.810  43.107  -6.149  1.00  0.00     0.169 HD
BRANCH  13  25
HETATM   25  N3  UNL     1      11.400  38.324  -4.648  1.00  0.00    -0.383 N 
ATOM     26  H32 UNL     1      12.408  38.369  -4.803  1.00  0.00     0.157 HD
ATOM     27  H31 UNL     1      10.877  37.527  -4.286  1.00  0.00     0.157 HD
ENDBRANCH  13  25
BRANCH  18  28
HETATM   28  S1  UNL     1      13.628  40.624  -9.062  1.00  0.00    -0.092 SA
BRANCH  28  29
HETATM   29  C13 UNL     1      13.483  39.003  -9.891  1.00  0.00     0.109 C 
BRANCH  29  30
HETATM   30  C14 UNL     1      14.186  37.938  -9.041  1.00  0.00     0.240 C 
BRANCH  30  31
HETATM   31  N5  UNL     1      14.616  36.908  -9.953  1.00  0.00    -0.079 N 
ATOM     32  H53 UNL     1      13.888  36.617 -10.606  1.00  0.00     0.274 HD
ATOM     33  H52 UNL     1      15.285  37.238 -10.648  1.00  0.00     0.274 HD
ATOM     34  H51 UNL     1      14.973  36.145  -9.379  1.00  0.00     0.274 HD
ENDBRANCH  30  31
ENDBRANCH  29  30
ENDBRANCH  28  29
ENDBRANCH  18  28
BRANCH  23  35
HETATM   35  N8  UNL     1       7.827  42.491  -5.009  1.00  0.00    -0.343 N 
ATOM     36  H8  UNL     1       6.996  41.899  -4.990  1.00  0.00     0.167 HD
BRANCH  35  37
HETATM   37  C17 UNL     1       7.467  43.837  -5.101  1.00  0.00     0.174 C 
BRANCH  37  38
HETATM   38  C18 UNL     1       6.984  44.171  -6.479  1.00  0.00     0.214 C 
HETATM   39  O1  UNL     1       7.802  44.052  -7.421  1.00  0.00    -0.643 OA
HETATM   40  O2  UNL     1       5.708  44.594  -6.745  1.00  0.00    -0.643 OA
ENDBRANCH  37  38
ENDBRANCH  35  37
ENDBRANCH  23  35
ENDBRANCH   9  11
ENDBRANCH   8   9
ENDBRANCH   7   8
ENDBRANCH   6   7
ENDBRANCH   5   6
ENDBRANCH   4   5
ENDBRANCH   3   4
TORSDOF 15
ENDMDL
MODEL 4
REMARK VINA RESULT: -6.443854521      3.769      7.155
REMARK  15 active torsions:
REMARK  status: ('A' for Active; 'I' for Inactive)
REMARK    1  A    between atoms: C3_3  and  C4_4 
REMARK    2  A    between atoms: C4_4  and  C5_5 
REMARK    3  A    between atoms: C5_5  and  C6_6 
REMARK    4  A    between atoms: C6_6  and  C7_7 
REMARK    5  A    between atoms: C7_7  and  C8_8 
REMARK    6  A    between atoms: C8_8  and  N1_9 
REMARK    7  A    between atoms: N1_9  and  C9_11 
REMARK    8  A    between atoms: C10_14  and  N3_15 
REMARK    9  A    between atoms: C12_21  and  S1_22 
REMARK   10  A    between atoms: S1_22  and  C13_23 
REMARK   11  A    between atoms: C13_23  and  C14_24 
REMARK   12  A    between atoms: C14_24  and  N5_25 
REMARK   13  A    between atoms: C16_34  and  N8_35 
REMARK   14  A    between atoms: N8_35  and  C17_37 
REMARK   15  A    between atoms: C17_37  and  C18_38 
ROOT
HETATM    1  C1  UNL     1       9.006  36.101  -1.206  1.00  0.00     0.012 C 
HETATM    2  C2  UNL     1       9.158  37.070  -0.493  1.00  0.00    -0.117 C 
HETATM    3  C3  UNL     1       9.352  38.233   0.393  1.00  0.00     0.093 C 
ENDROOT
BRANCH   3   4
HETATM    4  C4  UNL     1      10.459  39.151  -0.205  1.00  0.00     0.012 C 
BRANCH   4   5
HETATM    5  C5  UNL     1       9.757  40.052  -1.133  1.00  0.00     0.001 C 
BRANCH   5   6
HETATM    6  C6  UNL     1       9.446  41.433  -0.767  1.00  0.00     0.002 C 
BRANCH   6   7
HETATM    7  C7  UNL     1       8.581  42.304  -1.552  1.00  0.00     0.020 C 
BRANCH   7   8
HETATM    8  C8  UNL     1       8.030  41.828  -2.848  1.00  0.00     0.121 C 
BRANCH   8   9
HETATM    9  N1  UNL     1       8.755  42.449  -3.976  1.00  0.00    -0.373 N 
ATOM     10  H1  UNL     1       8.798  43.464  -4.065  1.00  0.00     0.161 HD
BRANCH   9  11
HETATM   11  C9  UNL     1       9.328  41.694  -4.845  1.00  0.00     0.147 C 
HETATM   12  N2  UNL     1       9.521  40.382  -4.540  1.00  0.00    -0.324 N 
HETATM   13  C10 UNL     1      10.465  39.508  -4.964  1.00  0.00     0.131 C 
ATOM     14  H2  UNL     1       8.844  39.992  -3.884  1.00  0.00     0.169 HD
HETATM   15  C11 UNL     1      11.261  39.639  -6.079  1.00  0.00     0.123 A 
HETATM   16  N4  UNL     1      12.057  38.650  -6.542  1.00  0.00    -0.331 N 
HETATM   17  C15 UNL     1      11.419  40.724  -6.917  1.00  0.00     0.140 A 
HETATM   18  C12 UNL     1      12.704  39.080  -7.639  1.00  0.00     0.146 A 
ATOM     19  H4  UNL     1      12.151  37.724  -6.125  1.00  0.00     0.168 HD
HETATM   20  N6  UNL     1      12.297  40.350  -7.846  1.00  0.00    -0.321 N 
ATOM     21  H6  UNL     1      12.619  40.943  -8.611  1.00  0.00     0.169 HD
HETATM   22  N7  UNL     1      10.793  41.908  -6.790  1.00  0.00    -0.323 N 
HETATM   23  C16 UNL     1       9.715  42.276  -6.032  1.00  0.00     0.151 C 
ATOM     24  H7  UNL     1      11.189  42.660  -7.355  1.00  0.00     0.169 HD
BRANCH  13  25
HETATM   25  N3  UNL     1      10.639  38.447  -4.255  1.00  0.00    -0.383 N 
ATOM     26  H32 UNL     1      10.574  38.559  -3.244  1.00  0.00     0.157 HD
ATOM     27  H31 UNL     1      10.827  37.580  -4.759  1.00  0.00     0.157 HD
ENDBRANCH  13  25
BRANCH  18  28
HETATM   28  S1  UNL     1      13.878  38.147  -8.631  1.00  0.00    -0.092 SA
BRANCH  28  29
HETATM   29  C13 UNL     1      13.090  37.778 -10.237  1.00  0.00     0.109 C 
BRANCH  29  30
HETATM   30  C14 UNL     1      14.169  37.359 -11.243  1.00  0.00     0.240 C 
BRANCH  30  31
HETATM   31  N5  UNL     1      14.977  36.365 -10.583  1.00  0.00    -0.079 N 
ATOM     32  H53 UNL     1      14.429  35.668 -10.079  1.00  0.00     0.274 HD
ATOM     33  H52 UNL     1      15.436  35.723 -11.229  1.00  0.00     0.274 HD
ATOM     34  H51 UNL     1      15.630  36.874  -9.987  1.00  0.00     0.274 HD
ENDBRANCH  30  31
ENDBRANCH  29  30
ENDBRANCH  28  29
ENDBRANCH  18  28
BRANCH  23  35
HETATM   35  N8  UNL     1       9.056  43.218  -6.490  1.00  0.00    -0.343 N 
ATOM     36  H8  UNL     1       8.059  43.003  -6.463  1.00  0.00     0.167 HD
BRANCH  35  37
HETATM   37  C17 UNL     1       9.269  44.487  -7.031  1.00  0.00     0.174 C 
BRANCH  37  38
HETATM   38  C18 UNL     1       9.037  44.485  -8.511  1.00  0.00     0.214 C 
HETATM   39  O1  UNL     1       9.670  43.646  -9.193  1.00  0.00    -0.643 OA
HETATM   40  O2  UNL     1       8.177  45.349  -9.136  1.00  0.00    -0.643 OA
ENDBRANCH  37  38
ENDBRANCH  35  37
ENDBRANCH  23  35
ENDBRANCH   9  11
ENDBRANCH   8   9
ENDBRANCH   7   8
ENDBRANCH   6   7
ENDBRANCH   5   6
ENDBRANCH   4   5
ENDBRANCH   3   4
TORSDOF 15
ENDMDL
MODEL 5
REMARK VINA RESULT: -6.437620483      3.192      7.533
REMARK  15 active torsions:
REMARK  status: ('A' for Active; 'I' for Inactive)
REMARK    1  A    between atoms: C3_3  and  C4_4 
REMARK    2  A    between atoms: C4_4  and  C5_5 
REMARK    3  A    between atoms: C5_5  and  C6_6 
REMARK    4  A    between atoms: C6_6  and  C7_7 
REMARK    5  A    between atoms: C7_7  and  C8_8 
REMARK    6  A    between atoms: C8_8  and  N1_9 
REMARK    7  A    between atoms: N1_9  and  C9_11 
REMARK    8  A    between atoms: C10_14  and  N3_15 
REMARK    9  A    between atoms: C12_21  and  S1_22 
REMARK   10  A    between atoms: S1_22  and  C13_23 
REMARK   11  A    between atoms: C13_23  and  C14_24 
REMARK   12  A    between atoms: C14_24  and  N5_25 
REMARK   13  A    between atoms: C16_34  and  N8_35 
REMARK   14  A    between atoms: N8_35  and  C17_37 
REMARK   15  A    between atoms: C17_37  and  C18_38 
ROOT
HETATM    1  C1  UNL     1      13.655  35.949 -15.472  1.00  0.00     0.012 C 
HETATM    2  C2  UNL     1      13.457  35.822 -14.282  1.00  0.00    -0.117 C 
HETATM    3  C3  UNL     1      13.214  35.643 -12.839  1.00  0.00     0.093 C 
ENDROOT
BRANCH   3   4
HETATM    4  C4  UNL     1      14.520  35.966 -12.057  1.00  0.00     0.012 C 
BRANCH   4   5
HETATM    5  C5  UNL     1      14.618  37.434 -12.053  1.00  0.00     0.001 C 
BRANCH   5   6
HETATM    6  C6  UNL     1      13.841  38.248 -11.119  1.00  0.00     0.002 C 
BRANCH   6   7
HETATM    7  C7  UNL     1      13.144  37.708  -9.959  1.00  0.00     0.020 C 
BRANCH   7   8
HETATM    8  C8  UNL     1      13.351  38.318  -8.620  1.00  0.00     0.121 C 
BRANCH   8   9
HETATM    9  N1  UNL     1      12.200  39.173  -8.260  1.00  0.00    -0.373 N 
ATOM     10  H1  UNL     1      11.281  38.761  -8.102  1.00  0.00     0.161 HD
BRANCH   9  11
HETATM   11  C9  UNL     1      12.373  40.442  -8.148  1.00  0.00     0.147 C 
HETATM   12  N2  UNL     1      12.374  41.201  -9.278  1.00  0.00    -0.324 N 
HETATM   13  C10 UNL     1      12.986  42.377  -9.550  1.00  0.00     0.131 C 
ATOM     14  H2  UNL     1      11.822  40.820 -10.048  1.00  0.00     0.169 HD
HETATM   15  C11 UNL     1      13.481  43.274  -8.631  1.00  0.00     0.123 A 
HETATM   16  N4  UNL     1      13.921  44.509  -8.962  1.00  0.00    -0.331 N 
HETATM   17  C15 UNL     1      13.632  43.134  -7.266  1.00  0.00     0.140 A 
HETATM   18  C12 UNL     1      14.340  45.142  -7.853  1.00  0.00     0.146 A 
ATOM     19  H4  UNL     1      13.934  44.898  -9.905  1.00  0.00     0.168 HD
HETATM   20  N6  UNL     1      14.153  44.279  -6.831  1.00  0.00    -0.321 N 
ATOM     21  H6  UNL     1      14.381  44.479  -5.856  1.00  0.00     0.169 HD
HETATM   22  N7  UNL     1      13.307  42.041  -6.552  1.00  0.00    -0.323 N 
HETATM   23  C16 UNL     1      12.553  40.947  -6.879  1.00  0.00     0.151 C 
ATOM     24  H7  UNL     1      13.687  42.025  -5.605  1.00  0.00     0.169 HD
BRANCH  13  25
HETATM   25  N3  UNL     1      13.121  42.694 -10.791  1.00  0.00    -0.383 N 
ATOM     26  H32 UNL     1      14.064  42.636 -11.175  1.00  0.00     0.157 HD
ATOM     27  H31 UNL     1      12.279  42.975 -11.292  1.00  0.00     0.157 HD
ENDBRANCH  13  25
BRANCH  18  28
HETATM   28  S1  UNL     1      15.014  46.806  -7.751  1.00  0.00    -0.092 SA
BRANCH  28  29
HETATM   29  C13 UNL     1      16.735  46.754  -8.361  1.00  0.00     0.109 C 
BRANCH  29  30
HETATM   30  C14 UNL     1      17.451  45.544  -7.746  1.00  0.00     0.240 C 
BRANCH  30  31
HETATM   31  N5  UNL     1      18.616  46.060  -7.074  1.00  0.00    -0.079 N 
ATOM     32  H53 UNL     1      19.184  46.671  -7.661  1.00  0.00     0.274 HD
ATOM     33  H52 UNL     1      18.396  46.747  -6.352  1.00  0.00     0.274 HD
ATOM     34  H51 UNL     1      19.126  45.251  -6.719  1.00  0.00     0.274 HD
ENDBRANCH  30  31
ENDBRANCH  29  30
ENDBRANCH  28  29
ENDBRANCH  18  28
BRANCH  23  35
HETATM   35  N8  UNL     1      11.998  40.394  -5.921  1.00  0.00    -0.343 N 
ATOM     36  H8  UNL     1      12.691  39.998  -5.287  1.00  0.00     0.167 HD
BRANCH  35  37
HETATM   37  C17 UNL     1      10.707  40.150  -5.450  1.00  0.00     0.174 C 
BRANCH  37  38
HETATM   38  C18 UNL     1      10.434  38.680  -5.367  1.00  0.00     0.214 C 
HETATM   39  O1  UNL     1       9.342  38.323  -4.866  1.00  0.00    -0.643 OA
HETATM   40  O2  UNL     1      11.314  37.728  -5.810  1.00  0.00    -0.643 OA
ENDBRANCH  37  38
ENDBRANCH  35  37
ENDBRANCH  23  35
ENDBRANCH   9  11
ENDBRANCH   8   9
ENDBRANCH   7   8
ENDBRANCH   6   7
ENDBRANCH   5   6
ENDBRANCH   4   5
ENDBRANCH   3   4
TORSDOF 15
ENDMDL
