MODEL 1
REMARK VINA RESULT: -9.262964336      0.000      0.000
REMARK  6 active torsions:
REMARK  status: ('A' for Active; 'I' for Inactive)
REMARK    1  A    between atoms: C2_2  and  C3_3 
REMARK    2  A    between atoms: C3_3  and  N1_4 
REMARK    3  A    between atoms: C6_11  and  C7_12 
REMARK    4  A    between atoms: N3_14  and  C9_15 
REMARK    5  A    between atoms: C15_23  and  C16_24 
REMARK    6  A    between atoms: C19_27  and  N5_28 
ROOT
HETATM    1  C7  UNL     1      36.064  26.683  53.535  1.00  0.00     0.012 A 
HETATM    2  C8  UNL     1      36.657  25.743  54.352  1.00  0.00     0.130 A 
HETATM    3  N3  UNL     1      37.618  25.091  53.670  1.00  0.00    -0.266 N 
HETATM    4  N4  UNL     1      37.626  25.618  52.448  1.00  0.00    -0.293 N 
ATOM      5  H4  UNL     1      38.255  25.325  51.701  1.00  0.00     0.187 HD
HETATM    6  C15 UNL     1      36.701  26.586  52.324  1.00  0.00     0.070 A 
ENDROOT
BRANCH   1   7
HETATM    7  C6  UNL     1      34.993  27.575  53.959  1.00  0.00     0.040 C 
HETATM    8  C5  UNL     1      33.868  27.154  54.479  1.00  0.00     0.077 C 
HETATM    9  S1  UNL     1      33.444  25.440  54.767  1.00  0.00    -0.049 SA
HETATM   10  C22 UNL     1      32.737  27.901  54.932  1.00  0.00     0.267 C 
HETATM   11  C4  UNL     1      32.198  25.852  56.022  1.00  0.00     0.148 C 
HETATM   12  N1  UNL     1      31.855  27.193  55.754  1.00  0.00    -0.290 N 
HETATM   13  N2  UNL     1      31.802  25.024  56.902  1.00  0.00    -0.379 N 
ATOM     14  H22 UNL     1      31.102  25.256  57.607  1.00  0.00     0.158 HD
ATOM     15  H21 UNL     1      32.050  24.054  57.097  1.00  0.00     0.158 HD
HETATM   16  O3  UNL     1      32.572  29.122  54.594  1.00  0.00    -0.266 OA
BRANCH  12  17
HETATM   17  C3  UNL     1      30.619  27.767  56.319  1.00  0.00     0.161 C 
BRANCH  17  18
HETATM   18  C2  UNL     1      30.976  28.378  57.608  1.00  0.00    -0.017 C 
HETATM   19  C1  UNL     1      30.070  28.827  58.444  1.00  0.00     0.008 C 
ENDBRANCH  17  18
ENDBRANCH  12  17
ENDBRANCH   1   7
BRANCH   6  20
HETATM   20  C16 UNL     1      36.405  27.423  51.171  1.00  0.00    -0.007 A 
HETATM   21  C17 UNL     1      37.445  27.801  50.358  1.00  0.00     0.016 A 
HETATM   22  C18 UNL     1      37.263  28.606  49.247  1.00  0.00     0.037 A 
HETATM   23  C19 UNL     1      35.993  29.046  48.941  1.00  0.00     0.102 A 
HETATM   24  C20 UNL     1      34.932  28.669  49.755  1.00  0.00     0.037 A 
HETATM   25  C21 UNL     1      35.137  27.866  50.859  1.00  0.00     0.016 A 
BRANCH  23  26
HETATM   26  N5  UNL     1      35.808  29.871  47.809  1.00  0.00    -0.116 N 
HETATM   27  O1  UNL     1      35.882  31.102  47.901  1.00  0.00    -0.532 OA
HETATM   28  O2  UNL     1      35.539  29.302  46.596  1.00  0.00    -0.532 OA
ENDBRANCH  23  26
ENDBRANCH   6  20
BRANCH   3  29
HETATM   29  C9  UNL     1      38.450  24.055  54.176  1.00  0.00     0.056 A 
HETATM   30  C10 UNL     1      38.044  23.115  55.095  1.00  0.00     0.031 A 
HETATM   31  C11 UNL     1      38.934  22.128  55.535  1.00  0.00     0.002 A 
HETATM   32  C12 UNL     1      40.226  22.074  55.064  1.00  0.00     0.000 A 
HETATM   33  C13 UNL     1      40.615  23.013  54.152  1.00  0.00     0.002 A 
HETATM   34  C14 UNL     1      39.762  23.997  53.699  1.00  0.00     0.031 A 
ENDBRANCH   3  29
TORSDOF 6
ENDMDL
MODEL 2
REMARK VINA RESULT: -9.195178519      0.354      1.084
REMARK  6 active torsions:
REMARK  status: ('A' for Active; 'I' for Inactive)
REMARK    1  A    between atoms: C2_2  and  C3_3 
REMARK    2  A    between atoms: C3_3  and  N1_4 
REMARK    3  A    between atoms: C6_11  and  C7_12 
REMARK    4  A    between atoms: N3_14  and  C9_15 
REMARK    5  A    between atoms: C15_23  and  C16_24 
REMARK    6  A    between atoms: C19_27  and  N5_28 
ROOT
HETATM    1  C7  UNL     1      36.174  26.734  53.380  1.00  0.00     0.012 A 
HETATM    2  C8  UNL     1      36.785  25.804  54.195  1.00  0.00     0.130 A 
HETATM    3  N3  UNL     1      37.748  25.161  53.508  1.00  0.00    -0.266 N 
HETATM    4  N4  UNL     1      37.739  25.682  52.283  1.00  0.00    -0.293 N 
ATOM      5  H4  UNL     1      38.365  25.393  51.532  1.00  0.00     0.187 HD
HETATM    6  C15 UNL     1      36.801  26.638  52.163  1.00  0.00     0.070 A 
ENDROOT
BRANCH   1   7
HETATM    7  C6  UNL     1      35.096  27.614  53.809  1.00  0.00     0.040 C 
HETATM    8  C5  UNL     1      33.974  27.182  54.327  1.00  0.00     0.077 C 
HETATM    9  S1  UNL     1      33.564  25.463  54.605  1.00  0.00    -0.049 SA
HETATM   10  C22 UNL     1      32.838  27.918  54.784  1.00  0.00     0.267 C 
HETATM   11  C4  UNL     1      32.315  25.859  55.863  1.00  0.00     0.148 C 
HETATM   12  N1  UNL     1      31.962  27.198  55.602  1.00  0.00    -0.290 N 
HETATM   13  N2  UNL     1      31.925  25.023  56.737  1.00  0.00    -0.379 N 
ATOM     14  H22 UNL     1      31.224  25.244  57.444  1.00  0.00     0.158 HD
ATOM     15  H21 UNL     1      32.181  24.053  56.927  1.00  0.00     0.158 HD
HETATM   16  O3  UNL     1      32.663  29.139  54.453  1.00  0.00    -0.266 OA
BRANCH  12  17
HETATM   17  C3  UNL     1      30.721  27.759  56.171  1.00  0.00     0.161 C 
BRANCH  17  18
HETATM   18  C2  UNL     1      31.118  28.708  57.222  1.00  0.00    -0.017 C 
HETATM   19  C1  UNL     1      31.647  28.314  58.356  1.00  0.00     0.008 C 
ENDBRANCH  17  18
ENDBRANCH  12  17
ENDBRANCH   1   7
BRANCH   6  20
HETATM   20  C16 UNL     1      36.486  27.467  51.010  1.00  0.00    -0.007 A 
HETATM   21  C17 UNL     1      37.520  27.892  50.212  1.00  0.00     0.016 A 
HETATM   22  C18 UNL     1      37.318  28.693  49.101  1.00  0.00     0.037 A 
HETATM   23  C19 UNL     1      36.035  29.079  48.779  1.00  0.00     0.102 A 
HETATM   24  C20 UNL     1      34.981  28.655  49.578  1.00  0.00     0.037 A 
HETATM   25  C21 UNL     1      35.204  27.857  50.681  1.00  0.00     0.016 A 
BRANCH  23  26
HETATM   26  N5  UNL     1      35.830  29.901  47.648  1.00  0.00    -0.116 N 
HETATM   27  O1  UNL     1      35.635  29.408  46.532  1.00  0.00    -0.532 OA
HETATM   28  O2  UNL     1      35.854  31.260  47.789  1.00  0.00    -0.532 OA
ENDBRANCH  23  26
ENDBRANCH   6  20
BRANCH   3  29
HETATM   29  C9  UNL     1      38.596  24.137  54.011  1.00  0.00     0.056 A 
HETATM   30  C10 UNL     1      39.905  23.958  53.629  1.00  0.00     0.031 A 
HETATM   31  C11 UNL     1      40.666  22.920  54.181  1.00  0.00     0.002 A 
HETATM   32  C12 UNL     1      40.128  22.061  55.112  1.00  0.00     0.000 A 
HETATM   33  C13 UNL     1      38.827  22.250  55.482  1.00  0.00     0.002 A 
HETATM   34  C14 UNL     1      38.052  23.262  54.957  1.00  0.00     0.031 A 
ENDBRANCH   3  29
TORSDOF 6
ENDMDL
MODEL 3
REMARK VINA RESULT: -9.002028750      0.200      1.044
REMARK  6 active torsions:
REMARK  status: ('A' for Active; 'I' for Inactive)
REMARK    1  A    between atoms: C2_2  and  C3_3 
REMARK    2  A    between atoms: C3_3  and  N1_4 
REMARK    3  A    between atoms: C6_11  and  C7_12 
REMARK    4  A    between atoms: N3_14  and  C9_15 
REMARK    5  A    between atoms: C15_23  and  C16_24 
REMARK    6  A    between atoms: C19_27  and  N5_28 
ROOT
HETATM    1  C7  UNL     1      36.148  26.700  53.411  1.00  0.00     0.012 A 
HETATM    2  C8  UNL     1      36.669  25.738  54.250  1.00  0.00     0.130 A 
HETATM    3  N3  UNL     1      37.652  25.069  53.619  1.00  0.00    -0.266 N 
HETATM    4  N4  UNL     1      37.745  25.607  52.405  1.00  0.00    -0.293 N 
ATOM      5  H4  UNL     1      38.410  25.305  51.693  1.00  0.00     0.187 HD
HETATM    6  C15 UNL     1      36.852  26.598  52.237  1.00  0.00     0.070 A 
ENDROOT
BRANCH   1   7
HETATM    7  C6  UNL     1      35.075  27.614  53.780  1.00  0.00     0.040 C 
HETATM    8  C5  UNL     1      33.940  27.220  54.301  1.00  0.00     0.077 C 
HETATM    9  S1  UNL     1      33.504  25.522  54.653  1.00  0.00    -0.049 SA
HETATM   10  C22 UNL     1      32.807  27.992  54.705  1.00  0.00     0.267 C 
HETATM   11  C4  UNL     1      32.241  25.993  55.872  1.00  0.00     0.148 C 
HETATM   12  N1  UNL     1      31.910  27.322  55.542  1.00  0.00    -0.290 N 
HETATM   13  N2  UNL     1      31.827  25.205  56.779  1.00  0.00    -0.379 N 
ATOM     14  H22 UNL     1      31.118  25.469  57.463  1.00  0.00     0.158 HD
ATOM     15  H21 UNL     1      32.067  24.242  57.018  1.00  0.00     0.158 HD
HETATM   16  O3  UNL     1      32.654  29.198  54.313  1.00  0.00    -0.266 OA
BRANCH  12  17
HETATM   17  C3  UNL     1      30.668  27.926  56.064  1.00  0.00     0.161 C 
BRANCH  17  18
HETATM   18  C2  UNL     1      31.014  28.608  57.320  1.00  0.00    -0.017 C 
HETATM   19  C1  UNL     1      30.106  28.949  58.204  1.00  0.00     0.008 C 
ENDBRANCH  17  18
ENDBRANCH  12  17
ENDBRANCH   1   7
BRANCH   6  20
HETATM   20  C16 UNL     1      36.645  27.453  51.079  1.00  0.00    -0.007 A 
HETATM   21  C17 UNL     1      35.357  27.785  50.737  1.00  0.00     0.016 A 
HETATM   22  C18 UNL     1      35.062  28.583  49.645  1.00  0.00     0.037 A 
HETATM   23  C19 UNL     1      36.095  29.064  48.870  1.00  0.00     0.102 A 
HETATM   24  C20 UNL     1      37.402  28.736  49.206  1.00  0.00     0.037 A 
HETATM   25  C21 UNL     1      37.674  27.940  50.299  1.00  0.00     0.016 A 
BRANCH  23  26
HETATM   26  N5  UNL     1      35.793  29.874  47.752  1.00  0.00    -0.116 N 
HETATM   27  O1  UNL     1      35.509  29.370  46.660  1.00  0.00    -0.532 OA
HETATM   28  O2  UNL     1      35.820  31.235  47.878  1.00  0.00    -0.532 OA
ENDBRANCH  23  26
ENDBRANCH   6  20
BRANCH   3  29
HETATM   29  C9  UNL     1      38.427  24.008  54.161  1.00  0.00     0.056 A 
HETATM   30  C10 UNL     1      37.957  23.093  55.075  1.00  0.00     0.031 A 
HETATM   31  C11 UNL     1      38.795  22.078  55.553  1.00  0.00     0.002 A 
HETATM   32  C12 UNL     1      40.098  21.971  55.125  1.00  0.00     0.000 A 
HETATM   33  C13 UNL     1      40.552  22.885  54.217  1.00  0.00     0.002 A 
HETATM   34  C14 UNL     1      39.752  23.895  53.727  1.00  0.00     0.031 A 
ENDBRANCH   3  29
TORSDOF 6
ENDMDL
MODEL 4
REMARK VINA RESULT: -8.709843310      3.707      6.991
REMARK  6 active torsions:
REMARK  status: ('A' for Active; 'I' for Inactive)
REMARK    1  A    between atoms: C2_2  and  C3_3 
REMARK    2  A    between atoms: C3_3  and  N1_4 
REMARK    3  A    between atoms: C6_11  and  C7_12 
REMARK    4  A    between atoms: N3_14  and  C9_15 
REMARK    5  A    between atoms: C15_23  and  C16_24 
REMARK    6  A    between atoms: C19_27  and  N5_28 
ROOT
HETATM    1  C7  UNL     1      33.425  28.323  53.804  1.00  0.00     0.012 A 
HETATM    2  C8  UNL     1      34.558  27.702  53.320  1.00  0.00     0.130 A 
HETATM    3  N3  UNL     1      34.959  26.752  54.184  1.00  0.00    -0.266 N 
HETATM    4  N4  UNL     1      34.090  26.777  55.192  1.00  0.00    -0.293 N 
ATOM      5  H4  UNL     1      34.135  26.163  56.005  1.00  0.00     0.187 HD
HETATM    6  C15 UNL     1      33.144  27.714  55.001  1.00  0.00     0.070 A 
ENDROOT
BRANCH   1   7
HETATM    7  C6  UNL     1      32.720  29.393  53.111  1.00  0.00     0.040 C 
HETATM    8  C5  UNL     1      31.754  29.182  52.252  1.00  0.00     0.077 C 
HETATM    9  S1  UNL     1      31.129  27.573  51.782  1.00  0.00    -0.049 SA
HETATM   10  C22 UNL     1      30.982  30.120  51.500  1.00  0.00     0.267 C 
HETATM   11  C4  UNL     1      29.540  28.245  51.211  1.00  0.00     0.148 C 
HETATM   12  N1  UNL     1      29.805  29.604  50.950  1.00  0.00    -0.290 N 
HETATM   13  N2  UNL     1      28.488  27.540  51.110  1.00  0.00    -0.379 N 
ATOM     14  H22 UNL     1      27.596  27.917  50.789  1.00  0.00     0.158 HD
ATOM     15  H21 UNL     1      28.296  26.556  51.299  1.00  0.00     0.158 HD
HETATM   16  O3  UNL     1      31.366  31.330  51.358  1.00  0.00    -0.266 OA
BRANCH  12  17
HETATM   17  C3  UNL     1      28.869  30.395  50.127  1.00  0.00     0.161 C 
BRANCH  17  18
HETATM   18  C2  UNL     1      27.910  31.025  51.048  1.00  0.00    -0.017 C 
HETATM   19  C1  UNL     1      27.918  32.313  51.293  1.00  0.00     0.008 C 
ENDBRANCH  17  18
ENDBRANCH  12  17
ENDBRANCH   1   7
BRANCH   6  20
HETATM   20  C16 UNL     1      32.004  28.044  55.842  1.00  0.00    -0.007 A 
HETATM   21  C17 UNL     1      32.232  28.744  57.002  1.00  0.00     0.016 A 
HETATM   22  C18 UNL     1      31.212  29.092  57.870  1.00  0.00     0.037 A 
HETATM   23  C19 UNL     1      29.919  28.726  57.564  1.00  0.00     0.102 A 
HETATM   24  C20 UNL     1      29.675  28.019  56.393  1.00  0.00     0.037 A 
HETATM   25  C21 UNL     1      30.707  27.682  55.541  1.00  0.00     0.016 A 
BRANCH  23  26
HETATM   26  N5  UNL     1      28.878  29.078  58.454  1.00  0.00    -0.116 N 
HETATM   27  O1  UNL     1      28.616  30.263  58.687  1.00  0.00    -0.532 OA
HETATM   28  O2  UNL     1      28.156  28.094  59.068  1.00  0.00    -0.532 OA
ENDBRANCH  23  26
ENDBRANCH   6  20
BRANCH   3  29
HETATM   29  C9  UNL     1      36.087  25.899  54.030  1.00  0.00     0.056 A 
HETATM   30  C10 UNL     1      37.116  26.129  53.147  1.00  0.00     0.031 A 
HETATM   31  C11 UNL     1      38.189  25.232  53.066  1.00  0.00     0.002 A 
HETATM   32  C12 UNL     1      38.239  24.109  53.861  1.00  0.00     0.000 A 
HETATM   33  C13 UNL     1      37.211  23.895  54.733  1.00  0.00     0.002 A 
HETATM   34  C14 UNL     1      36.141  24.758  54.836  1.00  0.00     0.031 A 
ENDBRANCH   3  29
TORSDOF 6
ENDMDL
MODEL 5
REMARK VINA RESULT: -8.543277432      3.453      6.632
REMARK  6 active torsions:
REMARK  status: ('A' for Active; 'I' for Inactive)
REMARK    1  A    between atoms: C2_2  and  C3_3 
REMARK    2  A    between atoms: C3_3  and  N1_4 
REMARK    3  A    between atoms: C6_11  and  C7_12 
REMARK    4  A    between atoms: N3_14  and  C9_15 
REMARK    5  A    between atoms: C15_23  and  C16_24 
REMARK    6  A    between atoms: C19_27  and  N5_28 
ROOT
HETATM    1  C7  UNL     1      34.597  26.875  53.571  1.00  0.00     0.012 A 
HETATM    2  C8  UNL     1      34.416  27.941  52.715  1.00  0.00     0.130 A 
HETATM    3  N3  UNL     1      35.484  28.058  51.903  1.00  0.00    -0.266 N 
HETATM    4  N4  UNL     1      36.317  27.078  52.245  1.00  0.00    -0.293 N 
ATOM      5  H4  UNL     1      37.219  26.910  51.800  1.00  0.00     0.187 HD
HETATM    6  C15 UNL     1      35.819  26.338  53.251  1.00  0.00     0.070 A 
ENDROOT
BRANCH   1   7
HETATM    7  C6  UNL     1      33.627  26.458  54.574  1.00  0.00     0.040 C 
HETATM    8  C5  UNL     1      32.648  27.221  54.992  1.00  0.00     0.077 C 
HETATM    9  S1  UNL     1      32.321  28.883  54.416  1.00  0.00    -0.049 SA
HETATM   10  C22 UNL     1      31.634  26.952  55.962  1.00  0.00     0.267 C 
HETATM   11  C4  UNL     1      30.583  28.831  54.942  1.00  0.00     0.148 C 
HETATM   12  N1  UNL     1      30.540  27.821  55.923  1.00  0.00    -0.290 N 
HETATM   13  N2  UNL     1      29.691  29.594  54.455  1.00  0.00    -0.379 N 
ATOM     14  H22 UNL     1      28.715  29.566  54.750  1.00  0.00     0.158 HD
ATOM     15  H21 UNL     1      29.722  30.325  53.744  1.00  0.00     0.158 HD
HETATM   16  O3  UNL     1      31.749  25.986  56.790  1.00  0.00    -0.266 OA
BRANCH  12  17
HETATM   17  C3  UNL     1      29.390  27.733  56.844  1.00  0.00     0.161 C 
BRANCH  17  18
HETATM   18  C2  UNL     1      29.670  28.632  57.973  1.00  0.00    -0.017 C 
HETATM   19  C1  UNL     1      28.843  29.585  58.331  1.00  0.00     0.008 C 
ENDBRANCH  17  18
ENDBRANCH  12  17
ENDBRANCH   1   7
BRANCH   6  20
HETATM   20  C16 UNL     1      36.395  25.168  53.895  1.00  0.00    -0.007 A 
HETATM   21  C17 UNL     1      37.631  25.291  54.483  1.00  0.00     0.016 A 
HETATM   22  C18 UNL     1      38.263  24.230  55.108  1.00  0.00     0.037 A 
HETATM   23  C19 UNL     1      37.634  23.005  55.146  1.00  0.00     0.102 A 
HETATM   24  C20 UNL     1      36.384  22.867  54.556  1.00  0.00     0.037 A 
HETATM   25  C21 UNL     1      35.771  23.938  53.938  1.00  0.00     0.016 A 
BRANCH  23  26
HETATM   26  N5  UNL     1      38.283  21.921  55.780  1.00  0.00    -0.116 N 
HETATM   27  O1  UNL     1      37.684  21.214  56.599  1.00  0.00    -0.532 OA
HETATM   28  O2  UNL     1      39.591  21.655  55.489  1.00  0.00    -0.532 OA
ENDBRANCH  23  26
ENDBRANCH   6  20
BRANCH   3  29
HETATM   29  C9  UNL     1      35.662  29.036  50.886  1.00  0.00     0.056 A 
HETATM   30  C10 UNL     1      35.617  30.394  51.102  1.00  0.00     0.031 A 
HETATM   31  C11 UNL     1      35.806  31.284  50.037  1.00  0.00     0.002 A 
HETATM   32  C12 UNL     1      36.040  30.826  48.760  1.00  0.00     0.000 A 
HETATM   33  C13 UNL     1      36.082  29.475  48.561  1.00  0.00     0.002 A 
HETATM   34  C14 UNL     1      35.900  28.574  49.589  1.00  0.00     0.031 A 
ENDBRANCH   3  29
TORSDOF 6
ENDMDL
