MODEL 1
REMARK VINA RESULT: -7.031147684      0.000      0.000
REMARK  4 active torsions:
REMARK  status: ('A' for Active; 'I' for Inactive)
REMARK    1  A    between atoms: O1_2  and  C2_3 
REMARK    2  A    between atoms: C2_3  and  C3_4 
REMARK    3  A    between atoms: C3_4  and  C4_5 
REMARK    4  A    between atoms: C3_4  and  N1_11 
ROOT
HETATM    1  C3  UNL     1      19.254   7.098  -4.365  1.00  0.00     0.116 C 
ENDROOT
BRANCH   1   2
HETATM    2  C2  UNL     1      19.175   5.653  -4.762  1.00  0.00     0.193 C 
BRANCH   2   3
HETATM    3  O1  UNL     1      18.455   4.916  -3.769  1.00  0.00    -0.394 OA
HETATM    4  C1  UNL     1      19.370   4.444  -2.834  1.00  0.00     0.201 C 
ENDBRANCH   2   3
ENDBRANCH   1   2
BRANCH   1   5
HETATM    5  C4  UNL     1      18.378   7.928  -5.252  1.00  0.00     0.011 C 
HETATM    6  C5  UNL     1      18.597   7.590  -6.694  1.00  0.00     0.007 C 
HETATM    7  C6  UNL     1      17.753   8.537  -7.535  1.00  0.00     0.000 C 
HETATM    8  C7  UNL     1      16.312   8.178  -7.328  1.00  0.00     0.000 C 
HETATM    9  C8  UNL     1      16.084   7.323  -6.114  1.00  0.00     0.000 C 
HETATM   10  C9  UNL     1      16.912   7.761  -4.937  1.00  0.00     0.007 C 
ENDBRANCH   1   5
BRANCH   1  11
HETATM   11  N1  UNL     1      20.602   7.585  -4.306  1.00  0.00    -0.366 N 
HETATM   12  C10 UNL     1      21.651   6.752  -4.634  1.00  0.00     0.065 C 
HETATM   13  C11 UNL     1      22.814   6.669  -3.713  1.00  0.00     0.060 C 
HETATM   14  C12 UNL     1      23.136   7.885  -2.940  1.00  0.00     0.114 C 
HETATM   15  N2  UNL     1      23.195   9.104  -3.662  1.00  0.00    -0.223 NA
HETATM   16 CL1  UNL     1      23.497  10.391  -2.510  1.00  0.00    -0.021 Cl
HETATM   17  C13 UNL     1      22.053   9.457  -4.425  1.00  0.00     0.153 C 
HETATM   18  C14 UNL     1      20.811   8.860  -3.788  1.00  0.00     0.079 C 
ENDBRANCH   1  11
TORSDOF 4
ENDMDL
MODEL 2
REMARK VINA RESULT: -6.564111207      0.766      1.428
REMARK  4 active torsions:
REMARK  status: ('A' for Active; 'I' for Inactive)
REMARK    1  A    between atoms: O1_2  and  C2_3 
REMARK    2  A    between atoms: C2_3  and  C3_4 
REMARK    3  A    between atoms: C3_4  and  C4_5 
REMARK    4  A    between atoms: C3_4  and  N1_11 
ROOT
HETATM    1  C3  UNL     1      19.305   6.701  -3.685  1.00  0.00     0.116 C 
ENDROOT
BRANCH   1   2
HETATM    2  C2  UNL     1      19.436   5.271  -3.248  1.00  0.00     0.193 C 
BRANCH   2   3
HETATM    3  O1  UNL     1      18.830   4.409  -4.216  1.00  0.00    -0.394 OA
HETATM    4  C1  UNL     1      19.689   3.338  -4.438  1.00  0.00     0.201 C 
ENDBRANCH   2   3
ENDBRANCH   1   2
BRANCH   1   5
HETATM    5  C4  UNL     1      18.436   6.792  -4.902  1.00  0.00     0.011 C 
HETATM    6  C5  UNL     1      17.290   7.728  -4.676  1.00  0.00     0.007 C 
HETATM    7  C6  UNL     1      16.400   7.691  -5.911  1.00  0.00     0.000 C 
HETATM    8  C7  UNL     1      17.144   8.348  -7.035  1.00  0.00     0.000 C 
HETATM    9  C8  UNL     1      18.618   8.475  -6.774  1.00  0.00     0.000 C 
HETATM   10  C9  UNL     1      19.197   7.249  -6.123  1.00  0.00     0.007 C 
ENDBRANCH   1   5
BRANCH   1  11
HETATM   11  N1  UNL     1      20.573   7.346  -3.861  1.00  0.00    -0.366 N 
HETATM   12  C10 UNL     1      21.642   6.639  -4.373  1.00  0.00     0.065 C 
HETATM   13  C11 UNL     1      22.949   6.711  -3.670  1.00  0.00     0.060 C 
HETATM   14  C12 UNL     1      23.252   7.969  -2.959  1.00  0.00     0.114 C 
HETATM   15  N2  UNL     1      23.037   9.174  -3.673  1.00  0.00    -0.223 NA
HETATM   16 CL1  UNL     1      23.378  10.506  -2.585  1.00  0.00    -0.021 Cl
HETATM   17  C13 UNL     1      21.745   9.376  -4.222  1.00  0.00     0.153 C 
HETATM   18  C14 UNL     1      20.715   8.645  -3.381  1.00  0.00     0.079 C 
ENDBRANCH   1  11
TORSDOF 4
ENDMDL
MODEL 3
REMARK VINA RESULT: -6.350764293      1.477      2.021
REMARK  4 active torsions:
REMARK  status: ('A' for Active; 'I' for Inactive)
REMARK    1  A    between atoms: O1_2  and  C2_3 
REMARK    2  A    between atoms: C2_3  and  C3_4 
REMARK    3  A    between atoms: C3_4  and  C4_5 
REMARK    4  A    between atoms: C3_4  and  N1_11 
ROOT
HETATM    1  C3  UNL     1      18.360   6.806  -4.400  1.00  0.00     0.116 C 
ENDROOT
BRANCH   1   2
HETATM    2  C2  UNL     1      18.266   5.439  -5.010  1.00  0.00     0.193 C 
BRANCH   2   3
HETATM    3  O1  UNL     1      17.648   4.537  -4.088  1.00  0.00    -0.394 OA
HETATM    4  C1  UNL     1      16.337   4.327  -4.503  1.00  0.00     0.201 C 
ENDBRANCH   2   3
ENDBRANCH   1   2
BRANCH   1   5
HETATM    5  C4  UNL     1      17.836   7.836  -5.353  1.00  0.00     0.011 C 
HETATM    6  C5  UNL     1      18.203   7.500  -6.765  1.00  0.00     0.007 C 
HETATM    7  C6  UNL     1      17.727   8.636  -7.659  1.00  0.00     0.000 C 
HETATM    8  C7  UNL     1      16.228   8.600  -7.692  1.00  0.00     0.000 C 
HETATM    9  C8  UNL     1      15.632   7.783  -6.582  1.00  0.00     0.000 C 
HETATM   10  C9  UNL     1      16.336   7.990  -5.270  1.00  0.00     0.007 C 
ENDBRANCH   1   5
BRANCH   1  11
HETATM   11  N1  UNL     1      19.678   7.113  -3.925  1.00  0.00    -0.366 N 
HETATM   12  C10 UNL     1      19.858   8.105  -2.984  1.00  0.00     0.065 C 
HETATM   13  C11 UNL     1      20.905   9.133  -3.220  1.00  0.00     0.060 C 
HETATM   14  C12 UNL     1      22.093   8.706  -3.986  1.00  0.00     0.114 C 
HETATM   15  N2  UNL     1      22.709   7.494  -3.586  1.00  0.00    -0.223 NA
HETATM   16 CL1  UNL     1      24.023   7.170  -4.702  1.00  0.00    -0.021 Cl
HETATM   17  C13 UNL     1      21.886   6.340  -3.533  1.00  0.00     0.153 C 
HETATM   18  C14 UNL     1      20.754   6.475  -4.535  1.00  0.00     0.079 C 
ENDBRANCH   1  11
TORSDOF 4
ENDMDL
MODEL 4
REMARK VINA RESULT: -6.265167331      2.804      5.431
REMARK  4 active torsions:
REMARK  status: ('A' for Active; 'I' for Inactive)
REMARK    1  A    between atoms: O1_2  and  C2_3 
REMARK    2  A    between atoms: C2_3  and  C3_4 
REMARK    3  A    between atoms: C3_4  and  C4_5 
REMARK    4  A    between atoms: C3_4  and  N1_11 
ROOT
HETATM    1  C3  UNL     1      20.799   6.571  -4.623  1.00  0.00     0.116 C 
ENDROOT
BRANCH   1   2
HETATM    2  C2  UNL     1      20.688   5.862  -3.305  1.00  0.00     0.193 C 
BRANCH   2   3
HETATM    3  O1  UNL     1      21.563   4.730  -3.286  1.00  0.00    -0.394 OA
HETATM    4  C1  UNL     1      20.780   3.580  -3.304  1.00  0.00     0.201 C 
ENDBRANCH   2   3
ENDBRANCH   1   2
BRANCH   1   5
HETATM    5  C4  UNL     1      21.484   7.891  -4.445  1.00  0.00     0.011 C 
HETATM    6  C5  UNL     1      20.972   8.604  -3.233  1.00  0.00     0.007 C 
HETATM    7  C6  UNL     1      21.636   9.973  -3.175  1.00  0.00     0.000 C 
HETATM    8  C7  UNL     1      23.085   9.769  -2.849  1.00  0.00     0.000 C 
HETATM    9  C8  UNL     1      23.548   8.357  -3.069  1.00  0.00     0.000 C 
HETATM   10  C9  UNL     1      22.982   7.754  -4.325  1.00  0.00     0.007 C 
ENDBRANCH   1   5
BRANCH   1  11
HETATM   11  N1  UNL     1      19.540   6.687  -5.299  1.00  0.00    -0.366 N 
HETATM   12  C10 UNL     1      19.499   7.102  -6.614  1.00  0.00     0.065 C 
HETATM   13  C11 UNL     1      18.547   8.177  -6.995  1.00  0.00     0.060 C 
HETATM   14  C12 UNL     1      17.289   8.253  -6.224  1.00  0.00     0.114 C 
HETATM   15  N2  UNL     1      16.579   7.041  -6.040  1.00  0.00    -0.223 NA
HETATM   16 CL1  UNL     1      15.190   7.386  -5.026  1.00  0.00    -0.021 Cl
HETATM   17  C13 UNL     1      17.288   5.959  -5.459  1.00  0.00     0.153 C 
HETATM   18  C14 UNL     1      18.381   6.496  -4.553  1.00  0.00     0.079 C 
ENDBRANCH   1  11
TORSDOF 4
ENDMDL
MODEL 5
REMARK VINA RESULT: -6.135336471      2.860      4.453
REMARK  4 active torsions:
REMARK  status: ('A' for Active; 'I' for Inactive)
REMARK    1  A    between atoms: O1_2  and  C2_3 
REMARK    2  A    between atoms: C2_3  and  C3_4 
REMARK    3  A    between atoms: C3_4  and  C4_5 
REMARK    4  A    between atoms: C3_4  and  N1_11 
ROOT
HETATM    1  C3  UNL     1      19.296   6.524  -4.822  1.00  0.00     0.116 C 
ENDROOT
BRANCH   1   2
HETATM    2  C2  UNL     1      19.380   7.598  -3.778  1.00  0.00     0.193 C 
BRANCH   2   3
HETATM    3  O1  UNL     1      20.374   8.559  -4.148  1.00  0.00    -0.394 OA
HETATM    4  C1  UNL     1      21.581   8.174  -3.573  1.00  0.00     0.201 C 
ENDBRANCH   2   3
ENDBRANCH   1   2
BRANCH   1   5
HETATM    5  C4  UNL     1      18.141   6.783  -5.740  1.00  0.00     0.011 C 
HETATM    6  C5  UNL     1      17.203   7.793  -5.154  1.00  0.00     0.007 C 
HETATM    7  C6  UNL     1      16.011   7.928  -6.090  1.00  0.00     0.000 C 
HETATM    8  C7  UNL     1      16.482   8.604  -7.343  1.00  0.00     0.000 C 
HETATM    9  C8  UNL     1      17.975   8.585  -7.499  1.00  0.00     0.000 C 
HETATM   10  C9  UNL     1      18.581   7.267  -7.100  1.00  0.00     0.007 C 
ENDBRANCH   1   5
BRANCH   1  11
HETATM   11  N1  UNL     1      19.272   5.205  -4.261  1.00  0.00    -0.366 N 
HETATM   12  C10 UNL     1      18.161   4.405  -4.427  1.00  0.00     0.065 C 
HETATM   13  C11 UNL     1      17.587   3.723  -3.238  1.00  0.00     0.060 C 
HETATM   14  C12 UNL     1      18.531   3.350  -2.166  1.00  0.00     0.114 C 
HETATM   15  N2  UNL     1      19.716   2.681  -2.564  1.00  0.00    -0.223 NA
HETATM   16 CL1  UNL     1      20.697   2.438  -1.130  1.00  0.00    -0.021 Cl
HETATM   17  C13 UNL     1      20.520   3.321  -3.542  1.00  0.00     0.153 C 
HETATM   18  C14 UNL     1      20.336   4.824  -3.448  1.00  0.00     0.079 C 
ENDBRANCH   1  11
TORSDOF 4
ENDMDL
