MODEL 1
REMARK VINA RESULT: -6.783407782      0.000      0.000
REMARK  5 active torsions:
REMARK  status: ('A' for Active; 'I' for Inactive)
REMARK    1  A    between atoms: O1_2  and  C2_3 
REMARK    2  A    between atoms: C4_5  and  C5_6 
REMARK    3  A    between atoms: C8_12  and  C9_13 
REMARK    4  A    between atoms: C10_14  and  C11_15 
REMARK    5  A    between atoms: C11_15  and  C13_17 
ROOT
HETATM    1  C2  UNL     1      24.279   4.535  -3.257  1.00  0.00     0.058 C 
HETATM    2  C3  UNL     1      23.981   5.790  -3.501  1.00  0.00     0.020 C 
HETATM    3  C4  UNL     1      25.028   6.840  -3.573  1.00  0.00     0.098 C 
HETATM    4  C6  UNL     1      25.962   6.599  -2.438  1.00  0.00     0.204 C 
HETATM    5  O2  UNL     1      26.457   7.545  -1.778  1.00  0.00    -0.288 OA
HETATM    6  C7  UNL     1      26.274   5.206  -2.133  1.00  0.00     0.209 C 
HETATM    7  O3  UNL     1      26.987   4.925  -1.137  1.00  0.00    -0.288 OA
HETATM    8  C8  UNL     1      25.707   4.175  -3.051  1.00  0.00     0.142 C 
ENDROOT
BRANCH   8   9
HETATM    9  C9  UNL     1      25.860   2.854  -2.396  1.00  0.00    -0.011 C 
HETATM   10  C10 UNL     1      26.708   1.913  -2.737  1.00  0.00    -0.025 C 
BRANCH  10  11
HETATM   11  C11 UNL     1      27.694   1.948  -3.834  1.00  0.00     0.007 C 
HETATM   12  C12 UNL     1      27.306   0.896  -4.877  1.00  0.00     0.014 C 
BRANCH  11  13
HETATM   13  C13 UNL     1      29.086   1.579  -3.375  1.00  0.00    -0.015 C 
HETATM   14  C14 UNL     1      29.099   0.349  -2.515  1.00  0.00     0.010 C 
HETATM   15  C15 UNL     1      29.655   2.735  -2.581  1.00  0.00     0.010 C 
ENDBRANCH  11  13
ENDBRANCH  10  11
ENDBRANCH   8   9
BRANCH   1  16
HETATM   16  O1  UNL     1      23.244   3.613  -3.204  1.00  0.00    -0.359 OA
HETATM   17  C1  UNL     1      21.951   3.932  -3.620  1.00  0.00     0.209 C 
ENDBRANCH   1  16
BRANCH   3  18
HETATM   18  C5  UNL     1      24.447   8.222  -3.378  1.00  0.00     0.101 C 
HETATM   19 BR1  UNL     1      23.349   8.714  -4.917  1.00  0.00    -0.095 Br
ENDBRANCH   3  18
TORSDOF 5
ENDMDL
MODEL 2
REMARK VINA RESULT: -6.590858945      4.607      8.573
REMARK  5 active torsions:
REMARK  status: ('A' for Active; 'I' for Inactive)
REMARK    1  A    between atoms: O1_2  and  C2_3 
REMARK    2  A    between atoms: C4_5  and  C5_6 
REMARK    3  A    between atoms: C8_12  and  C9_13 
REMARK    4  A    between atoms: C10_14  and  C11_15 
REMARK    5  A    between atoms: C11_15  and  C13_17 
ROOT
HETATM    1  C2  UNL     1      21.826   9.009  -4.070  1.00  0.00     0.058 C 
HETATM    2  C3  UNL     1      23.113   8.750  -4.084  1.00  0.00     0.020 C 
HETATM    3  C4  UNL     1      23.642   7.456  -4.583  1.00  0.00     0.098 C 
HETATM    4  C6  UNL     1      22.766   6.386  -4.029  1.00  0.00     0.204 C 
HETATM    5  O2  UNL     1      23.232   5.291  -3.629  1.00  0.00    -0.288 OA
HETATM    6  C7  UNL     1      21.336   6.676  -3.974  1.00  0.00     0.209 C 
HETATM    7  O3  UNL     1      20.548   5.854  -3.441  1.00  0.00    -0.288 OA
HETATM    8  C8  UNL     1      20.890   7.968  -4.572  1.00  0.00     0.142 C 
ENDROOT
BRANCH   8   9
HETATM    9  C9  UNL     1      19.497   8.213  -4.131  1.00  0.00    -0.011 C 
HETATM   10  C10 UNL     1      18.418   8.102  -4.870  1.00  0.00    -0.025 C 
BRANCH  10  11
HETATM   11  C11 UNL     1      18.341   7.712  -6.291  1.00  0.00     0.007 C 
HETATM   12  C12 UNL     1      18.687   8.930  -7.153  1.00  0.00     0.014 C 
BRANCH  11  13
HETATM   13  C13 UNL     1      16.947   7.297  -6.704  1.00  0.00    -0.015 C 
HETATM   14  C14 UNL     1      15.979   8.444  -6.682  1.00  0.00     0.010 C 
HETATM   15  C15 UNL     1      16.459   6.228  -5.751  1.00  0.00     0.010 C 
ENDBRANCH  11  13
ENDBRANCH  10  11
ENDBRANCH   8   9
BRANCH   1  16
HETATM   16  O1  UNL     1      21.411  10.241  -3.586  1.00  0.00    -0.359 OA
HETATM   17  C1  UNL     1      22.103  10.908  -2.574  1.00  0.00     0.209 C 
ENDBRANCH   1  16
BRANCH   3  18
HETATM   18  C5  UNL     1      25.039   7.188  -4.071  1.00  0.00     0.101 C 
HETATM   19 BR1  UNL     1      25.255   7.939  -2.281  1.00  0.00    -0.095 Br
ENDBRANCH   3  18
TORSDOF 5
ENDMDL
MODEL 3
REMARK VINA RESULT: -6.319335606      1.054      1.213
REMARK  5 active torsions:
REMARK  status: ('A' for Active; 'I' for Inactive)
REMARK    1  A    between atoms: O1_2  and  C2_3 
REMARK    2  A    between atoms: C4_5  and  C5_6 
REMARK    3  A    between atoms: C8_12  and  C9_13 
REMARK    4  A    between atoms: C10_14  and  C11_15 
REMARK    5  A    between atoms: C11_15  and  C13_17 
ROOT
HETATM    1  C2  UNL     1      24.513   5.018  -3.221  1.00  0.00     0.058 C 
HETATM    2  C3  UNL     1      23.864   5.997  -3.807  1.00  0.00     0.020 C 
HETATM    3  C4  UNL     1      24.535   7.270  -4.170  1.00  0.00     0.098 C 
HETATM    4  C6  UNL     1      25.391   7.654  -3.013  1.00  0.00     0.204 C 
HETATM    5  O2  UNL     1      25.505   8.848  -2.643  1.00  0.00    -0.288 OA
HETATM    6  C7  UNL     1      26.090   6.570  -2.329  1.00  0.00     0.209 C 
HETATM    7  O3  UNL     1      26.762   6.809  -1.294  1.00  0.00    -0.288 OA
HETATM    8  C8  UNL     1      25.957   5.207  -2.922  1.00  0.00     0.142 C 
ENDROOT
BRANCH   8   9
HETATM    9  C9  UNL     1      26.451   4.230  -1.923  1.00  0.00    -0.011 C 
HETATM   10  C10 UNL     1      27.209   3.187  -2.168  1.00  0.00    -0.025 C 
BRANCH  10  11
HETATM   11  C11 UNL     1      27.739   2.749  -3.474  1.00  0.00     0.007 C 
HETATM   12  C12 UNL     1      26.812   1.670  -4.043  1.00  0.00     0.014 C 
BRANCH  11  13
HETATM   13  C13 UNL     1      29.101   2.105  -3.361  1.00  0.00    -0.015 C 
HETATM   14  C14 UNL     1      29.036   0.726  -2.772  1.00  0.00     0.010 C 
HETATM   15  C15 UNL     1      29.974   2.971  -2.479  1.00  0.00     0.010 C 
ENDBRANCH  11  13
ENDBRANCH  10  11
ENDBRANCH   8   9
BRANCH   1  16
HETATM   16  O1  UNL     1      23.814   3.860  -2.913  1.00  0.00    -0.359 OA
HETATM   17  C1  UNL     1      22.619   3.528  -3.553  1.00  0.00     0.209 C 
ENDBRANCH   1  16
BRANCH   3  18
HETATM   18  C5  UNL     1      23.539   8.390  -4.370  1.00  0.00     0.101 C 
HETATM   19 BR1  UNL     1      21.725   7.743  -4.043  1.00  0.00    -0.095 Br
ENDBRANCH   3  18
TORSDOF 5
ENDMDL
MODEL 4
REMARK VINA RESULT: -6.234115930      5.570      8.253
REMARK  5 active torsions:
REMARK  status: ('A' for Active; 'I' for Inactive)
REMARK    1  A    between atoms: O1_2  and  C2_3 
REMARK    2  A    between atoms: C4_5  and  C5_6 
REMARK    3  A    between atoms: C8_12  and  C9_13 
REMARK    4  A    between atoms: C10_14  and  C11_15 
REMARK    5  A    between atoms: C11_15  and  C13_17 
ROOT
HETATM    1  C2  UNL     1      18.195   7.808  -5.396  1.00  0.00     0.058 C 
HETATM    2  C3  UNL     1      17.355   6.844  -5.096  1.00  0.00     0.020 C 
HETATM    3  C4  UNL     1      17.746   5.717  -4.213  1.00  0.00     0.098 C 
HETATM    4  C6  UNL     1      19.110   5.288  -4.635  1.00  0.00     0.204 C 
HETATM    5  O2  UNL     1      19.440   4.078  -4.670  1.00  0.00    -0.288 OA
HETATM    6  C7  UNL     1      20.042   6.349  -5.006  1.00  0.00     0.209 C 
HETATM    7  O3  UNL     1      21.180   6.057  -5.453  1.00  0.00    -0.288 OA
HETATM    8  C8  UNL     1      19.567   7.752  -4.827  1.00  0.00     0.142 C 
ENDROOT
BRANCH   8   9
HETATM    9  C9  UNL     1      20.506   8.642  -5.550  1.00  0.00    -0.011 C 
HETATM   10  C10 UNL     1      21.605   9.169  -5.064  1.00  0.00    -0.025 C 
BRANCH  10  11
HETATM   11  C11 UNL     1      22.156   9.002  -3.706  1.00  0.00     0.007 C 
HETATM   12  C12 UNL     1      21.983  10.317  -2.940  1.00  0.00     0.014 C 
BRANCH  11  13
HETATM   13  C13 UNL     1      23.641   8.721  -3.712  1.00  0.00    -0.015 C 
HETATM   14  C14 UNL     1      23.946   7.254  -3.807  1.00  0.00     0.010 C 
HETATM   15  C15 UNL     1      24.240   9.261  -2.432  1.00  0.00     0.010 C 
ENDBRANCH  11  13
ENDBRANCH  10  11
ENDBRANCH   8   9
BRANCH   1  16
HETATM   16  O1  UNL     1      17.754   8.826  -6.229  1.00  0.00    -0.359 OA
HETATM   17  C1  UNL     1      16.936   8.574  -7.331  1.00  0.00     0.209 C 
ENDBRANCH   1  16
BRANCH   3  18
HETATM   18  C5  UNL     1      16.836   4.523  -4.393  1.00  0.00     0.101 C 
HETATM   19 BR1  UNL     1      15.704   4.773  -5.965  1.00  0.00    -0.095 Br
ENDBRANCH   3  18
TORSDOF 5
ENDMDL
MODEL 5
REMARK VINA RESULT: -6.148916755      5.208      9.381
REMARK  5 active torsions:
REMARK  status: ('A' for Active; 'I' for Inactive)
REMARK    1  A    between atoms: O1_2  and  C2_3 
REMARK    2  A    between atoms: C4_5  and  C5_6 
REMARK    3  A    between atoms: C8_12  and  C9_13 
REMARK    4  A    between atoms: C10_14  and  C11_15 
REMARK    5  A    between atoms: C11_15  and  C13_17 
ROOT
HETATM    1  C2  UNL     1      21.055   6.170  -4.172  1.00  0.00     0.058 C 
HETATM    2  C3  UNL     1      21.587   4.972  -4.096  1.00  0.00     0.020 C 
HETATM    3  C4  UNL     1      20.936   3.789  -4.712  1.00  0.00     0.098 C 
HETATM    4  C6  UNL     1      19.483   3.879  -4.395  1.00  0.00     0.204 C 
HETATM    5  O2  UNL     1      18.806   2.863  -4.103  1.00  0.00    -0.288 OA
HETATM    6  C7  UNL     1      18.886   5.211  -4.439  1.00  0.00     0.209 C 
HETATM    7  O3  UNL     1      17.687   5.374  -4.101  1.00  0.00    -0.288 OA
HETATM    8  C8  UNL     1      19.766   6.325  -4.897  1.00  0.00     0.142 C 
ENDROOT
BRANCH   8   9
HETATM    9  C9  UNL     1      19.090   7.601  -4.564  1.00  0.00    -0.011 C 
HETATM   10  C10 UNL     1      18.282   8.279  -5.345  1.00  0.00    -0.025 C 
BRANCH  10  11
HETATM   11  C11 UNL     1      17.863   7.934  -6.717  1.00  0.00     0.007 C 
HETATM   12  C12 UNL     1      18.277   9.070  -7.657  1.00  0.00     0.014 C 
BRANCH  11  13
HETATM   13  C13 UNL     1      16.363   7.813  -6.853  1.00  0.00    -0.015 C 
HETATM   14  C14 UNL     1      15.633   8.391  -5.676  1.00  0.00     0.010 C 
HETATM   15  C15 UNL     1      16.005   6.347  -6.975  1.00  0.00     0.010 C 
ENDBRANCH  11  13
ENDBRANCH  10  11
ENDBRANCH   8   9
BRANCH   1  16
HETATM   16  O1  UNL     1      21.724   7.224  -3.569  1.00  0.00    -0.359 OA
HETATM   17  C1  UNL     1      23.009   7.603  -3.961  1.00  0.00     0.209 C 
ENDBRANCH   1  16
BRANCH   3  18
HETATM   18  C5  UNL     1      21.438   2.497  -4.109  1.00  0.00     0.101 C 
HETATM   19 BR1  UNL     1      23.197   2.769  -3.304  1.00  0.00    -0.095 Br
ENDBRANCH   3  18
TORSDOF 5
ENDMDL
