MODEL 1
REMARK VINA RESULT: -7.184203969      0.000      0.000
REMARK  9 active torsions:
REMARK  status: ('A' for Active; 'I' for Inactive)
REMARK    1  A    between atoms: N1_1  and  C1_4 
REMARK    2  A    between atoms: C2_7  and  N3_8 
REMARK    3  A    between atoms: N4_11  and  C3_12 
REMARK    4  A    between atoms: C3_12  and  N5_13 
REMARK    5  A    between atoms: C3_12  and  C4_17 
REMARK    6  A    between atoms: C4_17  and  C5_18 
REMARK    7  A    between atoms: C5_18  and  N6_19 
REMARK    8  A    between atoms: C5_18  and  C6_23 
REMARK    9  A    between atoms: C6_23  and  N7_24 
ROOT
HETATM    1  C3  UNL     1      76.427  13.629  17.065  1.00  0.00     0.312 C 
ENDROOT
BRANCH   1   2
HETATM    2  N4  UNL     1      77.717  13.862  17.548  1.00  0.00    -0.101 N 
HETATM    3  C2  UNL     1      78.013  13.546  18.825  1.00  0.00     0.698 A 
HETATM    4  N2  UNL     1      79.257  13.753  19.344  1.00  0.00    -0.022 N 
HETATM    5  C1  UNL     1      80.238  14.284  18.595  1.00  0.00     0.694 A 
ATOM      6  H2  UNL     1      79.446  13.502  20.315  1.00  0.00     0.203 HD
HETATM    7  N10 UNL     1      79.965  14.610  17.309  1.00  0.00    -0.140 N 
HETATM    8  C9  UNL     1      78.735  14.397  16.823  1.00  0.00     0.357 A 
ATOM      9  H10 UNL     1      80.689  15.015  16.716  1.00  0.00     0.189 HD
HETATM   10  O2  UNL     1      78.482  14.699  15.630  1.00  0.00    -0.245 OA
BRANCH   3  11
HETATM   11  N3  UNL     1      77.148  13.030  19.636  1.00  0.00    -0.234 N 
ATOM     12  H32 UNL     1      76.962  13.415  20.562  1.00  0.00     0.174 HD
ATOM     13  H31 UNL     1      76.657  12.205  19.290  1.00  0.00     0.174 HD
ENDBRANCH   3  11
BRANCH   5  14
HETATM   14  N1  UNL     1      81.404  14.468  19.115  1.00  0.00    -0.234 N 
ATOM     15  H12 UNL     1      81.565  14.402  20.120  1.00  0.00     0.174 HD
ATOM     16  H11 UNL     1      82.194  14.688  18.508  1.00  0.00     0.174 HD
ENDBRANCH   5  14
ENDBRANCH   1   2
BRANCH   1  17
HETATM   17  N5  UNL     1      76.461  12.618  16.034  1.00  0.00    -0.057 N 
ATOM     18  H53 UNL     1      76.748  13.000  15.133  1.00  0.00     0.276 HD
ATOM     19  H52 UNL     1      77.229  11.961  16.168  1.00  0.00     0.276 HD
ATOM     20  H51 UNL     1      75.559  12.146  15.978  1.00  0.00     0.276 HD
ENDBRANCH   1  17
BRANCH   1  21
HETATM   21  C4  UNL     1      75.632  14.755  16.521  1.00  0.00     0.090 C 
BRANCH  21  22
HETATM   22  C5  UNL     1      75.305  14.651  15.047  1.00  0.00     0.207 C 
BRANCH  22  23
HETATM   23  N6  UNL     1      75.938  15.705  14.278  1.00  0.00    -0.073 N 
ATOM     24  H63 UNL     1      75.492  15.821  13.369  1.00  0.00     0.274 HD
ATOM     25  H62 UNL     1      75.737  16.624  14.673  1.00  0.00     0.274 HD
ATOM     26  H61 UNL     1      76.943  15.555  14.182  1.00  0.00     0.274 HD
ENDBRANCH  22  23
BRANCH  22  27
HETATM   27  C6  UNL     1      73.791  14.736  14.933  1.00  0.00     0.186 C 
BRANCH  27  28
HETATM   28  N7  UNL     1      73.304  14.352  13.634  1.00  0.00    -0.240 N 
HETATM   29  N8  UNL     1      73.030  15.061  12.552  1.00  0.00    -0.290 N 
HETATM   30  C7  UNL     1      72.605  14.259  11.557  1.00  0.00     0.201 A 
ATOM     31  H8  UNL     1      73.127  16.073  12.481  1.00  0.00     0.188 HD
HETATM   32  N9  UNL     1      72.608  13.002  12.020  1.00  0.00    -0.302 N 
HETATM   33  C8  UNL     1      73.038  13.074  13.291  1.00  0.00     0.342 A 
ATOM     34  H9  UNL     1      72.339  12.161  11.510  1.00  0.00     0.171 HD
HETATM   35  O1  UNL     1      73.169  12.065  14.051  1.00  0.00    -0.245 OA
ENDBRANCH  27  28
ENDBRANCH  22  27
ENDBRANCH  21  22
ENDBRANCH   1  21
TORSDOF 9
ENDMDL
MODEL 2
REMARK VINA RESULT: -6.956137445      1.024      1.214
REMARK  9 active torsions:
REMARK  status: ('A' for Active; 'I' for Inactive)
REMARK    1  A    between atoms: N1_1  and  C1_4 
REMARK    2  A    between atoms: C2_7  and  N3_8 
REMARK    3  A    between atoms: N4_11  and  C3_12 
REMARK    4  A    between atoms: C3_12  and  N5_13 
REMARK    5  A    between atoms: C3_12  and  C4_17 
REMARK    6  A    between atoms: C4_17  and  C5_18 
REMARK    7  A    between atoms: C5_18  and  N6_19 
REMARK    8  A    between atoms: C5_18  and  C6_23 
REMARK    9  A    between atoms: C6_23  and  N7_24 
ROOT
HETATM    1  C3  UNL     1      76.511  13.636  17.164  1.00  0.00     0.312 C 
ENDROOT
BRANCH   1   2
HETATM    2  N4  UNL     1      77.801  13.865  17.647  1.00  0.00    -0.101 N 
HETATM    3  C2  UNL     1      78.103  13.521  18.916  1.00  0.00     0.698 A 
HETATM    4  N2  UNL     1      79.348  13.724  19.435  1.00  0.00    -0.022 N 
HETATM    5  C1  UNL     1      80.323  14.277  18.694  1.00  0.00     0.694 A 
ATOM      6  H2  UNL     1      79.542  13.451  20.399  1.00  0.00     0.203 HD
HETATM    7  N10 UNL     1      80.044  14.631  17.418  1.00  0.00    -0.140 N 
HETATM    8  C9  UNL     1      78.813  14.422  16.931  1.00  0.00     0.357 A 
ATOM      9  H10 UNL     1      80.764  15.054  16.831  1.00  0.00     0.189 HD
HETATM   10  O2  UNL     1      78.554  14.750  15.746  1.00  0.00    -0.245 OA
BRANCH   3  11
HETATM   11  N3  UNL     1      77.244  12.982  19.718  1.00  0.00    -0.234 N 
ATOM     12  H32 UNL     1      77.159  11.972  19.837  1.00  0.00     0.174 HD
ATOM     13  H31 UNL     1      76.649  13.635  20.229  1.00  0.00     0.174 HD
ENDBRANCH   3  11
BRANCH   5  14
HETATM   14  N1  UNL     1      81.490  14.456  19.214  1.00  0.00    -0.234 N 
ATOM     15  H12 UNL     1      82.326  14.572  18.642  1.00  0.00     0.174 HD
ATOM     16  H11 UNL     1      81.588  14.482  20.230  1.00  0.00     0.174 HD
ENDBRANCH   5  14
ENDBRANCH   1   2
BRANCH   1  17
HETATM   17  N5  UNL     1      76.541  12.617  16.141  1.00  0.00    -0.057 N 
ATOM     18  H53 UNL     1      75.653  12.548  15.643  1.00  0.00     0.276 HD
ATOM     19  H52 UNL     1      77.132  12.883  15.354  1.00  0.00     0.276 HD
ATOM     20  H51 UNL     1      76.822  11.723  16.546  1.00  0.00     0.276 HD
ENDBRANCH   1  17
BRANCH   1  21
HETATM   21  C4  UNL     1      75.724  14.762  16.610  1.00  0.00     0.090 C 
BRANCH  21  22
HETATM   22  C5  UNL     1      75.392  14.645  15.137  1.00  0.00     0.207 C 
BRANCH  22  23
HETATM   23  N6  UNL     1      75.949  15.742  14.370  1.00  0.00    -0.073 N 
ATOM     24  H63 UNL     1      76.825  16.070  14.774  1.00  0.00     0.274 HD
ATOM     25  H62 UNL     1      76.299  15.422  13.467  1.00  0.00     0.274 HD
ATOM     26  H61 UNL     1      75.281  16.506  14.260  1.00  0.00     0.274 HD
ENDBRANCH  22  23
BRANCH  22  27
HETATM   27  C6  UNL     1      73.874  14.633  15.036  1.00  0.00     0.186 C 
BRANCH  27  28
HETATM   28  N7  UNL     1      73.392  13.824  13.947  1.00  0.00    -0.240 N 
HETATM   29  N8  UNL     1      73.091  12.538  13.872  1.00  0.00    -0.290 N 
HETATM   30  C7  UNL     1      72.664  12.225  12.634  1.00  0.00     0.201 A 
ATOM     31  H8  UNL     1      73.171  11.877  14.644  1.00  0.00     0.188 HD
HETATM   32  N9  UNL     1      72.695  13.344  11.899  1.00  0.00    -0.302 N 
HETATM   33  C8  UNL     1      73.142  14.314  12.714  1.00  0.00     0.342 A 
ATOM     34  H9  UNL     1      72.432  13.440  10.919  1.00  0.00     0.171 HD
HETATM   35  O1  UNL     1      73.302  15.521  12.356  1.00  0.00    -0.245 OA
ENDBRANCH  27  28
ENDBRANCH  22  27
ENDBRANCH  21  22
ENDBRANCH   1  21
TORSDOF 9
ENDMDL
MODEL 3
REMARK VINA RESULT: -6.884042828      1.603      7.358
REMARK  9 active torsions:
REMARK  status: ('A' for Active; 'I' for Inactive)
REMARK    1  A    between atoms: N1_1  and  C1_4 
REMARK    2  A    between atoms: C2_7  and  N3_8 
REMARK    3  A    between atoms: N4_11  and  C3_12 
REMARK    4  A    between atoms: C3_12  and  N5_13 
REMARK    5  A    between atoms: C3_12  and  C4_17 
REMARK    6  A    between atoms: C4_17  and  C5_18 
REMARK    7  A    between atoms: C5_18  and  N6_19 
REMARK    8  A    between atoms: C5_18  and  C6_23 
REMARK    9  A    between atoms: C6_23  and  N7_24 
ROOT
HETATM    1  C3  UNL     1      75.518  15.277  15.209  1.00  0.00     0.312 C 
ENDROOT
BRANCH   1   2
HETATM    2  N4  UNL     1      74.725  14.888  14.127  1.00  0.00    -0.101 N 
HETATM    3  C2  UNL     1      73.648  15.629  13.796  1.00  0.00     0.698 A 
HETATM    4  N2  UNL     1      72.842  15.292  12.749  1.00  0.00    -0.022 N 
HETATM    5  C1  UNL     1      73.095  14.202  12.006  1.00  0.00     0.694 A 
ATOM      6  H2  UNL     1      72.036  15.876  12.526  1.00  0.00     0.203 HD
HETATM    7  N10 UNL     1      74.171  13.441  12.319  1.00  0.00    -0.140 N 
HETATM    8  C9  UNL     1      74.947  13.793  13.353  1.00  0.00     0.357 A 
ATOM      9  H10 UNL     1      74.389  12.608  11.773  1.00  0.00     0.189 HD
HETATM   10  O2  UNL     1      75.946  13.088  13.643  1.00  0.00    -0.245 OA
BRANCH   3  11
HETATM   11  N3  UNL     1      73.310  16.698  14.441  1.00  0.00    -0.234 N 
ATOM     12  H32 UNL     1      73.913  17.518  14.505  1.00  0.00     0.174 HD
ATOM     13  H31 UNL     1      72.393  16.670  14.888  1.00  0.00     0.174 HD
ENDBRANCH   3  11
BRANCH   5  14
HETATM   14  N1  UNL     1      72.314  13.910  11.022  1.00  0.00    -0.234 N 
ATOM     15  H12 UNL     1      71.765  14.620  10.537  1.00  0.00     0.174 HD
ATOM     16  H11 UNL     1      72.237  12.940  10.713  1.00  0.00     0.174 HD
ENDBRANCH   5  14
ENDBRANCH   1   2
BRANCH   1  17
HETATM   17  N5  UNL     1      76.888  15.442  14.782  1.00  0.00    -0.057 N 
ATOM     18  H53 UNL     1      77.512  14.771  15.230  1.00  0.00     0.276 HD
ATOM     19  H52 UNL     1      77.025  15.151  13.815  1.00  0.00     0.276 HD
ATOM     20  H51 UNL     1      77.188  16.405  14.937  1.00  0.00     0.276 HD
ENDBRANCH   1  17
BRANCH   1  21
HETATM   21  C4  UNL     1      75.559  14.437  16.429  1.00  0.00     0.090 C 
BRANCH  21  22
HETATM   22  C5  UNL     1      76.929  13.903  16.791  1.00  0.00     0.207 C 
BRANCH  22  23
HETATM   23  N6  UNL     1      77.078  12.508  16.427  1.00  0.00    -0.073 N 
ATOM     24  H63 UNL     1      76.249  11.969  16.675  1.00  0.00     0.274 HD
ATOM     25  H62 UNL     1      77.052  12.384  15.415  1.00  0.00     0.274 HD
ATOM     26  H61 UNL     1      77.922  12.099  16.829  1.00  0.00     0.274 HD
ENDBRANCH  22  23
BRANCH  22  27
HETATM   27  C6  UNL     1      77.080  14.087  18.294  1.00  0.00     0.186 C 
BRANCH  27  28
HETATM   28  N7  UNL     1      78.298  13.516  18.807  1.00  0.00    -0.240 N 
HETATM   29  N8  UNL     1      78.571  12.315  19.290  1.00  0.00    -0.290 N 
HETATM   30  C7  UNL     1      79.868  12.232  19.644  1.00  0.00     0.201 A 
ATOM     31  H8  UNL     1      77.895  11.558  19.381  1.00  0.00     0.188 HD
HETATM   32  N9  UNL     1      80.437  13.416  19.380  1.00  0.00    -0.302 N 
HETATM   33  C8  UNL     1      79.465  14.191  18.868  1.00  0.00     0.342 A 
ATOM     34  H9  UNL     1      81.410  13.676  19.535  1.00  0.00     0.171 HD
HETATM   35  O1  UNL     1      79.641  15.393  18.499  1.00  0.00    -0.245 OA
ENDBRANCH  27  28
ENDBRANCH  22  27
ENDBRANCH  21  22
ENDBRANCH   1  21
TORSDOF 9
ENDMDL
MODEL 4
REMARK VINA RESULT: -6.734044755      1.670      7.307
REMARK  9 active torsions:
REMARK  status: ('A' for Active; 'I' for Inactive)
REMARK    1  A    between atoms: N1_1  and  C1_4 
REMARK    2  A    between atoms: C2_7  and  N3_8 
REMARK    3  A    between atoms: N4_11  and  C3_12 
REMARK    4  A    between atoms: C3_12  and  N5_13 
REMARK    5  A    between atoms: C3_12  and  C4_17 
REMARK    6  A    between atoms: C4_17  and  C5_18 
REMARK    7  A    between atoms: C5_18  and  N6_19 
REMARK    8  A    between atoms: C5_18  and  C6_23 
REMARK    9  A    between atoms: C6_23  and  N7_24 
ROOT
HETATM    1  C3  UNL     1      75.365  15.397  14.780  1.00  0.00     0.312 C 
ENDROOT
BRANCH   1   2
HETATM    2  N4  UNL     1      74.492  15.129  13.723  1.00  0.00    -0.101 N 
HETATM    3  C2  UNL     1      73.565  16.047  13.383  1.00  0.00     0.698 A 
HETATM    4  N2  UNL     1      72.690  15.835  12.358  1.00  0.00    -0.022 N 
HETATM    5  C1  UNL     1      72.722  14.695  11.648  1.00  0.00     0.694 A 
ATOM      6  H2  UNL     1      72.001  16.552  12.128  1.00  0.00     0.203 HD
HETATM    7  N10 UNL     1      73.645  13.758  11.971  1.00  0.00    -0.140 N 
HETATM    8  C9  UNL     1      74.493  13.990  12.982  1.00  0.00     0.357 A 
ATOM      9  H10 UNL     1      73.694  12.882  11.450  1.00  0.00     0.189 HD
HETATM   10  O2  UNL     1      75.349  13.121  13.281  1.00  0.00    -0.245 OA
BRANCH   3  11
HETATM   11  N3  UNL     1      73.443  17.179  13.997  1.00  0.00    -0.234 N 
ATOM     12  H32 UNL     1      72.638  17.405  14.582  1.00  0.00     0.174 HD
ATOM     13  H31 UNL     1      74.208  17.840  13.859  1.00  0.00     0.174 HD
ENDBRANCH   3  11
BRANCH   5  14
HETATM   14  N1  UNL     1      71.881  14.524  10.685  1.00  0.00    -0.234 N 
ATOM     15  H12 UNL     1      71.069  15.129  10.562  1.00  0.00     0.174 HD
ATOM     16  H11 UNL     1      72.027  13.762  10.022  1.00  0.00     0.174 HD
ENDBRANCH   5  14
ENDBRANCH   1   2
BRANCH   1  17
HETATM   17  N5  UNL     1      76.734  15.270  14.335  1.00  0.00    -0.057 N 
ATOM     18  H53 UNL     1      76.836  14.560  13.611  1.00  0.00     0.276 HD
ATOM     19  H52 UNL     1      77.036  16.080  13.793  1.00  0.00     0.276 HD
ATOM     20  H51 UNL     1      77.345  15.094  15.132  1.00  0.00     0.276 HD
ENDBRANCH   1  17
BRANCH   1  21
HETATM   21  C4  UNL     1      75.260  14.615  16.034  1.00  0.00     0.090 C 
BRANCH  21  22
HETATM   22  C5  UNL     1      76.437  13.707  16.321  1.00  0.00     0.207 C 
BRANCH  22  23
HETATM   23  N6  UNL     1      76.099  12.310  16.131  1.00  0.00    -0.073 N 
ATOM     24  H63 UNL     1      75.795  11.879  17.004  1.00  0.00     0.274 HD
ATOM     25  H62 UNL     1      75.239  12.206  15.593  1.00  0.00     0.274 HD
ATOM     26  H61 UNL     1      76.867  11.787  15.708  1.00  0.00     0.274 HD
ENDBRANCH  22  23
BRANCH  22  27
HETATM   27  C6  UNL     1      76.846  13.971  17.762  1.00  0.00     0.186 C 
BRANCH  27  28
HETATM   28  N7  UNL     1      78.269  14.109  17.923  1.00  0.00    -0.240 N 
HETATM   29  N8  UNL     1      79.173  14.780  17.228  1.00  0.00    -0.290 N 
HETATM   30  C7  UNL     1      80.397  14.621  17.766  1.00  0.00     0.201 A 
ATOM     31  H8  UNL     1      78.971  15.340  16.401  1.00  0.00     0.188 HD
HETATM   32  N9  UNL     1      80.269  13.824  18.835  1.00  0.00    -0.302 N 
HETATM   33  C8  UNL     1      78.964  13.519  18.920  1.00  0.00     0.342 A 
ATOM     34  H9  UNL     1      81.013  13.512  19.459  1.00  0.00     0.171 HD
HETATM   35  O1  UNL     1      78.468  12.774  19.821  1.00  0.00    -0.245 OA
ENDBRANCH  27  28
ENDBRANCH  22  27
ENDBRANCH  21  22
ENDBRANCH   1  21
TORSDOF 9
ENDMDL
MODEL 5
REMARK VINA RESULT: -6.699172715      1.648      1.954
REMARK  9 active torsions:
REMARK  status: ('A' for Active; 'I' for Inactive)
REMARK    1  A    between atoms: N1_1  and  C1_4 
REMARK    2  A    between atoms: C2_7  and  N3_8 
REMARK    3  A    between atoms: N4_11  and  C3_12 
REMARK    4  A    between atoms: C3_12  and  N5_13 
REMARK    5  A    between atoms: C3_12  and  C4_17 
REMARK    6  A    between atoms: C4_17  and  C5_18 
REMARK    7  A    between atoms: C5_18  and  N6_19 
REMARK    8  A    between atoms: C5_18  and  C6_23 
REMARK    9  A    between atoms: C6_23  and  N7_24 
ROOT
HETATM    1  C3  UNL     1      78.128  14.164  14.901  1.00  0.00     0.312 C 
ENDROOT
BRANCH   1   2
HETATM    2  N4  UNL     1      78.901  14.232  16.063  1.00  0.00    -0.101 N 
HETATM    3  C2  UNL     1      78.849  13.218  16.951  1.00  0.00     0.698 A 
HETATM    4  N2  UNL     1      79.584  13.235  18.100  1.00  0.00    -0.022 N 
HETATM    5  C1  UNL     1      80.391  14.270  18.388  1.00  0.00     0.694 A 
ATOM      6  H2  UNL     1      79.520  12.451  18.750  1.00  0.00     0.203 HD
HETATM    7  N10 UNL     1      80.460  15.300  17.511  1.00  0.00    -0.140 N 
HETATM    8  C9  UNL     1      79.728  15.260  16.390  1.00  0.00     0.357 A 
ATOM      9  H10 UNL     1      81.064  16.099  17.703  1.00  0.00     0.189 HD
HETATM   10  O2  UNL     1      79.792  16.215  15.576  1.00  0.00    -0.245 OA
BRANCH   3  11
HETATM   11  N3  UNL     1      78.107  12.173  16.777  1.00  0.00    -0.234 N 
ATOM     12  H32 UNL     1      77.094  12.228  16.666  1.00  0.00     0.174 HD
ATOM     13  H31 UNL     1      78.601  11.281  16.759  1.00  0.00     0.174 HD
ENDBRANCH   3  11
BRANCH   5  14
HETATM   14  N1  UNL     1      81.073  14.256  19.483  1.00  0.00    -0.234 N 
ATOM     15  H12 UNL     1      81.471  13.397  19.862  1.00  0.00     0.174 HD
ATOM     16  H11 UNL     1      81.222  15.128  19.991  1.00  0.00     0.174 HD
ENDBRANCH   5  14
ENDBRANCH   1   2
BRANCH   1  17
HETATM   17  N5  UNL     1      78.977  14.269  13.737  1.00  0.00    -0.057 N 
ATOM     18  H53 UNL     1      78.589  13.774  12.935  1.00  0.00     0.276 HD
ATOM     19  H52 UNL     1      78.975  15.211  13.346  1.00  0.00     0.276 HD
ATOM     20  H51 UNL     1      79.920  13.951  13.963  1.00  0.00     0.276 HD
ENDBRANCH   1  17
BRANCH   1  21
HETATM   21  C4  UNL     1      77.021  15.129  14.700  1.00  0.00     0.090 C 
BRANCH  21  22
HETATM   22  C5  UNL     1      75.639  14.583  14.987  1.00  0.00     0.207 C 
BRANCH  22  23
HETATM   23  N6  UNL     1      75.363  14.536  16.410  1.00  0.00    -0.073 N 
ATOM     24  H63 UNL     1      75.790  13.718  16.844  1.00  0.00     0.274 HD
ATOM     25  H62 UNL     1      75.869  15.266  16.910  1.00  0.00     0.274 HD
ATOM     26  H61 UNL     1      74.362  14.578  16.604  1.00  0.00     0.274 HD
ENDBRANCH  22  23
BRANCH  22  27
HETATM   27  C6  UNL     1      75.590  13.189  14.382  1.00  0.00     0.186 C 
BRANCH  27  28
HETATM   28  N7  UNL     1      74.427  12.976  13.560  1.00  0.00    -0.240 N 
HETATM   29  N8  UNL     1      73.778  13.775  12.730  1.00  0.00    -0.290 N 
HETATM   30  C7  UNL     1      72.739  13.128  12.167  1.00  0.00     0.201 A 
ATOM     31  H8  UNL     1      74.028  14.746  12.543  1.00  0.00     0.188 HD
HETATM   32  N9  UNL     1      72.727  11.880  12.653  1.00  0.00    -0.302 N 
HETATM   33  C8  UNL     1      73.764  11.801  13.504  1.00  0.00     0.342 A 
ATOM     34  H9  UNL     1      72.065  11.140  12.424  1.00  0.00     0.171 HD
HETATM   35  O1  UNL     1      74.065  10.754  14.157  1.00  0.00    -0.245 OA
ENDBRANCH  27  28
ENDBRANCH  22  27
ENDBRANCH  21  22
ENDBRANCH   1  21
TORSDOF 9
ENDMDL
