MODEL 1
REMARK VINA RESULT: -8.420810952      0.000      0.000
REMARK  15 active torsions:
REMARK  status: ('A' for Active; 'I' for Inactive)
REMARK    1  A    between atoms: N1_1  and  N2_4 
REMARK    2  A    between atoms: N2_4  and  C1_6 
REMARK    3  A    between atoms: N7_20  and  C6_21 
REMARK    4  A    between atoms: C7_22  and  N8_23 
REMARK    5  A    between atoms: N8_23  and  C8_25 
REMARK    6  A    between atoms: C8_25  and  O2_26 
REMARK    7  A    between atoms: C8_25  and  C9_28 
REMARK    8  A    between atoms: C9_28  and  N9_29 
REMARK       I    between atoms: N9_29  and  C10_31 
REMARK    9  A    between atoms: C10_31  and  C11_33 
REMARK   10  A    between atoms: C11_33  and  C12_34 
REMARK   11  A    between atoms: C12_34  and  N10_35 
REMARK   12  A    between atoms: C12_34  and  O4_39 
REMARK   13  A    between atoms: C14_42  and  N11_43 
REMARK   14  A    between atoms: C15_47  and  O5_48 
REMARK   15  A    between atoms: C16_50  and  O6_51 
ROOT
HETATM    1  C6  UNL     1      16.747  13.668  37.403  1.00  0.00     0.165 C 
HETATM    2  C7  UNL     1      16.234  13.029  36.119  1.00  0.00     0.108 C 
HETATM    3  C13 UNL     1      15.623  11.721  36.521  1.00  0.00     0.062 C 
HETATM    4  C14 UNL     1      16.809  10.738  36.685  1.00  0.00     0.216 C 
HETATM    5  C15 UNL     1      17.893  11.414  37.506  1.00  0.00     0.179 C 
HETATM    6  C16 UNL     1      17.422  12.621  38.254  1.00  0.00     0.175 C 
ENDROOT
BRANCH   1   7
HETATM    7  N7  UNL     1      17.645  14.746  37.058  1.00  0.00    -0.249 N 
HETATM    8  C4  UNL     1      17.498  16.047  37.347  1.00  0.00     0.171 A 
HETATM    9  N4  UNL     1      16.562  16.760  37.992  1.00  0.00    -0.331 N 
HETATM   10  C5  UNL     1      18.614  16.701  36.810  1.00  0.00     0.169 A 
HETATM   11  C3  UNL     1      16.696  18.090  38.122  1.00  0.00     0.148 A 
ATOM     12  H4  UNL     1      15.746  16.290  38.384  1.00  0.00     0.168 HD
HETATM   13  C2  UNL     1      15.727  18.848  38.790  1.00  0.00     0.290 A 
HETATM   14  C17 UNL     1      17.801  18.731  37.590  1.00  0.00     0.155 A 
HETATM   15  N3  UNL     1      15.850  20.178  38.922  1.00  0.00    -0.153 N 
HETATM   16  O1  UNL     1      14.721  18.302  39.281  1.00  0.00    -0.265 OA
HETATM   17  C1  UNL     1      16.935  20.776  38.395  1.00  0.00     0.701 A 
ATOM     18  H3  UNL     1      15.139  20.723  39.411  1.00  0.00     0.187 HD
HETATM   19  N13 UNL     1      17.876  20.065  37.750  1.00  0.00    -0.173 N 
ATOM     20  H13 UNL     1      18.682  20.559  37.365  1.00  0.00     0.186 HD
HETATM   21  N12 UNL     1      18.748  18.031  36.941  1.00  0.00    -0.322 N 
ATOM     22  H12 UNL     1      19.561  18.506  36.550  1.00  0.00     0.169 HD
HETATM   23  N5  UNL     1      19.363  15.761  36.233  1.00  0.00    -0.268 N 
HETATM   24  N6  UNL     1      18.773  14.597  36.389  1.00  0.00    -0.237 N 
ATOM     25  H5  UNL     1      20.247  15.919  35.751  1.00  0.00     0.190 HD
ATOM     26  H6  UNL     1      19.134  13.709  36.043  1.00  0.00     0.208 HD
BRANCH  17  27
HETATM   27  N2  UNL     1      17.074  22.072  38.512  1.00  0.00    -0.138 N 
ATOM     28  H2  UNL     1      16.365  22.700  38.131  1.00  0.00     0.205 HD
BRANCH  27  29
HETATM   29  N1  UNL     1      18.198  22.593  39.161  1.00  0.00    -0.331 N 
ATOM     30  H12 UNL     1      18.434  22.255  40.094  1.00  0.00     0.177 HD
ATOM     31  H11 UNL     1      18.765  23.302  38.697  1.00  0.00     0.177 HD
ENDBRANCH  27  29
ENDBRANCH  17  27
ENDBRANCH   1   7
BRANCH   2  32
HETATM   32  N8  UNL     1      15.515  13.878  35.281  1.00  0.00    -0.389 N 
ATOM     33  H8  UNL     1      15.852  14.007  34.327  1.00  0.00     0.156 HD
BRANCH  32  34
HETATM   34  C8  UNL     1      14.364  14.562  35.666  1.00  0.00     0.231 C 
BRANCH  34  35
HETATM   35  O2  UNL     1      14.699  15.952  35.696  1.00  0.00    -0.376 OA
ATOM     36  H2  UNL     1      15.644  16.006  35.770  1.00  0.00     0.212 HD
ENDBRANCH  34  35
BRANCH  34  37
HETATM   37  C9  UNL     1      13.147  14.469  34.801  1.00  0.00     0.175 C 
BRANCH  37  38
HETATM   38  N9  UNL     1      12.226  13.431  35.309  1.00  0.00    -0.357 N 
HETATM   39  C10 UNL     1      12.332  12.103  34.832  1.00  0.00     0.221 C 
HETATM   40  O3  UNL     1      13.205  11.809  33.979  1.00  0.00    -0.273 OA
ATOM     41  H9  UNL     1      11.517  13.671  36.001  1.00  0.00     0.162 HD
BRANCH  39  42
HETATM   42  C11 UNL     1      11.421  11.057  35.329  1.00  0.00     0.163 C 
BRANCH  42  43
HETATM   43  C12 UNL     1      12.169  10.049  36.171  1.00  0.00     0.324 C 
BRANCH  43  44
HETATM   44  N10 UNL     1      13.030   9.239  35.352  1.00  0.00    -0.053 N 
ATOM     45 3H10 UNL     1      12.929   9.461  34.363  1.00  0.00     0.277 HD
ATOM     46 2H10 UNL     1      14.011   9.494  35.468  1.00  0.00     0.277 HD
ATOM     47 1H10 UNL     1      12.874   8.247  35.534  1.00  0.00     0.277 HD
ENDBRANCH  43  44
BRANCH  43  48
HETATM   48  O4  UNL     1      11.235   9.273  36.859  1.00  0.00    -0.369 OA
ATOM     49  H4  UNL     1      11.198   9.579  37.758  1.00  0.00     0.212 HD
ENDBRANCH  43  48
ENDBRANCH  42  43
ENDBRANCH  39  42
ENDBRANCH  37  38
ENDBRANCH  34  37
ENDBRANCH  32  34
ENDBRANCH   2  32
BRANCH   6  50
HETATM   50  O6  UNL     1      18.563  13.215  38.816  1.00  0.00    -0.391 OA
ATOM     51  H6  UNL     1      19.038  12.533  39.275  1.00  0.00     0.210 HD
ENDBRANCH   6  50
BRANCH   5  52
HETATM   52  O5  UNL     1      19.044  11.626  36.752  1.00  0.00    -0.391 OA
ATOM     53  H5  UNL     1      18.901  12.281  36.079  1.00  0.00     0.210 HD
ENDBRANCH   5  52
BRANCH   4  54
HETATM   54  N11 UNL     1      17.275  10.462  35.339  1.00  0.00    -0.072 N 
ATOM     55 3H11 UNL     1      17.191  11.257  34.706  1.00  0.00     0.274 HD
ATOM     56 2H11 UNL     1      18.287  10.358  35.269  1.00  0.00     0.274 HD
ATOM     57 1H11 UNL     1      16.756   9.639  35.034  1.00  0.00     0.274 HD
ENDBRANCH   4  54
TORSDOF 15
ENDMDL
MODEL 2
REMARK VINA RESULT: -8.308309786      5.399      7.304
REMARK  15 active torsions:
REMARK  status: ('A' for Active; 'I' for Inactive)
REMARK    1  A    between atoms: N1_1  and  N2_4 
REMARK    2  A    between atoms: N2_4  and  C1_6 
REMARK    3  A    between atoms: N7_20  and  C6_21 
REMARK    4  A    between atoms: C7_22  and  N8_23 
REMARK    5  A    between atoms: N8_23  and  C8_25 
REMARK    6  A    between atoms: C8_25  and  O2_26 
REMARK    7  A    between atoms: C8_25  and  C9_28 
REMARK    8  A    between atoms: C9_28  and  N9_29 
REMARK       I    between atoms: N9_29  and  C10_31 
REMARK    9  A    between atoms: C10_31  and  C11_33 
REMARK   10  A    between atoms: C11_33  and  C12_34 
REMARK   11  A    between atoms: C12_34  and  N10_35 
REMARK   12  A    between atoms: C12_34  and  O4_39 
REMARK   13  A    between atoms: C14_42  and  N11_43 
REMARK   14  A    between atoms: C15_47  and  O5_48 
REMARK   15  A    between atoms: C16_50  and  O6_51 
ROOT
HETATM    1  C6  UNL     1       9.441  14.110  38.067  1.00  0.00     0.165 C 
HETATM    2  C7  UNL     1       9.310  12.603  38.252  1.00  0.00     0.108 C 
HETATM    3  C13 UNL     1       8.431  12.407  39.450  1.00  0.00     0.062 C 
HETATM    4  C14 UNL     1       9.349  12.605  40.681  1.00  0.00     0.216 C 
HETATM    5  C15 UNL     1      10.173  13.864  40.477  1.00  0.00     0.179 C 
HETATM    6  C16 UNL     1       9.644  14.769  39.409  1.00  0.00     0.175 C 
ENDROOT
BRANCH   1   7
HETATM    7  N7  UNL     1      10.539  14.372  37.165  1.00  0.00    -0.249 N 
HETATM    8  C4  UNL     1      10.582  15.289  36.186  1.00  0.00     0.171 A 
HETATM    9  N4  UNL     1       9.715  16.204  35.727  1.00  0.00    -0.331 N 
HETATM   10  C5  UNL     1      11.842  15.170  35.588  1.00  0.00     0.169 A 
HETATM   11  C3  UNL     1      10.056  17.001  34.699  1.00  0.00     0.148 A 
ATOM     12  H4  UNL     1       8.795  16.295  36.158  1.00  0.00     0.168 HD
HETATM   13  C2  UNL     1       9.162  17.958  34.206  1.00  0.00     0.290 A 
HETATM   14  C17 UNL     1      11.303  16.878  34.112  1.00  0.00     0.155 A 
HETATM   15  N3  UNL     1       9.492  18.757  33.179  1.00  0.00    -0.153 N 
HETATM   16  O1  UNL     1       8.033  18.094  34.713  1.00  0.00    -0.265 OA
HETATM   17  C1  UNL     1      10.712  18.617  32.625  1.00  0.00     0.701 A 
ATOM     18  H3  UNL     1       8.835  19.452  32.825  1.00  0.00     0.187 HD
HETATM   19  N13 UNL     1      11.583  17.703  33.085  1.00  0.00    -0.173 N 
ATOM     20  H13 UNL     1      12.496  17.630  32.636  1.00  0.00     0.186 HD
HETATM   21  N12 UNL     1      12.182  15.966  34.562  1.00  0.00    -0.322 N 
ATOM     22  H12 UNL     1      13.100  15.880  34.126  1.00  0.00     0.169 HD
HETATM   23  N5  UNL     1      12.479  14.195  36.236  1.00  0.00    -0.268 N 
HETATM   24  N6  UNL     1      11.690  13.727  37.176  1.00  0.00    -0.237 N 
ATOM     25  H5  UNL     1      13.424  13.867  36.036  1.00  0.00     0.190 HD
ATOM     26  H6  UNL     1      11.932  12.976  37.822  1.00  0.00     0.208 HD
BRANCH  17  27
HETATM   27  N2  UNL     1      11.052  19.384  31.621  1.00  0.00    -0.138 N 
ATOM     28  H2  UNL     1      11.640  19.018  30.872  1.00  0.00     0.205 HD
BRANCH  27  29
HETATM   29  N1  UNL     1      10.605  20.709  31.580  1.00  0.00    -0.331 N 
ATOM     30  H12 UNL     1       9.845  20.998  32.196  1.00  0.00     0.177 HD
ATOM     31  H11 UNL     1      11.043  21.369  30.936  1.00  0.00     0.177 HD
ENDBRANCH  27  29
ENDBRANCH  17  27
ENDBRANCH   1   7
BRANCH   2  32
HETATM   32  N8  UNL     1       9.035  11.886  37.091  1.00  0.00    -0.389 N 
ATOM     33  H8  UNL     1       8.793  12.410  36.250  1.00  0.00     0.156 HD
BRANCH  32  34
HETATM   34  C8  UNL     1       9.073  10.496  37.007  1.00  0.00     0.231 C 
BRANCH  34  35
HETATM   35  O2  UNL     1       7.731  10.034  37.188  1.00  0.00    -0.376 OA
ATOM     36  H2  UNL     1       7.575   9.375  36.522  1.00  0.00     0.212 HD
ENDBRANCH  34  35
BRANCH  34  37
HETATM   37  C9  UNL     1       9.537   9.862  35.733  1.00  0.00     0.175 C 
BRANCH  37  38
HETATM   38  N9  UNL     1      10.971   9.515  35.819  1.00  0.00    -0.357 N 
HETATM   39  C10 UNL     1      11.950  10.478  35.477  1.00  0.00     0.221 C 
HETATM   40  O3  UNL     1      11.600  11.622  35.101  1.00  0.00    -0.273 OA
ATOM     41  H9  UNL     1      11.254   8.583  36.123  1.00  0.00     0.162 HD
BRANCH  39  42
HETATM   42  C11 UNL     1      13.383  10.146  35.557  1.00  0.00     0.163 C 
BRANCH  42  43
HETATM   43  C12 UNL     1      14.123  10.663  34.346  1.00  0.00     0.324 C 
BRANCH  43  44
HETATM   44  N10 UNL     1      14.555  12.019  34.553  1.00  0.00    -0.053 N 
ATOM     45 3H10 UNL     1      15.312  12.074  35.234  1.00  0.00     0.277 HD
ATOM     46 2H10 UNL     1      15.052  12.385  33.741  1.00  0.00     0.277 HD
ATOM     47 1H10 UNL     1      13.769  12.613  34.814  1.00  0.00     0.277 HD
ENDBRANCH  43  44
BRANCH  43  48
HETATM   48  O4  UNL     1      13.281  10.555  33.238  1.00  0.00    -0.369 OA
ATOM     49  H4  UNL     1      13.262   9.645  32.966  1.00  0.00     0.212 HD
ENDBRANCH  43  48
ENDBRANCH  42  43
ENDBRANCH  39  42
ENDBRANCH  37  38
ENDBRANCH  34  37
ENDBRANCH  32  34
ENDBRANCH   2  32
BRANCH   6  50
HETATM   50  O6  UNL     1      10.597  15.783  39.234  1.00  0.00    -0.391 OA
ATOM     51  H6  UNL     1      11.347  15.561  39.773  1.00  0.00     0.210 HD
ENDBRANCH   6  50
BRANCH   5  52
HETATM   52  O5  UNL     1      11.528  13.570  40.352  1.00  0.00    -0.391 OA
ATOM     53  H5  UNL     1      11.899  13.965  39.572  1.00  0.00     0.210 HD
ENDBRANCH   5  52
BRANCH   4  54
HETATM   54  N11 UNL     1      10.200  11.431  40.725  1.00  0.00    -0.072 N 
ATOM     55 3H11 UNL     1      11.026  11.545  41.313  1.00  0.00     0.274 HD
ATOM     56 2H11 UNL     1       9.793  10.649  41.238  1.00  0.00     0.274 HD
ATOM     57 1H11 UNL     1      10.416  11.214  39.752  1.00  0.00     0.274 HD
ENDBRANCH   4  54
TORSDOF 15
ENDMDL
MODEL 3
REMARK VINA RESULT: -8.242673280      6.982     10.896
REMARK  15 active torsions:
REMARK  status: ('A' for Active; 'I' for Inactive)
REMARK    1  A    between atoms: N1_1  and  N2_4 
REMARK    2  A    between atoms: N2_4  and  C1_6 
REMARK    3  A    between atoms: N7_20  and  C6_21 
REMARK    4  A    between atoms: C7_22  and  N8_23 
REMARK    5  A    between atoms: N8_23  and  C8_25 
REMARK    6  A    between atoms: C8_25  and  O2_26 
REMARK    7  A    between atoms: C8_25  and  C9_28 
REMARK    8  A    between atoms: C9_28  and  N9_29 
REMARK       I    between atoms: N9_29  and  C10_31 
REMARK    9  A    between atoms: C10_31  and  C11_33 
REMARK   10  A    between atoms: C11_33  and  C12_34 
REMARK   11  A    between atoms: C12_34  and  N10_35 
REMARK   12  A    between atoms: C12_34  and  O4_39 
REMARK   13  A    between atoms: C14_42  and  N11_43 
REMARK   14  A    between atoms: C15_47  and  O5_48 
REMARK   15  A    between atoms: C16_50  and  O6_51 
ROOT
HETATM    1  C6  UNL     1      10.618  12.606  38.914  1.00  0.00     0.165 C 
HETATM    2  C7  UNL     1       9.763  13.844  38.675  1.00  0.00     0.108 C 
HETATM    3  C13 UNL     1      10.209  14.859  39.683  1.00  0.00     0.062 C 
HETATM    4  C14 UNL     1       9.504  14.472  41.007  1.00  0.00     0.216 C 
HETATM    5  C15 UNL     1       9.669  12.979  41.230  1.00  0.00     0.179 C 
HETATM    6  C16 UNL     1      10.744  12.357  40.397  1.00  0.00     0.175 C 
ENDROOT
BRANCH   1   7
HETATM    7  N7  UNL     1      10.015  11.487  38.227  1.00  0.00    -0.249 N 
HETATM    8  C4  UNL     1       8.705  11.235  38.083  1.00  0.00     0.171 A 
HETATM    9  N4  UNL     1       7.586  11.859  38.483  1.00  0.00    -0.331 N 
HETATM   10  C5  UNL     1       8.608  10.048  37.349  1.00  0.00     0.169 A 
HETATM   11  C3  UNL     1       6.382  11.346  38.179  1.00  0.00     0.148 A 
ATOM     12  H4  UNL     1       7.650  12.724  39.020  1.00  0.00     0.168 HD
HETATM   13  C2  UNL     1       5.206  11.982  38.591  1.00  0.00     0.290 A 
HETATM   14  C17 UNL     1       6.293  10.171  37.452  1.00  0.00     0.155 A 
HETATM   15  N3  UNL     1       3.998  11.476  38.295  1.00  0.00    -0.153 N 
HETATM   16  O1  UNL     1       5.251  13.041  39.246  1.00  0.00    -0.265 OA
HETATM   17  C1  UNL     1       3.939  10.333  37.587  1.00  0.00     0.701 A 
ATOM     18  H3  UNL     1       3.145  11.946  38.599  1.00  0.00     0.187 HD
HETATM   19  N13 UNL     1       5.058   9.707  37.183  1.00  0.00    -0.173 N 
ATOM     20  H13 UNL     1       4.968   8.842  36.649  1.00  0.00     0.186 HD
HETATM   21  N12 UNL     1       7.405   9.536  37.045  1.00  0.00    -0.322 N 
ATOM     22  H12 UNL     1       7.335   8.671  36.509  1.00  0.00     0.169 HD
HETATM   23  N5  UNL     1       9.857   9.656  37.095  1.00  0.00    -0.268 N 
HETATM   24  N6  UNL     1      10.688  10.525  37.624  1.00  0.00    -0.237 N 
ATOM     25  H5  UNL     1      10.123   8.820  36.575  1.00  0.00     0.190 HD
ATOM     26  H6  UNL     1      11.704  10.465  37.577  1.00  0.00     0.208 HD
BRANCH  17  27
HETATM   27  N2  UNL     1       2.772   9.822  37.289  1.00  0.00    -0.138 N 
ATOM     28  H2  UNL     1       2.592   8.829  37.444  1.00  0.00     0.205 HD
BRANCH  27  29
HETATM   29  N1  UNL     1       1.771  10.643  36.759  1.00  0.00    -0.331 N 
ATOM     30  H12 UNL     1       1.987  11.618  36.550  1.00  0.00     0.177 HD
ATOM     31  H11 UNL     1       0.842  10.259  36.587  1.00  0.00     0.177 HD
ENDBRANCH  27  29
ENDBRANCH  17  27
ENDBRANCH   1   7
BRANCH   2  32
HETATM   32  N8  UNL     1       9.638  14.230  37.342  1.00  0.00    -0.389 N 
ATOM     33  H8  UNL     1       9.107  13.625  36.717  1.00  0.00     0.156 HD
BRANCH  32  34
HETATM   34  C8  UNL     1      10.194  15.392  36.813  1.00  0.00     0.231 C 
BRANCH  34  35
HETATM   35  O2  UNL     1      10.647  15.070  35.494  1.00  0.00    -0.376 OA
ATOM     36  H2  UNL     1      10.476  15.831  34.952  1.00  0.00     0.212 HD
ENDBRANCH  34  35
BRANCH  34  37
HETATM   37  C9  UNL     1       9.323  16.597  36.645  1.00  0.00     0.175 C 
BRANCH  37  38
HETATM   38  N9  UNL     1       9.922  17.541  35.680  1.00  0.00    -0.357 N 
HETATM   39  C10 UNL     1       9.117  18.123  34.672  1.00  0.00     0.221 C 
HETATM   40  O3  UNL     1       7.898  17.835  34.598  1.00  0.00    -0.273 OA
ATOM     41  H9  UNL     1      10.913  17.774  35.740  1.00  0.00     0.162 HD
BRANCH  39  42
HETATM   42  C11 UNL     1       9.701  19.066  33.702  1.00  0.00     0.163 C 
BRANCH  42  43
HETATM   43  C12 UNL     1      10.718  18.374  32.825  1.00  0.00     0.324 C 
BRANCH  43  44
HETATM   44  N10 UNL     1      10.552  18.760  31.450  1.00  0.00    -0.053 N 
ATOM     45 3H10 UNL     1       9.828  18.210  30.989  1.00  0.00     0.277 HD
ATOM     46 2H10 UNL     1      10.123  19.681  31.365  1.00  0.00     0.277 HD
ATOM     47 1H10 UNL     1      11.440  18.709  30.950  1.00  0.00     0.277 HD
ENDBRANCH  43  44
BRANCH  43  48
HETATM   48  O4  UNL     1      10.577  16.995  32.994  1.00  0.00    -0.369 OA
ATOM     49  H4  UNL     1      10.555  16.810  33.925  1.00  0.00     0.212 HD
ENDBRANCH  43  48
ENDBRANCH  42  43
ENDBRANCH  39  42
ENDBRANCH  37  38
ENDBRANCH  34  37
ENDBRANCH  32  34
ENDBRANCH   2  32
BRANCH   6  50
HETATM   50  O6  UNL     1      10.653  10.971  40.594  1.00  0.00    -0.391 OA
ATOM     51  H6  UNL     1      10.921  10.796  41.488  1.00  0.00     0.210 HD
ENDBRANCH   6  50
BRANCH   5  52
HETATM   52  O5  UNL     1       8.445  12.318  41.165  1.00  0.00    -0.391 OA
ATOM     53  H5  UNL     1       8.207  11.946  42.006  1.00  0.00     0.210 HD
ENDBRANCH   5  52
BRANCH   4  54
HETATM   54  N11 UNL     1       8.107  14.817  40.818  1.00  0.00    -0.072 N 
ATOM     55 3H11 UNL     1       7.966  15.709  40.345  1.00  0.00     0.274 HD
ATOM     56 2H11 UNL     1       7.632  14.237  40.127  1.00  0.00     0.274 HD
ATOM     57 1H11 UNL     1       7.687  14.774  41.747  1.00  0.00     0.274 HD
ENDBRANCH   4  54
TORSDOF 15
ENDMDL
MODEL 4
REMARK VINA RESULT: -8.110608055      5.466      9.852
REMARK  15 active torsions:
REMARK  status: ('A' for Active; 'I' for Inactive)
REMARK    1  A    between atoms: N1_1  and  N2_4 
REMARK    2  A    between atoms: N2_4  and  C1_6 
REMARK    3  A    between atoms: N7_20  and  C6_21 
REMARK    4  A    between atoms: C7_22  and  N8_23 
REMARK    5  A    between atoms: N8_23  and  C8_25 
REMARK    6  A    between atoms: C8_25  and  O2_26 
REMARK    7  A    between atoms: C8_25  and  C9_28 
REMARK    8  A    between atoms: C9_28  and  N9_29 
REMARK       I    between atoms: N9_29  and  C10_31 
REMARK    9  A    between atoms: C10_31  and  C11_33 
REMARK   10  A    between atoms: C11_33  and  C12_34 
REMARK   11  A    between atoms: C12_34  and  N10_35 
REMARK   12  A    between atoms: C12_34  and  O4_39 
REMARK   13  A    between atoms: C14_42  and  N11_43 
REMARK   14  A    between atoms: C15_47  and  O5_48 
REMARK   15  A    between atoms: C16_50  and  O6_51 
ROOT
HETATM    1  C6  UNL     1      11.610  18.414  36.044  1.00  0.00     0.165 C 
HETATM    2  C7  UNL     1      10.889  19.343  35.075  1.00  0.00     0.108 C 
HETATM    3  C13 UNL     1      11.669  20.623  35.068  1.00  0.00     0.062 C 
HETATM    4  C14 UNL     1      11.222  21.393  36.336  1.00  0.00     0.216 C 
HETATM    5  C15 UNL     1      11.237  20.439  37.517  1.00  0.00     0.179 C 
HETATM    6  C16 UNL     1      12.019  19.187  37.274  1.00  0.00     0.175 C 
ENDROOT
BRANCH   1   7
HETATM    7  N7  UNL     1      10.734  17.311  36.365  1.00  0.00    -0.249 N 
HETATM    8  C4  UNL     1      10.965  16.006  36.157  1.00  0.00     0.171 A 
HETATM    9  N4  UNL     1      11.984  15.313  35.627  1.00  0.00    -0.331 N 
HETATM   10  C5  UNL     1       9.838  15.324  36.628  1.00  0.00     0.169 A 
HETATM   11  C3  UNL     1      11.922  13.972  35.550  1.00  0.00     0.148 A 
ATOM     12  H4  UNL     1      12.808  15.804  35.281  1.00  0.00     0.168 HD
HETATM   13  C2  UNL     1      12.974  13.235  34.998  1.00  0.00     0.290 A 
HETATM   14  C17 UNL     1      10.804  13.304  36.018  1.00  0.00     0.155 A 
HETATM   15  N3  UNL     1      12.920  11.896  34.914  1.00  0.00    -0.153 N 
HETATM   16  O1  UNL     1      13.994  13.806  34.568  1.00  0.00    -0.265 OA
HETATM   17  C1  UNL     1      11.821  11.270  35.376  1.00  0.00     0.701 A 
ATOM     18  H3  UNL     1      13.692  11.365  34.510  1.00  0.00     0.187 HD
HETATM   19  N13 UNL     1      10.800  11.961  35.910  1.00  0.00    -0.173 N 
ATOM     20  H13 UNL     1       9.986  11.447  36.247  1.00  0.00     0.186 HD
HETATM   21  N12 UNL     1       9.775  13.985  36.551  1.00  0.00    -0.322 N 
ATOM     22  H12 UNL     1       8.953  13.488  36.895  1.00  0.00     0.169 HD
HETATM   23  N5  UNL     1       8.998  16.251  37.089  1.00  0.00    -0.268 N 
HETATM   24  N6  UNL     1       9.546  17.434  36.927  1.00  0.00    -0.237 N 
ATOM     25  H5  UNL     1       8.082  16.072  37.500  1.00  0.00     0.190 HD
ATOM     26  H6  UNL     1       9.116  18.319  37.196  1.00  0.00     0.208 HD
BRANCH  17  27
HETATM   27  N2  UNL     1      11.747   9.965  35.302  1.00  0.00    -0.138 N 
ATOM     28  H2  UNL     1      10.837   9.503  35.286  1.00  0.00     0.205 HD
BRANCH  27  29
HETATM   29  N1  UNL     1      12.922   9.207  35.245  1.00  0.00    -0.331 N 
ATOM     30  H12 UNL     1      13.803   9.633  35.531  1.00  0.00     0.177 HD
ATOM     31  H11 UNL     1      12.883   8.241  34.919  1.00  0.00     0.177 HD
ENDBRANCH  27  29
ENDBRANCH  17  27
ENDBRANCH   1   7
BRANCH   2  32
HETATM   32  N8  UNL     1      10.531  18.767  33.858  1.00  0.00    -0.389 N 
ATOM     33  H8  UNL     1      10.408  17.756  33.826  1.00  0.00     0.156 HD
BRANCH  32  34
HETATM   34  C8  UNL     1      10.331  19.489  32.684  1.00  0.00     0.231 C 
BRANCH  34  35
HETATM   35  O2  UNL     1      10.304  18.540  31.614  1.00  0.00    -0.376 OA
ATOM     36  H2  UNL     1      11.143  18.598  31.174  1.00  0.00     0.212 HD
ENDBRANCH  34  35
BRANCH  34  37
HETATM   37  C9  UNL     1       9.074  20.286  32.533  1.00  0.00     0.175 C 
BRANCH  37  38
HETATM   38  N9  UNL     1       7.968  19.661  33.289  1.00  0.00    -0.357 N 
HETATM   39  C10 UNL     1       7.141  20.459  34.114  1.00  0.00     0.221 C 
HETATM   40  O3  UNL     1       7.348  21.693  34.205  1.00  0.00    -0.273 OA
ATOM     41  H9  UNL     1       7.802  18.658  33.215  1.00  0.00     0.162 HD
BRANCH  39  42
HETATM   42  C11 UNL     1       6.035  19.849  34.873  1.00  0.00     0.163 C 
BRANCH  42  43
HETATM   43  C12 UNL     1       6.324  19.872  36.356  1.00  0.00     0.324 C 
BRANCH  43  44
HETATM   44  N10 UNL     1       5.811  21.072  36.958  1.00  0.00    -0.053 N 
ATOM     45 3H10 UNL     1       6.002  21.893  36.385  1.00  0.00     0.277 HD
ATOM     46 2H10 UNL     1       4.791  21.101  36.933  1.00  0.00     0.277 HD
ATOM     47 1H10 UNL     1       6.169  21.182  37.907  1.00  0.00     0.277 HD
ENDBRANCH  43  44
BRANCH  43  48
HETATM   48  O4  UNL     1       7.704  19.755  36.536  1.00  0.00    -0.369 OA
ATOM     49  H4  UNL     1       7.905  19.959  37.442  1.00  0.00     0.212 HD
ENDBRANCH  43  48
ENDBRANCH  42  43
ENDBRANCH  39  42
ENDBRANCH  37  38
ENDBRANCH  34  37
ENDBRANCH  32  34
ENDBRANCH   2  32
BRANCH   6  50
HETATM   50  O6  UNL     1      11.795  18.353  38.381  1.00  0.00    -0.391 OA
ATOM     51  H6  UNL     1      11.063  18.717  38.864  1.00  0.00     0.210 HD
ENDBRANCH   6  50
BRANCH   5  52
HETATM   52  O5  UNL     1       9.953  20.221  38.011  1.00  0.00    -0.391 OA
ATOM     53  H5  UNL     1       9.494  21.040  38.155  1.00  0.00     0.210 HD
ENDBRANCH   5  52
BRANCH   4  54
HETATM   54  N11 UNL     1       9.873  21.850  36.057  1.00  0.00    -0.072 N 
ATOM     55 3H11 UNL     1       9.629  22.720  36.531  1.00  0.00     0.274 HD
ATOM     56 2H11 UNL     1       9.744  22.192  35.104  1.00  0.00     0.274 HD
ATOM     57 1H11 UNL     1       9.264  21.068  36.297  1.00  0.00     0.274 HD
ENDBRANCH   4  54
TORSDOF 15
ENDMDL
MODEL 5
REMARK VINA RESULT: -8.056731794      5.643     10.216
REMARK  15 active torsions:
REMARK  status: ('A' for Active; 'I' for Inactive)
REMARK    1  A    between atoms: N1_1  and  N2_4 
REMARK    2  A    between atoms: N2_4  and  C1_6 
REMARK    3  A    between atoms: N7_20  and  C6_21 
REMARK    4  A    between atoms: C7_22  and  N8_23 
REMARK    5  A    between atoms: N8_23  and  C8_25 
REMARK    6  A    between atoms: C8_25  and  O2_26 
REMARK    7  A    between atoms: C8_25  and  C9_28 
REMARK    8  A    between atoms: C9_28  and  N9_29 
REMARK       I    between atoms: N9_29  and  C10_31 
REMARK    9  A    between atoms: C10_31  and  C11_33 
REMARK   10  A    between atoms: C11_33  and  C12_34 
REMARK   11  A    between atoms: C12_34  and  N10_35 
REMARK   12  A    between atoms: C12_34  and  O4_39 
REMARK   13  A    between atoms: C14_42  and  N11_43 
REMARK   14  A    between atoms: C15_47  and  O5_48 
REMARK   15  A    between atoms: C16_50  and  O6_51 
ROOT
HETATM    1  C6  UNL     1      10.762  12.514  38.931  1.00  0.00     0.165 C 
HETATM    2  C7  UNL     1       9.941  13.750  38.583  1.00  0.00     0.108 C 
HETATM    3  C13 UNL     1      10.304  14.789  39.600  1.00  0.00     0.062 C 
HETATM    4  C14 UNL     1       9.480  14.443  40.866  1.00  0.00     0.216 C 
HETATM    5  C15 UNL     1       9.613  12.956  41.142  1.00  0.00     0.179 C 
HETATM    6  C16 UNL     1      10.753  12.305  40.425  1.00  0.00     0.175 C 
ENDROOT
BRANCH   1   7
HETATM    7  N7  UNL     1      10.213  11.380  38.223  1.00  0.00    -0.249 N 
HETATM    8  C4  UNL     1       8.917  11.096  38.030  1.00  0.00     0.171 A 
HETATM    9  N4  UNL     1       7.768  11.691  38.386  1.00  0.00    -0.331 N 
HETATM   10  C5  UNL     1       8.877   9.906  37.293  1.00  0.00     0.169 A 
HETATM   11  C3  UNL     1       6.589  11.148  38.037  1.00  0.00     0.148 A 
ATOM     12  H4  UNL     1       7.790  12.558  38.924  1.00  0.00     0.168 HD
HETATM   13  C2  UNL     1       5.383  11.755  38.403  1.00  0.00     0.290 A 
HETATM   14  C17 UNL     1       6.557   9.971  37.309  1.00  0.00     0.155 A 
HETATM   15  N3  UNL     1       4.200  11.218  38.062  1.00  0.00    -0.153 N 
HETATM   16  O1  UNL     1       5.377  12.814  39.058  1.00  0.00    -0.265 OA
HETATM   17  C1  UNL     1       4.197  10.074  37.354  1.00  0.00     0.701 A 
ATOM     18  H3  UNL     1       3.325  11.667  38.333  1.00  0.00     0.187 HD
HETATM   19  N13 UNL     1       5.346   9.476  36.994  1.00  0.00    -0.173 N 
ATOM     20  H13 UNL     1       5.297   8.609  36.458  1.00  0.00     0.186 HD
HETATM   21  N12 UNL     1       7.699   9.363  36.945  1.00  0.00    -0.322 N 
ATOM     22  H12 UNL     1       7.671   8.497  36.408  1.00  0.00     0.169 HD
HETATM   23  N5  UNL     1      10.144   9.545  37.087  1.00  0.00    -0.268 N 
HETATM   24  N6  UNL     1      10.932  10.435  37.647  1.00  0.00    -0.237 N 
ATOM     25  H5  UNL     1      10.451   8.716  36.579  1.00  0.00     0.190 HD
ATOM     26  H6  UNL     1      11.951  10.400  37.638  1.00  0.00     0.208 HD
BRANCH  17  27
HETATM   27  N2  UNL     1       3.055   9.533  37.013  1.00  0.00    -0.138 N 
ATOM     28  H2  UNL     1       3.014   8.552  36.737  1.00  0.00     0.205 HD
BRANCH  27  29
HETATM   29  N1  UNL     1       1.890  10.308  37.030  1.00  0.00    -0.331 N 
ATOM     30  H12 UNL     1       1.223  10.220  36.263  1.00  0.00     0.177 HD
ATOM     31  H11 UNL     1       1.722  10.950  37.805  1.00  0.00     0.177 HD
ENDBRANCH  27  29
ENDBRANCH  17  27
ENDBRANCH   1   7
BRANCH   2  32
HETATM   32  N8  UNL     1       9.939  14.100  37.235  1.00  0.00    -0.389 N 
ATOM     33  H8  UNL     1       9.254  13.652  36.626  1.00  0.00     0.156 HD
BRANCH  32  34
HETATM   34  C8  UNL     1      10.814  15.023  36.669  1.00  0.00     0.231 C 
BRANCH  34  35
HETATM   35  O2  UNL     1      11.906  15.173  37.581  1.00  0.00    -0.376 OA
ATOM     36  H2  UNL     1      12.428  15.902  37.268  1.00  0.00     0.212 HD
ENDBRANCH  34  35
BRANCH  34  37
HETATM   37  C9  UNL     1      11.445  14.704  35.350  1.00  0.00     0.175 C 
BRANCH  37  38
HETATM   38  N9  UNL     1      12.632  13.844  35.537  1.00  0.00    -0.357 N 
HETATM   39  C10 UNL     1      12.506  12.439  35.433  1.00  0.00     0.221 C 
HETATM   40  O3  UNL     1      11.388  11.925  35.184  1.00  0.00    -0.273 OA
ATOM     41  H9  UNL     1      13.540  14.262  35.740  1.00  0.00     0.162 HD
BRANCH  39  42
HETATM   42  C11 UNL     1      13.680  11.568  35.616  1.00  0.00     0.163 C 
BRANCH  42  43
HETATM   43  C12 UNL     1      13.574  10.332  34.753  1.00  0.00     0.324 C 
BRANCH  43  44
HETATM   44  N10 UNL     1      13.220  10.681  33.405  1.00  0.00    -0.053 N 
ATOM     45 3H10 UNL     1      12.393  11.276  33.373  1.00  0.00     0.277 HD
ATOM     46 2H10 UNL     1      13.892  11.329  32.993  1.00  0.00     0.277 HD
ATOM     47 1H10 UNL     1      13.104   9.844  32.833  1.00  0.00     0.277 HD
ENDBRANCH  43  44
BRANCH  43  48
HETATM   48  O4  UNL     1      12.631   9.477  35.328  1.00  0.00    -0.369 OA
ATOM     49  H4  UNL     1      12.963   8.588  35.273  1.00  0.00     0.212 HD
ENDBRANCH  43  48
ENDBRANCH  42  43
ENDBRANCH  39  42
ENDBRANCH  37  38
ENDBRANCH  34  37
ENDBRANCH  32  34
ENDBRANCH   2  32
BRANCH   6  50
HETATM   50  O6  UNL     1      10.634  10.925  40.650  1.00  0.00    -0.391 OA
ATOM     51  H6  UNL     1      10.897  10.486  39.850  1.00  0.00     0.210 HD
ENDBRANCH   6  50
BRANCH   5  52
HETATM   52  O5  UNL     1       8.394  12.300  40.985  1.00  0.00    -0.391 OA
ATOM     53  H5  UNL     1       8.236  11.688  41.695  1.00  0.00     0.210 HD
ENDBRANCH   5  52
BRANCH   4  54
HETATM   54  N11 UNL     1       8.109  14.790  40.543  1.00  0.00    -0.072 N 
ATOM     55 3H11 UNL     1       7.423  14.380  41.178  1.00  0.00     0.274 HD
ATOM     56 2H11 UNL     1       7.878  15.766  40.730  1.00  0.00     0.274 HD
ATOM     57 1H11 UNL     1       7.980  14.517  39.569  1.00  0.00     0.274 HD
ENDBRANCH   4  54
TORSDOF 15
ENDMDL
