MODEL 1
REMARK VINA RESULT: -8.459898697      0.000      0.000
REMARK  11 active torsions:
REMARK  status: ('A' for Active; 'I' for Inactive)
REMARK    1  A    between atoms: N1_1  and  N2_4 
REMARK       I    between atoms: N2_4  and  C1_6 
REMARK    2  A    between atoms: C1_6  and  O2_8 
REMARK    3  A    between atoms: O2_8  and  C2_9 
REMARK    4  A    between atoms: C2_9  and  C3_11 
REMARK    5  A    between atoms: C3_11  and  C4_12 
REMARK    6  A    between atoms: C4_12  and  S1_13 
REMARK    7  A    between atoms: S1_13  and  C5_14 
REMARK    8  A    between atoms: C5_14  and  C6_15 
REMARK    9  A    between atoms: C7_16  and  C8_17 
REMARK   10  A    between atoms: C9_18  and  O4_19 
REMARK   11  A    between atoms: N5_32  and  N6_33 
ROOT
HETATM    1  C6  UNL     1      40.315  23.208  16.290  1.00  0.00     0.063 A 
HETATM    2  C7  UNL     1      39.863  23.076  17.565  1.00  0.00     0.053 A 
HETATM    3  S2  UNL     1      38.448  22.062  17.308  1.00  0.00    -0.056 SA
HETATM    4  C12 UNL     1      38.553  21.897  15.639  1.00  0.00     0.164 A 
HETATM    5  S3  UNL     1      37.551  21.055  14.601  1.00  0.00    -0.050 SA
HETATM    6  N5  UNL     1      39.636  22.601  15.326  1.00  0.00    -0.247 N 
ENDROOT
BRANCH   1   7
HETATM    7  C5  UNL     1      41.565  24.022  15.963  1.00  0.00     0.134 C 
BRANCH   7   8
HETATM    8  S1  UNL     1      43.087  23.026  16.125  1.00  0.00    -0.163 SA
BRANCH   8   9
HETATM    9  C4  UNL     1      43.911  23.486  17.668  1.00  0.00     0.084 C 
BRANCH   9  10
HETATM   10  C3  UNL     1      44.357  22.264  18.446  1.00  0.00     0.121 C 
BRANCH  10  11
HETATM   11  C2  UNL     1      45.838  22.266  18.554  1.00  0.00     0.268 C 
HETATM   12  O3  UNL     1      46.410  21.708  19.550  1.00  0.00    -0.265 OA
BRANCH  11  13
HETATM   13  O2  UNL     1      46.645  22.854  17.613  1.00  0.00    -0.226 OA
BRANCH  13  14
HETATM   14  C1  UNL     1      47.249  22.215  16.555  1.00  0.00     0.386 C 
HETATM   15  N2  UNL     1      47.183  20.809  16.374  1.00  0.00    -0.252 N 
ATOM     16  H2  UNL     1      46.668  20.252  17.056  1.00  0.00     0.191 HD
HETATM   17  O1  UNL     1      47.881  22.925  15.720  1.00  0.00    -0.236 OA
BRANCH  15  18
HETATM   18  N1  UNL     1      47.792  20.158  15.303  1.00  0.00    -0.341 N 
ATOM     19  H12 UNL     1      48.429  20.702  14.720  1.00  0.00     0.177 HD
ATOM     20  H11 UNL     1      47.623  19.175  15.087  1.00  0.00     0.177 HD
ENDBRANCH  15  18
ENDBRANCH  13  14
ENDBRANCH  11  13
ENDBRANCH  10  11
ENDBRANCH   9  10
ENDBRANCH   8   9
ENDBRANCH   7   8
ENDBRANCH   1   7
BRANCH   2  21
HETATM   21  C8  UNL     1      40.190  23.635  18.893  1.00  0.00     0.102 A 
HETATM   22  C9  UNL     1      40.876  22.723  19.754  1.00  0.00     0.161 A 
HETATM   23  N3  UNL     1      41.263  23.169  20.944  1.00  0.00    -0.288 N 
HETATM   24  C10 UNL     1      41.033  24.425  21.354  1.00  0.00     0.329 A 
ATOM     25  H3  UNL     1      41.753  22.531  21.570  1.00  0.00     0.172 HD
HETATM   26  O5  UNL     1      41.435  24.773  22.509  1.00  0.00    -0.247 OA
HETATM   27  N4  UNL     1      40.398  25.304  20.581  1.00  0.00    -0.275 N 
HETATM   28  C11 UNL     1      39.973  24.898  19.331  1.00  0.00     0.265 A 
ATOM     29  H4  UNL     1      40.228  26.256  20.905  1.00  0.00     0.173 HD
HETATM   30  O6  UNL     1      39.391  25.785  18.659  1.00  0.00    -0.267 OA
BRANCH  22  31
HETATM   31  O4  UNL     1      41.109  21.434  19.325  1.00  0.00    -0.345 OA
ATOM     32  H4  UNL     1      41.736  21.280  18.629  1.00  0.00     0.219 HD
ENDBRANCH  22  31
ENDBRANCH   2  21
BRANCH   6  33
HETATM   33  N6  UNL     1      39.975  22.628  13.918  1.00  0.00    -0.337 N 
ATOM     34  H62 UNL     1      40.037  23.556  13.499  1.00  0.00     0.177 HD
ATOM     35  H61 UNL     1      40.146  21.807  13.337  1.00  0.00     0.177 HD
ENDBRANCH   6  33
TORSDOF 11
ENDMDL
MODEL 2
REMARK VINA RESULT: -8.373540553      0.370      1.608
REMARK  11 active torsions:
REMARK  status: ('A' for Active; 'I' for Inactive)
REMARK    1  A    between atoms: N1_1  and  N2_4 
REMARK       I    between atoms: N2_4  and  C1_6 
REMARK    2  A    between atoms: C1_6  and  O2_8 
REMARK    3  A    between atoms: O2_8  and  C2_9 
REMARK    4  A    between atoms: C2_9  and  C3_11 
REMARK    5  A    between atoms: C3_11  and  C4_12 
REMARK    6  A    between atoms: C4_12  and  S1_13 
REMARK    7  A    between atoms: S1_13  and  C5_14 
REMARK    8  A    between atoms: C5_14  and  C6_15 
REMARK    9  A    between atoms: C7_16  and  C8_17 
REMARK   10  A    between atoms: C9_18  and  O4_19 
REMARK   11  A    between atoms: N5_32  and  N6_33 
ROOT
HETATM    1  C6  UNL     1      40.373  23.343  16.015  1.00  0.00     0.063 A 
HETATM    2  C7  UNL     1      39.964  23.118  17.291  1.00  0.00     0.053 A 
HETATM    3  S2  UNL     1      38.395  22.374  17.007  1.00  0.00    -0.056 SA
HETATM    4  C12 UNL     1      38.395  22.413  15.327  1.00  0.00     0.164 A 
HETATM    5  S3  UNL     1      37.226  21.876  14.263  1.00  0.00    -0.050 SA
HETATM    6  N5  UNL     1      39.562  22.978  15.031  1.00  0.00    -0.247 N 
ENDROOT
BRANCH   1   7
HETATM    7  C5  UNL     1      41.721  23.992  15.708  1.00  0.00     0.134 C 
BRANCH   7   8
HETATM    8  S1  UNL     1      43.114  22.868  16.065  1.00  0.00    -0.163 SA
BRANCH   8   9
HETATM    9  C4  UNL     1      43.932  23.430  17.578  1.00  0.00     0.084 C 
BRANCH   9  10
HETATM   10  C3  UNL     1      44.369  22.264  18.441  1.00  0.00     0.121 C 
BRANCH  10  11
HETATM   11  C2  UNL     1      45.848  22.276  18.568  1.00  0.00     0.268 C 
HETATM   12  O3  UNL     1      46.411  21.732  19.578  1.00  0.00    -0.265 OA
BRANCH  11  13
HETATM   13  O2  UNL     1      46.664  22.858  17.631  1.00  0.00    -0.226 OA
BRANCH  13  14
HETATM   14  C1  UNL     1      47.232  22.224  16.550  1.00  0.00     0.386 C 
HETATM   15  N2  UNL     1      47.095  20.829  16.325  1.00  0.00    -0.252 N 
ATOM     16  H2  UNL     1      46.554  20.278  16.990  1.00  0.00     0.191 HD
HETATM   17  O1  UNL     1      47.898  22.928  15.736  1.00  0.00    -0.236 OA
BRANCH  15  18
HETATM   18  N1  UNL     1      47.668  20.184  15.230  1.00  0.00    -0.341 N 
ATOM     19  H12 UNL     1      48.636  19.873  15.319  1.00  0.00     0.177 HD
ATOM     20  H11 UNL     1      47.160  20.016  14.362  1.00  0.00     0.177 HD
ENDBRANCH  15  18
ENDBRANCH  13  14
ENDBRANCH  11  13
ENDBRANCH  10  11
ENDBRANCH   9  10
ENDBRANCH   8   9
ENDBRANCH   7   8
ENDBRANCH   1   7
BRANCH   2  21
HETATM   21  C8  UNL     1      40.437  23.442  18.653  1.00  0.00     0.102 A 
HETATM   22  C9  UNL     1      40.289  24.819  19.006  1.00  0.00     0.161 A 
HETATM   23  N3  UNL     1      40.631  25.182  20.238  1.00  0.00    -0.288 N 
HETATM   24  C10 UNL     1      41.101  24.311  21.143  1.00  0.00     0.329 A 
ATOM     25  H3  UNL     1      40.532  26.161  20.506  1.00  0.00     0.172 HD
HETATM   26  O5  UNL     1      41.407  24.739  22.300  1.00  0.00    -0.247 OA
HETATM   27  N4  UNL     1      41.252  23.020  20.852  1.00  0.00    -0.275 N 
HETATM   28  C11 UNL     1      40.911  22.584  19.587  1.00  0.00     0.265 A 
ATOM     29  H4  UNL     1      41.611  22.367  21.549  1.00  0.00     0.173 HD
HETATM   30  O6  UNL     1      41.072  21.353  19.393  1.00  0.00    -0.267 OA
BRANCH  22  31
HETATM   31  O4  UNL     1      39.805  25.709  18.071  1.00  0.00    -0.345 OA
ATOM     32  H4  UNL     1      40.228  25.769  17.222  1.00  0.00     0.219 HD
ENDBRANCH  22  31
ENDBRANCH   2  21
BRANCH   6  33
HETATM   33  N6  UNL     1      39.836  23.135  13.618  1.00  0.00    -0.337 N 
ATOM     34  H62 UNL     1      40.155  24.062  13.334  1.00  0.00     0.177 HD
ATOM     35  H61 UNL     1      39.731  22.406  12.912  1.00  0.00     0.177 HD
ENDBRANCH   6  33
TORSDOF 11
ENDMDL
MODEL 3
REMARK VINA RESULT: -8.292989929      2.548      4.803
REMARK  11 active torsions:
REMARK  status: ('A' for Active; 'I' for Inactive)
REMARK    1  A    between atoms: N1_1  and  N2_4 
REMARK       I    between atoms: N2_4  and  C1_6 
REMARK    2  A    between atoms: C1_6  and  O2_8 
REMARK    3  A    between atoms: O2_8  and  C2_9 
REMARK    4  A    between atoms: C2_9  and  C3_11 
REMARK    5  A    between atoms: C3_11  and  C4_12 
REMARK    6  A    between atoms: C4_12  and  S1_13 
REMARK    7  A    between atoms: S1_13  and  C5_14 
REMARK    8  A    between atoms: C5_14  and  C6_15 
REMARK    9  A    between atoms: C7_16  and  C8_17 
REMARK   10  A    between atoms: C9_18  and  O4_19 
REMARK   11  A    between atoms: N5_32  and  N6_33 
ROOT
HETATM    1  C6  UNL     1      41.149  23.515  18.558  1.00  0.00     0.063 A 
HETATM    2  C7  UNL     1      40.445  24.003  17.504  1.00  0.00     0.053 A 
HETATM    3  S2  UNL     1      39.184  24.902  18.341  1.00  0.00    -0.056 SA
HETATM    4  C12 UNL     1      39.653  24.586  19.923  1.00  0.00     0.164 A 
HETATM    5  S3  UNL     1      38.953  25.097  21.350  1.00  0.00    -0.050 SA
HETATM    6  N5  UNL     1      40.732  23.822  19.779  1.00  0.00    -0.247 N 
ENDROOT
BRANCH   1   7
HETATM    7  C5  UNL     1      42.386  22.641  18.359  1.00  0.00     0.134 C 
BRANCH   7   8
HETATM    8  S1  UNL     1      43.800  23.601  17.714  1.00  0.00    -0.163 SA
BRANCH   8   9
HETATM    9  C4  UNL     1      44.921  22.467  16.860  1.00  0.00     0.084 C 
BRANCH   9  10
HETATM   10  C3  UNL     1      46.347  22.622  17.347  1.00  0.00     0.121 C 
BRANCH  10  11
HETATM   11  C2  UNL     1      46.608  21.632  18.422  1.00  0.00     0.268 C 
HETATM   12  O3  UNL     1      46.301  21.902  19.632  1.00  0.00    -0.265 OA
BRANCH  11  13
HETATM   13  O2  UNL     1      47.179  20.409  18.176  1.00  0.00    -0.226 OA
BRANCH  13  14
HETATM   14  C1  UNL     1      47.230  19.773  16.957  1.00  0.00     0.386 C 
HETATM   15  N2  UNL     1      48.281  19.987  16.027  1.00  0.00    -0.252 N 
ATOM     16  H2  UNL     1      49.026  20.639  16.273  1.00  0.00     0.191 HD
HETATM   17  O1  UNL     1      46.296  18.968  16.672  1.00  0.00    -0.236 OA
BRANCH  15  18
HETATM   18  N1  UNL     1      48.336  19.344  14.792  1.00  0.00    -0.341 N 
ATOM     19  H12 UNL     1      48.111  18.349  14.767  1.00  0.00     0.177 HD
ATOM     20  H11 UNL     1      48.590  19.827  13.931  1.00  0.00     0.177 HD
ENDBRANCH  15  18
ENDBRANCH  13  14
ENDBRANCH  11  13
ENDBRANCH  10  11
ENDBRANCH   9  10
ENDBRANCH   8   9
ENDBRANCH   7   8
ENDBRANCH   1   7
BRANCH   2  21
HETATM   21  C8  UNL     1      40.443  23.846  16.035  1.00  0.00     0.102 A 
HETATM   22  C9  UNL     1      41.134  24.886  15.339  1.00  0.00     0.161 A 
HETATM   23  N3  UNL     1      41.234  24.785  14.018  1.00  0.00    -0.288 N 
HETATM   24  C10 UNL     1      40.716  23.756  13.331  1.00  0.00     0.329 A 
ATOM     25  H3  UNL     1      41.723  25.519  13.506  1.00  0.00     0.172 HD
HETATM   26  O5  UNL     1      40.854  23.734  12.067  1.00  0.00    -0.247 OA
HETATM   27  N4  UNL     1      40.067  22.768  13.944  1.00  0.00    -0.275 N 
HETATM   28  C11 UNL     1      39.932  22.818  15.317  1.00  0.00     0.265 A 
ATOM     29  H4  UNL     1      39.677  21.991  13.410  1.00  0.00     0.173 HD
HETATM   30  O6  UNL     1      39.317  21.845  15.822  1.00  0.00    -0.267 OA
BRANCH  22  31
HETATM   31  O4  UNL     1      41.663  25.941  16.051  1.00  0.00    -0.345 OA
ATOM     32  H4  UNL     1      41.659  26.810  15.668  1.00  0.00     0.219 HD
ENDBRANCH  22  31
ENDBRANCH   2  21
BRANCH   6  33
HETATM   33  N6  UNL     1      41.362  23.396  21.011  1.00  0.00    -0.337 N 
ATOM     34  H62 UNL     1      41.227  22.414  21.256  1.00  0.00     0.177 HD
ATOM     35  H61 UNL     1      41.909  23.993  21.631  1.00  0.00     0.177 HD
ENDBRANCH   6  33
TORSDOF 11
ENDMDL
MODEL 4
REMARK VINA RESULT: -8.210106321      2.618      4.679
REMARK  11 active torsions:
REMARK  status: ('A' for Active; 'I' for Inactive)
REMARK    1  A    between atoms: N1_1  and  N2_4 
REMARK       I    between atoms: N2_4  and  C1_6 
REMARK    2  A    between atoms: C1_6  and  O2_8 
REMARK    3  A    between atoms: O2_8  and  C2_9 
REMARK    4  A    between atoms: C2_9  and  C3_11 
REMARK    5  A    between atoms: C3_11  and  C4_12 
REMARK    6  A    between atoms: C4_12  and  S1_13 
REMARK    7  A    between atoms: S1_13  and  C5_14 
REMARK    8  A    between atoms: C5_14  and  C6_15 
REMARK    9  A    between atoms: C7_16  and  C8_17 
REMARK   10  A    between atoms: C9_18  and  O4_19 
REMARK   11  A    between atoms: N5_32  and  N6_33 
ROOT
HETATM    1  C6  UNL     1      41.272  23.606  18.573  1.00  0.00     0.063 A 
HETATM    2  C7  UNL     1      40.737  24.206  17.477  1.00  0.00     0.053 A 
HETATM    3  S2  UNL     1      39.375  25.054  18.201  1.00  0.00    -0.056 SA
HETATM    4  C12 UNL     1      39.601  24.583  19.798  1.00  0.00     0.164 A 
HETATM    5  S3  UNL     1      38.701  24.979  21.148  1.00  0.00    -0.050 SA
HETATM    6  N5  UNL     1      40.682  23.810  19.742  1.00  0.00    -0.247 N 
ENDROOT
BRANCH   1   7
HETATM    7  C5  UNL     1      42.517  22.726  18.476  1.00  0.00     0.134 C 
BRANCH   7   8
HETATM    8  S1  UNL     1      43.980  23.673  17.934  1.00  0.00    -0.163 SA
BRANCH   8   9
HETATM    9  C4  UNL     1      44.931  22.651  16.784  1.00  0.00     0.084 C 
BRANCH   9  10
HETATM   10  C3  UNL     1      46.373  22.509  17.226  1.00  0.00     0.121 C 
BRANCH  10  11
HETATM   11  C2  UNL     1      46.480  21.389  18.195  1.00  0.00     0.268 C 
HETATM   12  O3  UNL     1      46.551  21.627  19.448  1.00  0.00    -0.265 OA
BRANCH  11  13
HETATM   13  O2  UNL     1      46.509  20.075  17.802  1.00  0.00    -0.226 OA
BRANCH  13  14
HETATM   14  C1  UNL     1      47.440  19.502  16.966  1.00  0.00     0.386 C 
HETATM   15  N2  UNL     1      47.561  19.861  15.598  1.00  0.00    -0.252 N 
ATOM     16  H2  UNL     1      46.933  20.570  15.222  1.00  0.00     0.191 HD
HETATM   17  O1  UNL     1      48.211  18.625  17.455  1.00  0.00    -0.236 OA
BRANCH  15  18
HETATM   18  N1  UNL     1      48.504  19.284  14.750  1.00  0.00    -0.341 N 
ATOM     19  H12 UNL     1      49.488  19.375  15.005  1.00  0.00     0.177 HD
ATOM     20  H11 UNL     1      48.246  18.784  13.898  1.00  0.00     0.177 HD
ENDBRANCH  15  18
ENDBRANCH  13  14
ENDBRANCH  11  13
ENDBRANCH  10  11
ENDBRANCH   9  10
ENDBRANCH   8   9
ENDBRANCH   7   8
ENDBRANCH   1   7
BRANCH   2  21
HETATM   21  C8  UNL     1      40.953  24.183  16.016  1.00  0.00     0.102 A 
HETATM   22  C9  UNL     1      40.258  23.131  15.342  1.00  0.00     0.161 A 
HETATM   23  N3  UNL     1      40.348  23.079  14.018  1.00  0.00    -0.288 N 
HETATM   24  C10 UNL     1      41.058  23.969  13.307  1.00  0.00     0.329 A 
ATOM     25  H3  UNL     1      39.859  22.335  13.522  1.00  0.00     0.172 HD
HETATM   26  O5  UNL     1      41.094  23.849  12.042  1.00  0.00    -0.247 OA
HETATM   27  N4  UNL     1      41.717  24.963  13.898  1.00  0.00    -0.275 N 
HETATM   28  C11 UNL     1      41.659  25.069  15.274  1.00  0.00     0.265 A 
ATOM     29  H4  UNL     1      42.254  25.633  13.347  1.00  0.00     0.173 HD
HETATM   30  O6  UNL     1      42.298  26.037  15.755  1.00  0.00    -0.267 OA
BRANCH  22  31
HETATM   31  O4  UNL     1      39.531  22.220  16.079  1.00  0.00    -0.345 OA
ATOM     32  H4  UNL     1      39.109  21.494  15.636  1.00  0.00     0.219 HD
ENDBRANCH  22  31
ENDBRANCH   2  21
BRANCH   6  33
HETATM   33  N6  UNL     1      41.117  23.259  21.009  1.00  0.00    -0.337 N 
ATOM     34  H62 UNL     1      41.616  22.370  20.951  1.00  0.00     0.177 HD
ATOM     35  H61 UNL     1      40.960  23.684  21.922  1.00  0.00     0.177 HD
ENDBRANCH   6  33
TORSDOF 11
ENDMDL
MODEL 5
REMARK VINA RESULT: -8.144930309      2.246      4.441
REMARK  11 active torsions:
REMARK  status: ('A' for Active; 'I' for Inactive)
REMARK    1  A    between atoms: N1_1  and  N2_4 
REMARK       I    between atoms: N2_4  and  C1_6 
REMARK    2  A    between atoms: C1_6  and  O2_8 
REMARK    3  A    between atoms: O2_8  and  C2_9 
REMARK    4  A    between atoms: C2_9  and  C3_11 
REMARK    5  A    between atoms: C3_11  and  C4_12 
REMARK    6  A    between atoms: C4_12  and  S1_13 
REMARK    7  A    between atoms: S1_13  and  C5_14 
REMARK    8  A    between atoms: C5_14  and  C6_15 
REMARK    9  A    between atoms: C7_16  and  C8_17 
REMARK   10  A    between atoms: C9_18  and  O4_19 
REMARK   11  A    between atoms: N5_32  and  N6_33 
ROOT
HETATM    1  C6  UNL     1      40.141  23.912  19.596  1.00  0.00     0.063 A 
HETATM    2  C7  UNL     1      39.114  23.679  18.738  1.00  0.00     0.053 A 
HETATM    3  S2  UNL     1      37.813  24.552  19.540  1.00  0.00    -0.056 SA
HETATM    4  C12 UNL     1      38.671  25.126  20.866  1.00  0.00     0.164 A 
HETATM    5  S3  UNL     1      38.136  26.070  22.136  1.00  0.00    -0.050 SA
HETATM    6  N5  UNL     1      39.897  24.650  20.671  1.00  0.00    -0.247 N 
ENDROOT
BRANCH   1   7
HETATM    7  C5  UNL     1      41.539  23.353  19.342  1.00  0.00     0.134 C 
BRANCH   7   8
HETATM    8  S1  UNL     1      42.435  24.311  18.072  1.00  0.00    -0.163 SA
BRANCH   8   9
HETATM    9  C4  UNL     1      43.770  23.283  17.413  1.00  0.00     0.084 C 
BRANCH   9  10
HETATM   10  C3  UNL     1      44.234  22.256  18.425  1.00  0.00     0.121 C 
BRANCH  10  11
HETATM   11  C2  UNL     1      45.714  22.301  18.527  1.00  0.00     0.268 C 
HETATM   12  O3  UNL     1      46.306  21.776  19.529  1.00  0.00    -0.265 OA
BRANCH  11  13
HETATM   13  O2  UNL     1      46.501  22.896  17.573  1.00  0.00    -0.226 OA
BRANCH  13  14
HETATM   14  C1  UNL     1      47.159  22.250  16.552  1.00  0.00     0.386 C 
HETATM   15  N2  UNL     1      47.013  20.858  16.310  1.00  0.00    -0.252 N 
ATOM     16  H2  UNL     1      46.397  20.319  16.917  1.00  0.00     0.191 HD
HETATM   17  O1  UNL     1      47.918  22.939  15.810  1.00  0.00    -0.236 OA
BRANCH  15  18
HETATM   18  N1  UNL     1      47.678  20.201  15.277  1.00  0.00    -0.341 N 
ATOM     19  H12 UNL     1      47.532  20.543  14.327  1.00  0.00     0.177 HD
ATOM     20  H11 UNL     1      48.293  19.403  15.438  1.00  0.00     0.177 HD
ENDBRANCH  15  18
ENDBRANCH  13  14
ENDBRANCH  11  13
ENDBRANCH  10  11
ENDBRANCH   9  10
ENDBRANCH   8   9
ENDBRANCH   7   8
ENDBRANCH   1   7
BRANCH   2  21
HETATM   21  C8  UNL     1      38.873  22.859  17.533  1.00  0.00     0.102 A 
HETATM   22  C9  UNL     1      38.319  21.571  17.808  1.00  0.00     0.161 A 
HETATM   23  N3  UNL     1      38.013  20.796  16.773  1.00  0.00    -0.288 N 
HETATM   24  C10 UNL     1      38.205  21.179  15.502  1.00  0.00     0.329 A 
ATOM     25  H3  UNL     1      37.616  19.874  16.952  1.00  0.00     0.172 HD
HETATM   26  O5  UNL     1      37.887  20.378  14.568  1.00  0.00    -0.247 OA
HETATM   27  N4  UNL     1      38.719  22.372  15.206  1.00  0.00    -0.275 N 
HETATM   28  C11 UNL     1      39.055  23.222  16.241  1.00  0.00     0.265 A 
ATOM     29  H4  UNL     1      38.861  22.651  14.235  1.00  0.00     0.173 HD
HETATM   30  O6  UNL     1      39.524  24.331  15.881  1.00  0.00    -0.267 OA
BRANCH  22  31
HETATM   31  O4  UNL     1      38.124  21.184  19.116  1.00  0.00    -0.345 OA
ATOM     32  H4  UNL     1      38.859  20.851  19.618  1.00  0.00     0.219 HD
ENDBRANCH  22  31
ENDBRANCH   2  21
BRANCH   6  33
HETATM   33  N6  UNL     1      40.870  25.003  21.684  1.00  0.00    -0.337 N 
ATOM     34  H62 UNL     1      41.733  25.420  21.335  1.00  0.00     0.177 HD
ATOM     35  H61 UNL     1      40.754  24.862  22.687  1.00  0.00     0.177 HD
ENDBRANCH   6  33
TORSDOF 11
ENDMDL
