MODEL 1
REMARK VINA RESULT: -7.821410351      0.000      0.000
REMARK  15 active torsions:
REMARK  status: ('A' for Active; 'I' for Inactive)
REMARK    1  A    between atoms: O1_1  and  C1_3 
REMARK    2  A    between atoms: C1_3  and  C2_4 
REMARK    3  A    between atoms: C3_5  and  O2_6 
REMARK    4  A    between atoms: C4_8  and  O3_9 
REMARK    5  A    between atoms: N2_15  and  C6_16 
REMARK    6  A    between atoms: C6_16  and  C7_17 
REMARK    7  A    between atoms: C7_17  and  C8_18 
REMARK    8  A    between atoms: C8_18  and  C9_19 
REMARK    9  A    between atoms: C9_19  and  C10_20 
REMARK   10  A    between atoms: C10_20  and  C11_21 
REMARK   11  A    between atoms: C11_21  and  C12_22 
REMARK   12  A    between atoms: C12_22  and  C13_23 
REMARK   13  A    between atoms: C13_23  and  C14_24 
REMARK   14  A    between atoms: C14_24  and  N3_25 
REMARK   15  A    between atoms: N3_25  and  C15_27 
ROOT
HETATM    1  C10 UNL     1      58.805  39.326   9.236  1.00  0.00     0.000 C 
ENDROOT
BRANCH   1   2
HETATM    2  C9  UNL     1      60.206  39.114   9.701  1.00  0.00     0.000 C 
BRANCH   2   3
HETATM    3  C8  UNL     1      60.351  39.283  11.206  1.00  0.00     0.002 C 
BRANCH   3   4
HETATM    4  C7  UNL     1      60.164  40.757  11.478  1.00  0.00     0.019 C 
BRANCH   4   5
HETATM    5  C6  UNL     1      61.114  41.315  12.471  1.00  0.00     0.119 C 
BRANCH   5   6
HETATM    6  N2  UNL     1      60.852  42.624  12.929  1.00  0.00    -0.382 N 
HETATM    7  C2  UNL     1      60.196  43.515  12.028  1.00  0.00     0.137 C 
HETATM    8  C3  UNL     1      59.297  44.455  12.862  1.00  0.00     0.199 C 
HETATM    9  C4  UNL     1      59.807  44.399  14.299  1.00  0.00     0.351 C 
HETATM   10  N1  UNL     1      61.228  44.435  14.367  1.00  0.00    -0.031 N 
HETATM   11  C5  UNL     1      61.796  43.240  13.789  1.00  0.00     0.356 C 
ATOM     12  H12 UNL     1      61.606  45.279  13.937  1.00  0.00     0.282 HD
ATOM     13  H11 UNL     1      61.557  44.587  15.320  1.00  0.00     0.282 HD
BRANCH   7  14
HETATM   14  C1  UNL     1      61.215  44.355  11.294  1.00  0.00     0.191 C 
BRANCH  14  15
HETATM   15  O1  UNL     1      61.348  43.875  10.009  1.00  0.00    -0.399 OA
ATOM     16  H1  UNL     1      60.489  43.828   9.606  1.00  0.00     0.209 HD
ENDBRANCH  14  15
ENDBRANCH   7  14
BRANCH   8  17
HETATM   17  O2  UNL     1      59.358  45.733  12.369  1.00  0.00    -0.389 OA
ATOM     18  H2  UNL     1      58.713  45.854  11.682  1.00  0.00     0.210 HD
ENDBRANCH   8  17
BRANCH   9  19
HETATM   19  O3  UNL     1      59.211  45.464  14.972  1.00  0.00    -0.368 OA
ATOM     20  H3  UNL     1      59.744  45.628  15.741  1.00  0.00     0.212 HD
ENDBRANCH   9  19
ENDBRANCH   5   6
ENDBRANCH   4   5
ENDBRANCH   3   4
ENDBRANCH   2   3
ENDBRANCH   1   2
BRANCH   1  21
HETATM   21  C11 UNL     1      58.814  39.907   7.848  1.00  0.00     0.000 C 
BRANCH  21  22
HETATM   22  C12 UNL     1      59.093  41.388   7.910  1.00  0.00     0.002 C 
BRANCH  22  23
HETATM   23  C13 UNL     1      58.433  41.996   6.654  1.00  0.00     0.020 C 
BRANCH  23  24
HETATM   24  C14 UNL     1      57.414  41.007   6.132  1.00  0.00     0.121 C 
BRANCH  24  25
HETATM   25  N3  UNL     1      56.570  41.676   5.181  1.00  0.00    -0.378 N 
ATOM     26  H3  UNL     1      56.364  42.667   5.315  1.00  0.00     0.160 HD
BRANCH  25  27
HETATM   27  C15 UNL     1      56.017  41.004   4.067  1.00  0.00     0.104 C 
HETATM   28  N4  UNL     1      55.792  39.747   4.153  1.00  0.00    -0.378 N 
HETATM   29  C16 UNL     1      55.240  38.904   3.136  1.00  0.00     0.121 C 
ATOM     30  H4  UNL     1      56.030  39.299   5.037  1.00  0.00     0.160 HD
HETATM   31  C17 UNL     1      54.995  39.601   1.816  1.00  0.00     0.027 C 
HETATM   32  C18 UNL     1      55.993  40.730   1.682  1.00  0.00     0.025 C 
HETATM   33  C19 UNL     1      55.849  41.359   0.326  1.00  0.00     0.009 C 
HETATM   34  C22 UNL     1      55.689  41.697   2.803  1.00  0.00     0.256 C 
HETATM   35  C20 UNL     1      55.460  42.836   0.442  1.00  0.00     0.028 C 
HETATM   36  C21 UNL     1      56.442  43.478   1.375  1.00  0.00     0.233 C 
HETATM   37  N5  UNL     1      56.425  42.928   2.690  1.00  0.00    -0.064 N 
ATOM     38  H52 UNL     1      57.376  42.809   3.040  1.00  0.00     0.278 HD
ATOM     39  H51 UNL     1      56.078  43.614   3.361  1.00  0.00     0.278 HD
ENDBRANCH  25  27
ENDBRANCH  24  25
ENDBRANCH  23  24
ENDBRANCH  22  23
ENDBRANCH  21  22
ENDBRANCH   1  21
TORSDOF 15
ENDMDL
MODEL 2
REMARK VINA RESULT: -7.504480339      1.316      1.749
REMARK  15 active torsions:
REMARK  status: ('A' for Active; 'I' for Inactive)
REMARK    1  A    between atoms: O1_1  and  C1_3 
REMARK    2  A    between atoms: C1_3  and  C2_4 
REMARK    3  A    between atoms: C3_5  and  O2_6 
REMARK    4  A    between atoms: C4_8  and  O3_9 
REMARK    5  A    between atoms: N2_15  and  C6_16 
REMARK    6  A    between atoms: C6_16  and  C7_17 
REMARK    7  A    between atoms: C7_17  and  C8_18 
REMARK    8  A    between atoms: C8_18  and  C9_19 
REMARK    9  A    between atoms: C9_19  and  C10_20 
REMARK   10  A    between atoms: C10_20  and  C11_21 
REMARK   11  A    between atoms: C11_21  and  C12_22 
REMARK   12  A    between atoms: C12_22  and  C13_23 
REMARK   13  A    between atoms: C13_23  and  C14_24 
REMARK   14  A    between atoms: C14_24  and  N3_25 
REMARK   15  A    between atoms: N3_25  and  C15_27 
ROOT
HETATM    1  C10 UNL     1      60.015  40.396  10.036  1.00  0.00     0.000 C 
ENDROOT
BRANCH   1   2
HETATM    2  C9  UNL     1      59.938  39.049  10.672  1.00  0.00     0.000 C 
BRANCH   2   3
HETATM    3  C8  UNL     1      59.925  39.123  12.191  1.00  0.00     0.002 C 
BRANCH   3   4
HETATM    4  C7  UNL     1      60.897  40.219  12.561  1.00  0.00     0.019 C 
BRANCH   4   5
HETATM    5  C6  UNL     1      60.443  41.079  13.681  1.00  0.00     0.119 C 
BRANCH   5   6
HETATM    6  N2  UNL     1      60.443  42.471  13.448  1.00  0.00    -0.382 N 
HETATM    7  C2  UNL     1      61.332  42.969  12.450  1.00  0.00     0.137 C 
HETATM    8  C3  UNL     1      60.656  44.184  11.776  1.00  0.00     0.199 C 
HETATM    9  C4  UNL     1      59.561  44.666  12.723  1.00  0.00     0.351 C 
HETATM   10  N1  UNL     1      59.992  44.682  14.079  1.00  0.00    -0.031 N 
HETATM   11  C5  UNL     1      60.242  43.340  14.549  1.00  0.00     0.356 C 
ATOM     12  H12 UNL     1      60.804  45.286  14.211  1.00  0.00     0.282 HD
ATOM     13  H11 UNL     1      59.334  45.177  14.679  1.00  0.00     0.282 HD
BRANCH   7  14
HETATM   14  C1  UNL     1      62.621  43.433  13.088  1.00  0.00     0.191 C 
BRANCH  14  15
HETATM   15  O1  UNL     1      63.683  42.965  12.345  1.00  0.00    -0.399 OA
ATOM     16  H1  UNL     1      64.357  42.649  12.934  1.00  0.00     0.209 HD
ENDBRANCH  14  15
ENDBRANCH   7  14
BRANCH   8  17
HETATM   17  O2  UNL     1      61.576  45.174  11.545  1.00  0.00    -0.389 OA
ATOM     18  H2  UNL     1      61.780  45.631  12.353  1.00  0.00     0.210 HD
ENDBRANCH   8  17
BRANCH   9  19
HETATM   19  O3  UNL     1      59.172  45.925  12.269  1.00  0.00    -0.368 OA
ATOM     20  H3  UNL     1      58.229  45.969  12.373  1.00  0.00     0.212 HD
ENDBRANCH   9  19
ENDBRANCH   5   6
ENDBRANCH   4   5
ENDBRANCH   3   4
ENDBRANCH   2   3
ENDBRANCH   1   2
BRANCH   1  21
HETATM   21  C11 UNL     1      59.091  40.451   8.850  1.00  0.00     0.000 C 
BRANCH  21  22
HETATM   22  C12 UNL     1      58.835  39.059   8.330  1.00  0.00     0.002 C 
BRANCH  22  23
HETATM   23  C13 UNL     1      58.607  39.210   6.811  1.00  0.00     0.020 C 
BRANCH  23  24
HETATM   24  C14 UNL     1      57.508  40.228   6.599  1.00  0.00     0.121 C 
BRANCH  24  25
HETATM   25  N3  UNL     1      57.490  40.602   5.212  1.00  0.00    -0.378 N 
ATOM     26  H3  UNL     1      58.243  41.185   4.847  1.00  0.00     0.160 HD
BRANCH  25  27
HETATM   27  C15 UNL     1      56.459  40.185   4.337  1.00  0.00     0.104 C 
HETATM   28  N4  UNL     1      55.621  39.307   4.743  1.00  0.00    -0.378 N 
HETATM   29  C16 UNL     1      54.520  38.768   4.005  1.00  0.00     0.121 C 
ATOM     30  H4  UNL     1      55.751  38.956   5.692  1.00  0.00     0.160 HD
HETATM   31  C17 UNL     1      54.433  39.254   2.575  1.00  0.00     0.027 C 
HETATM   32  C18 UNL     1      55.831  39.585   2.100  1.00  0.00     0.025 C 
HETATM   33  C19 UNL     1      55.784  39.953   0.644  1.00  0.00     0.009 C 
HETATM   34  C22 UNL     1      56.313  40.723   2.968  1.00  0.00     0.256 C 
HETATM   35  C20 UNL     1      56.272  41.388   0.422  1.00  0.00     0.028 C 
HETATM   36  C21 UNL     1      57.604  41.508   1.099  1.00  0.00     0.233 C 
HETATM   37  N5  UNL     1      57.553  41.288   2.507  1.00  0.00    -0.064 N 
ATOM     38  H52 UNL     1      58.341  40.714   2.807  1.00  0.00     0.278 HD
ATOM     39  H51 UNL     1      57.763  42.149   3.011  1.00  0.00     0.278 HD
ENDBRANCH  25  27
ENDBRANCH  24  25
ENDBRANCH  23  24
ENDBRANCH  22  23
ENDBRANCH  21  22
ENDBRANCH   1  21
TORSDOF 15
ENDMDL
MODEL 3
REMARK VINA RESULT: -7.338678089      1.355      2.661
REMARK  15 active torsions:
REMARK  status: ('A' for Active; 'I' for Inactive)
REMARK    1  A    between atoms: O1_1  and  C1_3 
REMARK    2  A    between atoms: C1_3  and  C2_4 
REMARK    3  A    between atoms: C3_5  and  O2_6 
REMARK    4  A    between atoms: C4_8  and  O3_9 
REMARK    5  A    between atoms: N2_15  and  C6_16 
REMARK    6  A    between atoms: C6_16  and  C7_17 
REMARK    7  A    between atoms: C7_17  and  C8_18 
REMARK    8  A    between atoms: C8_18  and  C9_19 
REMARK    9  A    between atoms: C9_19  and  C10_20 
REMARK   10  A    between atoms: C10_20  and  C11_21 
REMARK   11  A    between atoms: C11_21  and  C12_22 
REMARK   12  A    between atoms: C12_22  and  C13_23 
REMARK   13  A    between atoms: C13_23  and  C14_24 
REMARK   14  A    between atoms: C14_24  and  N3_25 
REMARK   15  A    between atoms: N3_25  and  C15_27 
ROOT
HETATM    1  C10 UNL     1      59.497  39.864   9.953  1.00  0.00     0.000 C 
ENDROOT
BRANCH   1   2
HETATM    2  C9  UNL     1      60.821  39.309  10.356  1.00  0.00     0.000 C 
BRANCH   2   3
HETATM    3  C8  UNL     1      61.016  39.304  11.864  1.00  0.00     0.002 C 
BRANCH   3   4
HETATM    4  C7  UNL     1      60.006  40.283  12.415  1.00  0.00     0.019 C 
BRANCH   4   5
HETATM    5  C6  UNL     1      60.515  41.114  13.533  1.00  0.00     0.119 C 
BRANCH   5   6
HETATM    6  N2  UNL     1      60.494  42.512  13.341  1.00  0.00    -0.382 N 
HETATM    7  C2  UNL     1      61.383  43.053  12.365  1.00  0.00     0.137 C 
HETATM    8  C3  UNL     1      60.694  44.275  11.720  1.00  0.00     0.199 C 
HETATM    9  C4  UNL     1      59.584  44.713  12.672  1.00  0.00     0.351 C 
HETATM   10  N1  UNL     1      60.004  44.696  14.031  1.00  0.00    -0.031 N 
HETATM   11  C5  UNL     1      60.270  43.345  14.465  1.00  0.00     0.356 C 
ATOM     12  H12 UNL     1      60.804  45.309  14.187  1.00  0.00     0.282 HD
ATOM     13  H11 UNL     1      59.332  45.164  14.640  1.00  0.00     0.282 HD
BRANCH   7  14
HETATM   14  C1  UNL     1      62.660  43.518  13.027  1.00  0.00     0.191 C 
BRANCH  14  15
HETATM   15  O1  UNL     1      63.736  43.048  12.306  1.00  0.00    -0.399 OA
ATOM     16  H1  UNL     1      64.284  42.523  12.876  1.00  0.00     0.209 HD
ENDBRANCH  14  15
ENDBRANCH   7  14
BRANCH   8  17
HETATM   17  O2  UNL     1      61.600  45.286  11.526  1.00  0.00    -0.389 OA
ATOM     18  H2  UNL     1      62.466  44.928  11.370  1.00  0.00     0.210 HD
ENDBRANCH   8  17
BRANCH   9  19
HETATM   19  O3  UNL     1      59.179  45.978  12.251  1.00  0.00    -0.368 OA
ATOM     20  H3  UNL     1      58.673  46.350  12.965  1.00  0.00     0.212 HD
ENDBRANCH   9  19
ENDBRANCH   5   6
ENDBRANCH   4   5
ENDBRANCH   3   4
ENDBRANCH   2   3
ENDBRANCH   1   2
BRANCH   1  21
HETATM   21  C11 UNL     1      58.809  38.908   9.017  1.00  0.00     0.000 C 
BRANCH  21  22
HETATM   22  C12 UNL     1      58.822  39.459   7.614  1.00  0.00     0.002 C 
BRANCH  22  23
HETATM   23  C13 UNL     1      58.759  40.994   7.761  1.00  0.00     0.020 C 
BRANCH  23  24
HETATM   24  C14 UNL     1      57.715  41.517   6.799  1.00  0.00     0.121 C 
BRANCH  24  25
HETATM   25  N3  UNL     1      57.755  40.722   5.603  1.00  0.00    -0.378 N 
ATOM     26  H3  UNL     1      58.453  39.982   5.524  1.00  0.00     0.160 HD
BRANCH  25  27
HETATM   27  C15 UNL     1      56.856  40.934   4.532  1.00  0.00     0.104 C 
HETATM   28  N4  UNL     1      56.797  42.094   3.994  1.00  0.00    -0.378 N 
HETATM   29  C16 UNL     1      55.955  42.494   2.909  1.00  0.00     0.121 C 
ATOM     30  H4  UNL     1      57.415  42.808   4.380  1.00  0.00     0.160 HD
HETATM   31  C17 UNL     1      54.994  41.424   2.441  1.00  0.00     0.027 C 
HETATM   32  C18 UNL     1      54.675  40.525   3.615  1.00  0.00     0.025 C 
HETATM   33  C19 UNL     1      53.629  39.528   3.205  1.00  0.00     0.009 C 
HETATM   34  C22 UNL     1      55.978  39.867   4.008  1.00  0.00     0.256 C 
HETATM   35  C20 UNL     1      54.156  38.094   3.326  1.00  0.00     0.028 C 
HETATM   36  C21 UNL     1      54.713  37.946   4.709  1.00  0.00     0.233 C 
HETATM   37  N5  UNL     1      55.802  38.825   4.984  1.00  0.00    -0.064 N 
ATOM     38  H52 UNL     1      55.712  39.223   5.919  1.00  0.00     0.278 HD
ATOM     39  H51 UNL     1      56.667  38.297   5.103  1.00  0.00     0.278 HD
ENDBRANCH  25  27
ENDBRANCH  24  25
ENDBRANCH  23  24
ENDBRANCH  22  23
ENDBRANCH  21  22
ENDBRANCH   1  21
TORSDOF 15
ENDMDL
MODEL 4
REMARK VINA RESULT: -7.264325938      1.501      1.932
REMARK  15 active torsions:
REMARK  status: ('A' for Active; 'I' for Inactive)
REMARK    1  A    between atoms: O1_1  and  C1_3 
REMARK    2  A    between atoms: C1_3  and  C2_4 
REMARK    3  A    between atoms: C3_5  and  O2_6 
REMARK    4  A    between atoms: C4_8  and  O3_9 
REMARK    5  A    between atoms: N2_15  and  C6_16 
REMARK    6  A    between atoms: C6_16  and  C7_17 
REMARK    7  A    between atoms: C7_17  and  C8_18 
REMARK    8  A    between atoms: C8_18  and  C9_19 
REMARK    9  A    between atoms: C9_19  and  C10_20 
REMARK   10  A    between atoms: C10_20  and  C11_21 
REMARK   11  A    between atoms: C11_21  and  C12_22 
REMARK   12  A    between atoms: C12_22  and  C13_23 
REMARK   13  A    between atoms: C13_23  and  C14_24 
REMARK   14  A    between atoms: C14_24  and  N3_25 
REMARK   15  A    between atoms: N3_25  and  C15_27 
ROOT
HETATM    1  C10 UNL     1      59.498  42.475   9.696  1.00  0.00     0.000 C 
ENDROOT
BRANCH   1   2
HETATM    2  C9  UNL     1      59.664  41.745  10.986  1.00  0.00     0.000 C 
BRANCH   2   3
HETATM    3  C8  UNL     1      61.001  41.026  11.080  1.00  0.00     0.002 C 
BRANCH   3   4
HETATM    4  C7  UNL     1      61.696  41.603  12.291  1.00  0.00     0.019 C 
BRANCH   4   5
HETATM    5  C6  UNL     1      60.836  41.701  13.495  1.00  0.00     0.119 C 
BRANCH   5   6
HETATM    6  N2  UNL     1      60.855  42.931  14.186  1.00  0.00    -0.382 N 
HETATM    7  C2  UNL     1      59.719  43.782  14.040  1.00  0.00     0.137 C 
HETATM    8  C3  UNL     1      59.519  44.539  15.372  1.00  0.00     0.199 C 
HETATM    9  C4  UNL     1      60.841  44.460  16.131  1.00  0.00     0.351 C 
HETATM   10  N1  UNL     1      61.961  44.680  15.282  1.00  0.00    -0.031 N 
HETATM   11  C5  UNL     1      62.091  43.611  14.321  1.00  0.00     0.356 C 
ATOM     12  H12 UNL     1      61.919  45.593  14.829  1.00  0.00     0.282 HD
ATOM     13  H11 UNL     1      62.819  44.815  15.817  1.00  0.00     0.282 HD
BRANCH   7  14
HETATM   14  C1  UNL     1      59.966  44.795  12.946  1.00  0.00     0.191 C 
BRANCH  14  15
HETATM   15  O1  UNL     1      58.774  45.066  12.309  1.00  0.00    -0.399 OA
ATOM     16  H1  UNL     1      58.178  45.469  12.928  1.00  0.00     0.209 HD
ENDBRANCH  14  15
ENDBRANCH   7  14
BRANCH   8  17
HETATM   17  O2  UNL     1      59.169  45.843  15.131  1.00  0.00    -0.389 OA
ATOM     18  H2  UNL     1      59.246  46.357  15.926  1.00  0.00     0.210 HD
ENDBRANCH   8  17
BRANCH   9  19
HETATM   19  O3  UNL     1      60.759  45.391  17.164  1.00  0.00    -0.368 OA
ATOM     20  H3  UNL     1      61.618  45.419  17.569  1.00  0.00     0.212 HD
ENDBRANCH   9  19
ENDBRANCH   5   6
ENDBRANCH   4   5
ENDBRANCH   3   4
ENDBRANCH   2   3
ENDBRANCH   1   2
BRANCH   1  21
HETATM   21  C11 UNL     1      59.940  41.598   8.556  1.00  0.00     0.000 C 
BRANCH  21  22
HETATM   22  C12 UNL     1      58.998  41.754   7.389  1.00  0.00     0.002 C 
BRANCH  22  23
HETATM   23  C13 UNL     1      57.903  40.684   7.581  1.00  0.00     0.020 C 
BRANCH  23  24
HETATM   24  C14 UNL     1      57.861  39.824   6.336  1.00  0.00     0.121 C 
BRANCH  24  25
HETATM   25  N3  UNL     1      57.425  40.635   5.234  1.00  0.00    -0.378 N 
ATOM     26  H3  UNL     1      57.860  41.546   5.087  1.00  0.00     0.160 HD
BRANCH  25  27
HETATM   27  C15 UNL     1      56.410  40.209   4.345  1.00  0.00     0.104 C 
HETATM   28  N4  UNL     1      55.560  39.341   4.749  1.00  0.00    -0.378 N 
HETATM   29  C16 UNL     1      54.472  38.794   3.998  1.00  0.00     0.121 C 
ATOM     30  H4  UNL     1      55.670  39.005   5.705  1.00  0.00     0.160 HD
HETATM   31  C17 UNL     1      54.415  39.257   2.559  1.00  0.00     0.027 C 
HETATM   32  C18 UNL     1      55.823  39.574   2.106  1.00  0.00     0.025 C 
HETATM   33  C19 UNL     1      55.807  39.919   0.644  1.00  0.00     0.009 C 
HETATM   34  C22 UNL     1      56.294  40.725   2.965  1.00  0.00     0.256 C 
HETATM   35  C20 UNL     1      56.306  41.348   0.409  1.00  0.00     0.028 C 
HETATM   36  C21 UNL     1      57.624  41.474   1.109  1.00  0.00     0.233 C 
HETATM   37  N5  UNL     1      57.544  41.277   2.519  1.00  0.00    -0.064 N 
ATOM     38  H52 UNL     1      58.324  40.705   2.845  1.00  0.00     0.278 HD
ATOM     39  H51 UNL     1      57.748  42.146   3.014  1.00  0.00     0.278 HD
ENDBRANCH  25  27
ENDBRANCH  24  25
ENDBRANCH  23  24
ENDBRANCH  22  23
ENDBRANCH  21  22
ENDBRANCH   1  21
TORSDOF 15
ENDMDL
MODEL 5
REMARK VINA RESULT: -7.212243822      1.596      2.852
REMARK  15 active torsions:
REMARK  status: ('A' for Active; 'I' for Inactive)
REMARK    1  A    between atoms: O1_1  and  C1_3 
REMARK    2  A    between atoms: C1_3  and  C2_4 
REMARK    3  A    between atoms: C3_5  and  O2_6 
REMARK    4  A    between atoms: C4_8  and  O3_9 
REMARK    5  A    between atoms: N2_15  and  C6_16 
REMARK    6  A    between atoms: C6_16  and  C7_17 
REMARK    7  A    between atoms: C7_17  and  C8_18 
REMARK    8  A    between atoms: C8_18  and  C9_19 
REMARK    9  A    between atoms: C9_19  and  C10_20 
REMARK   10  A    between atoms: C10_20  and  C11_21 
REMARK   11  A    between atoms: C11_21  and  C12_22 
REMARK   12  A    between atoms: C12_22  and  C13_23 
REMARK   13  A    between atoms: C13_23  and  C14_24 
REMARK   14  A    between atoms: C14_24  and  N3_25 
REMARK   15  A    between atoms: N3_25  and  C15_27 
ROOT
HETATM    1  C10 UNL     1      59.471  42.201  10.207  1.00  0.00     0.000 C 
ENDROOT
BRANCH   1   2
HETATM    2  C9  UNL     1      59.903  41.228  11.252  1.00  0.00     0.000 C 
BRANCH   2   3
HETATM    3  C8  UNL     1      61.398  40.953  11.207  1.00  0.00     0.002 C 
BRANCH   3   4
HETATM    4  C7  UNL     1      61.955  41.474  12.511  1.00  0.00     0.019 C 
BRANCH   4   5
HETATM    5  C6  UNL     1      60.939  41.649  13.578  1.00  0.00     0.119 C 
BRANCH   5   6
HETATM    6  N2  UNL     1      60.925  42.896  14.238  1.00  0.00    -0.382 N 
HETATM    7  C2  UNL     1      59.777  43.723  14.053  1.00  0.00     0.137 C 
HETATM    8  C3  UNL     1      59.542  44.508  15.362  1.00  0.00     0.199 C 
HETATM    9  C4  UNL     1      60.852  44.471  16.144  1.00  0.00     0.351 C 
HETATM   10  N1  UNL     1      61.982  44.690  15.310  1.00  0.00    -0.031 N 
HETATM   11  C5  UNL     1      62.146  43.601  14.377  1.00  0.00     0.356 C 
ATOM     12  H12 UNL     1      61.932  45.591  14.833  1.00  0.00     0.282 HD
ATOM     13  H11 UNL     1      62.829  44.853  15.855  1.00  0.00     0.282 HD
BRANCH   7  14
HETATM   14  C1  UNL     1      60.025  44.714  12.939  1.00  0.00     0.191 C 
BRANCH  14  15
HETATM   15  O1  UNL     1      58.820  45.050  12.362  1.00  0.00    -0.399 OA
ATOM     16  H1  UNL     1      58.875  45.938  12.028  1.00  0.00     0.209 HD
ENDBRANCH  14  15
ENDBRANCH   7  14
BRANCH   8  17
HETATM   17  O2  UNL     1      59.174  45.800  15.084  1.00  0.00    -0.389 OA
ATOM     18  H2  UNL     1      58.244  45.919  15.241  1.00  0.00     0.210 HD
ENDBRANCH   8  17
BRANCH   9  19
HETATM   19  O3  UNL     1      60.736  45.425  17.153  1.00  0.00    -0.368 OA
ATOM     20  H3  UNL     1      61.336  45.163  17.842  1.00  0.00     0.212 HD
ENDBRANCH   9  19
ENDBRANCH   5   6
ENDBRANCH   4   5
ENDBRANCH   3   4
ENDBRANCH   2   3
ENDBRANCH   1   2
BRANCH   1  21
HETATM   21  C11 UNL     1      60.458  42.198   9.071  1.00  0.00     0.000 C 
BRANCH  21  22
HETATM   22  C12 UNL     1      59.730  42.289   7.754  1.00  0.00     0.002 C 
BRANCH  22  23
HETATM   23  C13 UNL     1      58.873  41.009   7.654  1.00  0.00     0.020 C 
BRANCH  23  24
HETATM   24  C14 UNL     1      57.639  41.332   6.839  1.00  0.00     0.121 C 
BRANCH  24  25
HETATM   25  N3  UNL     1      57.701  40.601   5.604  1.00  0.00    -0.378 N 
ATOM     26  H3  UNL     1      58.402  39.867   5.498  1.00  0.00     0.160 HD
BRANCH  25  27
HETATM   27  C15 UNL     1      56.820  40.867   4.530  1.00  0.00     0.104 C 
HETATM   28  N4  UNL     1      56.797  42.044   4.026  1.00  0.00    -0.378 N 
HETATM   29  C16 UNL     1      55.977  42.497   2.944  1.00  0.00     0.121 C 
ATOM     30  H4  UNL     1      57.429  42.729   4.438  1.00  0.00     0.160 HD
HETATM   31  C17 UNL     1      54.994  41.466   2.436  1.00  0.00     0.027 C 
HETATM   32  C18 UNL     1      54.639  40.542   3.580  1.00  0.00     0.025 C 
HETATM   33  C19 UNL     1      53.572  39.585   3.131  1.00  0.00     0.009 C 
HETATM   34  C22 UNL     1      55.920  39.839   3.967  1.00  0.00     0.256 C 
HETATM   35  C20 UNL     1      54.060  38.135   3.216  1.00  0.00     0.028 C 
HETATM   36  C21 UNL     1      54.598  37.933   4.600  1.00  0.00     0.233 C 
HETATM   37  N5  UNL     1      55.706  38.775   4.911  1.00  0.00    -0.064 N 
ATOM     38  H52 UNL     1      55.617  39.149   5.856  1.00  0.00     0.278 HD
ATOM     39  H51 UNL     1      56.556  38.221   5.024  1.00  0.00     0.278 HD
ENDBRANCH  25  27
ENDBRANCH  24  25
ENDBRANCH  23  24
ENDBRANCH  22  23
ENDBRANCH  21  22
ENDBRANCH   1  21
TORSDOF 15
ENDMDL
