MODEL 1
REMARK VINA RESULT: -10.748629578      0.000      0.000
REMARK  12 active torsions:
REMARK  status: ('A' for Active; 'I' for Inactive)
REMARK    1  A    between atoms: N1_1  and  C1_4 
REMARK    2  A    between atoms: C2_7  and  S1_8 
REMARK    3  A    between atoms: S1_8  and  C3_9 
REMARK    4  A    between atoms: C3_9  and  C4_10 
REMARK    5  A    between atoms: C4_10  and  N3_11 
REMARK    6  A    between atoms: C4_10  and  N7_29 
REMARK    7  A    between atoms: N3_11  and  N4_13 
REMARK    8  A    between atoms: N4_13  and  C5_15 
REMARK    9  A    between atoms: C6_18  and  O1_19 
REMARK   10  A    between atoms: C6_18  and  N6_21 
REMARK   11  A    between atoms: C7_25  and  O5_26 
REMARK       I    between atoms: N7_29  and  C9_31 
REMARK       I    between atoms: C9_31  and  N8_33 
REMARK   12  A    between atoms: N8_33  and  N9_35 
ROOT
HETATM    1  C4  UNL     1      31.273  32.075  26.588  1.00  0.00     0.130 C 
ENDROOT
BRANCH   1   2
HETATM    2  C3  UNL     1      31.647  33.306  27.249  1.00  0.00     0.102 C 
BRANCH   2   3
HETATM    3  S1  UNL     1      33.392  33.731  27.239  1.00  0.00    -0.071 SA
BRANCH   3   4
HETATM    4  C2  UNL     1      33.634  35.458  27.674  1.00  0.00     0.148 A 
HETATM    5  N2  UNL     1      33.670  36.521  26.888  1.00  0.00    -0.177 N 
HETATM    6  C1  UNL     1      33.858  37.690  27.403  1.00  0.00     0.683 A 
ATOM      7  H2  UNL     1      33.549  36.418  25.880  1.00  0.00     0.185 HD
HETATM    8  N10 UNL     1      34.011  37.779  28.734  1.00  0.00    -0.158 N 
HETATM    9  S2  UNL     1      33.881  36.170  29.215  1.00  0.00     0.028 SA
ATOM     10  H10 UNL     1      34.166  38.608  29.306  1.00  0.00     0.193 HD
BRANCH   6  11
HETATM   11  N1  UNL     1      33.908  38.805  26.694  1.00  0.00    -0.234 N 
ATOM     12  H12 UNL     1      33.071  39.089  26.185  1.00  0.00     0.174 HD
ATOM     13  H11 UNL     1      34.736  39.397  26.627  1.00  0.00     0.174 HD
ENDBRANCH   6  11
ENDBRANCH   3   4
ENDBRANCH   2   3
ENDBRANCH   1   2
BRANCH   1  14
HETATM   14  N3  UNL     1      31.281  32.045  25.276  1.00  0.00    -0.284 N 
ATOM     15  H3  UNL     1      30.955  32.873  24.777  1.00  0.00     0.188 HD
BRANCH  14  16
HETATM   16  N4  UNL     1      31.703  30.966  24.527  1.00  0.00    -0.287 N 
ATOM     17  H4  UNL     1      31.017  30.353  24.086  1.00  0.00     0.188 HD
BRANCH  16  18
HETATM   18  C5  UNL     1      33.079  30.709  24.370  1.00  0.00     0.102 C 
HETATM   19  N5  UNL     1      33.792  31.257  23.452  1.00  0.00    -0.300 N 
HETATM   20  C6  UNL     1      35.196  30.948  23.349  1.00  0.00     0.399 C 
ATOM     21  H5  UNL     1      33.364  31.910  22.796  1.00  0.00     0.168 HD
HETATM   22  O4  UNL     1      35.321  29.570  23.487  1.00  0.00    -0.285 OA
HETATM   23  C7  UNL     1      34.980  29.138  24.764  1.00  0.00     0.271 C 
HETATM   24  C8  UNL     1      33.741  29.764  25.305  1.00  0.00     0.138 C 
BRANCH  20  25
HETATM   25  O1  UNL     1      35.923  31.658  24.281  1.00  0.00    -0.327 OA
ATOM     26  H1  UNL     1      36.779  31.265  24.411  1.00  0.00     0.217 HD
ENDBRANCH  20  25
BRANCH  20  27
HETATM   27  N6  UNL     1      35.687  31.269  22.006  1.00  0.00    -0.063 N 
HETATM   28  O2  UNL     1      36.885  31.559  21.837  1.00  0.00    -0.530 OA
HETATM   29  O3  UNL     1      34.867  31.264  20.905  1.00  0.00    -0.530 OA
ENDBRANCH  20  27
BRANCH  23  30
HETATM   30  O5  UNL     1      36.064  29.406  25.602  1.00  0.00    -0.371 OA
ATOM     31  H5  UNL     1      35.728  29.493  26.486  1.00  0.00     0.212 HD
ENDBRANCH  23  30
ENDBRANCH  16  18
ENDBRANCH  14  16
ENDBRANCH   1  14
BRANCH   1  32
HETATM   32  N7  UNL     1      30.929  30.908  27.274  1.00  0.00    -0.292 N 
HETATM   33  C9  UNL     1      29.732  30.191  27.060  1.00  0.00     0.340 C 
HETATM   34  O6  UNL     1      28.834  30.497  26.236  1.00  0.00    -0.245 OA
HETATM   35  N8  UNL     1      29.462  28.994  27.824  1.00  0.00    -0.258 N 
ATOM     36  H8  UNL     1      30.154  28.691  28.509  1.00  0.00     0.191 HD
ATOM     37  H7  UNL     1      31.581  30.552  27.972  1.00  0.00     0.172 HD
BRANCH  35  38
HETATM   38  N9  UNL     1      28.317  28.241  27.672  1.00  0.00    -0.341 N 
ATOM     39  H92 UNL     1      27.711  28.143  28.486  1.00  0.00     0.177 HD
ATOM     40  H91 UNL     1      28.057  27.787  26.796  1.00  0.00     0.177 HD
ENDBRANCH  35  38
ENDBRANCH   1  32
TORSDOF 12
ENDMDL
MODEL 2
REMARK VINA RESULT: -10.689499219      0.914      1.197
REMARK  12 active torsions:
REMARK  status: ('A' for Active; 'I' for Inactive)
REMARK    1  A    between atoms: N1_1  and  C1_4 
REMARK    2  A    between atoms: C2_7  and  S1_8 
REMARK    3  A    between atoms: S1_8  and  C3_9 
REMARK    4  A    between atoms: C3_9  and  C4_10 
REMARK    5  A    between atoms: C4_10  and  N3_11 
REMARK    6  A    between atoms: C4_10  and  N7_29 
REMARK    7  A    between atoms: N3_11  and  N4_13 
REMARK    8  A    between atoms: N4_13  and  C5_15 
REMARK    9  A    between atoms: C6_18  and  O1_19 
REMARK   10  A    between atoms: C6_18  and  N6_21 
REMARK   11  A    between atoms: C7_25  and  O5_26 
REMARK       I    between atoms: N7_29  and  C9_31 
REMARK       I    between atoms: C9_31  and  N8_33 
REMARK   12  A    between atoms: N8_33  and  N9_35 
ROOT
HETATM    1  C4  UNL     1      31.152  31.754  26.559  1.00  0.00     0.130 C 
ENDROOT
BRANCH   1   2
HETATM    2  C3  UNL     1      31.644  32.966  27.177  1.00  0.00     0.102 C 
BRANCH   2   3
HETATM    3  S1  UNL     1      33.251  33.554  26.632  1.00  0.00    -0.071 SA
BRANCH   3   4
HETATM    4  C2  UNL     1      33.526  35.251  27.161  1.00  0.00     0.148 A 
HETATM    5  N2  UNL     1      33.733  35.724  28.378  1.00  0.00    -0.177 N 
HETATM    6  C1  UNL     1      33.910  36.992  28.548  1.00  0.00     0.683 A 
ATOM      7  H2  UNL     1      33.752  35.092  29.178  1.00  0.00     0.185 HD
HETATM    8  N10 UNL     1      33.877  37.787  27.467  1.00  0.00    -0.158 N 
HETATM    9  S2  UNL     1      33.589  36.687  26.225  1.00  0.00     0.028 SA
ATOM     10  H10 UNL     1      33.995  38.798  27.412  1.00  0.00     0.193 HD
BRANCH   6  11
HETATM   11  N1  UNL     1      34.123  37.551  29.727  1.00  0.00    -0.234 N 
ATOM     12  H12 UNL     1      33.786  38.502  29.876  1.00  0.00     0.174 HD
ATOM     13  H11 UNL     1      34.606  37.086  30.495  1.00  0.00     0.174 HD
ENDBRANCH   6  11
ENDBRANCH   3   4
ENDBRANCH   2   3
ENDBRANCH   1   2
BRANCH   1  14
HETATM   14  N3  UNL     1      31.079  31.706  25.250  1.00  0.00    -0.284 N 
ATOM     15  H3  UNL     1      30.563  32.446  24.774  1.00  0.00     0.188 HD
BRANCH  14  16
HETATM   16  N4  UNL     1      31.656  30.720  24.477  1.00  0.00    -0.287 N 
ATOM     17  H4  UNL     1      31.066  30.051  23.982  1.00  0.00     0.188 HD
BRANCH  16  18
HETATM   18  C5  UNL     1      33.057  30.636  24.367  1.00  0.00     0.102 C 
HETATM   19  N5  UNL     1      33.746  31.409  23.607  1.00  0.00    -0.300 N 
HETATM   20  C6  UNL     1      35.180  31.268  23.544  1.00  0.00     0.399 C 
ATOM     21  H5  UNL     1      33.280  32.123  23.048  1.00  0.00     0.168 HD
HETATM   22  O4  UNL     1      35.451  29.907  23.449  1.00  0.00    -0.285 OA
HETATM   23  C7  UNL     1      35.101  29.221  24.607  1.00  0.00     0.271 C 
HETATM   24  C8  UNL     1      33.776  29.612  25.165  1.00  0.00     0.138 C 
BRANCH  20  25
HETATM   25  O1  UNL     1      35.779  31.869  24.630  1.00  0.00    -0.327 OA
ATOM     26  H1  UNL     1      36.673  32.119  24.426  1.00  0.00     0.217 HD
ENDBRANCH  20  25
BRANCH  20  27
HETATM   27  N6  UNL     1      35.694  31.873  22.311  1.00  0.00    -0.063 N 
HETATM   28  O2  UNL     1      35.064  32.796  21.765  1.00  0.00    -0.530 OA
HETATM   29  O3  UNL     1      36.862  31.457  21.724  1.00  0.00    -0.530 OA
ENDBRANCH  20  27
BRANCH  23  30
HETATM   30  O5  UNL     1      36.109  29.443  25.547  1.00  0.00    -0.371 OA
ATOM     31  H5  UNL     1      36.196  28.652  26.066  1.00  0.00     0.212 HD
ENDBRANCH  23  30
ENDBRANCH  16  18
ENDBRANCH  14  16
ENDBRANCH   1  14
BRANCH   1  32
HETATM   32  N7  UNL     1      30.774  30.621  27.285  1.00  0.00    -0.292 N 
HETATM   33  C9  UNL     1      29.547  29.945  27.110  1.00  0.00     0.340 C 
HETATM   34  O6  UNL     1      28.649  30.262  26.292  1.00  0.00    -0.245 OA
HETATM   35  N8  UNL     1      29.244  28.781  27.912  1.00  0.00    -0.258 N 
ATOM     36  H8  UNL     1      29.935  28.472  28.596  1.00  0.00     0.191 HD
ATOM     37  H7  UNL     1      31.424  30.260  27.983  1.00  0.00     0.172 HD
BRANCH  35  38
HETATM   38  N9  UNL     1      28.069  28.070  27.801  1.00  0.00    -0.341 N 
ATOM     39  H92 UNL     1      27.673  27.964  26.867  1.00  0.00     0.177 HD
ATOM     40  H91 UNL     1      27.589  27.653  28.599  1.00  0.00     0.177 HD
ENDBRANCH  35  38
ENDBRANCH   1  32
TORSDOF 12
ENDMDL
MODEL 3
REMARK VINA RESULT: -10.438015296      0.796      1.107
REMARK  12 active torsions:
REMARK  status: ('A' for Active; 'I' for Inactive)
REMARK    1  A    between atoms: N1_1  and  C1_4 
REMARK    2  A    between atoms: C2_7  and  S1_8 
REMARK    3  A    between atoms: S1_8  and  C3_9 
REMARK    4  A    between atoms: C3_9  and  C4_10 
REMARK    5  A    between atoms: C4_10  and  N3_11 
REMARK    6  A    between atoms: C4_10  and  N7_29 
REMARK    7  A    between atoms: N3_11  and  N4_13 
REMARK    8  A    between atoms: N4_13  and  C5_15 
REMARK    9  A    between atoms: C6_18  and  O1_19 
REMARK   10  A    between atoms: C6_18  and  N6_21 
REMARK   11  A    between atoms: C7_25  and  O5_26 
REMARK       I    between atoms: N7_29  and  C9_31 
REMARK       I    between atoms: C9_31  and  N8_33 
REMARK   12  A    between atoms: N8_33  and  N9_35 
ROOT
HETATM    1  C4  UNL     1      31.154  31.984  26.641  1.00  0.00     0.130 C 
ENDROOT
BRANCH   1   2
HETATM    2  C3  UNL     1      31.361  33.243  27.322  1.00  0.00     0.102 C 
BRANCH   2   3
HETATM    3  S1  UNL     1      33.057  33.669  27.732  1.00  0.00    -0.071 SA
BRANCH   3   4
HETATM    4  C2  UNL     1      33.593  35.120  26.817  1.00  0.00     0.148 A 
HETATM    5  N2  UNL     1      33.452  36.399  27.120  1.00  0.00    -0.177 N 
HETATM    6  C1  UNL     1      33.914  37.300  26.318  1.00  0.00     0.683 A 
ATOM      7  H2  UNL     1      32.981  36.673  27.982  1.00  0.00     0.185 HD
HETATM    8  N10 UNL     1      34.527  36.894  25.195  1.00  0.00    -0.158 N 
HETATM    9  S2  UNL     1      34.423  35.218  25.319  1.00  0.00     0.028 SA
ATOM     10  H10 UNL     1      34.947  37.457  24.456  1.00  0.00     0.193 HD
BRANCH   6  11
HETATM   11  N1  UNL     1      33.817  38.600  26.541  1.00  0.00    -0.234 N 
ATOM     12  H12 UNL     1      33.272  39.161  25.888  1.00  0.00     0.174 HD
ATOM     13  H11 UNL     1      34.259  39.073  27.329  1.00  0.00     0.174 HD
ENDBRANCH   6  11
ENDBRANCH   3   4
ENDBRANCH   2   3
ENDBRANCH   1   2
BRANCH   1  14
HETATM   14  N3  UNL     1      31.307  31.946  25.338  1.00  0.00    -0.284 N 
ATOM     15  H3  UNL     1      31.085  32.789  24.807  1.00  0.00     0.188 HD
BRANCH  14  16
HETATM   16  N4  UNL     1      31.750  30.842  24.641  1.00  0.00    -0.287 N 
ATOM     17  H4  UNL     1      31.076  30.185  24.247  1.00  0.00     0.188 HD
BRANCH  16  18
HETATM   18  C5  UNL     1      33.130  30.620  24.470  1.00  0.00     0.102 C 
HETATM   19  N5  UNL     1      33.819  31.181  23.542  1.00  0.00    -0.300 N 
HETATM   20  C6  UNL     1      35.230  30.908  23.426  1.00  0.00     0.399 C 
ATOM     21  H5  UNL     1      33.368  31.819  22.887  1.00  0.00     0.168 HD
HETATM   22  O4  UNL     1      35.392  29.534  23.570  1.00  0.00    -0.285 OA
HETATM   23  C7  UNL     1      35.075  29.101  24.853  1.00  0.00     0.271 C 
HETATM   24  C8  UNL     1      33.826  29.698  25.403  1.00  0.00     0.138 C 
BRANCH  20  25
HETATM   25  O1  UNL     1      35.947  31.642  24.346  1.00  0.00    -0.327 OA
ATOM     26  H1  UNL     1      36.593  31.097  24.782  1.00  0.00     0.217 HD
ENDBRANCH  20  25
BRANCH  20  27
HETATM   27  N6  UNL     1      35.698  31.234  22.075  1.00  0.00    -0.063 N 
HETATM   28  O2  UNL     1      36.899  31.500  21.884  1.00  0.00    -0.530 OA
HETATM   29  O3  UNL     1      34.854  31.261  20.994  1.00  0.00    -0.530 OA
ENDBRANCH  20  27
BRANCH  23  30
HETATM   30  O5  UNL     1      36.161  29.403  25.678  1.00  0.00    -0.371 OA
ATOM     31  H5  UNL     1      36.789  28.695  25.593  1.00  0.00     0.212 HD
ENDBRANCH  23  30
ENDBRANCH  16  18
ENDBRANCH  14  16
ENDBRANCH   1  14
BRANCH   1  32
HETATM   32  N7  UNL     1      30.823  30.798  27.302  1.00  0.00    -0.292 N 
HETATM   33  C9  UNL     1      29.633  30.074  27.075  1.00  0.00     0.340 C 
HETATM   34  O6  UNL     1      28.730  30.389  26.261  1.00  0.00    -0.245 OA
HETATM   35  N8  UNL     1      29.377  28.857  27.813  1.00  0.00    -0.258 N 
ATOM     36  H8  UNL     1      30.074  28.546  28.490  1.00  0.00     0.191 HD
ATOM     37  H7  UNL     1      31.481  30.434  27.990  1.00  0.00     0.172 HD
BRANCH  35  38
HETATM   38  N9  UNL     1      28.240  28.096  27.648  1.00  0.00    -0.341 N 
ATOM     39  H92 UNL     1      27.371  28.591  27.447  1.00  0.00     0.177 HD
ATOM     40  H91 UNL     1      28.232  27.078  27.717  1.00  0.00     0.177 HD
ENDBRANCH  35  38
ENDBRANCH   1  32
TORSDOF 12
ENDMDL
MODEL 4
REMARK VINA RESULT: -10.189740959      1.248      2.117
REMARK  12 active torsions:
REMARK  status: ('A' for Active; 'I' for Inactive)
REMARK    1  A    between atoms: N1_1  and  C1_4 
REMARK    2  A    between atoms: C2_7  and  S1_8 
REMARK    3  A    between atoms: S1_8  and  C3_9 
REMARK    4  A    between atoms: C3_9  and  C4_10 
REMARK    5  A    between atoms: C4_10  and  N3_11 
REMARK    6  A    between atoms: C4_10  and  N7_29 
REMARK    7  A    between atoms: N3_11  and  N4_13 
REMARK    8  A    between atoms: N4_13  and  C5_15 
REMARK    9  A    between atoms: C6_18  and  O1_19 
REMARK   10  A    between atoms: C6_18  and  N6_21 
REMARK   11  A    between atoms: C7_25  and  O5_26 
REMARK       I    between atoms: N7_29  and  C9_31 
REMARK       I    between atoms: C9_31  and  N8_33 
REMARK   12  A    between atoms: N8_33  and  N9_35 
ROOT
HETATM    1  C4  UNL     1      30.984  31.885  26.507  1.00  0.00     0.130 C 
ENDROOT
BRANCH   1   2
HETATM    2  C3  UNL     1      31.226  33.146  27.172  1.00  0.00     0.102 C 
BRANCH   2   3
HETATM    3  S1  UNL     1      32.911  33.470  27.700  1.00  0.00    -0.071 SA
BRANCH   3   4
HETATM    4  C2  UNL     1      33.325  35.208  27.496  1.00  0.00     0.148 A 
HETATM    5  N2  UNL     1      33.265  35.960  26.410  1.00  0.00    -0.177 N 
HETATM    6  C1  UNL     1      33.611  37.202  26.474  1.00  0.00     0.683 A 
ATOM      7  H2  UNL     1      32.947  35.561  25.527  1.00  0.00     0.185 HD
HETATM    8  N10 UNL     1      34.022  37.685  27.656  1.00  0.00    -0.158 N 
HETATM    9  S2  UNL     1      33.902  36.334  28.654  1.00  0.00     0.028 SA
ATOM     10  H10 UNL     1      34.329  38.629  27.890  1.00  0.00     0.193 HD
BRANCH   6  11
HETATM   11  N1  UNL     1      33.583  38.026  25.439  1.00  0.00    -0.234 N 
ATOM     12  H12 UNL     1      32.712  38.111  24.916  1.00  0.00     0.174 HD
ATOM     13  H11 UNL     1      34.383  38.580  25.134  1.00  0.00     0.174 HD
ENDBRANCH   6  11
ENDBRANCH   3   4
ENDBRANCH   2   3
ENDBRANCH   1   2
BRANCH   1  14
HETATM   14  N3  UNL     1      31.031  31.852  25.196  1.00  0.00    -0.284 N 
ATOM     15  H3  UNL     1      30.304  31.330  24.706  1.00  0.00     0.188 HD
BRANCH  14  16
HETATM   16  N4  UNL     1      31.999  32.477  24.438  1.00  0.00    -0.287 N 
ATOM     17  H4  UNL     1      31.775  33.335  23.933  1.00  0.00     0.188 HD
BRANCH  16  18
HETATM   18  C5  UNL     1      33.296  31.934  24.361  1.00  0.00     0.102 C 
HETATM   19  N5  UNL     1      33.523  30.671  24.301  1.00  0.00    -0.300 N 
HETATM   20  C6  UNL     1      34.878  30.185  24.223  1.00  0.00     0.399 C 
ATOM     21  H5  UNL     1      32.745  30.012  24.309  1.00  0.00     0.168 HD
HETATM   22  O4  UNL     1      35.623  30.901  25.153  1.00  0.00    -0.285 OA
HETATM   23  C7  UNL     1      35.733  32.245  24.813  1.00  0.00     0.271 C 
HETATM   24  C8  UNL     1      34.458  32.858  24.346  1.00  0.00     0.138 C 
BRANCH  20  25
HETATM   25  O1  UNL     1      35.363  30.292  22.937  1.00  0.00    -0.327 OA
ATOM     26  H1  UNL     1      35.701  29.457  22.633  1.00  0.00     0.217 HD
ENDBRANCH  20  25
BRANCH  20  27
HETATM   27  N6  UNL     1      34.937  28.782  24.647  1.00  0.00    -0.063 N 
HETATM   28  O2  UNL     1      34.594  28.469  25.800  1.00  0.00    -0.530 OA
HETATM   29  O3  UNL     1      35.363  27.782  23.809  1.00  0.00    -0.530 OA
ENDBRANCH  20  27
BRANCH  23  30
HETATM   30  O5  UNL     1      36.712  32.348  23.823  1.00  0.00    -0.371 OA
ATOM     31  H5  UNL     1      36.267  32.401  22.985  1.00  0.00     0.212 HD
ENDBRANCH  23  30
ENDBRANCH  16  18
ENDBRANCH  14  16
ENDBRANCH   1  14
BRANCH   1  32
HETATM   32  N7  UNL     1      30.728  30.693  27.190  1.00  0.00    -0.292 N 
HETATM   33  C9  UNL     1      29.536  29.948  27.058  1.00  0.00     0.340 C 
HETATM   34  O6  UNL     1      28.566  30.247  26.319  1.00  0.00    -0.245 OA
HETATM   35  N8  UNL     1      29.362  28.727  27.811  1.00  0.00    -0.258 N 
ATOM     36  H8  UNL     1      30.116  28.428  28.429  1.00  0.00     0.191 HD
ATOM     37  H7  UNL     1      31.445  30.340  27.823  1.00  0.00     0.172 HD
BRANCH  35  38
HETATM   38  N9  UNL     1      28.229  27.946  27.736  1.00  0.00    -0.341 N 
ATOM     39  H92 UNL     1      27.499  28.241  27.088  1.00  0.00     0.177 HD
ATOM     40  H91 UNL     1      28.093  27.101  28.291  1.00  0.00     0.177 HD
ENDBRANCH  35  38
ENDBRANCH   1  32
TORSDOF 12
ENDMDL
MODEL 5
REMARK VINA RESULT: -10.059013049      1.382      1.770
REMARK  12 active torsions:
REMARK  status: ('A' for Active; 'I' for Inactive)
REMARK    1  A    between atoms: N1_1  and  C1_4 
REMARK    2  A    between atoms: C2_7  and  S1_8 
REMARK    3  A    between atoms: S1_8  and  C3_9 
REMARK    4  A    between atoms: C3_9  and  C4_10 
REMARK    5  A    between atoms: C4_10  and  N3_11 
REMARK    6  A    between atoms: C4_10  and  N7_29 
REMARK    7  A    between atoms: N3_11  and  N4_13 
REMARK    8  A    between atoms: N4_13  and  C5_15 
REMARK    9  A    between atoms: C6_18  and  O1_19 
REMARK   10  A    between atoms: C6_18  and  N6_21 
REMARK   11  A    between atoms: C7_25  and  O5_26 
REMARK       I    between atoms: N7_29  and  C9_31 
REMARK       I    between atoms: C9_31  and  N8_33 
REMARK   12  A    between atoms: N8_33  and  N9_35 
ROOT
HETATM    1  C4  UNL     1      31.149  31.436  26.584  1.00  0.00     0.130 C 
ENDROOT
BRANCH   1   2
HETATM    2  C3  UNL     1      31.265  32.840  26.909  1.00  0.00     0.102 C 
BRANCH   2   3
HETATM    3  S1  UNL     1      32.638  33.313  27.966  1.00  0.00    -0.071 SA
BRANCH   3   4
HETATM    4  C2  UNL     1      33.152  35.003  27.632  1.00  0.00     0.148 A 
HETATM    5  N2  UNL     1      33.085  35.690  26.504  1.00  0.00    -0.177 N 
HETATM    6  C1  UNL     1      33.514  36.907  26.471  1.00  0.00     0.683 A 
ATOM      7  H2  UNL     1      32.696  35.261  25.664  1.00  0.00     0.185 HD
HETATM    8  N10 UNL     1      34.018  37.432  27.599  1.00  0.00    -0.158 N 
HETATM    9  S2  UNL     1      33.861  36.155  28.686  1.00  0.00     0.028 SA
ATOM     10  H10 UNL     1      34.397  38.365  27.757  1.00  0.00     0.193 HD
BRANCH   6  11
HETATM   11  N1  UNL     1      33.486  37.667  25.389  1.00  0.00    -0.234 N 
ATOM     12  H12 UNL     1      34.215  38.370  25.276  1.00  0.00     0.174 HD
ATOM     13  H11 UNL     1      32.776  37.589  24.661  1.00  0.00     0.174 HD
ENDBRANCH   6  11
ENDBRANCH   3   4
ENDBRANCH   2   3
ENDBRANCH   1   2
BRANCH   1  14
HETATM   14  N3  UNL     1      31.304  31.069  25.334  1.00  0.00    -0.284 N 
ATOM     15  H3  UNL     1      30.508  31.175  24.704  1.00  0.00     0.188 HD
BRANCH  14  16
HETATM   16  N4  UNL     1      32.473  30.551  24.817  1.00  0.00    -0.287 N 
ATOM     17  H4  UNL     1      32.617  29.542  24.795  1.00  0.00     0.188 HD
BRANCH  16  18
HETATM   18  C5  UNL     1      33.468  31.414  24.317  1.00  0.00     0.102 C 
HETATM   19  N5  UNL     1      33.929  31.331  23.121  1.00  0.00    -0.300 N 
HETATM   20  C6  UNL     1      34.948  32.247  22.676  1.00  0.00     0.399 C 
ATOM     21  H5  UNL     1      33.574  30.616  22.486  1.00  0.00     0.168 HD
HETATM   22  O4  UNL     1      35.891  32.335  23.695  1.00  0.00    -0.285 OA
HETATM   23  C7  UNL     1      35.374  32.942  24.834  1.00  0.00     0.271 C 
HETATM   24  C8  UNL     1      34.012  32.469  25.208  1.00  0.00     0.138 C 
BRANCH  20  25
HETATM   25  O1  UNL     1      34.397  33.464  22.335  1.00  0.00    -0.327 OA
ATOM     26  H1  UNL     1      33.505  33.532  22.655  1.00  0.00     0.217 HD
ENDBRANCH  20  25
BRANCH  20  27
HETATM   27  N6  UNL     1      35.654  31.694  21.515  1.00  0.00    -0.063 N 
HETATM   28  O2  UNL     1      36.894  31.606  21.528  1.00  0.00    -0.530 OA
HETATM   29  O3  UNL     1      34.991  31.262  20.394  1.00  0.00    -0.530 OA
ENDBRANCH  20  27
BRANCH  23  30
HETATM   30  O5  UNL     1      35.364  34.320  24.608  1.00  0.00    -0.371 OA
ATOM     31  H5  UNL     1      34.600  34.676  25.046  1.00  0.00     0.212 HD
ENDBRANCH  23  30
ENDBRANCH  16  18
ENDBRANCH  14  16
ENDBRANCH   1  14
BRANCH   1  32
HETATM   32  N7  UNL     1      30.904  30.444  27.539  1.00  0.00    -0.292 N 
HETATM   33  C9  UNL     1      29.731  29.661  27.579  1.00  0.00     0.340 C 
HETATM   34  O6  UNL     1      28.769  29.743  26.777  1.00  0.00    -0.245 OA
HETATM   35  N8  UNL     1      29.567  28.660  28.610  1.00  0.00    -0.258 N 
ATOM     36  H8  UNL     1      30.316  28.543  29.293  1.00  0.00     0.191 HD
ATOM     37  H7  UNL     1      31.616  30.277  28.249  1.00  0.00     0.172 HD
BRANCH  35  38
HETATM   38  N9  UNL     1      28.452  27.858  28.716  1.00  0.00    -0.341 N 
ATOM     39  H92 UNL     1      28.588  26.852  28.613  1.00  0.00     0.177 HD
ATOM     40  H91 UNL     1      27.515  28.221  28.890  1.00  0.00     0.177 HD
ENDBRANCH  35  38
ENDBRANCH   1  32
TORSDOF 12
ENDMDL
