MODEL 1
REMARK VINA RESULT: -5.213748104      0.000      0.000
REMARK  4 active torsions:
REMARK  status: ('A' for Active; 'I' for Inactive)
REMARK    1  A    between atoms: S1_2  and  C2_3 
REMARK    2  A    between atoms: C4_5  and  O1_6 
REMARK    3  A    between atoms: C5_8  and  O2_9 
REMARK    4  A    between atoms: O2_9  and  C6_10 
ROOT
HETATM    1  C2  UNL     1     -26.289  -9.092   1.134  1.00  0.00     0.051 C 
HETATM    2  C3  UNL     1     -25.220  -8.077   0.880  1.00  0.00     0.049 C 
HETATM    3  C4  UNL     1     -23.991  -8.847   0.395  1.00  0.00     0.148 C 
HETATM    4  C5  UNL     1     -24.286 -10.229   0.930  1.00  0.00     0.151 C 
HETATM    5  C9  UNL     1     -25.743 -10.372   0.533  1.00  0.00     0.049 C 
ENDROOT
BRANCH   4   6
HETATM    6  O2  UNL     1     -23.476 -11.207   0.459  1.00  0.00    -0.378 OA
BRANCH   6   7
HETATM    7  C6  UNL     1     -23.312 -11.231  -0.913  1.00  0.00     0.122 A 
HETATM    8  C7  UNL     1     -22.198 -12.153  -1.382  1.00  0.00     0.034 A 
HETATM    9  C8  UNL     1     -23.638 -12.548  -1.570  1.00  0.00     0.034 A 
ENDBRANCH   6   7
ENDBRANCH   4   6
BRANCH   3  10
HETATM   10  O1  UNL     1     -22.825  -8.369   0.940  1.00  0.00    -0.393 OA
ATOM     11  H1  UNL     1     -22.916  -7.483   1.272  1.00  0.00     0.210 HD
ENDBRANCH   3  10
BRANCH   1  12
HETATM   12  S1  UNL     1     -27.877  -8.629   0.416  1.00  0.00    -0.169 SA
HETATM   13  C1  UNL     1     -27.729  -6.989  -0.313  1.00  0.00     0.090 C 
ENDBRANCH   1  12
TORSDOF 4
ENDMDL
MODEL 2
REMARK VINA RESULT: -4.915264339      1.679      1.919
REMARK  4 active torsions:
REMARK  status: ('A' for Active; 'I' for Inactive)
REMARK    1  A    between atoms: S1_2  and  C2_3 
REMARK    2  A    between atoms: C4_5  and  O1_6 
REMARK    3  A    between atoms: C5_8  and  O2_9 
REMARK    4  A    between atoms: O2_9  and  C6_10 
ROOT
HETATM    1  C2  UNL     1     -27.784  -8.722   0.413  1.00  0.00     0.051 C 
HETATM    2  C3  UNL     1     -26.865  -7.542   0.410  1.00  0.00     0.049 C 
HETATM    3  C4  UNL     1     -25.442  -8.095   0.509  1.00  0.00     0.148 C 
HETATM    4  C5  UNL     1     -25.703  -9.461   1.098  1.00  0.00     0.151 C 
HETATM    5  C9  UNL     1     -26.865  -9.915   0.236  1.00  0.00     0.049 C 
ENDROOT
BRANCH   4   6
HETATM    6  O2  UNL     1     -24.638 -10.297   1.091  1.00  0.00    -0.378 OA
BRANCH   6   7
HETATM    7  C6  UNL     1     -23.845 -10.238  -0.039  1.00  0.00     0.122 A 
HETATM    8  C7  UNL     1     -22.593 -11.096   0.044  1.00  0.00     0.034 A 
HETATM    9  C8  UNL     1     -23.750 -11.526  -0.816  1.00  0.00     0.034 A 
ENDBRANCH   6   7
ENDBRANCH   4   6
BRANCH   3  10
HETATM   10  O1  UNL     1     -24.652  -7.357   1.357  1.00  0.00    -0.393 OA
ATOM     11  H1  UNL     1     -25.144  -6.695   1.828  1.00  0.00     0.210 HD
ENDBRANCH   3  10
BRANCH   1  12
HETATM   12  S1  UNL     1     -29.038  -8.634  -0.880  1.00  0.00    -0.169 SA
HETATM   13  C1  UNL     1     -29.035 -10.184  -1.798  1.00  0.00     0.090 C 
ENDBRANCH   1  12
TORSDOF 4
ENDMDL
MODEL 3
REMARK VINA RESULT: -4.667423349      2.422      4.998
REMARK  4 active torsions:
REMARK  status: ('A' for Active; 'I' for Inactive)
REMARK    1  A    between atoms: S1_2  and  C2_3 
REMARK    2  A    between atoms: C4_5  and  O1_6 
REMARK    3  A    between atoms: C5_8  and  O2_9 
REMARK    4  A    between atoms: O2_9  and  C6_10 
ROOT
HETATM    1  C2  UNL     1     -23.667 -10.551   0.872  1.00  0.00     0.051 C 
HETATM    2  C3  UNL     1     -24.955 -11.263   0.607  1.00  0.00     0.049 C 
HETATM    3  C4  UNL     1     -26.047 -10.192   0.566  1.00  0.00     0.148 C 
HETATM    4  C5  UNL     1     -25.385  -9.074   1.336  1.00  0.00     0.151 C 
HETATM    5  C9  UNL     1     -24.007  -9.083   0.702  1.00  0.00     0.049 C 
ENDROOT
BRANCH   4   6
HETATM    6  O2  UNL     1     -26.025  -7.882   1.273  1.00  0.00    -0.378 OA
BRANCH   6   7
HETATM    7  C6  UNL     1     -26.646  -7.606   0.070  1.00  0.00     0.122 A 
HETATM    8  C7  UNL     1     -27.827  -6.656   0.194  1.00  0.00     0.034 A 
HETATM    9  C8  UNL     1     -26.527  -6.177  -0.393  1.00  0.00     0.034 A 
ENDBRANCH   6   7
ENDBRANCH   4   6
BRANCH   3  10
HETATM   10  O1  UNL     1     -27.196 -10.591   1.206  1.00  0.00    -0.393 OA
ATOM     11  H1  UNL     1     -27.649  -9.867   1.621  1.00  0.00     0.210 HD
ENDBRANCH   3  10
BRANCH   1  12
HETATM   12  S1  UNL     1     -22.341 -11.071  -0.234  1.00  0.00    -0.169 SA
HETATM   13  C1  UNL     1     -23.066 -11.890  -1.665  1.00  0.00     0.090 C 
ENDBRANCH   1  12
TORSDOF 4
ENDMDL
MODEL 4
REMARK VINA RESULT: -4.657000989      2.285      4.606
REMARK  4 active torsions:
REMARK  status: ('A' for Active; 'I' for Inactive)
REMARK    1  A    between atoms: S1_2  and  C2_3 
REMARK    2  A    between atoms: C4_5  and  O1_6 
REMARK    3  A    between atoms: C5_8  and  O2_9 
REMARK    4  A    between atoms: O2_9  and  C6_10 
ROOT
HETATM    1  C2  UNL     1     -23.604 -11.069  -1.049  1.00  0.00     0.051 C 
HETATM    2  C3  UNL     1     -22.341 -10.546  -0.440  1.00  0.00     0.049 C 
HETATM    3  C4  UNL     1     -22.756  -9.658   0.734  1.00  0.00     0.148 C 
HETATM    4  C5  UNL     1     -24.181  -9.326   0.356  1.00  0.00     0.151 C 
HETATM    5  C9  UNL     1     -24.684 -10.697  -0.052  1.00  0.00     0.049 C 
ENDROOT
BRANCH   4   6
HETATM    6  O2  UNL     1     -24.905  -8.729   1.333  1.00  0.00    -0.378 OA
BRANCH   6   7
HETATM    7  C6  UNL     1     -26.133  -8.233   0.940  1.00  0.00     0.122 A 
HETATM    8  C7  UNL     1     -26.430  -6.838   1.468  1.00  0.00     0.034 A 
HETATM    9  C8  UNL     1     -26.074  -7.041   0.020  1.00  0.00     0.034 A 
ENDBRANCH   6   7
ENDBRANCH   4   6
BRANCH   3  10
HETATM   10  O1  UNL     1     -22.008  -8.509   0.812  1.00  0.00    -0.393 OA
ATOM     11  H1  UNL     1     -22.305  -7.841   0.204  1.00  0.00     0.210 HD
ENDBRANCH   3  10
BRANCH   1  12
HETATM   12  S1  UNL     1     -23.547 -12.846  -1.355  1.00  0.00    -0.169 SA
HETATM   13  C1  UNL     1     -24.592 -13.224  -2.773  1.00  0.00     0.090 C 
ENDBRANCH   1  12
TORSDOF 4
ENDMDL
MODEL 5
REMARK VINA RESULT: -4.558910844      2.550      5.271
REMARK  4 active torsions:
REMARK  status: ('A' for Active; 'I' for Inactive)
REMARK    1  A    between atoms: S1_2  and  C2_3 
REMARK    2  A    between atoms: C4_5  and  O1_6 
REMARK    3  A    between atoms: C5_8  and  O2_9 
REMARK    4  A    between atoms: O2_9  and  C6_10 
ROOT
HETATM    1  C2  UNL     1     -23.781 -10.323   0.887  1.00  0.00     0.051 C 
HETATM    2  C3  UNL     1     -25.074 -11.070   0.804  1.00  0.00     0.049 C 
HETATM    3  C4  UNL     1     -26.157 -10.037   0.486  1.00  0.00     0.148 C 
HETATM    4  C5  UNL     1     -25.488  -8.764   0.948  1.00  0.00     0.151 C 
HETATM    5  C9  UNL     1     -24.108  -8.944   0.346  1.00  0.00     0.049 C 
ENDROOT
BRANCH   4   6
HETATM    6  O2  UNL     1     -26.118  -7.624   0.580  1.00  0.00    -0.378 OA
BRANCH   6   7
HETATM    7  C6  UNL     1     -26.804  -6.973   1.588  1.00  0.00     0.122 A 
HETATM    8  C7  UNL     1     -27.245  -5.565   1.222  1.00  0.00     0.034 A 
HETATM    9  C8  UNL     1     -28.251  -6.682   1.288  1.00  0.00     0.034 A 
ENDBRANCH   6   7
ENDBRANCH   4   6
BRANCH   3  10
HETATM   10  O1  UNL     1     -27.311 -10.252   1.199  1.00  0.00    -0.393 OA
ATOM     11  H1  UNL     1     -27.285 -11.061   1.696  1.00  0.00     0.210 HD
ENDBRANCH   3  10
BRANCH   1  12
HETATM   12  S1  UNL     1     -22.455 -11.118  -0.042  1.00  0.00    -0.169 SA
HETATM   13  C1  UNL     1     -23.163 -11.935  -1.482  1.00  0.00     0.090 C 
ENDBRANCH   1  12
TORSDOF 4
ENDMDL
