MODEL 1
REMARK VINA RESULT: -6.038754146      0.000      0.000
REMARK  4 active torsions:
REMARK  status: ('A' for Active; 'I' for Inactive)
REMARK    1  A    between atoms: O1_1  and  C1_3 
REMARK    2  A    between atoms: C1_3  and  C2_4 
REMARK    3  A    between atoms: C1_3  and  C8_13 
REMARK    4  A    between atoms: N2_8  and  C4_9 
ROOT
HETATM    1  C2  UNL     1     -24.107 -10.170   0.587  1.00  0.00     0.005 A 
HETATM    2  C3  UNL     1     -25.232 -10.865   0.997  1.00  0.00     0.118 A 
HETATM    3  N1  UNL     1     -26.210  -9.955   1.123  1.00  0.00    -0.309 N 
ATOM      4  H1  UNL     1     -27.161 -10.179   1.415  1.00  0.00     0.186 HD
HETATM    5  N2  UNL     1     -25.800  -8.744   0.827  1.00  0.00    -0.298 N 
HETATM    6  C7  UNL     1     -24.504  -8.864   0.495  1.00  0.00     0.121 A 
ENDROOT
BRANCH   1   7
HETATM    7  C1  UNL     1     -22.789 -10.807   0.326  1.00  0.00     0.158 C 
BRANCH   7   8
HETATM    8  O1  UNL     1     -21.843  -9.863  -0.052  1.00  0.00    -0.390 OA
ATOM      9  H1  UNL     1     -22.021  -9.020   0.349  1.00  0.00     0.210 HD
ENDBRANCH   7   8
BRANCH   7  10
HETATM   10  C8  UNL     1     -22.915 -11.938  -0.652  1.00  0.00     0.019 A 
HETATM   11  C9  UNL     1     -23.231 -11.709  -2.075  1.00  0.00     0.008 A 
HETATM   12  C10 UNL     1     -21.784 -12.002  -1.676  1.00  0.00     0.008 A 
ENDBRANCH   7  10
ENDBRANCH   1   7
BRANCH   5  13
HETATM   13  C4  UNL     1     -26.603  -7.544   0.862  1.00  0.00     0.107 A 
HETATM   14  C5  UNL     1     -27.580  -7.330  -0.308  1.00  0.00     0.029 A 
HETATM   15  C6  UNL     1     -26.396  -6.473  -0.154  1.00  0.00     0.029 A 
ENDBRANCH   5  13
TORSDOF 4
ENDMDL
MODEL 2
REMARK VINA RESULT: -5.935591351      2.222      5.158
REMARK  4 active torsions:
REMARK  status: ('A' for Active; 'I' for Inactive)
REMARK    1  A    between atoms: O1_1  and  C1_3 
REMARK    2  A    between atoms: C1_3  and  C2_4 
REMARK    3  A    between atoms: C1_3  and  C8_13 
REMARK    4  A    between atoms: N2_8  and  C4_9 
ROOT
HETATM    1  C2  UNL     1     -24.560  -9.621   0.587  1.00  0.00     0.005 A 
HETATM    2  C3  UNL     1     -23.205  -9.339   0.639  1.00  0.00     0.118 A 
HETATM    3  N1  UNL     1     -22.600 -10.262  -0.124  1.00  0.00    -0.309 N 
ATOM      4  H1  UNL     1     -21.592 -10.305  -0.274  1.00  0.00     0.186 HD
HETATM    5  N2  UNL     1     -23.456 -11.104  -0.654  1.00  0.00    -0.298 N 
HETATM    6  C7  UNL     1     -24.669 -10.718  -0.222  1.00  0.00     0.121 A 
ENDROOT
BRANCH   1   7
HETATM    7  C1  UNL     1     -25.598  -8.831   1.300  1.00  0.00     0.158 C 
BRANCH   7   8
HETATM    8  O1  UNL     1     -26.865  -9.353   1.077  1.00  0.00    -0.390 OA
ATOM      9  H1  UNL     1     -26.942  -9.699   0.195  1.00  0.00     0.210 HD
ENDBRANCH   7   8
BRANCH   7  10
HETATM   10  C8  UNL     1     -25.496  -7.372   0.967  1.00  0.00     0.019 A 
HETATM   11  C9  UNL     1     -26.236  -6.774  -0.162  1.00  0.00     0.008 A 
HETATM   12  C10 UNL     1     -26.767  -6.578   1.259  1.00  0.00     0.008 A 
ENDBRANCH   7  10
ENDBRANCH   1   7
BRANCH   5  13
HETATM   13  C4  UNL     1     -23.131 -12.212  -1.522  1.00  0.00     0.107 A 
HETATM   14  C5  UNL     1     -23.490 -12.054  -3.011  1.00  0.00     0.029 A 
HETATM   15  C6  UNL     1     -24.217 -13.009  -2.161  1.00  0.00     0.029 A 
ENDBRANCH   5  13
TORSDOF 4
ENDMDL
MODEL 3
REMARK VINA RESULT: -5.821858345      1.904      5.065
REMARK  4 active torsions:
REMARK  status: ('A' for Active; 'I' for Inactive)
REMARK    1  A    between atoms: O1_1  and  C1_3 
REMARK    2  A    between atoms: C1_3  and  C2_4 
REMARK    3  A    between atoms: C1_3  and  C8_13 
REMARK    4  A    between atoms: N2_8  and  C4_9 
ROOT
HETATM    1  C2  UNL     1     -25.035  -9.086   0.619  1.00  0.00     0.005 A 
HETATM    2  C3  UNL     1     -25.844 -10.179   0.883  1.00  0.00     0.118 A 
HETATM    3  N1  UNL     1     -25.240 -11.238   0.322  1.00  0.00    -0.309 N 
ATOM      4  H1  UNL     1     -25.610 -12.187   0.355  1.00  0.00     0.186 HD
HETATM    5  N2  UNL     1     -24.119 -10.908  -0.274  1.00  0.00    -0.298 N 
HETATM    6  C7  UNL     1     -23.982  -9.583  -0.098  1.00  0.00     0.121 A 
ENDROOT
BRANCH   1   7
HETATM    7  C1  UNL     1     -25.340  -7.702   1.068  1.00  0.00     0.158 C 
BRANCH   7   8
HETATM    8  O1  UNL     1     -25.997  -7.706   2.291  1.00  0.00    -0.390 OA
ATOM      9  H1  UNL     1     -25.381  -7.785   3.010  1.00  0.00     0.210 HD
ENDBRANCH   7   8
BRANCH   7  10
HETATM   10  C8  UNL     1     -26.075  -6.936   0.008  1.00  0.00     0.019 A 
HETATM   11  C9  UNL     1     -27.478  -7.232  -0.340  1.00  0.00     0.008 A 
HETATM   12  C10 UNL     1     -27.174  -6.026   0.549  1.00  0.00     0.008 A 
ENDBRANCH   7  10
ENDBRANCH   1   7
BRANCH   5  13
HETATM   13  C4  UNL     1     -23.231 -11.810  -0.972  1.00  0.00     0.107 A 
HETATM   14  C5  UNL     1     -23.269 -11.765  -2.511  1.00  0.00     0.029 A 
HETATM   15  C6  UNL     1     -23.786 -12.932  -1.782  1.00  0.00     0.029 A 
ENDBRANCH   5  13
TORSDOF 4
ENDMDL
MODEL 4
REMARK VINA RESULT: -5.575004811      0.822      1.038
REMARK  4 active torsions:
REMARK  status: ('A' for Active; 'I' for Inactive)
REMARK    1  A    between atoms: O1_1  and  C1_3 
REMARK    2  A    between atoms: C1_3  and  C2_4 
REMARK    3  A    between atoms: C1_3  and  C8_13 
REMARK    4  A    between atoms: N2_8  and  C4_9 
ROOT
HETATM    1  C2  UNL     1     -24.379  -9.679   0.470  1.00  0.00     0.005 A 
HETATM    2  C3  UNL     1     -25.649 -10.179   0.704  1.00  0.00     0.118 A 
HETATM    3  N1  UNL     1     -26.474  -9.121   0.706  1.00  0.00    -0.309 N 
ATOM      4  H1  UNL     1     -27.481  -9.185   0.855  1.00  0.00     0.186 HD
HETATM    5  N2  UNL     1     -25.835  -7.995   0.493  1.00  0.00    -0.298 N 
HETATM    6  C7  UNL     1     -24.541  -8.326   0.346  1.00  0.00     0.121 A 
ENDROOT
BRANCH   1   7
HETATM    7  C1  UNL     1     -23.158 -10.523   0.388  1.00  0.00     0.158 C 
BRANCH   7   8
HETATM    8  O1  UNL     1     -22.048  -9.766   0.037  1.00  0.00    -0.390 OA
ATOM      9  H1  UNL     1     -22.148  -8.863   0.316  1.00  0.00     0.210 HD
ENDBRANCH   7   8
BRANCH   7  10
HETATM   10  C8  UNL     1     -23.373 -11.704  -0.513  1.00  0.00     0.019 A 
HETATM   11  C9  UNL     1     -23.281 -11.593  -1.982  1.00  0.00     0.008 A 
HETATM   12  C10 UNL     1     -22.105 -12.192  -1.210  1.00  0.00     0.008 A 
ENDBRANCH   7  10
ENDBRANCH   1   7
BRANCH   5  13
HETATM   13  C4  UNL     1     -26.430  -6.679   0.435  1.00  0.00     0.107 A 
HETATM   14  C5  UNL     1     -26.963  -6.102   1.759  1.00  0.00     0.029 A 
HETATM   15  C6  UNL     1     -27.888  -6.503   0.690  1.00  0.00     0.029 A 
ENDBRANCH   5  13
TORSDOF 4
ENDMDL
MODEL 5
REMARK VINA RESULT: -5.543750882      2.121      5.329
REMARK  4 active torsions:
REMARK  status: ('A' for Active; 'I' for Inactive)
REMARK    1  A    between atoms: O1_1  and  C1_3 
REMARK    2  A    between atoms: C1_3  and  C2_4 
REMARK    3  A    between atoms: C1_3  and  C8_13 
REMARK    4  A    between atoms: N2_8  and  C4_9 
ROOT
HETATM    1  C2  UNL     1     -24.681  -9.291   0.757  1.00  0.00     0.005 A 
HETATM    2  C3  UNL     1     -23.491  -8.586   0.697  1.00  0.00     0.118 A 
HETATM    3  N1  UNL     1     -22.560  -9.458   0.279  1.00  0.00    -0.309 N 
ATOM      4  H1  UNL     1     -21.578  -9.219   0.141  1.00  0.00     0.186 HD
HETATM    5  N2  UNL     1     -23.059 -10.653   0.071  1.00  0.00    -0.298 N 
HETATM    6  C7  UNL     1     -24.368 -10.562   0.363  1.00  0.00     0.121 A 
ENDROOT
BRANCH   1   7
HETATM    7  C1  UNL     1     -25.977  -8.694   1.177  1.00  0.00     0.158 C 
BRANCH   7   8
HETATM    8  O1  UNL     1     -27.043  -9.315   0.540  1.00  0.00    -0.390 OA
ATOM      9  H1  UNL     1     -27.809  -8.753   0.527  1.00  0.00     0.210 HD
ENDBRANCH   7   8
BRANCH   7  10
HETATM   10  C8  UNL     1     -25.972  -7.204   1.000  1.00  0.00     0.019 A 
HETATM   11  C9  UNL     1     -26.374  -6.567  -0.270  1.00  0.00     0.008 A 
HETATM   12  C10 UNL     1     -27.365  -6.587   0.896  1.00  0.00     0.008 A 
ENDBRANCH   7  10
ENDBRANCH   1   7
BRANCH   5  13
HETATM   13  C4  UNL     1     -22.326 -11.813  -0.380  1.00  0.00     0.107 A 
HETATM   14  C5  UNL     1     -21.696 -11.731  -1.783  1.00  0.00     0.029 A 
HETATM   15  C6  UNL     1     -22.834 -12.625  -1.522  1.00  0.00     0.029 A 
ENDBRANCH   5  13
TORSDOF 4
ENDMDL
