MODEL 1
REMARK VINA RESULT: -7.899390410      0.000      0.000
REMARK  5 active torsions:
REMARK  status: ('A' for Active; 'I' for Inactive)
REMARK    1  A    between atoms: C6_6  and  C7_7 
REMARK    2  A    between atoms: N1_11  and  C11_12 
REMARK    3  A    between atoms: C13_20  and  C14_21 
REMARK    4  A    between atoms: C14_21  and  O2_22 
REMARK    5  A    between atoms: C14_21  and  C15_24 
ROOT
HETATM    1  C11 UNL     1      -0.250  43.198 -11.121  1.00  0.00     0.138 A 
HETATM    2  N2  UNL     1      -0.100  41.819 -10.945  1.00  0.00    -0.242 N 
ATOM      3  H2  UNL     1       0.684  41.384 -10.460  1.00  0.00     0.196 HD
HETATM    4  O1  UNL     1      -1.055  41.180 -11.462  1.00  0.00    -0.218 OA
HETATM    5  C12 UNL     1      -1.933  41.993 -12.026  1.00  0.00     0.176 A 
HETATM    6  N3  UNL     1      -2.974  41.555 -12.603  1.00  0.00    -0.378 N 
ATOM      7  H31 UNL     1      -3.651  42.182 -13.038  1.00  0.00     0.158 HD
ATOM      8  H32 UNL     1      -3.328  40.609 -12.748  1.00  0.00     0.158 HD
HETATM    9  C13 UNL     1      -1.457  43.266 -11.831  1.00  0.00     0.075 A 
ENDROOT
BRANCH   1  10
HETATM   10  N1  UNL     1       0.686  44.111 -10.639  1.00  0.00    -0.356 N 
HETATM   11  C7  UNL     1       1.701  44.838 -11.316  1.00  0.00     0.126 C 
HETATM   12  C8  UNL     1       2.876  43.923 -10.737  1.00  0.00     0.032 C 
HETATM   13  C9  UNL     1       2.460  43.933  -9.255  1.00  0.00     0.022 C 
HETATM   14  C10 UNL     1       0.977  44.388  -9.243  1.00  0.00     0.125 C 
BRANCH  11  15
HETATM   15  C6  UNL     1       2.110  46.180 -10.859  1.00  0.00     0.012 A 
HETATM   16  C4  UNL     1       1.510  47.400 -10.765  1.00  0.00    -0.046 A 
HETATM   17  C3  UNL     1       2.247  48.447 -10.350  1.00  0.00     0.022 A 
HETATM   18  C5  UNL     1       0.038  47.559 -11.122  1.00  0.00     0.049 C 
HETATM   19  C2  UNL     1       3.554  48.234 -10.045  1.00  0.00    -0.020 A 
HETATM   20  C1  UNL     1       4.569  49.252  -9.568  1.00  0.00     0.056 C 
HETATM   21  S1  UNL     1       3.736  46.579 -10.339  1.00  0.00    -0.097 SA
ENDBRANCH  11  15
ENDBRANCH   1  10
BRANCH   9  22
HETATM   22  C14 UNL     1      -2.054  44.533 -12.234  1.00  0.00     0.231 C 
BRANCH  22  23
HETATM   23  O2  UNL     1      -3.462  44.432 -12.093  1.00  0.00    -0.385 OA
ATOM     24  H2  UNL     1      -3.804  43.945 -12.833  1.00  0.00     0.210 HD
ENDBRANCH  22  23
BRANCH  22  25
HETATM   25  C15 UNL     1      -1.774  45.079 -13.597  1.00  0.00     0.269 C 
HETATM   26  C16 UNL     1      -2.468  44.372 -14.712  1.00  0.00     0.093 C 
HETATM   27  F1  UNL     1      -0.370  44.856 -13.840  1.00  0.00    -0.204 F 
HETATM   28  F2  UNL     1      -1.845  46.462 -13.661  1.00  0.00    -0.204 F 
ENDBRANCH  22  25
ENDBRANCH   9  22
TORSDOF 5
ENDMDL
MODEL 2
REMARK VINA RESULT: -7.810060088      1.517      1.806
REMARK  5 active torsions:
REMARK  status: ('A' for Active; 'I' for Inactive)
REMARK    1  A    between atoms: C6_6  and  C7_7 
REMARK    2  A    between atoms: N1_11  and  C11_12 
REMARK    3  A    between atoms: C13_20  and  C14_21 
REMARK    4  A    between atoms: C14_21  and  O2_22 
REMARK    5  A    between atoms: C14_21  and  C15_24 
ROOT
HETATM    1  C11 UNL     1      -0.169  44.104 -11.021  1.00  0.00     0.138 A 
HETATM    2  N2  UNL     1       0.406  42.911 -10.574  1.00  0.00    -0.242 N 
ATOM      3  H2  UNL     1       1.248  42.859 -10.002  1.00  0.00     0.196 HD
HETATM    4  O1  UNL     1      -0.248  41.907 -10.965  1.00  0.00    -0.218 OA
HETATM    5  C12 UNL     1      -1.295  42.264 -11.691  1.00  0.00     0.176 A 
HETATM    6  N3  UNL     1      -2.089  41.406 -12.183  1.00  0.00    -0.378 N 
ATOM      7  H31 UNL     1      -2.897  41.681 -12.742  1.00  0.00     0.158 HD
ATOM      8  H32 UNL     1      -2.105  40.387 -12.142  1.00  0.00     0.158 HD
HETATM    9  C13 UNL     1      -1.274  43.636 -11.746  1.00  0.00     0.075 A 
ENDROOT
BRANCH   1  10
HETATM   10  N1  UNL     1       0.380  45.349 -10.717  1.00  0.00    -0.356 N 
HETATM   11  C7  UNL     1       0.704  46.445 -11.559  1.00  0.00     0.126 C 
HETATM   12  C8  UNL     1       2.276  46.168 -11.475  1.00  0.00     0.032 C 
HETATM   13  C9  UNL     1       2.395  46.012  -9.948  1.00  0.00     0.022 C 
HETATM   14  C10 UNL     1       0.953  45.749  -9.443  1.00  0.00     0.125 C 
BRANCH  11  15
HETATM   15  C6  UNL     1       0.616  47.834 -11.069  1.00  0.00     0.012 A 
HETATM   16  C4  UNL     1      -0.396  48.696 -10.768  1.00  0.00    -0.046 A 
HETATM   17  C3  UNL     1      -0.080  49.952 -10.401  1.00  0.00     0.022 A 
HETATM   18  C5  UNL     1      -1.845  48.234 -10.846  1.00  0.00     0.049 C 
HETATM   19  C2  UNL     1       1.233  50.298 -10.349  1.00  0.00    -0.020 A 
HETATM   20  C1  UNL     1       1.820  51.642  -9.972  1.00  0.00     0.056 C 
HETATM   21  S1  UNL     1       2.008  48.868 -10.810  1.00  0.00    -0.097 SA
ENDBRANCH  11  15
ENDBRANCH   1  10
BRANCH   9  22
HETATM   22  C14 UNL     1      -2.216  44.535 -12.400  1.00  0.00     0.231 C 
BRANCH  22  23
HETATM   23  O2  UNL     1      -3.517  43.979 -12.294  1.00  0.00    -0.385 OA
ATOM     24  H2  UNL     1      -3.456  43.042 -12.439  1.00  0.00     0.210 HD
ENDBRANCH  22  23
BRANCH  22  25
HETATM   25  C15 UNL     1      -2.001  44.915 -13.829  1.00  0.00     0.269 C 
HETATM   26  C16 UNL     1      -2.646  44.009 -14.824  1.00  0.00     0.093 C 
HETATM   27  F1  UNL     1      -0.586  44.780 -14.074  1.00  0.00    -0.204 F 
HETATM   28  F2  UNL     1      -2.192  46.266 -14.074  1.00  0.00    -0.204 F 
ENDBRANCH  22  25
ENDBRANCH   9  22
TORSDOF 5
ENDMDL
MODEL 3
REMARK VINA RESULT: -7.748673292      1.208      2.293
REMARK  5 active torsions:
REMARK  status: ('A' for Active; 'I' for Inactive)
REMARK    1  A    between atoms: C6_6  and  C7_7 
REMARK    2  A    between atoms: N1_11  and  C11_12 
REMARK    3  A    between atoms: C13_20  and  C14_21 
REMARK    4  A    between atoms: C14_21  and  O2_22 
REMARK    5  A    between atoms: C14_21  and  C15_24 
ROOT
HETATM    1  C11 UNL     1      -0.136  43.206 -11.168  1.00  0.00     0.138 A 
HETATM    2  N2  UNL     1       0.000  41.834 -10.939  1.00  0.00    -0.242 N 
ATOM      3  H2  UNL     1       0.807  41.404 -10.486  1.00  0.00     0.196 HD
HETATM    4  O1  UNL     1      -0.998  41.193 -11.364  1.00  0.00    -0.218 OA
HETATM    5  C12 UNL     1      -1.896  41.999 -11.907  1.00  0.00     0.176 A 
HETATM    6  N3  UNL     1      -2.979  41.557 -12.396  1.00  0.00    -0.378 N 
ATOM      7  H31 UNL     1      -3.671  42.178 -12.815  1.00  0.00     0.158 HD
ATOM      8  H32 UNL     1      -3.359  40.614 -12.475  1.00  0.00     0.158 HD
HETATM    9  C13 UNL     1      -1.385  43.269 -11.802  1.00  0.00     0.075 A 
ENDROOT
BRANCH   1  10
HETATM   10  N1  UNL     1       0.847  44.119 -10.788  1.00  0.00    -0.356 N 
HETATM   11  C7  UNL     1       0.931  44.966  -9.651  1.00  0.00     0.126 C 
HETATM   12  C8  UNL     1       0.584  46.282 -10.487  1.00  0.00     0.032 C 
HETATM   13  C9  UNL     1       1.568  46.075 -11.653  1.00  0.00     0.022 C 
HETATM   14  C10 UNL     1       1.959  44.575 -11.604  1.00  0.00     0.125 C 
BRANCH  11  15
HETATM   15  C6  UNL     1       2.236  45.319  -9.059  1.00  0.00     0.012 A 
HETATM   16  C4  UNL     1       3.273  44.627  -8.509  1.00  0.00    -0.046 A 
HETATM   17  C3  UNL     1       4.304  45.321  -7.993  1.00  0.00     0.022 A 
HETATM   18  C5  UNL     1       3.252  43.104  -8.489  1.00  0.00     0.049 C 
HETATM   19  C2  UNL     1       4.260  46.678  -8.048  1.00  0.00    -0.020 A 
HETATM   20  C1  UNL     1       5.293  47.657  -7.531  1.00  0.00     0.056 C 
HETATM   21  S1  UNL     1       2.783  46.967  -8.817  1.00  0.00    -0.097 SA
ENDBRANCH  11  15
ENDBRANCH   1  10
BRANCH   9  22
HETATM   22  C14 UNL     1      -1.984  44.529 -12.222  1.00  0.00     0.231 C 
BRANCH  22  23
HETATM   23  O2  UNL     1      -3.386  44.449 -12.025  1.00  0.00    -0.385 OA
ATOM     24  H2  UNL     1      -3.814  44.529 -12.870  1.00  0.00     0.210 HD
ENDBRANCH  22  23
BRANCH  22  25
HETATM   25  C15 UNL     1      -1.749  45.028 -13.612  1.00  0.00     0.269 C 
HETATM   26  C16 UNL     1      -2.497  44.296 -14.676  1.00  0.00     0.093 C 
HETATM   27  F1  UNL     1      -0.359  44.776 -13.902  1.00  0.00    -0.204 F 
HETATM   28  F2  UNL     1      -1.804  46.409 -13.717  1.00  0.00    -0.204 F 
ENDBRANCH  22  25
ENDBRANCH   9  22
TORSDOF 5
ENDMDL
MODEL 4
REMARK VINA RESULT: -6.969910068      3.149      4.902
REMARK  5 active torsions:
REMARK  status: ('A' for Active; 'I' for Inactive)
REMARK    1  A    between atoms: C6_6  and  C7_7 
REMARK    2  A    between atoms: N1_11  and  C11_12 
REMARK    3  A    between atoms: C13_20  and  C14_21 
REMARK    4  A    between atoms: C14_21  and  O2_22 
REMARK    5  A    between atoms: C14_21  and  C15_24 
ROOT
HETATM    1  C11 UNL     1       3.034  45.878  -8.986  1.00  0.00     0.138 A 
HETATM    2  N2  UNL     1       4.184  45.548  -8.264  1.00  0.00    -0.242 N 
ATOM      3  H2  UNL     1       4.935  46.204  -8.049  1.00  0.00     0.196 HD
HETATM    4  O1  UNL     1       4.177  44.339  -7.911  1.00  0.00    -0.218 OA
HETATM    5  C12 UNL     1       3.083  43.719  -8.323  1.00  0.00     0.176 A 
HETATM    6  N3  UNL     1       2.876  42.494  -8.072  1.00  0.00    -0.378 N 
ATOM      7  H31 UNL     1       2.032  42.016  -8.389  1.00  0.00     0.158 HD
ATOM      8  H32 UNL     1       3.423  41.797  -7.566  1.00  0.00     0.158 HD
HETATM    9  C13 UNL     1       2.345  44.657  -9.002  1.00  0.00     0.075 A 
ENDROOT
BRANCH   1  10
HETATM   10  N1  UNL     1       2.818  47.161  -9.488  1.00  0.00    -0.356 N 
HETATM   11  C7  UNL     1       1.773  48.088  -9.234  1.00  0.00     0.126 C 
HETATM   12  C8  UNL     1       1.082  47.841 -10.654  1.00  0.00     0.032 C 
HETATM   13  C9  UNL     1       2.335  47.967 -11.539  1.00  0.00     0.022 C 
HETATM   14  C10 UNL     1       3.540  47.790 -10.580  1.00  0.00     0.125 C 
BRANCH  11  15
HETATM   15  C6  UNL     1       2.020  49.542  -9.267  1.00  0.00     0.012 A 
HETATM   16  C4  UNL     1       2.873  50.398  -8.636  1.00  0.00    -0.046 A 
HETATM   17  C3  UNL     1       2.754  51.717  -8.880  1.00  0.00     0.022 A 
HETATM   18  C5  UNL     1       3.932  49.860  -7.684  1.00  0.00     0.049 C 
HETATM   19  C2  UNL     1       1.789  52.128  -9.743  1.00  0.00    -0.020 A 
HETATM   20  C1  UNL     1       1.469  53.548 -10.162  1.00  0.00     0.056 C 
HETATM   21  S1  UNL     1       1.062  50.673 -10.204  1.00  0.00    -0.097 SA
ENDBRANCH  11  15
ENDBRANCH   1  10
BRANCH   9  22
HETATM   22  C14 UNL     1       1.042  44.504  -9.638  1.00  0.00     0.231 C 
BRANCH  22  23
HETATM   23  O2  UNL     1       0.278  43.578  -8.882  1.00  0.00    -0.385 OA
ATOM     24  H2  UNL     1       0.312  43.836  -7.968  1.00  0.00     0.210 HD
ENDBRANCH  22  23
BRANCH  22  25
HETATM   25  C15 UNL     1       0.967  44.089 -11.071  1.00  0.00     0.269 C 
HETATM   26  C16 UNL     1      -0.309  44.439 -11.761  1.00  0.00     0.093 C 
HETATM   27  F1  UNL     1       1.002  42.647 -11.077  1.00  0.00    -0.204 F 
HETATM   28  F2  UNL     1       2.111  44.392 -11.793  1.00  0.00    -0.204 F 
ENDBRANCH  22  25
ENDBRANCH   9  22
TORSDOF 5
ENDMDL
MODEL 5
REMARK VINA RESULT: -6.872143777      5.063      7.708
REMARK  5 active torsions:
REMARK  status: ('A' for Active; 'I' for Inactive)
REMARK    1  A    between atoms: C6_6  and  C7_7 
REMARK    2  A    between atoms: N1_11  and  C11_12 
REMARK    3  A    between atoms: C13_20  and  C14_21 
REMARK    4  A    between atoms: C14_21  and  O2_22 
REMARK    5  A    between atoms: C14_21  and  C15_24 
ROOT
HETATM    1  C11 UNL     1       2.518  49.684  -9.141  1.00  0.00     0.138 A 
HETATM    2  N2  UNL     1       3.193  49.254  -7.995  1.00  0.00    -0.242 N 
ATOM      3  H2  UNL     1       3.362  48.275  -7.761  1.00  0.00     0.196 HD
HETATM    4  O1  UNL     1       3.568  50.226  -7.286  1.00  0.00    -0.218 OA
HETATM    5  C12 UNL     1       3.217  51.382  -7.826  1.00  0.00     0.176 A 
HETATM    6  N3  UNL     1       3.498  52.488  -7.273  1.00  0.00    -0.378 N 
ATOM      7  H31 UNL     1       3.228  53.380  -7.689  1.00  0.00     0.158 HD
ATOM      8  H32 UNL     1       3.990  52.715  -6.409  1.00  0.00     0.158 HD
HETATM    9  C13 UNL     1       2.555  51.077  -8.989  1.00  0.00     0.075 A 
ENDROOT
BRANCH   1  10
HETATM   10  N1  UNL     1       2.005  48.787 -10.077  1.00  0.00    -0.356 N 
HETATM   11  C7  UNL     1       1.365  47.532  -9.898  1.00  0.00     0.126 C 
HETATM   12  C8  UNL     1       2.642  46.705 -10.388  1.00  0.00     0.032 C 
HETATM   13  C9  UNL     1       2.945  47.498 -11.672  1.00  0.00     0.022 C 
HETATM   14  C10 UNL     1       2.192  48.845 -11.516  1.00  0.00     0.125 C 
BRANCH  11  15
HETATM   15  C6  UNL     1       0.326  47.066 -10.836  1.00  0.00     0.012 A 
HETATM   16  C4  UNL     1      -0.884  47.533 -11.256  1.00  0.00    -0.046 A 
HETATM   17  C3  UNL     1      -1.606  46.772 -12.100  1.00  0.00     0.022 A 
HETATM   18  C5  UNL     1      -1.392  48.885 -10.776  1.00  0.00     0.049 C 
HETATM   19  C2  UNL     1      -1.092  45.577 -12.492  1.00  0.00    -0.020 A 
HETATM   20  C1  UNL     1      -1.721  44.561 -13.422  1.00  0.00     0.056 C 
HETATM   21  S1  UNL     1       0.390  45.531 -11.680  1.00  0.00    -0.097 SA
ENDBRANCH  11  15
ENDBRANCH   1  10
BRANCH   9  22
HETATM   22  C14 UNL     1       1.982  51.984  -9.976  1.00  0.00     0.231 C 
BRANCH  22  23
HETATM   23  O2  UNL     1       2.858  53.089 -10.134  1.00  0.00    -0.385 OA
ATOM     24  H2  UNL     1       3.599  52.813 -10.661  1.00  0.00     0.210 HD
ENDBRANCH  22  23
BRANCH  22  25
HETATM   25  C15 UNL     1       0.605  52.526  -9.765  1.00  0.00     0.269 C 
HETATM   26  C16 UNL     1       0.218  53.634 -10.687  1.00  0.00     0.093 C 
HETATM   27  F1  UNL     1       0.602  53.123  -8.453  1.00  0.00    -0.204 F 
HETATM   28  F2  UNL     1      -0.357  51.539  -9.617  1.00  0.00    -0.204 F 
ENDBRANCH  22  25
ENDBRANCH   9  22
TORSDOF 5
ENDMDL
