MODEL 1
REMARK VINA RESULT: -6.228184191      0.000      0.000
REMARK  4 active torsions:
REMARK  status: ('A' for Active; 'I' for Inactive)
REMARK    1  A    between atoms: C2_2  and  C3_3 
REMARK    2  A    between atoms: C3_3  and  C4_4 
REMARK    3  A    between atoms: C7_10  and  C8_11 
REMARK    4  A    between atoms: C9_12  and  C10_14 
ROOT
HETATM    1  C4  UNL     1      -2.446   1.584  11.246  1.00  0.00     0.013 A 
HETATM    2  C5  UNL     1      -3.514   0.730  11.250  1.00  0.00     0.032 A 
HETATM    3  C6  UNL     1      -3.658  -0.429  10.317  1.00  0.00     0.070 C 
HETATM    4  N1  UNL     1      -4.385   1.130  12.221  1.00  0.00    -0.295 N 
ATOM      5  H1  UNL     1      -5.270   0.673  12.444  1.00  0.00     0.187 HD
HETATM    6  N2  UNL     1      -3.902   2.208  12.831  1.00  0.00    -0.220 N 
HETATM    7  C7  UNL     1      -4.153   3.114  13.789  1.00  0.00     0.145 A 
HETATM    8  N3  UNL     1      -3.118   3.965  13.795  1.00  0.00    -0.282 N 
ATOM      9  H3  UNL     1      -3.019   4.766  14.417  1.00  0.00     0.188 HD
HETATM   10  N4  UNL     1      -2.256   3.608  12.881  1.00  0.00    -0.282 N 
ATOM     11  H4  UNL     1      -1.377   4.081  12.670  1.00  0.00     0.188 HD
HETATM   12  C12 UNL     1      -2.730   2.508  12.264  1.00  0.00     0.152 A 
ENDROOT
BRANCH   7  13
HETATM   13  C8  UNL     1      -5.306   3.207  14.697  1.00  0.00     0.072 C 
HETATM   14  C9  UNL     1      -5.464   2.410  15.726  1.00  0.00     0.031 C 
HETATM   15 BR1  UNL     1      -4.175   1.059  16.106  1.00  0.00    -0.050 Br
BRANCH  14  16
HETATM   16  C10 UNL     1      -6.629   2.577  16.571  1.00  0.00     0.022 C 
HETATM   17  C11 UNL     1      -7.033   3.958  16.941  1.00  0.00     0.062 C 
HETATM   18  S1  UNL     1      -7.448   1.257  17.049  1.00  0.00    -0.084 SA
ENDBRANCH  14  16
ENDBRANCH   7  13
BRANCH   1  19
HETATM   19  C3  UNL     1      -1.224   1.674  10.424  1.00  0.00     0.044 C 
BRANCH  19  20
HETATM   20  C2  UNL     1      -1.177   3.063   9.823  1.00  0.00     0.000 C 
HETATM   21  C1  UNL     1       0.242   3.565   9.752  1.00  0.00     0.005 C 
ENDBRANCH  19  20
ENDBRANCH   1  19
TORSDOF 4
ENDMDL
MODEL 2
REMARK VINA RESULT: -6.155666486      3.230      6.698
REMARK  4 active torsions:
REMARK  status: ('A' for Active; 'I' for Inactive)
REMARK    1  A    between atoms: C2_2  and  C3_3 
REMARK    2  A    between atoms: C3_3  and  C4_4 
REMARK    3  A    between atoms: C7_10  and  C8_11 
REMARK    4  A    between atoms: C9_12  and  C10_14 
ROOT
HETATM    1  C4  UNL     1      -5.172   3.052  15.253  1.00  0.00     0.013 A 
HETATM    2  C5  UNL     1      -5.387   4.322  14.795  1.00  0.00     0.032 A 
HETATM    3  C6  UNL     1      -6.060   5.393  15.591  1.00  0.00     0.070 C 
HETATM    4  N1  UNL     1      -4.898   4.413  13.524  1.00  0.00    -0.295 N 
ATOM      5  H1  UNL     1      -4.925   5.249  12.940  1.00  0.00     0.187 HD
HETATM    6  N2  UNL     1      -4.380   3.242  13.165  1.00  0.00    -0.220 N 
HETATM    7  C7  UNL     1      -3.777   2.586  12.162  1.00  0.00     0.145 A 
HETATM    8  N3  UNL     1      -3.564   1.336  12.591  1.00  0.00    -0.282 N 
ATOM      9  H3  UNL     1      -3.120   0.595  12.049  1.00  0.00     0.188 HD
HETATM   10  N4  UNL     1      -4.014   1.211  13.811  1.00  0.00    -0.282 N 
ATOM     11  H4  UNL     1      -3.980   0.364  14.378  1.00  0.00     0.188 HD
HETATM   12  C12 UNL     1      -4.530   2.397  14.190  1.00  0.00     0.152 A 
ENDROOT
BRANCH   7  13
HETATM   13  C8  UNL     1      -3.386   3.083  10.833  1.00  0.00     0.072 C 
HETATM   14  C9  UNL     1      -2.316   3.814  10.637  1.00  0.00     0.031 C 
HETATM   15 BR1  UNL     1      -1.186   4.281  12.098  1.00  0.00    -0.050 Br
BRANCH  14  16
HETATM   16  C10 UNL     1      -2.006   4.256   9.292  1.00  0.00     0.022 C 
HETATM   17  C11 UNL     1      -0.743   3.777   8.673  1.00  0.00     0.062 C 
HETATM   18  S1  UNL     1      -3.057   5.228   8.523  1.00  0.00    -0.084 SA
ENDBRANCH  14  16
ENDBRANCH   7  13
BRANCH   1  19
HETATM   19  C3  UNL     1      -5.495   2.363  16.517  1.00  0.00     0.044 C 
BRANCH  19  20
HETATM   20  C2  UNL     1      -6.994   2.449  16.716  1.00  0.00     0.000 C 
HETATM   21  C1  UNL     1      -7.561   1.103  17.091  1.00  0.00     0.005 C 
ENDBRANCH  19  20
ENDBRANCH   1  19
TORSDOF 4
ENDMDL
MODEL 3
REMARK VINA RESULT: -6.025288623      4.036      5.080
REMARK  4 active torsions:
REMARK  status: ('A' for Active; 'I' for Inactive)
REMARK    1  A    between atoms: C2_2  and  C3_3 
REMARK    2  A    between atoms: C3_3  and  C4_4 
REMARK    3  A    between atoms: C7_10  and  C8_11 
REMARK    4  A    between atoms: C9_12  and  C10_14 
ROOT
HETATM    1  C4  UNL     1      -3.633   1.921  11.947  1.00  0.00     0.013 A 
HETATM    2  C5  UNL     1      -2.346   2.190  11.573  1.00  0.00     0.032 A 
HETATM    3  C6  UNL     1      -1.561   1.347  10.621  1.00  0.00     0.070 C 
HETATM    4  N1  UNL     1      -1.936   3.322  12.216  1.00  0.00    -0.295 N 
ATOM      5  H1  UNL     1      -1.015   3.752  12.123  1.00  0.00     0.187 HD
HETATM    6  N2  UNL     1      -2.922   3.776  12.984  1.00  0.00    -0.220 N 
HETATM    7  C7  UNL     1      -3.261   4.739  13.853  1.00  0.00     0.145 A 
HETATM    8  N3  UNL     1      -4.519   4.487  14.237  1.00  0.00    -0.282 N 
ATOM      9  H3  UNL     1      -5.057   5.049  14.897  1.00  0.00     0.188 HD
HETATM   10  N4  UNL     1      -4.951   3.412  13.634  1.00  0.00    -0.282 N 
ATOM     11  H4  UNL     1      -5.876   2.995  13.743  1.00  0.00     0.188 HD
HETATM   12  C12 UNL     1      -3.963   2.950  12.843  1.00  0.00     0.152 A 
ENDROOT
BRANCH   7  13
HETATM   13  C8  UNL     1      -2.465   5.882  14.327  1.00  0.00     0.072 C 
HETATM   14  C9  UNL     1      -2.417   7.026  13.687  1.00  0.00     0.031 C 
HETATM   15 BR1  UNL     1      -3.401   7.271  12.074  1.00  0.00    -0.050 Br
BRANCH  14  16
HETATM   16  C10 UNL     1      -1.609   8.100  14.230  1.00  0.00     0.022 C 
HETATM   17  C11 UNL     1      -1.933   8.600  15.591  1.00  0.00     0.062 C 
HETATM   18  S1  UNL     1      -0.381   8.684  13.340  1.00  0.00    -0.084 SA
ENDBRANCH  14  16
ENDBRANCH   7  13
BRANCH   1  19
HETATM   19  C3  UNL     1      -4.581   0.841  11.610  1.00  0.00     0.044 C 
BRANCH  19  20
HETATM   20  C2  UNL     1      -4.185  -0.383  12.410  1.00  0.00     0.000 C 
HETATM   21  C1  UNL     1      -3.805  -1.518  11.494  1.00  0.00     0.005 C 
ENDBRANCH  19  20
ENDBRANCH   1  19
TORSDOF 4
ENDMDL
MODEL 4
REMARK VINA RESULT: -6.022763133      3.474      5.442
REMARK  4 active torsions:
REMARK  status: ('A' for Active; 'I' for Inactive)
REMARK    1  A    between atoms: C2_2  and  C3_3 
REMARK    2  A    between atoms: C3_3  and  C4_4 
REMARK    3  A    between atoms: C7_10  and  C8_11 
REMARK    4  A    between atoms: C9_12  and  C10_14 
ROOT
HETATM    1  C4  UNL     1      -3.791   5.729  13.933  1.00  0.00     0.013 A 
HETATM    2  C5  UNL     1      -4.173   5.752  12.619  1.00  0.00     0.032 A 
HETATM    3  C6  UNL     1      -4.337   7.004  11.821  1.00  0.00     0.070 C 
HETATM    4  N1  UNL     1      -4.373   4.467  12.204  1.00  0.00    -0.295 N 
ATOM      5  H1  UNL     1      -4.664   4.189  11.267  1.00  0.00     0.187 HD
HETATM    6  N2  UNL     1      -4.130   3.634  13.212  1.00  0.00    -0.220 N 
HETATM    7  C7  UNL     1      -4.119   2.341  13.569  1.00  0.00     0.145 A 
HETATM    8  N3  UNL     1      -3.754   2.300  14.857  1.00  0.00    -0.282 N 
ATOM      9  H3  UNL     1      -3.655   1.451  15.414  1.00  0.00     0.188 HD
HETATM   10  N4  UNL     1      -3.545   3.514  15.290  1.00  0.00    -0.282 N 
ATOM     11  H4  UNL     1      -3.257   3.772  16.234  1.00  0.00     0.188 HD
HETATM   12  C12 UNL     1      -3.776   4.367  14.272  1.00  0.00     0.152 A 
ENDROOT
BRANCH   7  13
HETATM   13  C8  UNL     1      -4.423   1.153  12.757  1.00  0.00     0.072 C 
HETATM   14  C9  UNL     1      -3.642   0.737  11.790  1.00  0.00     0.031 C 
HETATM   15 BR1  UNL     1      -2.034   1.672  11.379  1.00  0.00    -0.050 Br
BRANCH  14  16
HETATM   16  C10 UNL     1      -4.019  -0.448  11.044  1.00  0.00     0.022 C 
HETATM   17  C11 UNL     1      -5.024  -0.301   9.960  1.00  0.00     0.062 C 
HETATM   18  S1  UNL     1      -3.311  -1.864  11.410  1.00  0.00    -0.084 SA
ENDBRANCH  14  16
ENDBRANCH   7  13
BRANCH   1  19
HETATM   19  C3  UNL     1      -3.466   6.784  14.911  1.00  0.00     0.044 C 
BRANCH  19  20
HETATM   20  C2  UNL     1      -2.082   7.304  14.582  1.00  0.00     0.000 C 
HETATM   21  C1  UNL     1      -1.805   8.588  15.321  1.00  0.00     0.005 C 
ENDBRANCH  19  20
ENDBRANCH   1  19
TORSDOF 4
ENDMDL
MODEL 5
REMARK VINA RESULT: -5.983518377      4.089      6.994
REMARK  4 active torsions:
REMARK  status: ('A' for Active; 'I' for Inactive)
REMARK    1  A    between atoms: C2_2  and  C3_3 
REMARK    2  A    between atoms: C3_3  and  C4_4 
REMARK    3  A    between atoms: C7_10  and  C8_11 
REMARK    4  A    between atoms: C9_12  and  C10_14 
ROOT
HETATM    1  C4  UNL     1      -4.521   5.446  13.801  1.00  0.00     0.013 A 
HETATM    2  C5  UNL     1      -4.730   5.998  12.567  1.00  0.00     0.032 A 
HETATM    3  C6  UNL     1      -6.009   6.650  12.152  1.00  0.00     0.070 C 
HETATM    4  N1  UNL     1      -3.597   5.837  11.824  1.00  0.00    -0.295 N 
ATOM      5  H1  UNL     1      -3.474   6.154  10.862  1.00  0.00     0.187 HD
HETATM    6  N2  UNL     1      -2.680   5.202  12.547  1.00  0.00    -0.220 N 
HETATM    7  C7  UNL     1      -1.433   4.707  12.522  1.00  0.00     0.145 A 
HETATM    8  N3  UNL     1      -1.213   4.155  13.722  1.00  0.00    -0.282 N 
ATOM      9  H3  UNL     1      -0.349   3.695  14.009  1.00  0.00     0.188 HD
HETATM   10  N4  UNL     1      -2.276   4.296  14.468  1.00  0.00    -0.282 N 
ATOM     11  H4  UNL     1      -2.382   3.968  15.428  1.00  0.00     0.188 HD
HETATM   12  C12 UNL     1      -3.209   4.951  13.749  1.00  0.00     0.152 A 
ENDROOT
BRANCH   7  13
HETATM   13  C8  UNL     1      -0.445   4.740  11.433  1.00  0.00     0.072 C 
HETATM   14  C9  UNL     1      -0.304   3.760  10.574  1.00  0.00     0.031 C 
HETATM   15 BR1  UNL     1      -1.399   2.206  10.695  1.00  0.00    -0.050 Br
BRANCH  14  16
HETATM   16  C10 UNL     1       0.694   3.880   9.530  1.00  0.00     0.022 C 
HETATM   17  C11 UNL     1       2.115   4.039   9.934  1.00  0.00     0.062 C 
HETATM   18  S1  UNL     1       0.217   3.811   7.977  1.00  0.00    -0.084 SA
ENDBRANCH  14  16
ENDBRANCH   7  13
BRANCH   1  19
HETATM   19  C3  UNL     1      -5.368   5.295  15.000  1.00  0.00     0.044 C 
BRANCH  19  20
HETATM   20  C2  UNL     1      -6.135   3.997  14.859  1.00  0.00     0.000 C 
HETATM   21  C1  UNL     1      -6.512   3.451  16.213  1.00  0.00     0.005 C 
ENDBRANCH  19  20
ENDBRANCH   1  19
TORSDOF 4
ENDMDL
