MODEL 1
REMARK VINA RESULT: -8.778227744      0.000      0.000
REMARK  10 active torsions:
REMARK  status: ('A' for Active; 'I' for Inactive)
REMARK    1  A    between atoms: N1_2  and  N2_3 
REMARK    2  A    between atoms: N1_2  and  C6_19 
REMARK    3  A    between atoms: N2_3  and  C2_5 
REMARK    4  A    between atoms: C2_5  and  N3_6 
REMARK    5  A    between atoms: C2_5  and  C3_10 
REMARK    6  A    between atoms: C6_19  and  C7_20 
REMARK    7  A    between atoms: C6_19  and  C8_23 
REMARK    8  A    between atoms: C9_25  and  C10_26 
REMARK    9  A    between atoms: C10_26  and  O4_27 
REMARK   10  A    between atoms: O4_27  and  N5_28 
ROOT
HETATM    1  C6  UNL     1      -7.335  30.093 -13.517  1.00  0.00     0.259 C 
ENDROOT
BRANCH   1   2
HETATM    2  N1  UNL     1      -6.368  30.175 -12.462  1.00  0.00    -0.313 N 
HETATM    3  C1  UNL     1      -6.516  29.256 -11.395  1.00  0.00     0.172 C 
BRANCH   2   4
HETATM    4  N2  UNL     1      -5.113  30.408 -12.938  1.00  0.00    -0.303 N 
ATOM      5  H2  UNL     1      -4.756  29.929 -13.765  1.00  0.00     0.182 HD
BRANCH   4   6
HETATM    6  C2  UNL     1      -4.317  31.364 -12.216  1.00  0.00     0.339 C 
BRANCH   6   7
HETATM    7  N3  UNL     1      -3.971  32.423 -13.130  1.00  0.00    -0.052 N 
ATOM      8  H33 UNL     1      -3.926  32.110 -14.100  1.00  0.00     0.277 HD
ATOM      9  H32 UNL     1      -4.719  33.108 -13.245  1.00  0.00     0.277 HD
ATOM     10  H31 UNL     1      -3.098  32.839 -12.805  1.00  0.00     0.277 HD
ENDBRANCH   6   7
BRANCH   6  11
HETATM   11  C3  UNL     1      -3.020  30.689 -11.815  1.00  0.00     0.064 A 
HETATM   12  S1  UNL     1      -2.370  29.334 -12.604  1.00  0.00    -0.064 SA
HETATM   13  C4  UNL     1      -0.927  28.926 -11.827  1.00  0.00     0.112 A 
HETATM   14  N4  UNL     1      -0.069  27.954 -12.074  1.00  0.00    -0.388 N 
HETATM   15  S2  UNL     1      -0.865  30.113 -10.622  1.00  0.00    -0.052 SA
ATOM     16  H42 UNL     1      -0.106  27.238 -12.801  1.00  0.00     0.157 HD
ATOM     17  H41 UNL     1       0.803  27.707 -11.606  1.00  0.00     0.157 HD
HETATM   18  C5  UNL     1      -2.233  31.096 -10.779  1.00  0.00     0.094 A 
HETATM   19 CL1  UNL     1      -2.478  32.444  -9.667  1.00  0.00    -0.075 Cl
ENDBRANCH   6  11
ENDBRANCH   4   6
ENDBRANCH   2   4
ENDBRANCH   1   2
BRANCH   1  20
HETATM   20  C7  UNL     1      -7.351  31.301 -14.371  1.00  0.00     0.205 C 
HETATM   21  O1  UNL     1      -7.714  31.253 -15.563  1.00  0.00    -0.646 OA
HETATM   22  O2  UNL     1      -6.956  32.509 -13.837  1.00  0.00    -0.646 OA
ENDBRANCH   1  20
BRANCH   1  23
HETATM   23  C8  UNL     1      -7.228  28.838 -14.321  1.00  0.00     0.095 A 
HETATM   24  O3  UNL     1      -6.389  28.658 -15.307  1.00  0.00    -0.313 OA
HETATM   25  C9  UNL     1      -6.506  27.466 -15.839  1.00  0.00     0.094 A 
HETATM   26  C11 UNL     1      -7.507  26.778 -15.161  1.00  0.00     0.051 A 
HETATM   27  C12 UNL     1      -7.947  27.669 -14.206  1.00  0.00    -0.009 A 
HETATM   28  C16 UNL     1      -8.071  25.463 -15.290  1.00  0.00     0.162 C 
HETATM   29  C13 UNL     1      -9.032  27.271 -13.280  1.00  0.00     0.043 C 
HETATM   30  C14 UNL     1      -9.184  25.804 -13.101  1.00  0.00     0.012 C 
HETATM   31  C15 UNL     1      -9.149  25.008 -14.376  1.00  0.00     0.084 C 
HETATM   32  O7  UNL     1      -7.687  24.647 -16.167  1.00  0.00    -0.292 OA
BRANCH  25  33
HETATM   33  C10 UNL     1      -5.741  26.876 -16.971  1.00  0.00     0.274 C 
BRANCH  33  34
HETATM   34  O4  UNL     1      -4.482  27.506 -17.033  1.00  0.00    -0.215 OA
BRANCH  34  35
HETATM   35  N5  UNL     1      -3.653  27.185 -18.072  1.00  0.00     0.005 N 
HETATM   36  O5  UNL     1      -3.243  26.021 -18.178  1.00  0.00    -0.511 OA
HETATM   37  O6  UNL     1      -3.299  28.156 -18.962  1.00  0.00    -0.511 OA
ENDBRANCH  34  35
ENDBRANCH  33  34
ENDBRANCH  25  33
ENDBRANCH   1  23
TORSDOF 10
ENDMDL
MODEL 2
REMARK VINA RESULT: -8.728170111      1.066      1.338
REMARK  10 active torsions:
REMARK  status: ('A' for Active; 'I' for Inactive)
REMARK    1  A    between atoms: N1_2  and  N2_3 
REMARK    2  A    between atoms: N1_2  and  C6_19 
REMARK    3  A    between atoms: N2_3  and  C2_5 
REMARK    4  A    between atoms: C2_5  and  N3_6 
REMARK    5  A    between atoms: C2_5  and  C3_10 
REMARK    6  A    between atoms: C6_19  and  C7_20 
REMARK    7  A    between atoms: C6_19  and  C8_23 
REMARK    8  A    between atoms: C9_25  and  C10_26 
REMARK    9  A    between atoms: C10_26  and  O4_27 
REMARK   10  A    between atoms: O4_27  and  N5_28 
ROOT
HETATM    1  C6  UNL     1      -7.115  30.001 -13.485  1.00  0.00     0.259 C 
ENDROOT
BRANCH   1   2
HETATM    2  N1  UNL     1      -6.107  30.007 -12.465  1.00  0.00    -0.313 N 
HETATM    3  C1  UNL     1      -6.547  30.262 -11.144  1.00  0.00     0.172 C 
BRANCH   2   4
HETATM    4  N2  UNL     1      -5.182  29.026 -12.656  1.00  0.00    -0.303 N 
ATOM      5  H2  UNL     1      -5.356  28.063 -12.369  1.00  0.00     0.182 HD
BRANCH   4   6
HETATM    6  C2  UNL     1      -3.947  29.416 -13.281  1.00  0.00     0.339 C 
BRANCH   6   7
HETATM    7  N3  UNL     1      -3.499  28.310 -14.089  1.00  0.00    -0.052 N 
ATOM      8  H33 UNL     1      -2.832  27.710 -13.605  1.00  0.00     0.277 HD
ATOM      9  H32 UNL     1      -4.225  27.609 -14.240  1.00  0.00     0.277 HD
ATOM     10  H31 UNL     1      -3.130  28.694 -14.959  1.00  0.00     0.277 HD
ENDBRANCH   6   7
BRANCH   6  11
HETATM   11  C3  UNL     1      -2.911  29.614 -12.193  1.00  0.00     0.064 A 
HETATM   12  S1  UNL     1      -1.870  28.394 -11.638  1.00  0.00    -0.064 SA
HETATM   13  C4  UNL     1      -0.891  29.057 -10.432  1.00  0.00     0.112 A 
HETATM   14  N4  UNL     1       0.064  28.505  -9.707  1.00  0.00    -0.388 N 
HETATM   15  S2  UNL     1      -1.466  30.648 -10.391  1.00  0.00    -0.052 SA
ATOM     16  H42 UNL     1       0.411  27.545  -9.731  1.00  0.00     0.157 HD
ATOM     17  H41 UNL     1       0.655  28.905  -8.979  1.00  0.00     0.157 HD
HETATM   18  C5  UNL     1      -2.700  30.793 -11.541  1.00  0.00     0.094 A 
HETATM   19 CL1  UNL     1      -3.521  32.339 -11.758  1.00  0.00    -0.075 Cl
ENDBRANCH   6  11
ENDBRANCH   4   6
ENDBRANCH   2   4
ENDBRANCH   1   2
BRANCH   1  20
HETATM   20  C7  UNL     1      -7.102  31.232 -14.307  1.00  0.00     0.205 C 
HETATM   21  O1  UNL     1      -6.409  32.220 -13.992  1.00  0.00    -0.646 OA
HETATM   22  O2  UNL     1      -7.873  31.289 -15.448  1.00  0.00    -0.646 OA
ENDBRANCH   1  20
BRANCH   1  23
HETATM   23  C8  UNL     1      -7.098  28.765 -14.325  1.00  0.00     0.095 A 
HETATM   24  O3  UNL     1      -6.313  28.578 -15.353  1.00  0.00    -0.313 OA
HETATM   25  C9  UNL     1      -6.504  27.406 -15.909  1.00  0.00     0.094 A 
HETATM   26  C11 UNL     1      -7.502  26.742 -15.203  1.00  0.00     0.051 A 
HETATM   27  C12 UNL     1      -7.860  27.624 -14.206  1.00  0.00    -0.009 A 
HETATM   28  C16 UNL     1      -8.127  25.456 -15.338  1.00  0.00     0.162 C 
HETATM   29  C13 UNL     1      -8.918  27.246 -13.241  1.00  0.00     0.043 C 
HETATM   30  C14 UNL     1      -9.124  25.783 -13.091  1.00  0.00     0.012 C 
HETATM   31  C15 UNL     1      -9.180  25.021 -14.387  1.00  0.00     0.084 C 
HETATM   32  O7  UNL     1      -7.819  24.649 -16.252  1.00  0.00    -0.292 OA
BRANCH  25  33
HETATM   33  C10 UNL     1      -5.818  26.816 -17.090  1.00  0.00     0.274 C 
BRANCH  33  34
HETATM   34  O4  UNL     1      -4.513  27.345 -17.156  1.00  0.00    -0.215 OA
BRANCH  34  35
HETATM   35  N5  UNL     1      -3.804  27.164 -18.310  1.00  0.00     0.005 N 
HETATM   36  O5  UNL     1      -3.609  26.013 -18.723  1.00  0.00    -0.511 OA
HETATM   37  O6  UNL     1      -3.328  28.256 -18.976  1.00  0.00    -0.511 OA
ENDBRANCH  34  35
ENDBRANCH  33  34
ENDBRANCH  25  33
ENDBRANCH   1  23
TORSDOF 10
ENDMDL
MODEL 3
REMARK VINA RESULT: -8.437754749      1.560      2.030
REMARK  10 active torsions:
REMARK  status: ('A' for Active; 'I' for Inactive)
REMARK    1  A    between atoms: N1_2  and  N2_3 
REMARK    2  A    between atoms: N1_2  and  C6_19 
REMARK    3  A    between atoms: N2_3  and  C2_5 
REMARK    4  A    between atoms: C2_5  and  N3_6 
REMARK    5  A    between atoms: C2_5  and  C3_10 
REMARK    6  A    between atoms: C6_19  and  C7_20 
REMARK    7  A    between atoms: C6_19  and  C8_23 
REMARK    8  A    between atoms: C9_25  and  C10_26 
REMARK    9  A    between atoms: C10_26  and  O4_27 
REMARK   10  A    between atoms: O4_27  and  N5_28 
ROOT
HETATM    1  C6  UNL     1      -7.128  29.832 -13.559  1.00  0.00     0.259 C 
ENDROOT
BRANCH   1   2
HETATM    2  N1  UNL     1      -6.160  29.780 -12.502  1.00  0.00    -0.313 N 
HETATM    3  C1  UNL     1      -6.667  29.649 -11.187  1.00  0.00     0.172 C 
BRANCH   2   4
HETATM    4  N2  UNL     1      -5.068  29.042 -12.845  1.00  0.00    -0.303 N 
ATOM      5  H2  UNL     1      -5.101  28.023 -12.885  1.00  0.00     0.182 HD
BRANCH   4   6
HETATM    6  C2  UNL     1      -3.866  29.771 -13.149  1.00  0.00     0.339 C 
BRANCH   6   7
HETATM    7  N3  UNL     1      -2.912  28.834 -13.687  1.00  0.00    -0.052 N 
ATOM      8  H33 UNL     1      -2.961  28.758 -14.703  1.00  0.00     0.277 HD
ATOM      9  H32 UNL     1      -1.950  29.166 -13.623  1.00  0.00     0.277 HD
ATOM     10  H31 UNL     1      -3.057  27.942 -13.214  1.00  0.00     0.277 HD
ENDBRANCH   6   7
BRANCH   6  11
HETATM   11  C3  UNL     1      -3.288  30.288 -11.847  1.00  0.00     0.064 A 
HETATM   12  S1  UNL     1      -3.319  31.917 -11.373  1.00  0.00    -0.064 SA
HETATM   13  C4  UNL     1      -2.569  32.032  -9.864  1.00  0.00     0.112 A 
HETATM   14  N4  UNL     1      -2.352  33.082  -9.095  1.00  0.00    -0.388 N 
HETATM   15  S2  UNL     1      -2.156  30.414  -9.588  1.00  0.00    -0.052 SA
ATOM     16  H42 UNL     1      -2.601  34.058  -9.262  1.00  0.00     0.157 HD
ATOM     17  H41 UNL     1      -1.900  33.152  -8.184  1.00  0.00     0.157 HD
HETATM   18  C5  UNL     1      -2.680  29.502 -10.914  1.00  0.00     0.094 A 
HETATM   19 CL1  UNL     1      -2.404  27.759 -10.945  1.00  0.00    -0.075 Cl
ENDBRANCH   6  11
ENDBRANCH   4   6
ENDBRANCH   2   4
ENDBRANCH   1   2
BRANCH   1  20
HETATM   20  C7  UNL     1      -7.058  31.091 -14.334  1.00  0.00     0.205 C 
HETATM   21  O1  UNL     1      -6.377  32.061 -13.945  1.00  0.00    -0.646 OA
HETATM   22  O2  UNL     1      -7.762  31.195 -15.515  1.00  0.00    -0.646 OA
ENDBRANCH   1  20
BRANCH   1  23
HETATM   23  C8  UNL     1      -7.103  28.627 -14.442  1.00  0.00     0.095 A 
HETATM   24  O3  UNL     1      -6.323  28.485 -15.481  1.00  0.00    -0.313 OA
HETATM   25  C9  UNL     1      -6.506  27.331 -16.077  1.00  0.00     0.094 A 
HETATM   26  C11 UNL     1      -7.491  26.632 -15.388  1.00  0.00     0.051 A 
HETATM   27  C12 UNL     1      -7.852  27.474 -14.359  1.00  0.00    -0.009 A 
HETATM   28  C16 UNL     1      -8.104  25.344 -15.565  1.00  0.00     0.162 C 
HETATM   29  C13 UNL     1      -8.900  27.051 -13.401  1.00  0.00     0.043 C 
HETATM   30  C14 UNL     1      -9.089  25.581 -13.302  1.00  0.00     0.012 C 
HETATM   31  C15 UNL     1      -9.146  24.865 -14.623  1.00  0.00     0.084 C 
HETATM   32  O7  UNL     1      -7.793  24.573 -16.509  1.00  0.00    -0.292 OA
BRANCH  25  33
HETATM   33  C10 UNL     1      -5.821  26.790 -17.282  1.00  0.00     0.274 C 
BRANCH  33  34
HETATM   34  O4  UNL     1      -4.491  27.258 -17.285  1.00  0.00    -0.215 OA
BRANCH  34  35
HETATM   35  N5  UNL     1      -3.779  27.161 -18.447  1.00  0.00     0.005 N 
HETATM   36  O5  UNL     1      -3.552  26.041 -18.924  1.00  0.00    -0.511 OA
HETATM   37  O6  UNL     1      -3.335  28.302 -19.051  1.00  0.00    -0.511 OA
ENDBRANCH  34  35
ENDBRANCH  33  34
ENDBRANCH  25  33
ENDBRANCH   1  23
TORSDOF 10
ENDMDL
MODEL 4
REMARK VINA RESULT: -8.375046955      1.125      1.305
REMARK  10 active torsions:
REMARK  status: ('A' for Active; 'I' for Inactive)
REMARK    1  A    between atoms: N1_2  and  N2_3 
REMARK    2  A    between atoms: N1_2  and  C6_19 
REMARK    3  A    between atoms: N2_3  and  C2_5 
REMARK    4  A    between atoms: C2_5  and  N3_6 
REMARK    5  A    between atoms: C2_5  and  C3_10 
REMARK    6  A    between atoms: C6_19  and  C7_20 
REMARK    7  A    between atoms: C6_19  and  C8_23 
REMARK    8  A    between atoms: C9_25  and  C10_26 
REMARK    9  A    between atoms: C10_26  and  O4_27 
REMARK   10  A    between atoms: O4_27  and  N5_28 
ROOT
HETATM    1  C6  UNL     1      -7.566  30.800 -13.016  1.00  0.00     0.259 C 
ENDROOT
BRANCH   1   2
HETATM    2  N1  UNL     1      -6.492  30.843 -12.068  1.00  0.00    -0.313 N 
HETATM    3  C1  UNL     1      -6.730  30.228 -10.815  1.00  0.00     0.172 C 
BRANCH   2   4
HETATM    4  N2  UNL     1      -5.281  30.645 -12.659  1.00  0.00    -0.303 N 
ATOM      5  H2  UNL     1      -5.160  29.980 -13.424  1.00  0.00     0.182 HD
BRANCH   4   6
HETATM    6  C2  UNL     1      -4.181  31.421 -12.152  1.00  0.00     0.339 C 
BRANCH   6   7
HETATM    7  N3  UNL     1      -3.633  32.172 -13.253  1.00  0.00    -0.052 N 
ATOM      8  H33 UNL     1      -2.659  32.437 -13.107  1.00  0.00     0.277 HD
ATOM      9  H32 UNL     1      -3.495  31.606 -14.091  1.00  0.00     0.277 HD
ATOM     10  H31 UNL     1      -4.243  32.974 -13.413  1.00  0.00     0.277 HD
ENDBRANCH   6   7
BRANCH   6  11
HETATM   11  C3  UNL     1      -3.101  30.462 -11.694  1.00  0.00     0.064 A 
HETATM   12  S1  UNL     1      -3.038  28.822 -12.127  1.00  0.00    -0.064 SA
HETATM   13  C4  UNL     1      -1.675  28.145 -11.397  1.00  0.00     0.112 A 
HETATM   14  N4  UNL     1      -1.208  26.911 -11.437  1.00  0.00    -0.388 N 
HETATM   15  S2  UNL     1      -1.049  29.488 -10.580  1.00  0.00    -0.052 SA
ATOM     16  H42 UNL     1      -1.586  26.101 -11.929  1.00  0.00     0.157 HD
ATOM     17  H41 UNL     1      -0.385  26.501 -10.995  1.00  0.00     0.157 HD
HETATM   18  C5  UNL     1      -2.060  30.810 -10.885  1.00  0.00     0.094 A 
HETATM   19 CL1  UNL     1      -1.689  32.383 -10.175  1.00  0.00    -0.075 Cl
ENDBRANCH   6  11
ENDBRANCH   4   6
ENDBRANCH   2   4
ENDBRANCH   1   2
BRANCH   1  20
HETATM   20  C7  UNL     1      -7.603  31.994 -13.890  1.00  0.00     0.205 C 
HETATM   21  O1  UNL     1      -8.523  32.173 -14.713  1.00  0.00    -0.646 OA
HETATM   22  O2  UNL     1      -6.597  32.932 -13.792  1.00  0.00    -0.646 OA
ENDBRANCH   1  20
BRANCH   1  23
HETATM   23  C8  UNL     1      -7.613  29.529 -13.800  1.00  0.00     0.095 A 
HETATM   24  O3  UNL     1      -7.078  29.367 -14.982  1.00  0.00    -0.313 OA
HETATM   25  C9  UNL     1      -7.265  28.154 -15.442  1.00  0.00     0.094 A 
HETATM   26  C11 UNL     1      -7.988  27.432 -14.498  1.00  0.00     0.051 A 
HETATM   27  C12 UNL     1      -8.195  28.326 -13.469  1.00  0.00    -0.009 A 
HETATM   28  C16 UNL     1      -8.482  26.084 -14.443  1.00  0.00     0.162 C 
HETATM   29  C13 UNL     1      -8.946  27.896 -12.268  1.00  0.00     0.043 C 
HETATM   30  C14 UNL     1      -8.949  26.430 -12.032  1.00  0.00     0.012 C 
HETATM   31  C15 UNL     1      -9.226  25.598 -13.253  1.00  0.00     0.084 C 
HETATM   32  O7  UNL     1      -8.312  25.264 -15.381  1.00  0.00    -0.292 OA
BRANCH  25  33
HETATM   33  C10 UNL     1      -6.817  27.572 -16.736  1.00  0.00     0.274 C 
BRANCH  33  34
HETATM   34  O4  UNL     1      -5.467  27.189 -16.608  1.00  0.00    -0.215 OA
BRANCH  34  35
HETATM   35  N5  UNL     1      -5.034  26.108 -17.323  1.00  0.00     0.005 N 
HETATM   36  O5  UNL     1      -4.979  26.185 -18.557  1.00  0.00    -0.511 OA
HETATM   37  O6  UNL     1      -4.677  24.972 -16.657  1.00  0.00    -0.511 OA
ENDBRANCH  34  35
ENDBRANCH  33  34
ENDBRANCH  25  33
ENDBRANCH   1  23
TORSDOF 10
ENDMDL
MODEL 5
REMARK VINA RESULT: -8.359401359      1.288      1.485
REMARK  10 active torsions:
REMARK  status: ('A' for Active; 'I' for Inactive)
REMARK    1  A    between atoms: N1_2  and  N2_3 
REMARK    2  A    between atoms: N1_2  and  C6_19 
REMARK    3  A    between atoms: N2_3  and  C2_5 
REMARK    4  A    between atoms: C2_5  and  N3_6 
REMARK    5  A    between atoms: C2_5  and  C3_10 
REMARK    6  A    between atoms: C6_19  and  C7_20 
REMARK    7  A    between atoms: C6_19  and  C8_23 
REMARK    8  A    between atoms: C9_25  and  C10_26 
REMARK    9  A    between atoms: C10_26  and  O4_27 
REMARK   10  A    between atoms: O4_27  and  N5_28 
ROOT
HETATM    1  C6  UNL     1      -7.991  30.306 -13.396  1.00  0.00     0.259 C 
ENDROOT
BRANCH   1   2
HETATM    2  N1  UNL     1      -7.522  30.204 -12.045  1.00  0.00    -0.313 N 
HETATM    3  C1  UNL     1      -8.511  30.058 -11.042  1.00  0.00     0.172 C 
BRANCH   2   4
HETATM    4  N2  UNL     1      -6.396  29.444 -11.951  1.00  0.00    -0.303 N 
ATOM      5  H2  UNL     1      -6.253  28.623 -12.540  1.00  0.00     0.182 HD
BRANCH   4   6
HETATM    6  C2  UNL     1      -5.418  29.856 -10.981  1.00  0.00     0.339 C 
BRANCH   6   7
HETATM    7  N3  UNL     1      -5.563  31.278 -10.793  1.00  0.00    -0.052 N 
ATOM      8  H33 UNL     1      -6.526  31.596 -10.898  1.00  0.00     0.277 HD
ATOM      9  H32 UNL     1      -5.431  31.566  -9.823  1.00  0.00     0.277 HD
ATOM     10  H31 UNL     1      -4.919  31.740 -11.436  1.00  0.00     0.277 HD
ENDBRANCH   6   7
BRANCH   6  11
HETATM   11  C3  UNL     1      -4.042  29.629 -11.573  1.00  0.00     0.064 A 
HETATM   12  S1  UNL     1      -3.759  29.247 -13.202  1.00  0.00    -0.064 SA
HETATM   13  C4  UNL     1      -2.091  29.085 -13.414  1.00  0.00     0.112 A 
HETATM   14  N4  UNL     1      -1.391  28.796 -14.495  1.00  0.00    -0.388 N 
HETATM   15  S2  UNL     1      -1.538  29.395 -11.845  1.00  0.00    -0.052 SA
ATOM     16  H42 UNL     1      -1.725  28.608 -15.441  1.00  0.00     0.157 HD
ATOM     17  H41 UNL     1      -0.384  28.698 -14.623  1.00  0.00     0.157 HD
HETATM   18  C5  UNL     1      -2.881  29.706 -10.863  1.00  0.00     0.094 A 
HETATM   19 CL1  UNL     1      -2.652  30.071  -9.152  1.00  0.00    -0.075 Cl
ENDBRANCH   6  11
ENDBRANCH   4   6
ENDBRANCH   2   4
ENDBRANCH   1   2
BRANCH   1  20
HETATM   20  C7  UNL     1      -7.457  31.495 -14.096  1.00  0.00     0.205 C 
HETATM   21  O1  UNL     1      -8.042  31.991 -15.080  1.00  0.00    -0.646 OA
HETATM   22  O2  UNL     1      -6.285  32.070 -13.652  1.00  0.00    -0.646 OA
ENDBRANCH   1  20
BRANCH   1  23
HETATM   23  C8  UNL     1      -7.794  29.054 -14.186  1.00  0.00     0.095 A 
HETATM   24  O3  UNL     1      -7.021  28.952 -15.235  1.00  0.00    -0.313 OA
HETATM   25  C9  UNL     1      -7.031  27.741 -15.737  1.00  0.00     0.094 A 
HETATM   26  C11 UNL     1      -7.881  26.954 -14.967  1.00  0.00     0.051 A 
HETATM   27  C12 UNL     1      -8.350  27.809 -13.993  1.00  0.00    -0.009 A 
HETATM   28  C16 UNL     1      -8.286  25.577 -15.027  1.00  0.00     0.162 C 
HETATM   29  C13 UNL     1      -9.299  27.305 -12.974  1.00  0.00     0.043 C 
HETATM   30  C14 UNL     1      -9.252  25.835 -12.758  1.00  0.00     0.012 C 
HETATM   31  C15 UNL     1      -9.221  25.017 -14.020  1.00  0.00     0.084 C 
HETATM   32  O7  UNL     1      -7.876  24.791 -15.920  1.00  0.00    -0.292 OA
BRANCH  25  33
HETATM   33  C10 UNL     1      -6.293  27.220 -16.919  1.00  0.00     0.274 C 
BRANCH  33  34
HETATM   34  O4  UNL     1      -4.911  27.329 -16.663  1.00  0.00    -0.215 OA
BRANCH  34  35
HETATM   35  N5  UNL     1      -4.044  27.028 -17.676  1.00  0.00     0.005 N 
HETATM   36  O5  UNL     1      -3.642  27.936 -18.415  1.00  0.00    -0.511 OA
HETATM   37  O6  UNL     1      -3.646  25.734 -17.846  1.00  0.00    -0.511 OA
ENDBRANCH  34  35
ENDBRANCH  33  34
ENDBRANCH  25  33
ENDBRANCH   1  23
TORSDOF 10
ENDMDL
