MODEL 1
REMARK VINA RESULT: -7.058006053      0.000      0.000
REMARK  14 active torsions:
REMARK  status: ('A' for Active; 'I' for Inactive)
REMARK    1  A    between atoms: C2_2  and  C3_3 
REMARK    2  A    between atoms: C3_3  and  C5_5 
REMARK    3  A    between atoms: C5_5  and  C8_8 
REMARK    4  A    between atoms: C8_8  and  O2_10 
REMARK    5  A    between atoms: O2_10  and  C9_11 
REMARK    6  A    between atoms: C9_11  and  O3_12 
REMARK    7  A    between atoms: O3_12  and  C10_13 
REMARK    8  A    between atoms: C10_13  and  C11_15 
REMARK    9  A    between atoms: C11_15  and  C12_17 
REMARK   10  A    between atoms: C13_20  and  N2_21 
REMARK   11  A    between atoms: C17_25  and  N3_26 
REMARK   12  A    between atoms: C19_33  and  N5_34 
REMARK   13  A    between atoms: C20_37  and  N6_38 
REMARK   14  A    between atoms: N6_38  and  O5_40 
ROOT
HETATM    1  C12 UNL     1     -15.906  -9.020   8.771  1.00  0.00     0.102 A 
HETATM    2  N1  UNL     1     -16.950  -9.124   9.609  1.00  0.00    -0.190 N 
ATOM      3  H1  UNL     1     -17.687  -9.787   9.365  1.00  0.00     0.184 HD
HETATM    4  C13 UNL     1     -17.098  -8.422  10.743  1.00  0.00     0.682 A 
HETATM    5  N4  UNL     1     -16.123  -7.554  11.052  1.00  0.00    -0.175 N 
ATOM      6  H4  UNL     1     -16.211  -7.009  11.909  1.00  0.00     0.186 HD
HETATM    7  C19 UNL     1     -15.044  -7.373  10.290  1.00  0.00     0.145 A 
HETATM    8  C20 UNL     1     -14.911  -8.103   9.130  1.00  0.00     0.124 A 
ENDROOT
BRANCH   1   9
HETATM    9  C11 UNL     1     -15.756  -9.776   7.529  1.00  0.00     0.322 C 
HETATM   10  F1  UNL     1     -15.645 -11.135   7.769  1.00  0.00    -0.232 F 
BRANCH   9  11
HETATM   11  C10 UNL     1     -16.829  -9.600   6.535  1.00  0.00     0.301 C 
HETATM   12  O4  UNL     1     -18.052  -9.532   6.873  1.00  0.00    -0.261 OA
BRANCH  11  13
HETATM   13  O3  UNL     1     -16.554  -9.506   5.205  1.00  0.00    -0.292 OA
BRANCH  13  14
HETATM   14  C9  UNL     1     -15.760  -8.505   4.607  1.00  0.00     0.358 C 
BRANCH  14  15
HETATM   15  O2  UNL     1     -14.671  -9.119   3.944  1.00  0.00    -0.294 OA
BRANCH  15  16
HETATM   16  C8  UNL     1     -13.441  -9.329   4.532  1.00  0.00     0.269 C 
HETATM   17  O1  UNL     1     -13.149  -8.671   5.557  1.00  0.00    -0.264 OA
BRANCH  16  18
HETATM   18  C5  UNL     1     -12.444 -10.294   4.012  1.00  0.00     0.044 C 
HETATM   19  C6  UNL     1     -11.137  -9.496   3.886  1.00  0.00     0.026 C 
HETATM   20  C7  UNL     1     -12.774 -10.811   2.638  1.00  0.00     0.026 C 
BRANCH  18  21
HETATM   21  C3  UNL     1     -12.237 -11.454   4.961  1.00  0.00    -0.001 C 
HETATM   22  C4  UNL     1     -13.523 -12.179   5.248  1.00  0.00     0.011 C 
BRANCH  21  23
HETATM   23  C2  UNL     1     -11.341 -12.461   4.222  1.00  0.00     0.001 C 
HETATM   24  C1  UNL     1     -10.998 -13.621   5.157  1.00  0.00     0.005 C 
ENDBRANCH  21  23
ENDBRANCH  18  21
ENDBRANCH  16  18
ENDBRANCH  15  16
ENDBRANCH  14  15
ENDBRANCH  13  14
ENDBRANCH  11  13
ENDBRANCH   9  11
ENDBRANCH   1   9
BRANCH   8  25
HETATM   25  N6  UNL     1     -13.765  -7.926   8.308  1.00  0.00    -0.264 N 
ATOM     26  H6  UNL     1     -13.831  -7.384   7.446  1.00  0.00     0.194 HD
BRANCH  25  27
HETATM   27  O5  UNL     1     -12.667  -8.442   8.651  1.00  0.00    -0.289 OA
ATOM     28  H5  UNL     1     -12.035  -8.684   7.985  1.00  0.00     0.244 HD
ENDBRANCH  25  27
ENDBRANCH   8  25
BRANCH   4  29
HETATM   29  N2  UNL     1     -18.212  -8.535  11.625  1.00  0.00    -0.216 N 
HETATM   30  C14 UNL     1     -19.499  -8.904  11.052  1.00  0.00     0.141 C 
HETATM   31  C15 UNL     1     -20.311  -9.797  11.934  1.00  0.00     0.022 C 
HETATM   32  C16 UNL     1     -20.343  -9.223  13.339  1.00  0.00     0.036 C 
HETATM   33  C17 UNL     1     -18.940  -9.259  13.850  1.00  0.00     0.202 C 
HETATM   34  C18 UNL     1     -18.078  -8.291  13.034  1.00  0.00     0.173 C 
BRANCH  33  35
HETATM   35  N3  UNL     1     -18.911  -8.757  15.219  1.00  0.00    -0.073 N 
ATOM     36  H33 UNL     1     -18.904  -7.739  15.257  1.00  0.00     0.274 HD
ATOM     37  H32 UNL     1     -19.794  -8.914  15.707  1.00  0.00     0.274 HD
ATOM     38  H31 UNL     1     -18.119  -9.168  15.713  1.00  0.00     0.274 HD
ENDBRANCH  33  35
ENDBRANCH   4  29
BRANCH   7  39
HETATM   39  N5  UNL     1     -14.140  -6.512  10.649  1.00  0.00    -0.383 N 
ATOM     40  H52 UNL     1     -13.876  -6.403  11.629  1.00  0.00     0.157 HD
ATOM     41  H51 UNL     1     -13.683  -5.935   9.944  1.00  0.00     0.157 HD
ENDBRANCH   7  39
TORSDOF 14
ENDMDL
MODEL 2
REMARK VINA RESULT: -6.950304719      2.689      5.287
REMARK  14 active torsions:
REMARK  status: ('A' for Active; 'I' for Inactive)
REMARK    1  A    between atoms: C2_2  and  C3_3 
REMARK    2  A    between atoms: C3_3  and  C5_5 
REMARK    3  A    between atoms: C5_5  and  C8_8 
REMARK    4  A    between atoms: C8_8  and  O2_10 
REMARK    5  A    between atoms: O2_10  and  C9_11 
REMARK    6  A    between atoms: C9_11  and  O3_12 
REMARK    7  A    between atoms: O3_12  and  C10_13 
REMARK    8  A    between atoms: C10_13  and  C11_15 
REMARK    9  A    between atoms: C11_15  and  C12_17 
REMARK   10  A    between atoms: C13_20  and  N2_21 
REMARK   11  A    between atoms: C17_25  and  N3_26 
REMARK   12  A    between atoms: C19_33  and  N5_34 
REMARK   13  A    between atoms: C20_37  and  N6_38 
REMARK   14  A    between atoms: N6_38  and  O5_40 
ROOT
HETATM    1  C12 UNL     1     -16.532  -8.495   9.623  1.00  0.00     0.102 A 
HETATM    2  N1  UNL     1     -16.708  -9.090   8.432  1.00  0.00    -0.190 N 
ATOM      3  H1  UNL     1     -15.958  -9.005   7.746  1.00  0.00     0.184 HD
HETATM    4  C13 UNL     1     -17.797  -9.789   8.078  1.00  0.00     0.682 A 
HETATM    5  N4  UNL     1     -18.776  -9.893   8.988  1.00  0.00    -0.175 N 
ATOM      6  H4  UNL     1     -19.614 -10.420   8.744  1.00  0.00     0.186 HD
HETATM    7  C19 UNL     1     -18.703  -9.340  10.200  1.00  0.00     0.145 A 
HETATM    8  C20 UNL     1     -17.576  -8.628  10.545  1.00  0.00     0.124 A 
ENDROOT
BRANCH   1   9
HETATM    9  C11 UNL     1     -15.350  -7.722  10.000  1.00  0.00     0.322 C 
HETATM   10  F1  UNL     1     -14.181  -8.364   9.630  1.00  0.00    -0.232 F 
BRANCH   9  11
HETATM   11  C10 UNL     1     -15.278  -6.352   9.464  1.00  0.00     0.301 C 
HETATM   12  O4  UNL     1     -14.881  -5.374  10.171  1.00  0.00    -0.261 OA
BRANCH  11  13
HETATM   13  O3  UNL     1     -15.641  -6.074   8.182  1.00  0.00    -0.292 OA
BRANCH  13  14
HETATM   14  C9  UNL     1     -14.765  -5.644   7.163  1.00  0.00     0.358 C 
BRANCH  14  15
HETATM   15  O2  UNL     1     -13.733  -6.601   7.011  1.00  0.00    -0.294 OA
BRANCH  15  16
HETATM   16  C8  UNL     1     -13.910  -7.821   6.393  1.00  0.00     0.269 C 
HETATM   17  O1  UNL     1     -15.051  -8.118   5.971  1.00  0.00    -0.264 OA
BRANCH  16  18
HETATM   18  C5  UNL     1     -12.816  -8.802   6.200  1.00  0.00     0.044 C 
HETATM   19  C6  UNL     1     -13.361 -10.128   6.752  1.00  0.00     0.026 C 
HETATM   20  C7  UNL     1     -11.576  -8.476   6.990  1.00  0.00     0.026 C 
BRANCH  18  21
HETATM   21  C3  UNL     1     -12.463  -8.971   4.738  1.00  0.00    -0.001 C 
HETATM   22  C4  UNL     1     -11.002  -8.718   4.482  1.00  0.00     0.011 C 
BRANCH  21  23
HETATM   23  C2  UNL     1     -12.698 -10.453   4.406  1.00  0.00     0.001 C 
HETATM   24  C1  UNL     1     -12.672 -10.647   2.891  1.00  0.00     0.005 C 
ENDBRANCH  21  23
ENDBRANCH  18  21
ENDBRANCH  16  18
ENDBRANCH  15  16
ENDBRANCH  14  15
ENDBRANCH  13  14
ENDBRANCH  11  13
ENDBRANCH   9  11
ENDBRANCH   1   9
BRANCH   8  25
HETATM   25  N6  UNL     1     -17.479  -8.036  11.834  1.00  0.00    -0.264 N 
ATOM     26  H6  UNL     1     -17.324  -7.032  11.926  1.00  0.00     0.194 HD
BRANCH  25  27
HETATM   27  O5  UNL     1     -17.586  -8.759  12.861  1.00  0.00    -0.289 OA
ATOM     28  H5  UNL     1     -16.807  -9.001  13.347  1.00  0.00     0.244 HD
ENDBRANCH  25  27
ENDBRANCH   8  25
BRANCH   4  29
HETATM   29  N2  UNL     1     -17.980 -10.414   6.810  1.00  0.00    -0.216 N 
HETATM   30  C14 UNL     1     -19.308 -10.367   6.214  1.00  0.00     0.141 C 
HETATM   31  C15 UNL     1     -19.290 -10.210   4.727  1.00  0.00     0.022 C 
HETATM   32  C16 UNL     1     -18.321 -11.212   4.127  1.00  0.00     0.036 C 
HETATM   33  C17 UNL     1     -16.961 -10.847   4.624  1.00  0.00     0.202 C 
HETATM   34  C18 UNL     1     -16.896 -11.073   6.138  1.00  0.00     0.173 C 
BRANCH  33  35
HETATM   35  N3  UNL     1     -15.975 -11.752   4.045  1.00  0.00    -0.073 N 
ATOM     36  H33 UNL     1     -16.376 -12.658   3.805  1.00  0.00     0.274 HD
ATOM     37  H32 UNL     1     -15.692 -11.467   3.108  1.00  0.00     0.274 HD
ATOM     38  H31 UNL     1     -15.181 -11.837   4.680  1.00  0.00     0.274 HD
ENDBRANCH  33  35
ENDBRANCH   4  29
BRANCH   7  39
HETATM   39  N5  UNL     1     -19.691  -9.480  11.031  1.00  0.00    -0.383 N 
ATOM     40  H52 UNL     1     -20.244 -10.337  11.054  1.00  0.00     0.157 HD
ATOM     41  H51 UNL     1     -19.921  -8.723  11.674  1.00  0.00     0.157 HD
ENDBRANCH   7  39
TORSDOF 14
ENDMDL
MODEL 3
REMARK VINA RESULT: -6.917782959      2.002      2.314
REMARK  14 active torsions:
REMARK  status: ('A' for Active; 'I' for Inactive)
REMARK    1  A    between atoms: C2_2  and  C3_3 
REMARK    2  A    between atoms: C3_3  and  C5_5 
REMARK    3  A    between atoms: C5_5  and  C8_8 
REMARK    4  A    between atoms: C8_8  and  O2_10 
REMARK    5  A    between atoms: O2_10  and  C9_11 
REMARK    6  A    between atoms: C9_11  and  O3_12 
REMARK    7  A    between atoms: O3_12  and  C10_13 
REMARK    8  A    between atoms: C10_13  and  C11_15 
REMARK    9  A    between atoms: C11_15  and  C12_17 
REMARK   10  A    between atoms: C13_20  and  N2_21 
REMARK   11  A    between atoms: C17_25  and  N3_26 
REMARK   12  A    between atoms: C19_33  and  N5_34 
REMARK   13  A    between atoms: C20_37  and  N6_38 
REMARK   14  A    between atoms: N6_38  and  O5_40 
ROOT
HETATM    1  C12 UNL     1     -15.067  -8.398   8.792  1.00  0.00     0.102 A 
HETATM    2  N1  UNL     1     -16.241  -8.309   9.438  1.00  0.00    -0.190 N 
ATOM      3  H1  UNL     1     -17.017  -7.863   8.948  1.00  0.00     0.184 HD
HETATM    4  C13 UNL     1     -16.470  -8.762  10.680  1.00  0.00     0.682 A 
HETATM    5  N4  UNL     1     -15.442  -9.346  11.313  1.00  0.00    -0.175 N 
ATOM      6  H4  UNL     1     -15.590  -9.700  12.258  1.00  0.00     0.186 HD
HETATM    7  C19 UNL     1     -14.235  -9.486  10.763  1.00  0.00     0.145 A 
HETATM    8  C20 UNL     1     -14.020  -9.014   9.487  1.00  0.00     0.124 A 
ENDROOT
BRANCH   1   9
HETATM    9  C11 UNL     1     -14.817  -7.889   7.444  1.00  0.00     0.322 C 
HETATM   10  F1  UNL     1     -15.868  -8.174   6.589  1.00  0.00    -0.232 F 
BRANCH   9  11
HETATM   11  C10 UNL     1     -14.557  -6.444   7.340  1.00  0.00     0.301 C 
HETATM   12  O4  UNL     1     -15.381  -5.580   7.775  1.00  0.00    -0.261 OA
BRANCH  11  13
HETATM   13  O3  UNL     1     -13.417  -5.969   6.767  1.00  0.00    -0.292 OA
BRANCH  13  14
HETATM   14  C9  UNL     1     -12.165  -6.620   6.783  1.00  0.00     0.358 C 
BRANCH  14  15
HETATM   15  O2  UNL     1     -12.053  -7.427   5.626  1.00  0.00    -0.294 OA
BRANCH  15  16
HETATM   16  C8  UNL     1     -11.629  -8.739   5.650  1.00  0.00     0.269 C 
HETATM   17  O1  UNL     1     -10.789  -9.080   6.514  1.00  0.00    -0.264 OA
BRANCH  16  18
HETATM   18  C5  UNL     1     -12.116  -9.770   4.702  1.00  0.00     0.044 C 
HETATM   19  C6  UNL     1     -11.124  -9.740   3.529  1.00  0.00     0.026 C 
HETATM   20  C7  UNL     1     -13.475  -9.462   4.133  1.00  0.00     0.026 C 
BRANCH  18  21
HETATM   21  C3  UNL     1     -12.120 -11.149   5.324  1.00  0.00    -0.001 C 
HETATM   22  C4  UNL     1     -13.516 -11.626   5.619  1.00  0.00     0.011 C 
BRANCH  21  23
HETATM   23  C2  UNL     1     -11.564 -12.105   4.257  1.00  0.00     0.001 C 
HETATM   24  C1  UNL     1     -12.614 -13.165   3.926  1.00  0.00     0.005 C 
ENDBRANCH  21  23
ENDBRANCH  18  21
ENDBRANCH  16  18
ENDBRANCH  15  16
ENDBRANCH  14  15
ENDBRANCH  13  14
ENDBRANCH  11  13
ENDBRANCH   9  11
ENDBRANCH   1   9
BRANCH   8  25
HETATM   25  N6  UNL     1     -12.742  -9.159   8.884  1.00  0.00    -0.264 N 
ATOM     26  H6  UNL     1     -12.226  -8.336   8.571  1.00  0.00     0.194 HD
BRANCH  25  27
HETATM   27  O5  UNL     1     -12.249 -10.310   8.738  1.00  0.00    -0.289 OA
ATOM     28  H5  UNL     1     -12.821 -11.044   8.552  1.00  0.00     0.244 HD
ENDBRANCH  25  27
ENDBRANCH   8  25
BRANCH   4  29
HETATM   29  N2  UNL     1     -17.717  -8.660  11.362  1.00  0.00    -0.216 N 
HETATM   30  C14 UNL     1     -18.932  -8.921  10.601  1.00  0.00     0.141 C 
HETATM   31  C15 UNL     1     -19.989  -9.626  11.388  1.00  0.00     0.022 C 
HETATM   32  C16 UNL     1     -20.172  -8.929  12.723  1.00  0.00     0.036 C 
HETATM   33  C17 UNL     1     -18.889  -9.087  13.471  1.00  0.00     0.202 C 
HETATM   34  C18 UNL     1     -17.783  -8.308  12.752  1.00  0.00     0.173 C 
BRANCH  33  35
HETATM   35  N3  UNL     1     -19.017  -8.472  14.786  1.00  0.00    -0.073 N 
ATOM     36  H33 UNL     1     -19.987  -8.274  15.028  1.00  0.00     0.274 HD
ATOM     37  H32 UNL     1     -18.810  -9.126  15.541  1.00  0.00     0.274 HD
ATOM     38  H31 UNL     1     -18.431  -7.638  14.828  1.00  0.00     0.274 HD
ENDBRANCH  33  35
ENDBRANCH   4  29
BRANCH   7  39
HETATM   39  N5  UNL     1     -13.284 -10.060  11.437  1.00  0.00    -0.383 N 
ATOM     40  H52 UNL     1     -12.476  -9.530  11.764  1.00  0.00     0.157 HD
ATOM     41  H51 UNL     1     -13.343 -11.056  11.645  1.00  0.00     0.157 HD
ENDBRANCH   7  39
TORSDOF 14
ENDMDL
MODEL 4
REMARK VINA RESULT: -6.902106964      1.865      3.159
REMARK  14 active torsions:
REMARK  status: ('A' for Active; 'I' for Inactive)
REMARK    1  A    between atoms: C2_2  and  C3_3 
REMARK    2  A    between atoms: C3_3  and  C5_5 
REMARK    3  A    between atoms: C5_5  and  C8_8 
REMARK    4  A    between atoms: C8_8  and  O2_10 
REMARK    5  A    between atoms: O2_10  and  C9_11 
REMARK    6  A    between atoms: C9_11  and  O3_12 
REMARK    7  A    between atoms: O3_12  and  C10_13 
REMARK    8  A    between atoms: C10_13  and  C11_15 
REMARK    9  A    between atoms: C11_15  and  C12_17 
REMARK   10  A    between atoms: C13_20  and  N2_21 
REMARK   11  A    between atoms: C17_25  and  N3_26 
REMARK   12  A    between atoms: C19_33  and  N5_34 
REMARK   13  A    between atoms: C20_37  and  N6_38 
REMARK   14  A    between atoms: N6_38  and  O5_40 
ROOT
HETATM    1  C12 UNL     1     -15.255  -8.384   9.147  1.00  0.00     0.102 A 
HETATM    2  N1  UNL     1     -15.910  -8.442  10.318  1.00  0.00    -0.190 N 
ATOM      3  H1  UNL     1     -15.371  -8.277  11.169  1.00  0.00     0.184 HD
HETATM    4  C13 UNL     1     -17.219  -8.700  10.453  1.00  0.00     0.682 A 
HETATM    5  N4  UNL     1     -17.916  -8.915   9.327  1.00  0.00    -0.175 N 
ATOM      6  H4  UNL     1     -18.913  -9.113   9.402  1.00  0.00     0.186 HD
HETATM    7  C19 UNL     1     -17.363  -8.881   8.114  1.00  0.00     0.145 A 
HETATM    8  C20 UNL     1     -16.018  -8.614   7.996  1.00  0.00     0.124 A 
ENDROOT
BRANCH   1   9
HETATM    9  C11 UNL     1     -13.824  -8.117   9.005  1.00  0.00     0.322 C 
HETATM   10  F1  UNL     1     -13.423  -7.054   9.797  1.00  0.00    -0.232 F 
BRANCH   9  11
HETATM   11  C10 UNL     1     -12.926  -9.244   9.308  1.00  0.00     0.301 C 
HETATM   12  O4  UNL     1     -13.069  -9.955  10.351  1.00  0.00    -0.261 OA
BRANCH  11  13
HETATM   13  O3  UNL     1     -11.896  -9.570   8.480  1.00  0.00    -0.292 OA
BRANCH  13  14
HETATM   14  C9  UNL     1     -10.962  -8.659   7.944  1.00  0.00     0.358 C 
BRANCH  14  15
HETATM   15  O2  UNL     1     -10.824  -8.907   6.557  1.00  0.00    -0.294 OA
BRANCH  15  16
HETATM   16  C8  UNL     1     -11.877  -8.869   5.668  1.00  0.00     0.269 C 
HETATM   17  O1  UNL     1     -12.670  -7.901   5.721  1.00  0.00    -0.264 OA
BRANCH  16  18
HETATM   18  C5  UNL     1     -12.122  -9.919   4.650  1.00  0.00     0.044 C 
HETATM   19  C6  UNL     1     -11.004  -9.741   3.611  1.00  0.00     0.026 C 
HETATM   20  C7  UNL     1     -13.427  -9.749   3.921  1.00  0.00     0.026 C 
BRANCH  18  21
HETATM   21  C3  UNL     1     -12.042 -11.308   5.244  1.00  0.00    -0.001 C 
HETATM   22  C4  UNL     1     -13.315 -11.688   5.950  1.00  0.00     0.011 C 
BRANCH  21  23
HETATM   23  C2  UNL     1     -11.912 -12.277   4.059  1.00  0.00     0.001 C 
HETATM   24  C1  UNL     1     -11.077 -13.486   4.479  1.00  0.00     0.005 C 
ENDBRANCH  21  23
ENDBRANCH  18  21
ENDBRANCH  16  18
ENDBRANCH  15  16
ENDBRANCH  14  15
ENDBRANCH  13  14
ENDBRANCH  11  13
ENDBRANCH   9  11
ENDBRANCH   1   9
BRANCH   8  25
HETATM   25  N6  UNL     1     -15.413  -8.569   6.711  1.00  0.00    -0.264 N 
ATOM     26  H6  UNL     1     -14.808  -9.330   6.402  1.00  0.00     0.194 HD
BRANCH  25  27
HETATM   27  O5  UNL     1     -15.631  -7.584   5.954  1.00  0.00    -0.289 OA
ATOM     28  H5  UNL     1     -16.205  -7.686   5.205  1.00  0.00     0.244 HD
ENDBRANCH  25  27
ENDBRANCH   8  25
BRANCH   4  29
HETATM   29  N2  UNL     1     -17.907  -8.765  11.700  1.00  0.00    -0.216 N 
HETATM   30  C14 UNL     1     -17.269  -8.159  12.860  1.00  0.00     0.141 C 
HETATM   31  C15 UNL     1     -18.232  -7.498  13.794  1.00  0.00     0.022 C 
HETATM   32  C16 UNL     1     -19.385  -8.444  14.080  1.00  0.00     0.036 C 
HETATM   33  C17 UNL     1     -20.100  -8.653  12.786  1.00  0.00     0.202 C 
HETATM   34  C18 UNL     1     -19.185  -9.408  11.816  1.00  0.00     0.173 C 
BRANCH  33  35
HETATM   35  N3  UNL     1     -21.250  -9.523  13.005  1.00  0.00    -0.073 N 
ATOM     36  H33 UNL     1     -21.439 -10.122  12.202  1.00  0.00     0.274 HD
ATOM     37  H32 UNL     1     -21.056 -10.255  13.689  1.00  0.00     0.274 HD
ATOM     38  H31 UNL     1     -22.058  -8.957  13.263  1.00  0.00     0.274 HD
ENDBRANCH  33  35
ENDBRANCH   4  29
BRANCH   7  39
HETATM   39  N5  UNL     1     -18.099  -9.102   7.066  1.00  0.00    -0.383 N 
ATOM     40  H52 UNL     1     -19.116  -9.040   7.113  1.00  0.00     0.157 HD
ATOM     41  H51 UNL     1     -17.656  -9.340   6.179  1.00  0.00     0.157 HD
ENDBRANCH   7  39
TORSDOF 14
ENDMDL
MODEL 5
REMARK VINA RESULT: -6.870238626      3.186      5.690
REMARK  14 active torsions:
REMARK  status: ('A' for Active; 'I' for Inactive)
REMARK    1  A    between atoms: C2_2  and  C3_3 
REMARK    2  A    between atoms: C3_3  and  C5_5 
REMARK    3  A    between atoms: C5_5  and  C8_8 
REMARK    4  A    between atoms: C8_8  and  O2_10 
REMARK    5  A    between atoms: O2_10  and  C9_11 
REMARK    6  A    between atoms: C9_11  and  O3_12 
REMARK    7  A    between atoms: O3_12  and  C10_13 
REMARK    8  A    between atoms: C10_13  and  C11_15 
REMARK    9  A    between atoms: C11_15  and  C12_17 
REMARK   10  A    between atoms: C13_20  and  N2_21 
REMARK   11  A    between atoms: C17_25  and  N3_26 
REMARK   12  A    between atoms: C19_33  and  N5_34 
REMARK   13  A    between atoms: C20_37  and  N6_38 
REMARK   14  A    between atoms: N6_38  and  O5_40 
ROOT
HETATM    1  C12 UNL     1     -18.453  -8.657  11.934  1.00  0.00     0.102 A 
HETATM    2  N1  UNL     1     -18.557  -9.209  10.715  1.00  0.00    -0.190 N 
ATOM      3  H1  UNL     1     -17.795  -9.047  10.056  1.00  0.00     0.184 HD
HETATM    4  C13 UNL     1     -19.589  -9.959  10.298  1.00  0.00     0.682 A 
HETATM    5  N4  UNL     1     -20.584 -10.165  11.173  1.00  0.00    -0.175 N 
ATOM      6  H4  UNL     1     -21.379 -10.732  10.881  1.00  0.00     0.186 HD
HETATM    7  C19 UNL     1     -20.580  -9.662  12.408  1.00  0.00     0.145 A 
HETATM    8  C20 UNL     1     -19.512  -8.896  12.818  1.00  0.00     0.124 A 
ENDROOT
BRANCH   1   9
HETATM    9  C11 UNL     1     -17.334  -7.828  12.380  1.00  0.00     0.322 C 
HETATM   10  F1  UNL     1     -17.011  -8.077  13.703  1.00  0.00    -0.232 F 
BRANCH   9  11
HETATM   11  C10 UNL     1     -16.090  -7.952  11.601  1.00  0.00     0.301 C 
HETATM   12  O4  UNL     1     -15.435  -9.039  11.552  1.00  0.00    -0.261 OA
BRANCH  11  13
HETATM   13  O3  UNL     1     -15.585  -6.900  10.901  1.00  0.00    -0.292 OA
BRANCH  13  14
HETATM   14  C9  UNL     1     -15.578  -6.786   9.494  1.00  0.00     0.358 C 
BRANCH  14  15
HETATM   15  O2  UNL     1     -14.251  -6.944   9.029  1.00  0.00    -0.294 OA
BRANCH  15  16
HETATM   16  C8  UNL     1     -13.897  -6.876   7.698  1.00  0.00     0.269 C 
HETATM   17  O1  UNL     1     -13.815  -5.749   7.158  1.00  0.00    -0.264 OA
BRANCH  16  18
HETATM   18  C5  UNL     1     -13.607  -8.071   6.871  1.00  0.00     0.044 C 
HETATM   19  C6  UNL     1     -14.824  -8.227   5.947  1.00  0.00     0.026 C 
HETATM   20  C7  UNL     1     -13.502  -9.341   7.673  1.00  0.00     0.026 C 
BRANCH  18  21
HETATM   21  C3  UNL     1     -12.359  -7.888   6.035  1.00  0.00    -0.001 C 
HETATM   22  C4  UNL     1     -11.108  -8.092   6.844  1.00  0.00     0.011 C 
BRANCH  21  23
HETATM   23  C2  UNL     1     -12.372  -9.013   4.987  1.00  0.00     0.001 C 
HETATM   24  C1  UNL     1     -11.051  -9.010   4.220  1.00  0.00     0.005 C 
ENDBRANCH  21  23
ENDBRANCH  18  21
ENDBRANCH  16  18
ENDBRANCH  15  16
ENDBRANCH  14  15
ENDBRANCH  13  14
ENDBRANCH  11  13
ENDBRANCH   9  11
ENDBRANCH   1   9
BRANCH   8  25
HETATM   25  N6  UNL     1     -19.489  -8.355  14.132  1.00  0.00    -0.264 N 
ATOM     26  H6  UNL     1     -19.600  -7.352  14.276  1.00  0.00     0.194 HD
BRANCH  25  27
HETATM   27  O5  UNL     1     -19.331  -9.125  15.118  1.00  0.00    -0.289 OA
ATOM     28  H5  UNL     1     -18.770  -8.858  15.836  1.00  0.00     0.244 HD
ENDBRANCH  25  27
ENDBRANCH   8  25
BRANCH   4  29
HETATM   29  N2  UNL     1     -19.695 -10.539   9.000  1.00  0.00    -0.216 N 
HETATM   30  C14 UNL     1     -20.912 -11.273   8.681  1.00  0.00     0.141 C 
HETATM   31  C15 UNL     1     -21.361 -11.098   7.266  1.00  0.00     0.022 C 
HETATM   32  C16 UNL     1     -20.183 -11.315   6.333  1.00  0.00     0.036 C 
HETATM   33  C17 UNL     1     -19.201 -10.227   6.620  1.00  0.00     0.202 C 
HETATM   34  C18 UNL     1     -18.640 -10.409   8.034  1.00  0.00     0.173 C 
BRANCH  33  35
HETATM   35  N3  UNL     1     -18.060 -10.356   5.722  1.00  0.00    -0.073 N 
ATOM     36  H33 UNL     1     -18.341 -10.382   4.742  1.00  0.00     0.274 HD
ATOM     37  H32 UNL     1     -17.496  -9.507   5.688  1.00  0.00     0.274 HD
ATOM     38  H31 UNL     1     -17.511 -11.174   5.988  1.00  0.00     0.274 HD
ENDBRANCH  33  35
ENDBRANCH   4  29
BRANCH   7  39
HETATM   39  N5  UNL     1     -21.580  -9.900  13.202  1.00  0.00    -0.383 N 
ATOM     40  H52 UNL     1     -22.516  -9.554  12.990  1.00  0.00     0.157 HD
ATOM     41  H51 UNL     1     -21.432 -10.443  14.053  1.00  0.00     0.157 HD
ENDBRANCH   7  39
TORSDOF 14
ENDMDL
