MODEL 1
REMARK VINA RESULT: -7.601173786      0.000      0.000
REMARK  17 active torsions:
REMARK  status: ('A' for Active; 'I' for Inactive)
REMARK    1  A    between atoms: C1_2  and  C2_3 
REMARK       I    between atoms: C1_2  and  N3_17 
REMARK    2  A    between atoms: C2_3  and  C3_4 
REMARK    3  A    between atoms: C3_4  and  C4_5 
REMARK    4  A    between atoms: C4_5  and  C5_6 
REMARK    5  A    between atoms: C5_6  and  C6_7 
REMARK    6  A    between atoms: C6_7  and  N1_8 
REMARK       I    between atoms: N1_8  and  C7_10 
REMARK       I    between atoms: C7_10  and  N2_12 
REMARK    7  A    between atoms: N3_17  and  C12_19 
REMARK    8  A    between atoms: C12_19  and  C13_20 
REMARK    9  A    between atoms: C13_20  and  C14_21 
REMARK   10  A    between atoms: C14_21  and  C15_22 
REMARK   11  A    between atoms: C15_22  and  C16_23 
REMARK   12  A    between atoms: C16_23  and  C17_24 
REMARK   13  A    between atoms: C18_27  and  C19_28 
REMARK   14  A    between atoms: C19_28  and  O3_29 
REMARK   15  A    between atoms: C20_31  and  O4_32 
REMARK   16  A    between atoms: C21_34  and  O5_35 
REMARK   17  A    between atoms: C22_37  and  O6_38 
ROOT
HETATM    1  C13 UNL     1       9.765  44.825  -9.300  1.00  0.00     0.020 C 
ENDROOT
BRANCH   1   2
HETATM    2  C12 UNL     1       8.512  45.484  -8.781  1.00  0.00     0.122 C 
BRANCH   2   3
HETATM    3  N3  UNL     1       7.760  44.570  -7.915  1.00  0.00    -0.361 N 
HETATM    4  C1  UNL     1       6.647  45.021  -7.164  1.00  0.00     0.217 C 
HETATM    5  O1  UNL     1       6.317  46.225  -7.260  1.00  0.00    -0.274 OA
ATOM      6  H3  UNL     1       8.044  43.592  -7.853  1.00  0.00     0.162 HD
BRANCH   4   7
HETATM    7  C2  UNL     1       5.930  44.063  -6.310  1.00  0.00     0.103 C 
BRANCH   7   8
HETATM    8  C3  UNL     1       6.810  43.300  -5.375  1.00  0.00     0.009 C 
BRANCH   8   9
HETATM    9  C4  UNL     1       6.122  42.588  -4.265  1.00  0.00     0.002 C 
BRANCH   9  10
HETATM   10  C5  UNL     1       6.915  42.593  -2.979  1.00  0.00     0.020 C 
BRANCH  10  11
HETATM   11  C6  UNL     1       8.394  42.477  -3.182  1.00  0.00     0.124 C 
BRANCH  11  12
HETATM   12  N1  UNL     1       8.869  41.338  -2.425  1.00  0.00    -0.343 N 
HETATM   13  C7  UNL     1       8.973  40.037  -2.995  1.00  0.00     0.318 C 
HETATM   14  O2  UNL     1       8.641  39.890  -4.205  1.00  0.00    -0.247 OA
HETATM   15  N2  UNL     1       9.433  38.931  -2.259  1.00  0.00    -0.334 N 
HETATM   16  C8  UNL     1       9.587  37.573  -2.716  1.00  0.00     0.127 C 
HETATM   17  C11 UNL     1       9.835  39.009  -0.851  1.00  0.00     0.127 C 
HETATM   18  C9  UNL     1       9.463  36.706  -1.479  1.00  0.00     0.022 C 
HETATM   19  C10 UNL     1       9.593  37.623  -0.309  1.00  0.00     0.022 C 
ATOM     20  H1  UNL     1       9.137  41.472  -1.450  1.00  0.00     0.164 HD
ENDBRANCH  11  12
ENDBRANCH  10  11
ENDBRANCH   9  10
ENDBRANCH   8   9
ENDBRANCH   7   8
ENDBRANCH   4   7
ENDBRANCH   2   3
ENDBRANCH   1   2
BRANCH   1  21
HETATM   21  C14 UNL     1       9.662  43.352  -9.483  1.00  0.00     0.002 C 
BRANCH  21  22
HETATM   22  C15 UNL     1      10.961  42.606  -9.424  1.00  0.00     0.002 C 
BRANCH  22  23
HETATM   23  C16 UNL     1      11.578  42.529  -8.074  1.00  0.00     0.027 C 
BRANCH  23  24
HETATM   24  C17 UNL     1      12.164  41.187  -7.718  1.00  0.00     0.108 C 
HETATM   25  N4  UNL     1      12.049  40.222  -8.757  1.00  0.00    -0.406 N 
HETATM   26  C18 UNL     1      12.627  38.948  -8.531  1.00  0.00     0.132 C 
ATOM     27  H4  UNL     1      11.569  40.440  -9.630  1.00  0.00     0.154 HD
HETATM   28  C20 UNL     1      12.811  38.653  -7.039  1.00  0.00     0.173 C 
HETATM   29  C21 UNL     1      11.513  39.147  -6.397  1.00  0.00     0.179 C 
HETATM   30  C22 UNL     1      11.574  40.649  -6.433  1.00  0.00     0.171 C 
BRANCH  26  31
HETATM   31  C19 UNL     1      13.986  38.855  -9.151  1.00  0.00     0.191 C 
BRANCH  31  32
HETATM   32  O3  UNL     1      14.587  37.629  -8.975  1.00  0.00    -0.399 OA
ATOM     33  H3  UNL     1      15.426  37.553  -9.413  1.00  0.00     0.209 HD
ENDBRANCH  31  32
ENDBRANCH  26  31
BRANCH  28  34
HETATM   34  O4  UNL     1      12.994  37.303  -6.820  1.00  0.00    -0.391 OA
ATOM     35  H4  UNL     1      13.588  37.153  -6.093  1.00  0.00     0.210 HD
ENDBRANCH  28  34
BRANCH  29  36
HETATM   36  O5  UNL     1      10.481  38.641  -7.185  1.00  0.00    -0.390 OA
ATOM     37  H5  UNL     1      10.203  37.836  -6.765  1.00  0.00     0.210 HD
ENDBRANCH  29  36
BRANCH  30  38
HETATM   38  O6  UNL     1      10.335  41.231  -6.160  1.00  0.00    -0.391 OA
ATOM     39  H6  UNL     1       9.812  40.679  -5.590  1.00  0.00     0.210 HD
ENDBRANCH  30  38
ENDBRANCH  23  24
ENDBRANCH  22  23
ENDBRANCH  21  22
ENDBRANCH   1  21
TORSDOF 17
ENDMDL
MODEL 2
REMARK VINA RESULT: -7.484702159      4.446      7.638
REMARK  17 active torsions:
REMARK  status: ('A' for Active; 'I' for Inactive)
REMARK    1  A    between atoms: C1_2  and  C2_3 
REMARK       I    between atoms: C1_2  and  N3_17 
REMARK    2  A    between atoms: C2_3  and  C3_4 
REMARK    3  A    between atoms: C3_4  and  C4_5 
REMARK    4  A    between atoms: C4_5  and  C5_6 
REMARK    5  A    between atoms: C5_6  and  C6_7 
REMARK    6  A    between atoms: C6_7  and  N1_8 
REMARK       I    between atoms: N1_8  and  C7_10 
REMARK       I    between atoms: C7_10  and  N2_12 
REMARK    7  A    between atoms: N3_17  and  C12_19 
REMARK    8  A    between atoms: C12_19  and  C13_20 
REMARK    9  A    between atoms: C13_20  and  C14_21 
REMARK   10  A    between atoms: C14_21  and  C15_22 
REMARK   11  A    between atoms: C15_22  and  C16_23 
REMARK   12  A    between atoms: C16_23  and  C17_24 
REMARK   13  A    between atoms: C18_27  and  C19_28 
REMARK   14  A    between atoms: C19_28  and  O3_29 
REMARK   15  A    between atoms: C20_31  and  O4_32 
REMARK   16  A    between atoms: C21_34  and  O5_35 
REMARK   17  A    between atoms: C22_37  and  O6_38 
ROOT
HETATM    1  C13 UNL     1      14.659  35.924 -11.404  1.00  0.00     0.020 C 
ENDROOT
BRANCH   1   2
HETATM    2  C12 UNL     1      14.544  36.557 -10.040  1.00  0.00     0.122 C 
BRANCH   2   3
HETATM    3  N3  UNL     1      14.476  38.018 -10.145  1.00  0.00    -0.361 N 
HETATM    4  C1  UNL     1      13.363  38.738  -9.645  1.00  0.00     0.217 C 
HETATM    5  O1  UNL     1      12.436  38.093  -9.105  1.00  0.00    -0.274 OA
ATOM      6  H3  UNL     1      15.243  38.524 -10.587  1.00  0.00     0.162 HD
BRANCH   4   7
HETATM    7  C2  UNL     1      13.345  40.202  -9.779  1.00  0.00     0.103 C 
BRANCH   7   8
HETATM    8  C3  UNL     1      12.307  40.879  -8.944  1.00  0.00     0.009 C 
BRANCH   8   9
HETATM    9  C4  UNL     1      12.720  41.248  -7.564  1.00  0.00     0.002 C 
BRANCH   9  10
HETATM   10  C5  UNL     1      11.613  41.070  -6.550  1.00  0.00     0.020 C 
BRANCH  10  11
HETATM   11  C6  UNL     1      11.208  39.644  -6.344  1.00  0.00     0.124 C 
BRANCH  11  12
HETATM   12  N1  UNL     1      11.188  39.377  -4.921  1.00  0.00    -0.343 N 
HETATM   13  C7  UNL     1      10.234  38.505  -4.325  1.00  0.00     0.318 C 
HETATM   14  O2  UNL     1       9.385  37.948  -5.077  1.00  0.00    -0.247 OA
HETATM   15  N2  UNL     1      10.213  38.248  -2.943  1.00  0.00    -0.334 N 
HETATM   16  C8  UNL     1       9.309  37.389  -2.220  1.00  0.00     0.127 C 
HETATM   17  C11 UNL     1      11.156  38.853  -1.995  1.00  0.00     0.127 C 
HETATM   18  C9  UNL     1       9.261  37.938  -0.807  1.00  0.00     0.022 C 
HETATM   19  C10 UNL     1      10.412  38.878  -0.684  1.00  0.00     0.022 C 
ATOM     20  H1  UNL     1      11.880  39.831  -4.325  1.00  0.00     0.164 HD
ENDBRANCH  11  12
ENDBRANCH  10  11
ENDBRANCH   9  10
ENDBRANCH   8   9
ENDBRANCH   7   8
ENDBRANCH   4   7
ENDBRANCH   2   3
ENDBRANCH   1   2
BRANCH   1  21
HETATM   21  C14 UNL     1      13.459  36.089 -12.268  1.00  0.00     0.002 C 
BRANCH  21  22
HETATM   22  C15 UNL     1      13.726  36.092 -13.743  1.00  0.00     0.002 C 
BRANCH  22  23
HETATM   23  C16 UNL     1      14.067  37.421 -14.315  1.00  0.00     0.027 C 
BRANCH  23  24
HETATM   24  C17 UNL     1      15.535  37.647 -14.567  1.00  0.00     0.108 C 
HETATM   25  N4  UNL     1      16.341  36.505 -14.302  1.00  0.00    -0.406 N 
HETATM   26  C18 UNL     1      17.729  36.608 -14.568  1.00  0.00     0.132 C 
ATOM     27  H4  UNL     1      15.934  35.645 -13.934  1.00  0.00     0.154 HD
HETATM   28  C20 UNL     1      18.205  38.064 -14.596  1.00  0.00     0.173 C 
HETATM   29  C21 UNL     1      17.497  38.711 -13.405  1.00  0.00     0.179 C 
HETATM   30  C22 UNL     1      16.051  38.844 -13.799  1.00  0.00     0.171 C 
BRANCH  26  31
HETATM   31  C19 UNL     1      18.065  36.030 -15.908  1.00  0.00     0.191 C 
BRANCH  31  32
HETATM   32  O3  UNL     1      18.267  36.981 -16.881  1.00  0.00    -0.399 OA
ATOM     33  H3  UNL     1      18.292  36.624 -17.761  1.00  0.00     0.209 HD
ENDBRANCH  31  32
ENDBRANCH  26  31
BRANCH  28  34
HETATM   34  O4  UNL     1      19.577  38.139 -14.462  1.00  0.00    -0.391 OA
ATOM     35  H4  UNL     1      20.009  37.975 -15.292  1.00  0.00     0.210 HD
ENDBRANCH  28  34
BRANCH  29  36
HETATM   36  O5  UNL     1      17.674  37.838 -12.333  1.00  0.00    -0.390 OA
ATOM     37  H5  UNL     1      17.930  38.379 -11.596  1.00  0.00     0.210 HD
ENDBRANCH  29  36
BRANCH  30  38
HETATM   38  O6  UNL     1      15.234  39.137 -12.706  1.00  0.00    -0.391 OA
ATOM     39  H6  UNL     1      15.325  38.484 -12.021  1.00  0.00     0.210 HD
ENDBRANCH  30  38
ENDBRANCH  23  24
ENDBRANCH  22  23
ENDBRANCH  21  22
ENDBRANCH   1  21
TORSDOF 17
ENDMDL
MODEL 3
REMARK VINA RESULT: -7.249627327      3.802      5.914
REMARK  17 active torsions:
REMARK  status: ('A' for Active; 'I' for Inactive)
REMARK    1  A    between atoms: C1_2  and  C2_3 
REMARK       I    between atoms: C1_2  and  N3_17 
REMARK    2  A    between atoms: C2_3  and  C3_4 
REMARK    3  A    between atoms: C3_4  and  C4_5 
REMARK    4  A    between atoms: C4_5  and  C5_6 
REMARK    5  A    between atoms: C5_6  and  C6_7 
REMARK    6  A    between atoms: C6_7  and  N1_8 
REMARK       I    between atoms: N1_8  and  C7_10 
REMARK       I    between atoms: C7_10  and  N2_12 
REMARK    7  A    between atoms: N3_17  and  C12_19 
REMARK    8  A    between atoms: C12_19  and  C13_20 
REMARK    9  A    between atoms: C13_20  and  C14_21 
REMARK   10  A    between atoms: C14_21  and  C15_22 
REMARK   11  A    between atoms: C15_22  and  C16_23 
REMARK   12  A    between atoms: C16_23  and  C17_24 
REMARK   13  A    between atoms: C18_27  and  C19_28 
REMARK   14  A    between atoms: C19_28  and  O3_29 
REMARK   15  A    between atoms: C20_31  and  O4_32 
REMARK   16  A    between atoms: C21_34  and  O5_35 
REMARK   17  A    between atoms: C22_37  and  O6_38 
ROOT
HETATM    1  C13 UNL     1      16.438  42.116 -10.061  1.00  0.00     0.020 C 
ENDROOT
BRANCH   1   2
HETATM    2  C12 UNL     1      15.433  42.755  -9.135  1.00  0.00     0.122 C 
BRANCH   2   3
HETATM    3  N3  UNL     1      14.387  41.799  -8.758  1.00  0.00    -0.361 N 
HETATM    4  C1  UNL     1      13.025  42.047  -9.061  1.00  0.00     0.217 C 
HETATM    5  O1  UNL     1      12.735  43.105  -9.664  1.00  0.00    -0.274 OA
ATOM      6  H3  UNL     1      14.644  40.942  -8.269  1.00  0.00     0.162 HD
BRANCH   4   7
HETATM    7  C2  UNL     1      12.016  41.056  -8.658  1.00  0.00     0.103 C 
BRANCH   7   8
HETATM    8  C3  UNL     1      12.227  40.491  -7.291  1.00  0.00     0.009 C 
BRANCH   8   9
HETATM    9  C4  UNL     1      12.362  39.011  -7.211  1.00  0.00     0.002 C 
BRANCH   9  10
HETATM   10  C5  UNL     1      11.652  38.419  -6.016  1.00  0.00     0.020 C 
BRANCH  10  11
HETATM   11  C6  UNL     1      10.707  39.366  -5.344  1.00  0.00     0.124 C 
BRANCH  11  12
HETATM   12  N1  UNL     1      10.722  39.092  -3.922  1.00  0.00    -0.343 N 
HETATM   13  C7  UNL     1       9.763  38.242  -3.303  1.00  0.00     0.318 C 
HETATM   14  O2  UNL     1       8.878  37.711  -4.033  1.00  0.00    -0.247 OA
HETATM   15  N2  UNL     1       9.776  37.977  -1.922  1.00  0.00    -0.334 N 
HETATM   16  C8  UNL     1       8.870  37.139  -1.178  1.00  0.00     0.127 C 
HETATM   17  C11 UNL     1      10.761  38.552  -1.000  1.00  0.00     0.127 C 
HETATM   18  C9  UNL     1       8.878  37.680   0.239  1.00  0.00     0.022 C 
HETATM   19  C10 UNL     1      10.057  38.589   0.333  1.00  0.00     0.022 C 
ATOM     20  H1  UNL     1      11.443  39.524  -3.345  1.00  0.00     0.164 HD
ENDBRANCH  11  12
ENDBRANCH  10  11
ENDBRANCH   9  10
ENDBRANCH   8   9
ENDBRANCH   7   8
ENDBRANCH   4   7
ENDBRANCH   2   3
ENDBRANCH   1   2
BRANCH   1  21
HETATM   21  C14 UNL     1      15.903  41.753 -11.400  1.00  0.00     0.002 C 
BRANCH  21  22
HETATM   22  C15 UNL     1      16.348  40.422 -11.929  1.00  0.00     0.002 C 
BRANCH  22  23
HETATM   23  C16 UNL     1      15.517  39.878 -13.035  1.00  0.00     0.027 C 
BRANCH  23  24
HETATM   24  C17 UNL     1      14.657  38.699 -12.665  1.00  0.00     0.108 C 
HETATM   25  N4  UNL     1      15.296  37.782 -11.785  1.00  0.00    -0.406 N 
HETATM   26  C18 UNL     1      14.539  36.671 -11.336  1.00  0.00     0.132 C 
ATOM     27  H4  UNL     1      16.262  37.920 -11.488  1.00  0.00     0.154 HD
HETATM   28  C20 UNL     1      13.362  36.361 -12.266  1.00  0.00     0.173 C 
HETATM   29  C21 UNL     1      13.949  36.504 -13.671  1.00  0.00     0.179 C 
HETATM   30  C22 UNL     1      14.147  37.978 -13.894  1.00  0.00     0.171 C 
BRANCH  26  31
HETATM   31  C19 UNL     1      13.951  36.930  -9.984  1.00  0.00     0.191 C 
BRANCH  31  32
HETATM   32  O3  UNL     1      14.878  37.329  -9.049  1.00  0.00    -0.399 OA
ATOM     33  H3  UNL     1      15.688  37.646  -9.430  1.00  0.00     0.209 HD
ENDBRANCH  31  32
ENDBRANCH  26  31
BRANCH  28  34
HETATM   34  O4  UNL     1      12.886  35.083 -12.052  1.00  0.00    -0.391 OA
ATOM     35  H4  UNL     1      13.487  34.433 -12.397  1.00  0.00     0.210 HD
ENDBRANCH  28  34
BRANCH  29  36
HETATM   36  O5  UNL     1      15.154  35.805 -13.656  1.00  0.00    -0.390 OA
ATOM     37  H5  UNL     1      15.704  36.220 -14.310  1.00  0.00     0.210 HD
ENDBRANCH  29  36
BRANCH  30  38
HETATM   38  O6  UNL     1      14.950  38.238 -15.005  1.00  0.00    -0.391 OA
ATOM     39  H6  UNL     1      14.554  37.907 -15.803  1.00  0.00     0.210 HD
ENDBRANCH  30  38
ENDBRANCH  23  24
ENDBRANCH  22  23
ENDBRANCH  21  22
ENDBRANCH   1  21
TORSDOF 17
ENDMDL
MODEL 4
REMARK VINA RESULT: -7.203286493      3.414      6.571
REMARK  17 active torsions:
REMARK  status: ('A' for Active; 'I' for Inactive)
REMARK    1  A    between atoms: C1_2  and  C2_3 
REMARK       I    between atoms: C1_2  and  N3_17 
REMARK    2  A    between atoms: C2_3  and  C3_4 
REMARK    3  A    between atoms: C3_4  and  C4_5 
REMARK    4  A    between atoms: C4_5  and  C5_6 
REMARK    5  A    between atoms: C5_6  and  C6_7 
REMARK    6  A    between atoms: C6_7  and  N1_8 
REMARK       I    between atoms: N1_8  and  C7_10 
REMARK       I    between atoms: C7_10  and  N2_12 
REMARK    7  A    between atoms: N3_17  and  C12_19 
REMARK    8  A    between atoms: C12_19  and  C13_20 
REMARK    9  A    between atoms: C13_20  and  C14_21 
REMARK   10  A    between atoms: C14_21  and  C15_22 
REMARK   11  A    between atoms: C15_22  and  C16_23 
REMARK   12  A    between atoms: C16_23  and  C17_24 
REMARK   13  A    between atoms: C18_27  and  C19_28 
REMARK   14  A    between atoms: C19_28  and  O3_29 
REMARK   15  A    between atoms: C20_31  and  O4_32 
REMARK   16  A    between atoms: C21_34  and  O5_35 
REMARK   17  A    between atoms: C22_37  and  O6_38 
ROOT
HETATM    1  C13 UNL     1      12.655  38.905  -7.103  1.00  0.00     0.020 C 
ENDROOT
BRANCH   1   2
HETATM    2  C12 UNL     1      11.563  39.818  -6.603  1.00  0.00     0.122 C 
BRANCH   2   3
HETATM    3  N3  UNL     1      11.288  39.576  -5.184  1.00  0.00    -0.361 N 
HETATM    4  C1  UNL     1      10.303  38.643  -4.777  1.00  0.00     0.217 C 
HETATM    5  O1  UNL     1       9.671  38.025  -5.663  1.00  0.00    -0.274 OA
ATOM      6  H3  UNL     1      11.816  40.089  -4.477  1.00  0.00     0.162 HD
BRANCH   4   7
HETATM    7  C2  UNL     1      10.066  38.442  -3.339  1.00  0.00     0.103 C 
BRANCH   7   8
HETATM    8  C3  UNL     1       9.327  39.560  -2.679  1.00  0.00     0.009 C 
BRANCH   8   9
HETATM    9  C4  UNL     1       8.200  40.144  -3.454  1.00  0.00     0.002 C 
BRANCH   9  10
HETATM   10  C5  UNL     1       8.078  41.640  -3.280  1.00  0.00     0.020 C 
BRANCH  10  11
HETATM   11  C6  UNL     1       7.380  42.325  -4.413  1.00  0.00     0.124 C 
BRANCH  11  12
HETATM   12  N1  UNL     1       5.954  42.128  -4.256  1.00  0.00    -0.343 N 
HETATM   13  C7  UNL     1       5.132  43.057  -3.558  1.00  0.00     0.318 C 
HETATM   14  O2  UNL     1       5.679  44.086  -3.069  1.00  0.00    -0.247 OA
HETATM   15  N2  UNL     1       3.748  42.865  -3.403  1.00  0.00    -0.334 N 
HETATM   16  C8  UNL     1       2.810  43.725  -2.726  1.00  0.00     0.127 C 
HETATM   17  C11 UNL     1       3.030  41.700  -3.933  1.00  0.00     0.127 C 
HETATM   18  C9  UNL     1       1.675  42.824  -2.278  1.00  0.00     0.022 C 
HETATM   19  C10 UNL     1       1.838  41.542  -3.023  1.00  0.00     0.022 C 
ATOM     20  H1  UNL     1       5.525  41.295  -4.658  1.00  0.00     0.164 HD
ENDBRANCH  11  12
ENDBRANCH  10  11
ENDBRANCH   9  10
ENDBRANCH   8   9
ENDBRANCH   7   8
ENDBRANCH   4   7
ENDBRANCH   2   3
ENDBRANCH   1   2
BRANCH   1  21
HETATM   21  C14 UNL     1      12.611  38.627  -8.564  1.00  0.00     0.002 C 
BRANCH  21  22
HETATM   22  C15 UNL     1      13.233  39.677  -9.435  1.00  0.00     0.002 C 
BRANCH  22  23
HETATM   23  C16 UNL     1      14.553  39.311 -10.011  1.00  0.00     0.027 C 
BRANCH  23  24
HETATM   24  C17 UNL     1      14.494  38.427 -11.229  1.00  0.00     0.108 C 
HETATM   25  N4  UNL     1      14.605  37.041 -10.932  1.00  0.00    -0.406 N 
HETATM   26  C18 UNL     1      14.500  36.130 -12.013  1.00  0.00     0.132 C 
ATOM     27  H4  UNL     1      14.755  36.715  -9.977  1.00  0.00     0.154 HD
HETATM   28  C20 UNL     1      14.807  36.794 -13.359  1.00  0.00     0.173 C 
HETATM   29  C21 UNL     1      16.028  37.670 -13.074  1.00  0.00     0.179 C 
HETATM   30  C22 UNL     1      15.530  38.829 -12.256  1.00  0.00     0.171 C 
BRANCH  26  31
HETATM   31  C19 UNL     1      13.112  35.580 -12.121  1.00  0.00     0.191 C 
BRANCH  31  32
HETATM   32  O3  UNL     1      13.075  34.249 -12.466  1.00  0.00    -0.399 OA
ATOM     33  H3  UNL     1      12.318  33.789 -12.121  1.00  0.00     0.209 HD
ENDBRANCH  31  32
ENDBRANCH  26  31
BRANCH  28  34
HETATM   34  O4  UNL     1      15.085  35.849 -14.326  1.00  0.00    -0.391 OA
ATOM     35  H4  UNL     1      14.426  35.857 -15.010  1.00  0.00     0.210 HD
ENDBRANCH  28  34
BRANCH  29  36
HETATM   36  O5  UNL     1      16.918  36.866 -12.364  1.00  0.00    -0.390 OA
ATOM     37  H5  UNL     1      16.427  36.522 -11.627  1.00  0.00     0.210 HD
ENDBRANCH  29  36
BRANCH  30  38
HETATM   38  O6  UNL     1      16.575  39.546 -11.670  1.00  0.00    -0.391 OA
ATOM     39  H6  UNL     1      17.044  40.062 -12.315  1.00  0.00     0.210 HD
ENDBRANCH  30  38
ENDBRANCH  23  24
ENDBRANCH  22  23
ENDBRANCH  21  22
ENDBRANCH   1  21
TORSDOF 17
ENDMDL
MODEL 5
REMARK VINA RESULT: -7.178865882      3.481      6.685
REMARK  17 active torsions:
REMARK  status: ('A' for Active; 'I' for Inactive)
REMARK    1  A    between atoms: C1_2  and  C2_3 
REMARK       I    between atoms: C1_2  and  N3_17 
REMARK    2  A    between atoms: C2_3  and  C3_4 
REMARK    3  A    between atoms: C3_4  and  C4_5 
REMARK    4  A    between atoms: C4_5  and  C5_6 
REMARK    5  A    between atoms: C5_6  and  C6_7 
REMARK    6  A    between atoms: C6_7  and  N1_8 
REMARK       I    between atoms: N1_8  and  C7_10 
REMARK       I    between atoms: C7_10  and  N2_12 
REMARK    7  A    between atoms: N3_17  and  C12_19 
REMARK    8  A    between atoms: C12_19  and  C13_20 
REMARK    9  A    between atoms: C13_20  and  C14_21 
REMARK   10  A    between atoms: C14_21  and  C15_22 
REMARK   11  A    between atoms: C15_22  and  C16_23 
REMARK   12  A    between atoms: C16_23  and  C17_24 
REMARK   13  A    between atoms: C18_27  and  C19_28 
REMARK   14  A    between atoms: C19_28  and  O3_29 
REMARK   15  A    between atoms: C20_31  and  O4_32 
REMARK   16  A    between atoms: C21_34  and  O5_35 
REMARK   17  A    between atoms: C22_37  and  O6_38 
ROOT
HETATM    1  C13 UNL     1      12.540  39.545  -7.457  1.00  0.00     0.020 C 
ENDROOT
BRANCH   1   2
HETATM    2  C12 UNL     1      12.225  38.212  -6.826  1.00  0.00     0.122 C 
BRANCH   2   3
HETATM    3  N3  UNL     1      11.959  38.361  -5.393  1.00  0.00    -0.361 N 
HETATM    4  C1  UNL     1      10.635  38.361  -4.888  1.00  0.00     0.217 C 
HETATM    5  O1  UNL     1       9.692  38.227  -5.701  1.00  0.00    -0.274 OA
ATOM      6  H3  UNL     1      12.741  38.467  -4.747  1.00  0.00     0.162 HD
BRANCH   4   7
HETATM    7  C2  UNL     1      10.425  38.517  -3.441  1.00  0.00     0.103 C 
BRANCH   7   8
HETATM    8  C3  UNL     1       9.014  38.823  -3.058  1.00  0.00     0.009 C 
BRANCH   8   9
HETATM    9  C4  UNL     1       8.717  40.248  -2.752  1.00  0.00     0.002 C 
BRANCH   9  10
HETATM   10  C5  UNL     1       8.037  40.967  -3.895  1.00  0.00     0.020 C 
BRANCH  10  11
HETATM   11  C6  UNL     1       8.522  42.368  -4.101  1.00  0.00     0.124 C 
BRANCH  11  12
HETATM   12  N1  UNL     1       7.933  43.208  -3.079  1.00  0.00    -0.343 N 
HETATM   13  C7  UNL     1       8.487  44.469  -2.720  1.00  0.00     0.318 C 
HETATM   14  O2  UNL     1       9.526  44.857  -3.326  1.00  0.00    -0.247 OA
HETATM   15  N2  UNL     1       7.916  45.284  -1.727  1.00  0.00    -0.334 N 
HETATM   16  C8  UNL     1       8.375  46.574  -1.275  1.00  0.00     0.127 C 
HETATM   17  C11 UNL     1       6.715  44.913  -0.971  1.00  0.00     0.127 C 
HETATM   18  C9  UNL     1       7.876  46.712   0.150  1.00  0.00     0.022 C 
HETATM   19  C10 UNL     1       6.851  45.645   0.340  1.00  0.00     0.022 C 
ATOM     20  H1  UNL     1       7.092  42.885  -2.601  1.00  0.00     0.164 HD
ENDBRANCH  11  12
ENDBRANCH  10  11
ENDBRANCH   9  10
ENDBRANCH   8   9
ENDBRANCH   7   8
ENDBRANCH   4   7
ENDBRANCH   2   3
ENDBRANCH   1   2
BRANCH   1  21
HETATM   21  C14 UNL     1      12.888  39.481  -8.902  1.00  0.00     0.002 C 
BRANCH  21  22
HETATM   22  C15 UNL     1      14.308  39.106  -9.204  1.00  0.00     0.002 C 
BRANCH  22  23
HETATM   23  C16 UNL     1      14.831  39.625 -10.495  1.00  0.00     0.027 C 
BRANCH  23  24
HETATM   24  C17 UNL     1      14.824  38.634 -11.630  1.00  0.00     0.108 C 
HETATM   25  N4  UNL     1      14.813  37.278 -11.201  1.00  0.00    -0.406 N 
HETATM   26  C18 UNL     1      14.745  36.276 -12.202  1.00  0.00     0.132 C 
ATOM     27  H4  UNL     1      14.853  37.036 -10.211  1.00  0.00     0.154 HD
HETATM   28  C20 UNL     1      15.218  36.791 -13.565  1.00  0.00     0.173 C 
HETATM   29  C21 UNL     1      16.465  37.615 -13.242  1.00  0.00     0.179 C 
HETATM   30  C22 UNL     1      15.974  38.875 -12.582  1.00  0.00     0.171 C 
BRANCH  26  31
HETATM   31  C19 UNL     1      13.339  35.802 -12.395  1.00  0.00     0.191 C 
BRANCH  31  32
HETATM   32  O3  UNL     1      13.237  34.439 -12.556  1.00  0.00    -0.399 OA
ATOM     33  H3  UNL     1      12.608  34.182 -13.220  1.00  0.00     0.209 HD
ENDBRANCH  31  32
ENDBRANCH  26  31
BRANCH  28  34
HETATM   34  O4  UNL     1      15.519  35.743 -14.412  1.00  0.00    -0.391 OA
ATOM     35  H4  UNL     1      15.175  35.900 -15.284  1.00  0.00     0.210 HD
ENDBRANCH  28  34
BRANCH  29  36
HETATM   36  O5  UNL     1      17.230  36.832 -12.380  1.00  0.00    -0.390 OA
ATOM     37  H5  UNL     1      18.131  37.098 -12.515  1.00  0.00     0.210 HD
ENDBRANCH  29  36
BRANCH  30  38
HETATM   38  O6  UNL     1      17.007  39.580 -11.964  1.00  0.00    -0.391 OA
ATOM     39  H6  UNL     1      17.014  39.432 -11.025  1.00  0.00     0.210 HD
ENDBRANCH  30  38
ENDBRANCH  23  24
ENDBRANCH  22  23
ENDBRANCH  21  22
ENDBRANCH   1  21
TORSDOF 17
ENDMDL
