MODEL 1
REMARK VINA RESULT: -7.956652944      0.000      0.000
REMARK  13 active torsions:
REMARK  status: ('A' for Active; 'I' for Inactive)
REMARK    1  A    between atoms: C5_7  and  N2_8 
REMARK    2  A    between atoms: C6_11  and  C7_12 
REMARK    3  A    between atoms: C7_12  and  N3_13 
REMARK    4  A    between atoms: N3_13  and  C8_14 
REMARK       I    between atoms: N3_13  and  C12_18 
REMARK    5  A    between atoms: C8_14  and  C9_15 
REMARK    6  A    between atoms: C12_18  and  C13_20 
REMARK    7  A    between atoms: C13_20  and  C14_21 
REMARK    8  A    between atoms: C13_20  and  N4_28 
REMARK    9  A    between atoms: C14_21  and  C15_22 
REMARK       I    between atoms: N4_28  and  C21_30 
REMARK   10  A    between atoms: C21_30  and  C22_32 
REMARK   11  A    between atoms: C22_32  and  N5_33 
REMARK   12  A    between atoms: C22_32  and  C23_37 
REMARK   13  A    between atoms: C22_32  and  C25_39 
ROOT
HETATM    1  C1  UNL     1      11.942 132.728 364.871  1.00  0.00     0.018 C 
HETATM    2  C2  UNL     1      11.894 132.005 363.909  1.00  0.00    -0.073 C 
HETATM    3  C3  UNL     1      11.880 131.227 362.711  1.00  0.00     0.071 A 
HETATM    4  C4  UNL     1      13.055 131.259 361.947  1.00  0.00     0.113 A 
HETATM    5  N1  UNL     1      13.031 130.707 360.740  1.00  0.00    -0.350 N 
ATOM      6  H1  UNL     1      13.889 130.739 360.189  1.00  0.00     0.166 HD
HETATM    7  C5  UNL     1      11.988 130.127 360.203  1.00  0.00     0.113 A 
HETATM    8  C6  UNL     1      10.750 130.052 360.950  1.00  0.00     0.063 A 
HETATM    9  C27 UNL     1      10.749 130.603 362.172  1.00  0.00     0.151 A 
HETATM   10  F1  UNL     1       9.655 130.629 362.977  1.00  0.00    -0.203 F 
ENDROOT
BRANCH   8  11
HETATM   11  C7  UNL     1       9.747 129.391 360.161  1.00  0.00     0.112 C 
BRANCH  11  12
HETATM   12  N3  UNL     1       8.709 130.004 359.419  1.00  0.00    -0.325 N 
HETATM   13  C12 UNL     1       8.626 130.304 358.039  1.00  0.00     0.246 C 
HETATM   14  O1  UNL     1       9.668 130.142 357.411  1.00  0.00    -0.271 OA
BRANCH  12  15
HETATM   15  C8  UNL     1       7.631 130.464 360.356  1.00  0.00     0.136 C 
BRANCH  15  16
HETATM   16  C9  UNL     1       7.145 129.308 361.218  1.00  0.00     0.004 A 
HETATM   17  C10 UNL     1       6.715 129.448 362.604  1.00  0.00     0.007 A 
HETATM   18  C11 UNL     1       5.640 129.425 361.627  1.00  0.00     0.007 A 
ENDBRANCH  15  16
ENDBRANCH  12  15
BRANCH  13  19
HETATM   19  C13 UNL     1       7.380 130.735 357.421  1.00  0.00     0.177 C 
BRANCH  19  20
HETATM   20  C14 UNL     1       7.468 131.521 356.157  1.00  0.00     0.039 C 
BRANCH  20  21
HETATM   21  C15 UNL     1       6.490 131.391 355.084  1.00  0.00    -0.012 C 
HETATM   22  C16 UNL     1       5.327 132.374 355.382  1.00  0.00     0.005 C 
HETATM   23  C17 UNL     1       5.496 133.735 354.875  1.00  0.00     0.000 C 
HETATM   24  C18 UNL     1       5.744 133.753 353.351  1.00  0.00     0.000 C 
HETATM   25  C19 UNL     1       7.033 132.992 353.189  1.00  0.00     0.000 C 
HETATM   26  C20 UNL     1       6.808 131.567 353.653  1.00  0.00     0.005 C 
ENDBRANCH  20  21
ENDBRANCH  19  20
BRANCH  19  27
HETATM   27  N4  UNL     1       6.659 129.479 356.963  1.00  0.00    -0.346 N 
HETATM   28  C21 UNL     1       5.419 129.188 357.593  1.00  0.00     0.254 C 
HETATM   29  O2  UNL     1       4.841 129.936 358.415  1.00  0.00    -0.271 OA
ATOM     30  H4  UNL     1       7.046 128.874 356.239  1.00  0.00     0.163 HD
BRANCH  28  31
HETATM   31  C22 UNL     1       4.725 127.872 357.304  1.00  0.00     0.202 C 
BRANCH  31  32
HETATM   32  N5  UNL     1       5.605 127.020 356.517  1.00  0.00    -0.061 N 
ATOM     33  H53 UNL     1       5.342 126.037 356.574  1.00  0.00     0.275 HD
ATOM     34  H52 UNL     1       5.470 127.149 355.514  1.00  0.00     0.275 HD
ATOM     35  H51 UNL     1       6.572 127.178 356.799  1.00  0.00     0.275 HD
ENDBRANCH  31  32
BRANCH  31  36
HETATM   36  C23 UNL     1       3.427 128.105 356.618  1.00  0.00     0.044 C 
HETATM   37  C24 UNL     1       3.630 128.773 355.257  1.00  0.00     0.008 C 
ENDBRANCH  31  36
BRANCH  31  38
HETATM   38  C25 UNL     1       4.556 127.312 358.709  1.00  0.00     0.044 C 
HETATM   39  C26 UNL     1       3.216 126.971 359.183  1.00  0.00     0.008 C 
ENDBRANCH  31  38
ENDBRANCH  28  31
ENDBRANCH  19  27
ENDBRANCH  13  19
ENDBRANCH  11  12
ENDBRANCH   8  11
BRANCH   7  40
HETATM   40  N2  UNL     1      11.994 129.662 359.016  1.00  0.00    -0.385 N 
ATOM     41  H22 UNL     1      11.613 130.249 358.274  1.00  0.00     0.157 HD
ATOM     42  H21 UNL     1      12.399 128.755 358.781  1.00  0.00     0.157 HD
ENDBRANCH   7  40
TORSDOF 13
ENDMDL
MODEL 2
REMARK VINA RESULT: -7.764224263      0.621      1.057
REMARK  13 active torsions:
REMARK  status: ('A' for Active; 'I' for Inactive)
REMARK    1  A    between atoms: C5_7  and  N2_8 
REMARK    2  A    between atoms: C6_11  and  C7_12 
REMARK    3  A    between atoms: C7_12  and  N3_13 
REMARK    4  A    between atoms: N3_13  and  C8_14 
REMARK       I    between atoms: N3_13  and  C12_18 
REMARK    5  A    between atoms: C8_14  and  C9_15 
REMARK    6  A    between atoms: C12_18  and  C13_20 
REMARK    7  A    between atoms: C13_20  and  C14_21 
REMARK    8  A    between atoms: C13_20  and  N4_28 
REMARK    9  A    between atoms: C14_21  and  C15_22 
REMARK       I    between atoms: N4_28  and  C21_30 
REMARK   10  A    between atoms: C21_30  and  C22_32 
REMARK   11  A    between atoms: C22_32  and  N5_33 
REMARK   12  A    between atoms: C22_32  and  C23_37 
REMARK   13  A    between atoms: C22_32  and  C25_39 
ROOT
HETATM    1  C1  UNL     1      11.234 132.655 365.224  1.00  0.00     0.018 C 
HETATM    2  C2  UNL     1      11.303 131.967 364.238  1.00  0.00    -0.073 C 
HETATM    3  C3  UNL     1      11.426 131.236 363.017  1.00  0.00     0.071 A 
HETATM    4  C4  UNL     1      12.648 131.370 362.344  1.00  0.00     0.113 A 
HETATM    5  N1  UNL     1      12.747 130.864 361.121  1.00  0.00    -0.350 N 
ATOM      6  H1  UNL     1      13.639 130.970 360.637  1.00  0.00     0.166 HD
HETATM    7  C5  UNL     1      11.786 130.241 360.489  1.00  0.00     0.113 A 
HETATM    8  C6  UNL     1      10.505 130.060 361.138  1.00  0.00     0.063 A 
HETATM    9  C27 UNL     1      10.379 130.564 362.375  1.00  0.00     0.151 A 
HETATM   10  F1  UNL     1       9.230 130.491 363.096  1.00  0.00    -0.203 F 
ENDROOT
BRANCH   8  11
HETATM   11  C7  UNL     1       9.606 129.369 360.255  1.00  0.00     0.112 C 
BRANCH  11  12
HETATM   12  N3  UNL     1       8.629 129.950 359.413  1.00  0.00    -0.325 N 
HETATM   13  C12 UNL     1       8.666 130.229 358.026  1.00  0.00     0.246 C 
HETATM   14  O1  UNL     1       9.765 130.081 357.499  1.00  0.00    -0.271 OA
BRANCH  12  15
HETATM   15  C8  UNL     1       7.460 130.399 360.239  1.00  0.00     0.136 C 
BRANCH  15  16
HETATM   16  C9  UNL     1       6.874 129.227 361.015  1.00  0.00     0.004 A 
HETATM   17  C10 UNL     1       6.396 129.316 362.390  1.00  0.00     0.007 A 
HETATM   18  C11 UNL     1       5.363 129.410 361.372  1.00  0.00     0.007 A 
ENDBRANCH  15  16
ENDBRANCH  12  15
BRANCH  13  19
HETATM   19  C13 UNL     1       7.474 130.625 357.290  1.00  0.00     0.177 C 
BRANCH  19  20
HETATM   20  C14 UNL     1       7.663 131.313 355.981  1.00  0.00     0.039 C 
BRANCH  20  21
HETATM   21  C15 UNL     1       6.785 132.383 355.525  1.00  0.00    -0.012 C 
HETATM   22  C16 UNL     1       7.145 132.695 354.048  1.00  0.00     0.005 C 
HETATM   23  C17 UNL     1       6.458 131.889 353.040  1.00  0.00     0.000 C 
HETATM   24  C18 UNL     1       4.923 131.986 353.176  1.00  0.00     0.000 C 
HETATM   25  C19 UNL     1       4.649 131.421 354.544  1.00  0.00     0.000 C 
HETATM   26  C20 UNL     1       5.310 132.316 355.572  1.00  0.00     0.005 C 
ENDBRANCH  20  21
ENDBRANCH  19  20
BRANCH  19  27
HETATM   27  N4  UNL     1       6.768 129.345 356.876  1.00  0.00    -0.346 N 
HETATM   28  C21 UNL     1       5.464 129.136 357.399  1.00  0.00     0.254 C 
HETATM   29  O2  UNL     1       4.827 129.968 358.086  1.00  0.00    -0.271 OA
ATOM     30  H4  UNL     1       7.210 128.669 356.252  1.00  0.00     0.163 HD
BRANCH  28  31
HETATM   31  C22 UNL     1       4.766 127.812 357.160  1.00  0.00     0.202 C 
BRANCH  31  32
HETATM   32  N5  UNL     1       5.640 126.933 356.398  1.00  0.00    -0.061 N 
ATOM     33  H53 UNL     1       5.567 127.092 355.393  1.00  0.00     0.275 HD
ATOM     34  H52 UNL     1       6.625 127.174 356.512  1.00  0.00     0.275 HD
ATOM     35  H51 UNL     1       5.450 125.962 356.649  1.00  0.00     0.275 HD
ENDBRANCH  31  32
BRANCH  31  36
HETATM   36  C23 UNL     1       3.465 128.023 356.474  1.00  0.00     0.044 C 
HETATM   37  C24 UNL     1       3.600 127.850 354.960  1.00  0.00     0.008 C 
ENDBRANCH  31  36
BRANCH  31  38
HETATM   38  C25 UNL     1       4.604 127.302 358.584  1.00  0.00     0.044 C 
HETATM   39  C26 UNL     1       3.283 126.882 359.045  1.00  0.00     0.008 C 
ENDBRANCH  31  38
ENDBRANCH  28  31
ENDBRANCH  19  27
ENDBRANCH  13  19
ENDBRANCH  11  12
ENDBRANCH   8  11
BRANCH   7  40
HETATM   40  N2  UNL     1      11.908 129.822 359.291  1.00  0.00    -0.385 N 
ATOM     41  H22 UNL     1      12.740 129.278 359.061  1.00  0.00     0.157 HD
ATOM     42  H21 UNL     1      11.194 129.976 358.578  1.00  0.00     0.157 HD
ENDBRANCH   7  40
TORSDOF 13
ENDMDL
MODEL 3
REMARK VINA RESULT: -7.458519241      2.207      8.311
REMARK  13 active torsions:
REMARK  status: ('A' for Active; 'I' for Inactive)
REMARK    1  A    between atoms: C5_7  and  N2_8 
REMARK    2  A    between atoms: C6_11  and  C7_12 
REMARK    3  A    between atoms: C7_12  and  N3_13 
REMARK    4  A    between atoms: N3_13  and  C8_14 
REMARK       I    between atoms: N3_13  and  C12_18 
REMARK    5  A    between atoms: C8_14  and  C9_15 
REMARK    6  A    between atoms: C12_18  and  C13_20 
REMARK    7  A    between atoms: C13_20  and  C14_21 
REMARK    8  A    between atoms: C13_20  and  N4_28 
REMARK    9  A    between atoms: C14_21  and  C15_22 
REMARK       I    between atoms: N4_28  and  C21_30 
REMARK   10  A    between atoms: C21_30  and  C22_32 
REMARK   11  A    between atoms: C22_32  and  N5_33 
REMARK   12  A    between atoms: C22_32  and  C23_37 
REMARK   13  A    between atoms: C22_32  and  C25_39 
ROOT
HETATM    1  C1  UNL     1       2.548 128.145 363.345  1.00  0.00     0.018 C 
HETATM    2  C2  UNL     1       2.984 128.197 362.223  1.00  0.00    -0.073 C 
HETATM    3  C3  UNL     1       3.485 128.153 360.886  1.00  0.00     0.071 A 
HETATM    4  C4  UNL     1       2.714 127.426 359.968  1.00  0.00     0.113 A 
HETATM    5  N1  UNL     1       3.225 127.200 358.764  1.00  0.00    -0.350 N 
ATOM      6  H1  UNL     1       2.660 126.667 358.103  1.00  0.00     0.166 HD
HETATM    7  C5  UNL     1       4.401 127.609 358.361  1.00  0.00     0.113 A 
HETATM    8  C6  UNL     1       5.237 128.375 359.261  1.00  0.00     0.063 A 
HETATM    9  C27 UNL     1       4.743 128.616 360.484  1.00  0.00     0.151 A 
HETATM   10  F1  UNL     1       5.423 129.300 361.441  1.00  0.00    -0.203 F 
ENDROOT
BRANCH   8  11
HETATM   11  C7  UNL     1       6.479 128.698 358.614  1.00  0.00     0.112 C 
BRANCH  11  12
HETATM   12  N3  UNL     1       7.485 129.570 359.093  1.00  0.00    -0.325 N 
HETATM   13  C12 UNL     1       8.591 129.314 359.937  1.00  0.00     0.246 C 
HETATM   14  O1  UNL     1       8.601 128.200 360.451  1.00  0.00    -0.271 OA
BRANCH  12  15
HETATM   15  C8  UNL     1       7.171 130.976 358.671  1.00  0.00     0.136 C 
BRANCH  15  16
HETATM   16  C9  UNL     1       6.456 130.981 357.326  1.00  0.00     0.004 A 
HETATM   17  C10 UNL     1       6.043 132.190 356.626  1.00  0.00     0.007 A 
HETATM   18  C11 UNL     1       7.300 131.618 356.175  1.00  0.00     0.007 A 
ENDBRANCH  15  16
ENDBRANCH  12  15
BRANCH  13  19
HETATM   19  C13 UNL     1       9.647 130.297 360.139  1.00  0.00     0.177 C 
BRANCH  19  20
HETATM   20  C14 UNL     1       9.683 131.018 361.443  1.00  0.00     0.039 C 
BRANCH  20  21
HETATM   21  C15 UNL     1       9.803 130.324 362.719  1.00  0.00    -0.012 C 
HETATM   22  C16 UNL     1      11.176 130.701 363.336  1.00  0.00     0.005 C 
HETATM   23  C17 UNL     1      11.197 131.913 364.153  1.00  0.00     0.000 C 
HETATM   24  C18 UNL     1      10.169 131.848 365.303  1.00  0.00     0.000 C 
HETATM   25  C19 UNL     1       8.845 131.742 364.595  1.00  0.00     0.000 C 
HETATM   26  C20 UNL     1       8.823 130.442 363.817  1.00  0.00     0.005 C 
ENDBRANCH  20  21
ENDBRANCH  19  20
BRANCH  19  27
HETATM   27  N4  UNL     1      10.959 129.532 360.164  1.00  0.00    -0.346 N 
HETATM   28  C21 UNL     1      11.963 129.956 359.252  1.00  0.00     0.254 C 
HETATM   29  O2  UNL     1      11.878 130.963 358.511  1.00  0.00    -0.271 OA
ATOM     30  H4  UNL     1      11.112 128.752 360.804  1.00  0.00     0.163 HD
BRANCH  28  31
HETATM   31  C22 UNL     1      13.233 129.141 359.108  1.00  0.00     0.202 C 
BRANCH  31  32
HETATM   32  N5  UNL     1      12.903 127.803 358.643  1.00  0.00    -0.061 N 
ATOM     33  H53 UNL     1      13.655 127.389 358.092  1.00  0.00     0.275 HD
ATOM     34  H52 UNL     1      12.888 127.123 359.403  1.00  0.00     0.275 HD
ATOM     35  H51 UNL     1      12.020 127.828 358.132  1.00  0.00     0.275 HD
ENDBRANCH  31  32
BRANCH  31  36
HETATM   36  C23 UNL     1      13.982 129.109 360.391  1.00  0.00     0.044 C 
HETATM   37  C24 UNL     1      13.932 130.465 361.098  1.00  0.00     0.008 C 
ENDBRANCH  31  36
BRANCH  31  38
HETATM   38  C25 UNL     1      13.961 129.920 358.021  1.00  0.00     0.044 C 
HETATM   39  C26 UNL     1      15.059 129.279 357.300  1.00  0.00     0.008 C 
ENDBRANCH  31  38
ENDBRANCH  28  31
ENDBRANCH  19  27
ENDBRANCH  13  19
ENDBRANCH  11  12
ENDBRANCH   8  11
BRANCH   7  40
HETATM   40  N2  UNL     1       4.876 127.317 357.214  1.00  0.00    -0.385 N 
ATOM     41  H22 UNL     1       5.660 126.666 357.177  1.00  0.00     0.157 HD
ATOM     42  H21 UNL     1       4.477 127.673 356.345  1.00  0.00     0.157 HD
ENDBRANCH   7  40
TORSDOF 13
ENDMDL
MODEL 4
REMARK VINA RESULT: -7.445487432      1.791      2.613
REMARK  13 active torsions:
REMARK  status: ('A' for Active; 'I' for Inactive)
REMARK    1  A    between atoms: C5_7  and  N2_8 
REMARK    2  A    between atoms: C6_11  and  C7_12 
REMARK    3  A    between atoms: C7_12  and  N3_13 
REMARK    4  A    between atoms: N3_13  and  C8_14 
REMARK       I    between atoms: N3_13  and  C12_18 
REMARK    5  A    between atoms: C8_14  and  C9_15 
REMARK    6  A    between atoms: C12_18  and  C13_20 
REMARK    7  A    between atoms: C13_20  and  C14_21 
REMARK    8  A    between atoms: C13_20  and  N4_28 
REMARK    9  A    between atoms: C14_21  and  C15_22 
REMARK       I    between atoms: N4_28  and  C21_30 
REMARK   10  A    between atoms: C21_30  and  C22_32 
REMARK   11  A    between atoms: C22_32  and  N5_33 
REMARK   12  A    between atoms: C22_32  and  C23_37 
REMARK   13  A    between atoms: C22_32  and  C25_39 
ROOT
HETATM    1  C1  UNL     1       9.685 131.837 364.466  1.00  0.00     0.018 C 
HETATM    2  C2  UNL     1       9.677 131.166 363.466  1.00  0.00    -0.073 C 
HETATM    3  C3  UNL     1       9.721 130.448 362.232  1.00  0.00     0.071 A 
HETATM    4  C4  UNL     1      10.959 130.434 361.576  1.00  0.00     0.113 A 
HETATM    5  N1  UNL     1      11.009 129.943 360.344  1.00  0.00    -0.350 N 
ATOM      6  H1  UNL     1      11.914 129.940 359.873  1.00  0.00     0.166 HD
HETATM    7  C5  UNL     1       9.984 129.463 359.688  1.00  0.00     0.113 A 
HETATM    8  C6  UNL     1       8.681 129.440 360.319  1.00  0.00     0.063 A 
HETATM    9  C27 UNL     1       8.605 129.932 361.564  1.00  0.00     0.151 A 
HETATM   10  F1  UNL     1       7.446 129.996 362.270  1.00  0.00    -0.203 F 
ENDROOT
BRANCH   8  11
HETATM   11  C7  UNL     1       7.712 128.890 359.411  1.00  0.00     0.112 C 
BRANCH  11  12
HETATM   12  N3  UNL     1       6.769 129.607 358.637  1.00  0.00    -0.325 N 
HETATM   13  C12 UNL     1       6.853 130.089 357.309  1.00  0.00     0.246 C 
HETATM   14  O1  UNL     1       7.965 130.000 356.797  1.00  0.00    -0.271 OA
BRANCH  12  15
HETATM   15  C8  UNL     1       5.582 129.951 359.488  1.00  0.00     0.136 C 
BRANCH  15  16
HETATM   16  C9  UNL     1       5.178 128.759 360.344  1.00  0.00     0.004 A 
HETATM   17  C10 UNL     1       4.233 128.832 361.452  1.00  0.00     0.007 A 
HETATM   18  C11 UNL     1       3.671 128.367 360.195  1.00  0.00     0.007 A 
ENDBRANCH  15  16
ENDBRANCH  12  15
BRANCH  13  19
HETATM   19  C13 UNL     1       5.690 130.612 356.607  1.00  0.00     0.177 C 
BRANCH  19  20
HETATM   20  C14 UNL     1       5.863 131.860 355.811  1.00  0.00     0.039 C 
BRANCH  20  21
HETATM   21  C15 UNL     1       5.050 132.162 354.639  1.00  0.00    -0.012 C 
HETATM   22  C16 UNL     1       4.246 133.454 354.940  1.00  0.00     0.005 C 
HETATM   23  C17 UNL     1       4.919 134.712 354.623  1.00  0.00     0.000 C 
HETATM   24  C18 UNL     1       5.361 134.771 353.146  1.00  0.00     0.000 C 
HETATM   25  C19 UNL     1       6.338 133.632 353.019  1.00  0.00     0.000 C 
HETATM   26  C20 UNL     1       5.597 132.336 353.279  1.00  0.00     0.005 C 
ENDBRANCH  20  21
ENDBRANCH  19  20
BRANCH  19  27
HETATM   27  N4  UNL     1       5.333 129.598 355.533  1.00  0.00    -0.346 N 
HETATM   28  C21 UNL     1       4.243 128.731 355.809  1.00  0.00     0.254 C 
HETATM   29  O2  UNL     1       3.504 128.809 356.818  1.00  0.00    -0.271 OA
ATOM     30  H4  UNL     1       5.851 129.544 354.656  1.00  0.00     0.163 HD
BRANCH  28  31
HETATM   31  C22 UNL     1       3.933 127.593 354.857  1.00  0.00     0.202 C 
BRANCH  31  32
HETATM   32  N5  UNL     1       2.507 127.579 354.564  1.00  0.00    -0.061 N 
ATOM     33  H53 UNL     1       2.089 128.506 354.639  1.00  0.00     0.275 HD
ATOM     34  H52 UNL     1       2.319 127.415 353.574  1.00  0.00     0.275 HD
ATOM     35  H51 UNL     1       2.043 126.897 355.163  1.00  0.00     0.275 HD
ENDBRANCH  31  32
BRANCH  31  36
HETATM   36  C23 UNL     1       4.390 126.297 355.424  1.00  0.00     0.044 C 
HETATM   37  C24 UNL     1       3.226 125.317 355.581  1.00  0.00     0.008 C 
ENDBRANCH  31  36
BRANCH  31  38
HETATM   38  C25 UNL     1       4.727 128.011 353.628  1.00  0.00     0.044 C 
HETATM   39  C26 UNL     1       4.012 128.449 352.433  1.00  0.00     0.008 C 
ENDBRANCH  31  38
ENDBRANCH  28  31
ENDBRANCH  19  27
ENDBRANCH  13  19
ENDBRANCH  11  12
ENDBRANCH   8  11
BRANCH   7  40
HETATM   40  N2  UNL     1      10.067 129.056 358.483  1.00  0.00    -0.385 N 
ATOM     41  H22 UNL     1       9.369 129.392 357.819  1.00  0.00     0.157 HD
ATOM     42  H21 UNL     1      10.820 128.450 358.156  1.00  0.00     0.157 HD
ENDBRANCH   7  40
TORSDOF 13
ENDMDL
MODEL 5
REMARK VINA RESULT: -7.385417431      7.594     11.174
REMARK  13 active torsions:
REMARK  status: ('A' for Active; 'I' for Inactive)
REMARK    1  A    between atoms: C5_7  and  N2_8 
REMARK    2  A    between atoms: C6_11  and  C7_12 
REMARK    3  A    between atoms: C7_12  and  N3_13 
REMARK    4  A    between atoms: N3_13  and  C8_14 
REMARK       I    between atoms: N3_13  and  C12_18 
REMARK    5  A    between atoms: C8_14  and  C9_15 
REMARK    6  A    between atoms: C12_18  and  C13_20 
REMARK    7  A    between atoms: C13_20  and  C14_21 
REMARK    8  A    between atoms: C13_20  and  N4_28 
REMARK    9  A    between atoms: C14_21  and  C15_22 
REMARK       I    between atoms: N4_28  and  C21_30 
REMARK   10  A    between atoms: C21_30  and  C22_32 
REMARK   11  A    between atoms: C22_32  and  N5_33 
REMARK   12  A    between atoms: C22_32  and  C23_37 
REMARK   13  A    between atoms: C22_32  and  C25_39 
ROOT
HETATM    1  C1  UNL     1       4.432 137.902 355.013  1.00  0.00     0.018 C 
HETATM    2  C2  UNL     1       4.483 136.759 354.637  1.00  0.00    -0.073 C 
HETATM    3  C3  UNL     1       4.591 135.379 354.283  1.00  0.00     0.071 A 
HETATM    4  C4  UNL     1       4.200 134.463 355.269  1.00  0.00     0.113 A 
HETATM    5  N1  UNL     1       4.452 133.176 355.062  1.00  0.00    -0.350 N 
ATOM      6  H1  UNL     1       4.168 132.517 355.786  1.00  0.00     0.166 HD
HETATM    7  C5  UNL     1       5.039 132.690 353.998  1.00  0.00     0.113 A 
HETATM    8  C6  UNL     1       5.454 133.588 352.940  1.00  0.00     0.063 A 
HETATM    9  C27 UNL     1       5.211 134.893 353.126  1.00  0.00     0.151 A 
HETATM   10  F1  UNL     1       5.564 135.852 352.232  1.00  0.00    -0.203 F 
ENDROOT
BRANCH   8  11
HETATM   11  C7  UNL     1       6.086 132.839 351.888  1.00  0.00     0.112 C 
BRANCH  11  12
HETATM   12  N3  UNL     1       6.720 133.362 350.737  1.00  0.00    -0.325 N 
HETATM   13  C12 UNL     1       8.088 133.620 350.483  1.00  0.00     0.246 C 
HETATM   14  O1  UNL     1       8.823 133.513 351.461  1.00  0.00    -0.271 OA
BRANCH  12  15
HETATM   15  C8  UNL     1       5.680 133.771 349.736  1.00  0.00     0.136 C 
BRANCH  15  16
HETATM   16  C9  UNL     1       5.087 132.546 349.052  1.00  0.00     0.004 A 
HETATM   17  C10 UNL     1       3.954 132.591 348.136  1.00  0.00     0.007 A 
HETATM   18  C11 UNL     1       5.259 132.557 347.498  1.00  0.00     0.007 A 
ENDBRANCH  15  16
ENDBRANCH  12  15
BRANCH  13  19
HETATM   19  C13 UNL     1       8.573 133.950 349.151  1.00  0.00     0.177 C 
BRANCH  19  20
HETATM   20  C14 UNL     1       8.253 135.303 348.611  1.00  0.00     0.039 C 
BRANCH  20  21
HETATM   21  C15 UNL     1       8.048 135.550 347.189  1.00  0.00    -0.012 C 
HETATM   22  C16 UNL     1       9.102 136.594 346.733  1.00  0.00     0.005 C 
HETATM   23  C17 UNL     1      10.393 136.054 346.310  1.00  0.00     0.000 C 
HETATM   24  C18 UNL     1      10.239 135.019 345.176  1.00  0.00     0.000 C 
HETATM   25  C19 UNL     1       9.416 133.924 345.799  1.00  0.00     0.000 C 
HETATM   26  C20 UNL     1       8.058 134.492 346.159  1.00  0.00     0.005 C 
ENDBRANCH  20  21
ENDBRANCH  19  20
BRANCH  19  27
HETATM   27  N4  UNL     1      10.089 133.994 349.234  1.00  0.00    -0.346 N 
HETATM   28  C21 UNL     1      10.783 132.804 348.888  1.00  0.00     0.254 C 
HETATM   29  O2  UNL     1      10.245 131.769 348.429  1.00  0.00    -0.271 OA
ATOM     30  H4  UNL     1      10.585 134.837 349.525  1.00  0.00     0.163 HD
BRANCH  28  31
HETATM   31  C22 UNL     1      12.282 132.723 349.101  1.00  0.00     0.202 C 
BRANCH  31  32
HETATM   32  N5  UNL     1      12.790 131.492 348.514  1.00  0.00    -0.061 N 
ATOM     33  H53 UNL     1      12.055 130.800 348.370  1.00  0.00     0.275 HD
ATOM     34  H52 UNL     1      13.067 131.615 347.540  1.00  0.00     0.275 HD
ATOM     35  H51 UNL     1      13.552 131.130 349.088  1.00  0.00     0.275 HD
ENDBRANCH  31  32
BRANCH  31  36
HETATM   36  C23 UNL     1      12.610 132.819 350.547  1.00  0.00     0.044 C 
HETATM   37  C24 UNL     1      13.006 131.457 351.120  1.00  0.00     0.008 C 
ENDBRANCH  31  36
BRANCH  31  38
HETATM   38  C25 UNL     1      12.759 133.930 348.307  1.00  0.00     0.044 C 
HETATM   39  C26 UNL     1      14.154 134.351 348.419  1.00  0.00     0.008 C 
ENDBRANCH  31  38
ENDBRANCH  28  31
ENDBRANCH  19  27
ENDBRANCH  13  19
ENDBRANCH  11  12
ENDBRANCH   8  11
BRANCH   7  40
HETATM   40  N2  UNL     1       5.314 131.453 353.868  1.00  0.00    -0.385 N 
ATOM     41  H22 UNL     1       5.127 130.839 354.662  1.00  0.00     0.157 HD
ATOM     42  H21 UNL     1       5.669 131.055 352.998  1.00  0.00     0.157 HD
ENDBRANCH   7  40
TORSDOF 13
ENDMDL
