MODEL 1
REMARK VINA RESULT: -7.670809066      0.000      0.000
REMARK  12 active torsions:
REMARK  status: ('A' for Active; 'I' for Inactive)
REMARK    1  A    between atoms: C2_2  and  C3_3 
REMARK    2  A    between atoms: C3_3  and  C4_4 
REMARK    3  A    between atoms: C3_3  and  C6_6 
REMARK    4  A    between atoms: C3_3  and  C7_9 
REMARK    5  A    between atoms: C7_9  and  C8_10 
REMARK    6  A    between atoms: C7_9  and  N2_16 
REMARK    7  A    between atoms: C8_10  and  C9_11 
REMARK    8  A    between atoms: C9_11  and  C10_12 
REMARK       I    between atoms: N2_16  and  C13_18 
REMARK       I    between atoms: C13_18  and  N3_20 
REMARK    9  A    between atoms: N3_20  and  C14_22 
REMARK   10  A    between atoms: C14_22  and  C15_23 
REMARK   11  A    between atoms: C14_22  and  C22_34 
REMARK       I    between atoms: C15_23  and  N4_25 
REMARK   12  A    between atoms: C20_30  and  C21_31 
ROOT
HETATM    1  N2  UNL     1       6.708 132.935 355.222  1.00  0.00    -0.337 N 
ATOM      2  H2  UNL     1       7.559 133.456 355.012  1.00  0.00     0.164 HD
HETATM    3  C13 UNL     1       6.743 132.006 356.275  1.00  0.00     0.317 C 
HETATM    4  O2  UNL     1       5.693 131.381 356.550  1.00  0.00    -0.247 OA
HETATM    5  N3  UNL     1       7.895 131.732 357.048  1.00  0.00    -0.330 N 
ATOM      6  H3  UNL     1       8.763 132.229 356.847  1.00  0.00     0.165 HD
ENDROOT
BRANCH   1   7
HETATM    7  C7  UNL     1       5.500 133.203 354.394  1.00  0.00     0.103 C 
BRANCH   7   8
HETATM    8  C3  UNL     1       5.760 132.767 352.989  1.00  0.00     0.058 C 
BRANCH   8   9
HETATM    9  C2  UNL     1       5.611 133.850 351.995  1.00  0.00     0.016 C 
HETATM   10  C1  UNL     1       5.329 133.306 350.584  1.00  0.00     0.006 C 
ENDBRANCH   8   9
BRANCH   8  11
HETATM   11  C4  UNL     1       4.758 131.622 352.665  1.00  0.00     0.016 C 
HETATM   12  C5  UNL     1       3.799 131.328 353.733  1.00  0.00     0.006 C 
ENDBRANCH   8  11
BRANCH   8  13
HETATM   13  C6  UNL     1       7.100 132.147 352.823  1.00  0.00     0.241 C 
HETATM   14  N1  UNL     1       7.381 130.770 353.063  1.00  0.00    -0.061 NA
HETATM   15  O1  UNL     1       8.127 132.811 352.445  1.00  0.00    -0.276 OA
ENDBRANCH   8  13
ENDBRANCH   7   8
BRANCH   7  16
HETATM   16  C8  UNL     1       5.025 134.537 354.738  1.00  0.00     0.030 C 
BRANCH  16  17
HETATM   17  C9  UNL     1       3.701 134.723 355.359  1.00  0.00     0.045 C 
BRANCH  17  18
HETATM   18  C10 UNL     1       3.391 136.209 355.572  1.00  0.00     0.096 C 
HETATM   19  C11 UNL     1       4.214 137.063 354.669  1.00  0.00     0.051 C 
HETATM   20  C12 UNL     1       1.948 136.525 355.365  1.00  0.00     0.051 C 
HETATM   21  F1  UNL     1       3.726 136.494 356.880  1.00  0.00    -0.244 F 
ENDBRANCH  17  18
ENDBRANCH  16  17
ENDBRANCH   7  16
ENDBRANCH   1   7
BRANCH   5  22
HETATM   22  C14 UNL     1       7.865 130.731 358.152  1.00  0.00     0.181 C 
BRANCH  22  23
HETATM   23  C15 UNL     1       9.222 130.475 358.630  1.00  0.00     0.243 C 
HETATM   24  O3  UNL     1      10.160 130.789 357.816  1.00  0.00    -0.271 OA
HETATM   25  N4  UNL     1       9.619 129.934 359.859  1.00  0.00    -0.336 N 
HETATM   26  C16 UNL     1       8.595 129.658 360.915  1.00  0.00     0.127 C 
HETATM   27  C20 UNL     1      10.935 129.598 360.304  1.00  0.00     0.188 C 
HETATM   28  C17 UNL     1       8.969 130.443 362.154  1.00  0.00     0.020 C 
HETATM   29  C18 UNL     1      10.407 130.526 362.475  1.00  0.00     0.004 C 
HETATM   30  C19 UNL     1      11.319 130.720 361.281  1.00  0.00     0.036 C 
BRANCH  27  31
HETATM   31  C21 UNL     1      11.954 129.195 359.384  1.00  0.00     0.196 C 
HETATM   32  O4  UNL     1      11.967 128.169 358.711  1.00  0.00    -0.646 OA
HETATM   33  O5  UNL     1      13.072 130.059 359.221  1.00  0.00    -0.646 OA
ENDBRANCH  27  31
ENDBRANCH  22  23
BRANCH  22  34
HETATM   34  C22 UNL     1       7.155 129.516 357.604  1.00  0.00     0.009 C 
HETATM   35  C23 UNL     1       8.061 128.550 356.899  1.00  0.00     0.012 C 
HETATM   36  C24 UNL     1       6.353 128.801 358.631  1.00  0.00     0.012 C 
ENDBRANCH  22  34
ENDBRANCH   5  22
TORSDOF 12
ENDMDL
MODEL 2
REMARK VINA RESULT: -7.622035358      1.073      1.366
REMARK  12 active torsions:
REMARK  status: ('A' for Active; 'I' for Inactive)
REMARK    1  A    between atoms: C2_2  and  C3_3 
REMARK    2  A    between atoms: C3_3  and  C4_4 
REMARK    3  A    between atoms: C3_3  and  C6_6 
REMARK    4  A    between atoms: C3_3  and  C7_9 
REMARK    5  A    between atoms: C7_9  and  C8_10 
REMARK    6  A    between atoms: C7_9  and  N2_16 
REMARK    7  A    between atoms: C8_10  and  C9_11 
REMARK    8  A    between atoms: C9_11  and  C10_12 
REMARK       I    between atoms: N2_16  and  C13_18 
REMARK       I    between atoms: C13_18  and  N3_20 
REMARK    9  A    between atoms: N3_20  and  C14_22 
REMARK   10  A    between atoms: C14_22  and  C15_23 
REMARK   11  A    between atoms: C14_22  and  C22_34 
REMARK       I    between atoms: C15_23  and  N4_25 
REMARK   12  A    between atoms: C20_30  and  C21_31 
ROOT
HETATM    1  N2  UNL     1       6.671 132.892 354.459  1.00  0.00    -0.337 N 
ATOM      2  H2  UNL     1       7.579 133.355 354.414  1.00  0.00     0.164 HD
HETATM    3  C13 UNL     1       6.518 131.820 355.352  1.00  0.00     0.317 C 
HETATM    4  O2  UNL     1       5.398 131.263 355.426  1.00  0.00    -0.247 OA
HETATM    5  N3  UNL     1       7.555 131.327 356.179  1.00  0.00    -0.330 N 
ATOM      6  H3  UNL     1       8.476 131.763 356.140  1.00  0.00     0.165 HD
ENDROOT
BRANCH   1   7
HETATM    7  C7  UNL     1       5.585 133.393 353.572  1.00  0.00     0.103 C 
BRANCH   7   8
HETATM    8  C3  UNL     1       6.046 133.340 352.153  1.00  0.00     0.058 C 
BRANCH   8   9
HETATM    9  C2  UNL     1       5.954 134.638 351.451  1.00  0.00     0.016 C 
HETATM   10  C1  UNL     1       5.950 134.470 349.921  1.00  0.00     0.006 C 
ENDBRANCH   8   9
BRANCH   8  11
HETATM   11  C4  UNL     1       5.166 132.288 351.417  1.00  0.00     0.016 C 
HETATM   12  C5  UNL     1       4.231 131.563 352.280  1.00  0.00     0.006 C 
ENDBRANCH   8  11
BRANCH   8  13
HETATM   13  C6  UNL     1       7.433 132.823 352.021  1.00  0.00     0.241 C 
HETATM   14  N1  UNL     1       7.797 131.455 352.191  1.00  0.00    -0.061 NA
HETATM   15  O1  UNL     1       8.428 133.577 351.740  1.00  0.00    -0.276 OA
ENDBRANCH   8  13
ENDBRANCH   7   8
BRANCH   7  16
HETATM   16  C8  UNL     1       5.041 134.596 354.188  1.00  0.00     0.030 C 
BRANCH  16  17
HETATM   17  C9  UNL     1       3.896 134.512 355.112  1.00  0.00     0.045 C 
BRANCH  17  18
HETATM   18  C10 UNL     1       3.431 135.905 355.550  1.00  0.00     0.096 C 
HETATM   19  C11 UNL     1       4.070 136.968 354.722  1.00  0.00     0.051 C 
HETATM   20  C12 UNL     1       1.949 136.058 355.485  1.00  0.00     0.051 C 
HETATM   21  F1  UNL     1       3.837 136.059 356.859  1.00  0.00    -0.244 F 
ENDBRANCH  17  18
ENDBRANCH  16  17
ENDBRANCH   7  16
ENDBRANCH   1   7
BRANCH   5  22
HETATM   22  C14 UNL     1       7.326 130.182 357.106  1.00  0.00     0.181 C 
BRANCH  22  23
HETATM   23  C15 UNL     1       8.386 130.134 358.110  1.00  0.00     0.243 C 
HETATM   24  O3  UNL     1       9.446 130.794 357.822  1.00  0.00    -0.271 OA
HETATM   25  N4  UNL     1       8.386 129.461 359.338  1.00  0.00    -0.336 N 
HETATM   26  C16 UNL     1       7.143 128.772 359.807  1.00  0.00     0.127 C 
HETATM   27  C20 UNL     1       9.446 129.334 360.288  1.00  0.00     0.188 C 
HETATM   28  C17 UNL     1       6.751 129.361 361.145  1.00  0.00     0.020 C 
HETATM   29  C18 UNL     1       7.851 129.686 362.073  1.00  0.00     0.004 C 
HETATM   30  C19 UNL     1       9.075 130.300 361.424  1.00  0.00     0.036 C 
BRANCH  27  31
HETATM   31  C21 UNL     1      10.818 129.346 359.882  1.00  0.00     0.196 C 
HETATM   32  O4  UNL     1      11.379 128.510 359.179  1.00  0.00    -0.646 OA
HETATM   33  O5  UNL     1      11.627 130.427 360.328  1.00  0.00    -0.646 OA
ENDBRANCH  27  31
ENDBRANCH  22  23
BRANCH  22  34
HETATM   34  C22 UNL     1       7.227 128.948 356.240  1.00  0.00     0.009 C 
HETATM   35  C23 UNL     1       8.432 128.056 356.315  1.00  0.00     0.012 C 
HETATM   36  C24 UNL     1       5.995 128.157 356.496  1.00  0.00     0.012 C 
ENDBRANCH  22  34
ENDBRANCH   5  22
TORSDOF 12
ENDMDL
MODEL 3
REMARK VINA RESULT: -7.186292107      6.054      9.039
REMARK  12 active torsions:
REMARK  status: ('A' for Active; 'I' for Inactive)
REMARK    1  A    between atoms: C2_2  and  C3_3 
REMARK    2  A    between atoms: C3_3  and  C4_4 
REMARK    3  A    between atoms: C3_3  and  C6_6 
REMARK    4  A    between atoms: C3_3  and  C7_9 
REMARK    5  A    between atoms: C7_9  and  C8_10 
REMARK    6  A    between atoms: C7_9  and  N2_16 
REMARK    7  A    between atoms: C8_10  and  C9_11 
REMARK    8  A    between atoms: C9_11  and  C10_12 
REMARK       I    between atoms: N2_16  and  C13_18 
REMARK       I    between atoms: C13_18  and  N3_20 
REMARK    9  A    between atoms: N3_20  and  C14_22 
REMARK   10  A    between atoms: C14_22  and  C15_23 
REMARK   11  A    between atoms: C14_22  and  C22_34 
REMARK       I    between atoms: C15_23  and  N4_25 
REMARK   12  A    between atoms: C20_30  and  C21_31 
ROOT
HETATM    1  N2  UNL     1      10.444 133.023 349.968  1.00  0.00    -0.337 N 
ATOM      2  H2  UNL     1      10.928 133.032 350.866  1.00  0.00     0.164 HD
HETATM    3  C13 UNL     1       9.238 132.310 349.874  1.00  0.00     0.317 C 
HETATM    4  O2  UNL     1       8.629 132.315 348.780  1.00  0.00    -0.247 OA
HETATM    5  N3  UNL     1       8.665 131.584 350.944  1.00  0.00    -0.330 N 
ATOM      6  H3  UNL     1       9.139 131.565 351.847  1.00  0.00     0.165 HD
ENDROOT
BRANCH   1   7
HETATM    7  C7  UNL     1      11.057 133.766 348.833  1.00  0.00     0.103 C 
BRANCH   7   8
HETATM    8  C3  UNL     1      12.491 133.369 348.703  1.00  0.00     0.058 C 
BRANCH   8   9
HETATM    9  C2  UNL     1      13.432 134.505 348.791  1.00  0.00     0.016 C 
HETATM   10  C1  UNL     1      14.783 134.191 348.125  1.00  0.00     0.006 C 
ENDBRANCH   8   9
BRANCH   8  11
HETATM   11  C4  UNL     1      12.655 132.665 347.324  1.00  0.00     0.016 C 
HETATM   12  C5  UNL     1      11.416 132.537 346.553  1.00  0.00     0.006 C 
ENDBRANCH   8  11
BRANCH   8  13
HETATM   13  C6  UNL     1      12.890 132.338 349.696  1.00  0.00     0.241 C 
HETATM   14  N1  UNL     1      13.344 132.630 351.015  1.00  0.00    -0.061 NA
HETATM   15  O1  UNL     1      12.858 131.084 349.441  1.00  0.00    -0.276 OA
ENDBRANCH   8  13
ENDBRANCH   7   8
BRANCH   7  16
HETATM   16  C8  UNL     1      10.623 135.153 348.937  1.00  0.00     0.030 C 
BRANCH  16  17
HETATM   17  C9  UNL     1       9.473 135.637 348.152  1.00  0.00     0.045 C 
BRANCH  17  18
HETATM   18  C10 UNL     1       9.924 136.232 346.813  1.00  0.00     0.096 C 
HETATM   19  C11 UNL     1       9.462 135.393 345.671  1.00  0.00     0.051 C 
HETATM   20  C12 UNL     1       9.444 137.631 346.620  1.00  0.00     0.051 C 
HETATM   21  F1  UNL     1      11.304 136.234 346.832  1.00  0.00    -0.244 F 
ENDBRANCH  17  18
ENDBRANCH  16  17
ENDBRANCH   7  16
ENDBRANCH   1   7
BRANCH   5  22
HETATM   22  C14 UNL     1       7.380 130.846 350.777  1.00  0.00     0.181 C 
BRANCH  22  23
HETATM   23  C15 UNL     1       6.503 131.108 351.916  1.00  0.00     0.243 C 
HETATM   24  O3  UNL     1       6.544 130.237 352.855  1.00  0.00    -0.271 OA
HETATM   25  N4  UNL     1       5.630 132.187 352.105  1.00  0.00    -0.336 N 
HETATM   26  C16 UNL     1       5.614 133.311 351.118  1.00  0.00     0.127 C 
HETATM   27  C20 UNL     1       4.705 132.411 353.171  1.00  0.00     0.188 C 
HETATM   28  C17 UNL     1       5.931 134.595 351.857  1.00  0.00     0.020 C 
HETATM   29  C18 UNL     1       5.352 134.742 353.206  1.00  0.00     0.004 C 
HETATM   30  C19 UNL     1       5.367 133.484 354.049  1.00  0.00     0.036 C 
BRANCH  27  31
HETATM   31  C21 UNL     1       4.093 131.322 353.870  1.00  0.00     0.196 C 
HETATM   32  O4  UNL     1       4.470 130.830 354.928  1.00  0.00    -0.646 OA
HETATM   33  O5  UNL     1       2.930 130.741 353.294  1.00  0.00    -0.646 OA
ENDBRANCH  27  31
ENDBRANCH  22  23
BRANCH  22  34
HETATM   34  C22 UNL     1       7.747 129.392 350.591  1.00  0.00     0.009 C 
HETATM   35  C23 UNL     1       7.425 128.855 349.228  1.00  0.00     0.012 C 
HETATM   36  C24 UNL     1       9.166 129.106 350.926  1.00  0.00     0.012 C 
ENDBRANCH  22  34
ENDBRANCH   5  22
TORSDOF 12
ENDMDL
MODEL 4
REMARK VINA RESULT: -7.073678807      3.424      5.642
REMARK  12 active torsions:
REMARK  status: ('A' for Active; 'I' for Inactive)
REMARK    1  A    between atoms: C2_2  and  C3_3 
REMARK    2  A    between atoms: C3_3  and  C4_4 
REMARK    3  A    between atoms: C3_3  and  C6_6 
REMARK    4  A    between atoms: C3_3  and  C7_9 
REMARK    5  A    between atoms: C7_9  and  C8_10 
REMARK    6  A    between atoms: C7_9  and  N2_16 
REMARK    7  A    between atoms: C8_10  and  C9_11 
REMARK    8  A    between atoms: C9_11  and  C10_12 
REMARK       I    between atoms: N2_16  and  C13_18 
REMARK       I    between atoms: C13_18  and  N3_20 
REMARK    9  A    between atoms: N3_20  and  C14_22 
REMARK   10  A    between atoms: C14_22  and  C15_23 
REMARK   11  A    between atoms: C14_22  and  C22_34 
REMARK       I    between atoms: C15_23  and  N4_25 
REMARK   12  A    between atoms: C20_30  and  C21_31 
ROOT
HETATM    1  N2  UNL     1       7.951 130.523 358.487  1.00  0.00    -0.337 N 
ATOM      2  H2  UNL     1       7.989 131.515 358.253  1.00  0.00     0.164 HD
HETATM    3  C13 UNL     1       8.992 129.986 359.261  1.00  0.00     0.317 C 
HETATM    4  O2  UNL     1       8.937 128.773 359.571  1.00  0.00    -0.247 OA
HETATM    5  N3  UNL     1      10.103 130.733 359.717  1.00  0.00    -0.330 N 
ATOM      6  H3  UNL     1      10.171 131.722 359.482  1.00  0.00     0.165 HD
ENDROOT
BRANCH   1   7
HETATM    7  C7  UNL     1       6.795 129.728 357.988  1.00  0.00     0.103 C 
BRANCH   7   8
HETATM    8  C3  UNL     1       6.534 130.084 356.561  1.00  0.00     0.058 C 
BRANCH   8   9
HETATM    9  C2  UNL     1       5.141 129.835 356.132  1.00  0.00     0.016 C 
HETATM   10  C1  UNL     1       4.977 129.942 354.607  1.00  0.00     0.006 C 
ENDBRANCH   8   9
BRANCH   8  11
HETATM   11  C4  UNL     1       7.505 129.239 355.687  1.00  0.00     0.016 C 
HETATM   12  C5  UNL     1       7.690 127.858 356.139  1.00  0.00     0.006 C 
ENDBRANCH   8  11
BRANCH   8  13
HETATM   13  C6  UNL     1       6.885 131.494 356.250  1.00  0.00     0.241 C 
HETATM   14  N1  UNL     1       6.206 132.626 356.789  1.00  0.00    -0.061 NA
HETATM   15  O1  UNL     1       7.841 131.810 355.461  1.00  0.00    -0.276 OA
ENDBRANCH   8  13
ENDBRANCH   7   8
BRANCH   7  16
HETATM   16  C8  UNL     1       5.765 129.765 359.018  1.00  0.00     0.030 C 
BRANCH  16  17
HETATM   17  C9  UNL     1       5.412 128.546 359.768  1.00  0.00     0.045 C 
BRANCH  17  18
HETATM   18  C10 UNL     1       4.012 128.048 359.393  1.00  0.00     0.096 C 
HETATM   19  C11 UNL     1       4.081 126.738 358.685  1.00  0.00     0.051 C 
HETATM   20  C12 UNL     1       3.117 127.919 360.579  1.00  0.00     0.051 C 
HETATM   21  F1  UNL     1       3.480 128.989 358.535  1.00  0.00    -0.244 F 
ENDBRANCH  17  18
ENDBRANCH  16  17
ENDBRANCH   7  16
ENDBRANCH   1   7
BRANCH   5  22
HETATM   22  C14 UNL     1      11.176 130.099 360.536  1.00  0.00     0.181 C 
BRANCH  22  23
HETATM   23  C15 UNL     1      11.428 130.900 361.732  1.00  0.00     0.243 C 
HETATM   24  O3  UNL     1      12.292 131.837 361.596  1.00  0.00    -0.271 OA
HETATM   25  N4  UNL     1      10.845 130.771 362.999  1.00  0.00    -0.336 N 
HETATM   26  C16 UNL     1       9.737 129.786 363.209  1.00  0.00     0.127 C 
HETATM   27  C20 UNL     1      11.144 131.488 364.198  1.00  0.00     0.188 C 
HETATM   28  C17 UNL     1       8.524 130.540 363.712  1.00  0.00     0.020 C 
HETATM   29  C18 UNL     1       8.775 131.637 364.667  1.00  0.00     0.004 C 
HETATM   30  C19 UNL     1       9.988 132.489 364.357  1.00  0.00     0.036 C 
BRANCH  27  31
HETATM   31  C21 UNL     1      12.455 132.003 364.453  1.00  0.00     0.196 C 
HETATM   32  O4  UNL     1      13.506 131.371 364.419  1.00  0.00    -0.646 OA
HETATM   33  O5  UNL     1      12.568 133.382 364.781  1.00  0.00    -0.646 OA
ENDBRANCH  27  31
ENDBRANCH  22  23
BRANCH  22  34
HETATM   34  C22 UNL     1      12.370 129.944 359.624  1.00  0.00     0.009 C 
HETATM   35  C23 UNL     1      12.373 128.665 358.840  1.00  0.00     0.012 C 
HETATM   36  C24 UNL     1      12.552 131.100 358.707  1.00  0.00     0.012 C 
ENDBRANCH  22  34
ENDBRANCH   5  22
TORSDOF 12
ENDMDL
MODEL 5
REMARK VINA RESULT: -6.967609589      4.683      7.986
REMARK  12 active torsions:
REMARK  status: ('A' for Active; 'I' for Inactive)
REMARK    1  A    between atoms: C2_2  and  C3_3 
REMARK    2  A    between atoms: C3_3  and  C4_4 
REMARK    3  A    between atoms: C3_3  and  C6_6 
REMARK    4  A    between atoms: C3_3  and  C7_9 
REMARK    5  A    between atoms: C7_9  and  C8_10 
REMARK    6  A    between atoms: C7_9  and  N2_16 
REMARK    7  A    between atoms: C8_10  and  C9_11 
REMARK    8  A    between atoms: C9_11  and  C10_12 
REMARK       I    between atoms: N2_16  and  C13_18 
REMARK       I    between atoms: C13_18  and  N3_20 
REMARK    9  A    between atoms: N3_20  and  C14_22 
REMARK   10  A    between atoms: C14_22  and  C15_23 
REMARK   11  A    between atoms: C14_22  and  C22_34 
REMARK       I    between atoms: C15_23  and  N4_25 
REMARK   12  A    between atoms: C20_30  and  C21_31 
ROOT
HETATM    1  N2  UNL     1       8.227 133.140 349.559  1.00  0.00    -0.337 N 
ATOM      2  H2  UNL     1       8.677 132.274 349.262  1.00  0.00     0.164 HD
HETATM    3  C13 UNL     1       7.066 133.048 350.343  1.00  0.00     0.317 C 
HETATM    4  O2  UNL     1       6.524 134.109 350.729  1.00  0.00    -0.247 OA
HETATM    5  N3  UNL     1       6.467 131.825 350.726  1.00  0.00    -0.330 N 
ATOM      6  H3  UNL     1       6.889 130.946 350.428  1.00  0.00     0.165 HD
ENDROOT
BRANCH   1   7
HETATM    7  C7  UNL     1       8.841 134.430 349.136  1.00  0.00     0.103 C 
BRANCH   7   8
HETATM    8  C3  UNL     1       8.771 134.542 347.649  1.00  0.00     0.058 C 
BRANCH   8   9
HETATM    9  C2  UNL     1       9.880 135.322 347.061  1.00  0.00     0.016 C 
HETATM   10  C1  UNL     1       9.724 135.495 345.540  1.00  0.00     0.006 C 
ENDBRANCH   8   9
BRANCH   8  11
HETATM   11  C4  UNL     1       7.415 135.221 347.298  1.00  0.00     0.016 C 
HETATM   12  C5  UNL     1       7.109 136.418 348.085  1.00  0.00     0.006 C 
ENDBRANCH   8  11
BRANCH   8  13
HETATM   13  C6  UNL     1       8.709 133.218 346.978  1.00  0.00     0.241 C 
HETATM   14  N1  UNL     1       9.799 132.302 346.910  1.00  0.00    -0.061 NA
HETATM   15  O1  UNL     1       7.653 132.787 346.397  1.00  0.00    -0.276 OA
ENDBRANCH   8  13
ENDBRANCH   7   8
BRANCH   7  16
HETATM   16  C8  UNL     1      10.078 134.589 349.889  1.00  0.00     0.030 C 
BRANCH  16  17
HETATM   17  C9  UNL     1      10.990 133.447 350.081  1.00  0.00     0.045 C 
BRANCH  17  18
HETATM   18  C10 UNL     1      12.439 133.831 349.761  1.00  0.00     0.096 C 
HETATM   19  C11 UNL     1      13.399 132.926 350.455  1.00  0.00     0.051 C 
HETATM   20  C12 UNL     1      12.722 133.818 348.297  1.00  0.00     0.051 C 
HETATM   21  F1  UNL     1      12.616 135.114 350.237  1.00  0.00    -0.244 F 
ENDBRANCH  17  18
ENDBRANCH  16  17
ENDBRANCH   7  16
ENDBRANCH   1   7
BRANCH   5  22
HETATM   22  C14 UNL     1       5.231 131.797 351.560  1.00  0.00     0.181 C 
BRANCH  22  23
HETATM   23  C15 UNL     1       5.496 131.108 352.820  1.00  0.00     0.243 C 
HETATM   24  O3  UNL     1       6.156 130.014 352.722  1.00  0.00    -0.271 OA
HETATM   25  N4  UNL     1       5.120 131.493 354.114  1.00  0.00    -0.336 N 
HETATM   26  C16 UNL     1       4.457 132.817 354.330  1.00  0.00     0.127 C 
HETATM   27  C20 UNL     1       5.295 130.787 355.343  1.00  0.00     0.188 C 
HETATM   28  C17 UNL     1       5.300 133.615 355.302  1.00  0.00     0.020 C 
HETATM   29  C18 UNL     1       5.913 132.866 356.416  1.00  0.00     0.004 C 
HETATM   30  C19 UNL     1       6.460 131.502 356.046  1.00  0.00     0.036 C 
BRANCH  27  31
HETATM   31  C21 UNL     1       5.325 129.356 355.385  1.00  0.00     0.196 C 
HETATM   32  O4  UNL     1       6.277 128.655 355.710  1.00  0.00    -0.646 OA
HETATM   33  O5  UNL     1       4.139 128.663 355.016  1.00  0.00    -0.646 OA
ENDBRANCH  27  31
ENDBRANCH  22  23
BRANCH  22  34
HETATM   34  C22 UNL     1       4.160 131.156 350.709  1.00  0.00     0.009 C 
HETATM   35  C23 UNL     1       2.983 130.654 351.491  1.00  0.00     0.012 C 
HETATM   36  C24 UNL     1       3.696 132.035 349.603  1.00  0.00     0.012 C 
ENDBRANCH  22  34
ENDBRANCH   5  22
TORSDOF 12
ENDMDL
