MODEL 1
REMARK VINA RESULT: -7.449586192      0.000      0.000
REMARK  8 active torsions:
REMARK  status: ('A' for Active; 'I' for Inactive)
REMARK    1  A    between atoms: C2_2  and  O1_3 
REMARK    2  A    between atoms: O1_3  and  C3_4 
REMARK    3  A    between atoms: C3_4  and  O2_5 
REMARK    4  A    between atoms: O2_5  and  O3_6 
REMARK    5  A    between atoms: C14_22  and  C15_23 
REMARK    6  A    between atoms: C15_23  and  C16_24 
REMARK    7  A    between atoms: C16_24  and  C17_25 
REMARK    8  A    between atoms: C18_26  and  C20_28 
ROOT
HETATM    1  C3  UNL     1      26.358 -23.657 -11.687  1.00  0.00     0.448 C 
HETATM    2  O4  UNL     1      25.461 -22.730 -12.192  1.00  0.00    -0.261 OA
HETATM    3  C4  UNL     1      24.256 -23.094 -12.630  1.00  0.00     0.247 C 
HETATM    4  O5  UNL     1      24.088 -24.464 -12.886  1.00  0.00    -0.190 OA
HETATM    5  O6  UNL     1      24.368 -24.556 -14.205  1.00  0.00    -0.192 OA
HETATM    6  C5  UNL     1      25.678 -24.875 -14.236  1.00  0.00     0.253 A 
HETATM    7  C6  UNL     1      25.847 -26.362 -13.847  1.00  0.00     0.088 C 
HETATM    8  O7  UNL     1      26.671 -24.686 -15.087  1.00  0.00    -0.306 OA
HETATM    9  C7  UNL     1      26.522 -23.866 -13.924  1.00  0.00     0.234 A 
HETATM   10  C8  UNL     1      26.784 -22.529 -14.368  1.00  0.00     0.079 C 
HETATM   11  C9  UNL     1      25.774 -21.656 -14.989  1.00  0.00    -0.013 C 
HETATM   12  C10 UNL     1      25.849 -20.201 -14.474  1.00  0.00     0.010 C 
HETATM   13  C11 UNL     1      24.363 -22.038 -14.980  1.00  0.00     0.015 C 
HETATM   14  C12 UNL     1      23.650 -22.396 -13.782  1.00  0.00     0.058 C 
HETATM   15  C13 UNL     1      22.823 -21.281 -13.114  1.00  0.00     0.021 C 
HETATM   16  C14 UNL     1      22.036 -22.290 -12.202  1.00  0.00     0.037 C 
HETATM   17  C22 UNL     1      23.280 -22.753 -11.502  1.00  0.00     0.050 C 
HETATM   18  N1  UNL     1      23.467 -22.810 -10.285  1.00  0.00    -0.401 N 
ATOM     19  H11 UNL     1      22.817 -22.582  -9.533  1.00  0.00     0.155 HD
ATOM     20  H12 UNL     1      24.313 -23.124  -9.809  1.00  0.00     0.155 HD
HETATM   21  O8  UNL     1      27.145 -24.148 -12.722  1.00  0.00    -0.264 OA
ENDROOT
BRANCH  16  22
HETATM   22  C15 UNL     1      21.020 -21.617 -11.406  1.00  0.00     0.014 C 
BRANCH  22  23
HETATM   23  C16 UNL     1      21.391 -20.225 -11.051  1.00  0.00     0.028 C 
BRANCH  23  24
HETATM   24  C17 UNL     1      20.333 -19.486 -10.333  1.00  0.00    -0.024 C 
HETATM   25  C18 UNL     1      20.035 -18.254 -10.683  1.00  0.00    -0.088 C 
HETATM   26  C19 UNL     1      20.760 -17.588 -11.808  1.00  0.00     0.043 C 
BRANCH  25  27
HETATM   27  C20 UNL     1      18.973 -17.448  -9.996  1.00  0.00     0.029 C 
HETATM   28  C21 UNL     1      18.132 -16.672 -10.969  1.00  0.00     0.010 C 
ENDBRANCH  25  27
ENDBRANCH  23  24
ENDBRANCH  22  23
ENDBRANCH  16  22
BRANCH   1  29
HETATM   29  O1  UNL     1      26.991 -23.191 -10.584  1.00  0.00    -0.307 OA
BRANCH  29  30
HETATM   30  C2  UNL     1      27.403 -21.971 -10.362  1.00  0.00     0.172 C 
HETATM   31  C1  UNL     1      28.524 -21.395 -11.183  1.00  0.00     0.033 C 
ENDBRANCH  29  30
ENDBRANCH   1  29
BRANCH   1  32
HETATM   32  O2  UNL     1      25.571 -24.691 -11.081  1.00  0.00    -0.146 OA
BRANCH  32  33
HETATM   33  O3  UNL     1      25.808 -24.750  -9.787  1.00  0.00    -0.243 OA
ATOM     34  H3  UNL     1      25.120 -24.308  -9.303  1.00  0.00     0.254 HD
ENDBRANCH  32  33
ENDBRANCH   1  32
TORSDOF 8
ENDMDL
MODEL 2
REMARK VINA RESULT: -7.347220576      4.376      6.450
REMARK  8 active torsions:
REMARK  status: ('A' for Active; 'I' for Inactive)
REMARK    1  A    between atoms: C2_2  and  O1_3 
REMARK    2  A    between atoms: O1_3  and  C3_4 
REMARK    3  A    between atoms: C3_4  and  O2_5 
REMARK    4  A    between atoms: O2_5  and  O3_6 
REMARK    5  A    between atoms: C14_22  and  C15_23 
REMARK    6  A    between atoms: C15_23  and  C16_24 
REMARK    7  A    between atoms: C16_24  and  C17_25 
REMARK    8  A    between atoms: C18_26  and  C20_28 
ROOT
HETATM    1  C3  UNL     1      24.080 -20.225 -19.188  1.00  0.00     0.448 C 
HETATM    2  O4  UNL     1      24.077 -20.915 -17.987  1.00  0.00    -0.261 OA
HETATM    3  C4  UNL     1      24.290 -20.295 -16.827  1.00  0.00     0.247 C 
HETATM    4  O5  UNL     1      24.862 -19.016 -16.915  1.00  0.00    -0.190 OA
HETATM    5  O6  UNL     1      26.183 -19.273 -16.785  1.00  0.00    -0.192 OA
HETATM    6  C5  UNL     1      26.618 -19.379 -18.056  1.00  0.00     0.253 A 
HETATM    7  C6  UNL     1      26.705 -17.968 -18.682  1.00  0.00     0.088 C 
HETATM    8  O7  UNL     1      27.601 -20.023 -18.662  1.00  0.00    -0.306 OA
HETATM    9  C7  UNL     1      26.258 -20.516 -18.694  1.00  0.00     0.234 A 
HETATM   10  C8  UNL     1      26.369 -21.928 -18.483  1.00  0.00     0.079 C 
HETATM   11  C9  UNL     1      26.461 -22.557 -17.154  1.00  0.00    -0.013 C 
HETATM   12  C10 UNL     1      25.601 -23.836 -17.041  1.00  0.00     0.010 C 
HETATM   13  C11 UNL     1      26.213 -21.770 -15.947  1.00  0.00     0.015 C 
HETATM   14  C12 UNL     1      25.023 -20.986 -15.747  1.00  0.00     0.058 C 
HETATM   15  C13 UNL     1      23.894 -21.645 -14.931  1.00  0.00     0.021 C 
HETATM   16  C14 UNL     1      23.129 -20.287 -14.727  1.00  0.00     0.037 C 
HETATM   17  C22 UNL     1      22.909 -20.096 -16.199  1.00  0.00     0.050 C 
HETATM   18  N1  UNL     1      21.838 -19.863 -16.763  1.00  0.00    -0.401 N 
ATOM     19  H11 UNL     1      20.917 -19.732 -16.344  1.00  0.00     0.155 HD
ATOM     20  H12 UNL     1      21.687 -19.734 -17.763  1.00  0.00     0.155 HD
HETATM   21  O8  UNL     1      25.369 -20.207 -19.707  1.00  0.00    -0.264 OA
ENDROOT
BRANCH  16  22
HETATM   22  C15 UNL     1      21.957 -20.451 -13.880  1.00  0.00     0.014 C 
BRANCH  22  23
HETATM   23  C16 UNL     1      22.267 -20.331 -12.434  1.00  0.00     0.028 C 
BRANCH  23  24
HETATM   24  C17 UNL     1      21.418 -19.359 -11.716  1.00  0.00    -0.024 C 
HETATM   25  C18 UNL     1      20.709 -19.742 -10.678  1.00  0.00    -0.088 C 
HETATM   26  C19 UNL     1      20.751 -21.162 -10.212  1.00  0.00     0.043 C 
BRANCH  25  27
HETATM   27  C20 UNL     1      19.827 -18.807  -9.905  1.00  0.00     0.029 C 
HETATM   28  C21 UNL     1      19.489 -17.569 -10.685  1.00  0.00     0.010 C 
ENDBRANCH  25  27
ENDBRANCH  23  24
ENDBRANCH  22  23
ENDBRANCH  16  22
BRANCH   1  29
HETATM   29  O1  UNL     1      23.081 -20.637 -20.005  1.00  0.00    -0.307 OA
BRANCH  29  30
HETATM   30  C2  UNL     1      22.507 -21.810 -20.026  1.00  0.00     0.172 C 
HETATM   31  C1  UNL     1      21.058 -21.946 -19.647  1.00  0.00     0.033 C 
ENDBRANCH  29  30
ENDBRANCH   1  29
BRANCH   1  32
HETATM   32  O2  UNL     1      23.607 -18.904 -18.895  1.00  0.00    -0.146 OA
BRANCH  32  33
HETATM   33  O3  UNL     1      22.548 -18.622 -19.626  1.00  0.00    -0.243 OA
ATOM     34  H3  UNL     1      21.846 -18.290 -19.078  1.00  0.00     0.254 HD
ENDBRANCH  32  33
ENDBRANCH   1  32
TORSDOF 8
ENDMDL
MODEL 3
REMARK VINA RESULT: -7.293559655      4.863      6.911
REMARK  8 active torsions:
REMARK  status: ('A' for Active; 'I' for Inactive)
REMARK    1  A    between atoms: C2_2  and  O1_3 
REMARK    2  A    between atoms: O1_3  and  C3_4 
REMARK    3  A    between atoms: C3_4  and  O2_5 
REMARK    4  A    between atoms: O2_5  and  O3_6 
REMARK    5  A    between atoms: C14_22  and  C15_23 
REMARK    6  A    between atoms: C15_23  and  C16_24 
REMARK    7  A    between atoms: C16_24  and  C17_25 
REMARK    8  A    between atoms: C18_26  and  C20_28 
ROOT
HETATM    1  C3  UNL     1      22.747 -21.020 -19.679  1.00  0.00     0.448 C 
HETATM    2  O4  UNL     1      23.108 -21.246 -18.361  1.00  0.00    -0.261 OA
HETATM    3  C4  UNL     1      23.197 -20.247 -17.483  1.00  0.00     0.247 C 
HETATM    4  O5  UNL     1      23.263 -18.957 -18.030  1.00  0.00    -0.190 OA
HETATM    5  O6  UNL     1      24.595 -18.735 -18.107  1.00  0.00    -0.192 OA
HETATM    6  C5  UNL     1      24.913 -19.109 -19.362  1.00  0.00     0.253 A 
HETATM    7  C6  UNL     1      24.428 -18.026 -20.353  1.00  0.00     0.088 C 
HETATM    8  O7  UNL     1      25.996 -19.578 -19.957  1.00  0.00    -0.306 OA
HETATM    9  C7  UNL     1      24.922 -20.444 -19.579  1.00  0.00     0.234 A 
HETATM   10  C8  UNL     1      25.551 -21.603 -19.018  1.00  0.00     0.079 C 
HETATM   11  C9  UNL     1      25.991 -21.702 -17.616  1.00  0.00    -0.013 C 
HETATM   12  C10 UNL     1      25.661 -23.075 -16.986  1.00  0.00     0.010 C 
HETATM   13  C11 UNL     1      25.597 -20.684 -16.645  1.00  0.00     0.015 C 
HETATM   14  C12 UNL     1      24.231 -20.286 -16.428  1.00  0.00     0.058 C 
HETATM   15  C13 UNL     1      23.498 -20.958 -15.251  1.00  0.00     0.021 C 
HETATM   16  C14 UNL     1      22.322 -19.915 -15.274  1.00  0.00     0.037 C 
HETATM   17  C22 UNL     1      21.906 -20.293 -16.664  1.00  0.00     0.050 C 
HETATM   18  N1  UNL     1      20.772 -20.600 -17.040  1.00  0.00    -0.401 N 
ATOM     19  H11 UNL     1      19.911 -20.631 -16.494  1.00  0.00     0.155 HD
ATOM     20  H12 UNL     1      20.489 -20.857 -17.985  1.00  0.00     0.155 HD
HETATM   21  O8  UNL     1      23.887 -20.774 -20.434  1.00  0.00    -0.264 OA
ENDROOT
BRANCH  16  22
HETATM   22  C15 UNL     1      21.375 -20.148 -14.193  1.00  0.00     0.014 C 
BRANCH  22  23
HETATM   23  C16 UNL     1      21.982 -19.995 -12.848  1.00  0.00     0.028 C 
BRANCH  23  24
HETATM   24  C17 UNL     1      21.238 -19.087 -11.952  1.00  0.00    -0.024 C 
HETATM   25  C18 UNL     1      20.734 -19.539 -10.825  1.00  0.00    -0.088 C 
HETATM   26  C19 UNL     1      20.907 -20.972 -10.437  1.00  0.00     0.043 C 
BRANCH  25  27
HETATM   27  C20 UNL     1      19.968 -18.671  -9.871  1.00  0.00     0.029 C 
HETATM   28  C21 UNL     1      19.295 -17.521 -10.564  1.00  0.00     0.010 C 
ENDBRANCH  25  27
ENDBRANCH  23  24
ENDBRANCH  22  23
ENDBRANCH  16  22
BRANCH   1  29
HETATM   29  O1  UNL     1      21.887 -21.963 -20.131  1.00  0.00    -0.307 OA
BRANCH  29  30
HETATM   30  C2  UNL     1      22.145 -22.943 -20.955  1.00  0.00     0.172 C 
HETATM   31  C1  UNL     1      22.908 -24.148 -20.475  1.00  0.00     0.033 C 
ENDBRANCH  29  30
ENDBRANCH   1  29
BRANCH   1  32
HETATM   32  O2  UNL     1      21.864 -19.890 -19.667  1.00  0.00    -0.146 OA
BRANCH  32  33
HETATM   33  O3  UNL     1      20.635 -20.264 -19.959  1.00  0.00    -0.243 OA
ATOM     34  H3  UNL     1      20.127 -19.521 -20.263  1.00  0.00     0.254 HD
ENDBRANCH  32  33
ENDBRANCH   1  32
TORSDOF 8
ENDMDL
MODEL 4
REMARK VINA RESULT: -6.990080935      3.902      6.033
REMARK  8 active torsions:
REMARK  status: ('A' for Active; 'I' for Inactive)
REMARK    1  A    between atoms: C2_2  and  O1_3 
REMARK    2  A    between atoms: O1_3  and  C3_4 
REMARK    3  A    between atoms: C3_4  and  O2_5 
REMARK    4  A    between atoms: O2_5  and  O3_6 
REMARK    5  A    between atoms: C14_22  and  C15_23 
REMARK    6  A    between atoms: C15_23  and  C16_24 
REMARK    7  A    between atoms: C16_24  and  C17_25 
REMARK    8  A    between atoms: C18_26  and  C20_28 
ROOT
HETATM    1  C3  UNL     1      26.869 -24.782  -6.594  1.00  0.00     0.448 C 
HETATM    2  O4  UNL     1      26.785 -25.119  -7.935  1.00  0.00    -0.261 OA
HETATM    3  C4  UNL     1      25.638 -25.023  -8.606  1.00  0.00     0.247 C 
HETATM    4  O5  UNL     1      24.479 -24.919  -7.822  1.00  0.00    -0.190 OA
HETATM    5  O6  UNL     1      24.073 -26.204  -7.719  1.00  0.00    -0.192 OA
HETATM    6  C5  UNL     1      24.624 -26.625  -6.563  1.00  0.00     0.253 A 
HETATM    7  C6  UNL     1      23.833 -26.025  -5.377  1.00  0.00     0.088 C 
HETATM    8  O7  UNL     1      25.024 -27.789  -6.081  1.00  0.00    -0.306 OA
HETATM    9  C7  UNL     1      25.958 -26.842  -6.607  1.00  0.00     0.234 A 
HETATM   10  C8  UNL     1      26.880 -27.612  -7.386  1.00  0.00     0.079 C 
HETATM   11  C9  UNL     1      26.646 -28.005  -8.786  1.00  0.00    -0.013 C 
HETATM   12  C10 UNL     1      27.909 -27.857  -9.664  1.00  0.00     0.010 C 
HETATM   13  C11 UNL     1      25.535 -27.425  -9.539  1.00  0.00     0.015 C 
HETATM   14  C12 UNL     1      25.318 -26.007  -9.661  1.00  0.00     0.058 C 
HETATM   15  C13 UNL     1      25.862 -25.335 -10.936  1.00  0.00     0.021 C 
HETATM   16  C14 UNL     1      25.034 -24.020 -10.700  1.00  0.00     0.037 C 
HETATM   17  C22 UNL     1      25.726 -23.720  -9.403  1.00  0.00     0.050 C 
HETATM   18  N1  UNL     1      26.269 -22.661  -9.081  1.00  0.00    -0.401 N 
ATOM     19  H11 UNL     1      26.328 -21.793  -9.612  1.00  0.00     0.155 HD
ATOM     20  H12 UNL     1      26.740 -22.458  -8.199  1.00  0.00     0.155 HD
HETATM   21  O8  UNL     1      26.598 -25.902  -5.819  1.00  0.00    -0.264 OA
ENDROOT
BRANCH  16  22
HETATM   22  C15 UNL     1      25.203 -23.074 -11.795  1.00  0.00     0.014 C 
BRANCH  22  23
HETATM   23  C16 UNL     1      23.913 -22.572 -12.329  1.00  0.00     0.028 C 
BRANCH  23  24
HETATM   24  C17 UNL     1      22.852 -22.436 -11.312  1.00  0.00    -0.024 C 
HETATM   25  C18 UNL     1      21.973 -21.463 -11.401  1.00  0.00    -0.088 C 
HETATM   26  C19 UNL     1      22.036 -20.484 -12.529  1.00  0.00     0.043 C 
BRANCH  25  27
HETATM   27  C20 UNL     1      20.872 -21.268 -10.402  1.00  0.00     0.029 C 
HETATM   28  C21 UNL     1      20.447 -19.832 -10.298  1.00  0.00     0.010 C 
ENDBRANCH  25  27
ENDBRANCH  23  24
ENDBRANCH  22  23
ENDBRANCH  16  22
BRANCH   1  29
HETATM   29  O1  UNL     1      28.001 -24.090  -6.322  1.00  0.00    -0.307 OA
BRANCH  29  30
HETATM   30  C2  UNL     1      29.191 -24.576  -6.090  1.00  0.00     0.172 C 
HETATM   31  C1  UNL     1      30.274 -23.685  -5.545  1.00  0.00     0.033 C 
ENDBRANCH  29  30
ENDBRANCH   1  29
BRANCH   1  32
HETATM   32  O2  UNL     1      25.906 -23.741  -6.379  1.00  0.00    -0.146 OA
BRANCH  32  33
HETATM   33  O3  UNL     1      26.511 -22.584  -6.205  1.00  0.00    -0.243 OA
ATOM     34  H3  UNL     1      26.076 -22.081  -5.526  1.00  0.00     0.254 HD
ENDBRANCH  32  33
ENDBRANCH   1  32
TORSDOF 8
ENDMDL
MODEL 5
REMARK VINA RESULT: -6.790766992      1.004      1.120
REMARK  8 active torsions:
REMARK  status: ('A' for Active; 'I' for Inactive)
REMARK    1  A    between atoms: C2_2  and  O1_3 
REMARK    2  A    between atoms: O1_3  and  C3_4 
REMARK    3  A    between atoms: C3_4  and  O2_5 
REMARK    4  A    between atoms: O2_5  and  O3_6 
REMARK    5  A    between atoms: C14_22  and  C15_23 
REMARK    6  A    between atoms: C15_23  and  C16_24 
REMARK    7  A    between atoms: C16_24  and  C17_25 
REMARK    8  A    between atoms: C18_26  and  C20_28 
ROOT
HETATM    1  C3  UNL     1      27.260 -24.131 -11.943  1.00  0.00     0.448 C 
HETATM    2  O4  UNL     1      26.245 -23.254 -12.287  1.00  0.00    -0.261 OA
HETATM    3  C4  UNL     1      24.978 -23.657 -12.380  1.00  0.00     0.247 C 
HETATM    4  O5  UNL     1      24.784 -25.044 -12.468  1.00  0.00    -0.190 OA
HETATM    5  O6  UNL     1      24.732 -25.252 -13.803  1.00  0.00    -0.192 OA
HETATM    6  C5  UNL     1      26.000 -25.571 -14.130  1.00  0.00     0.253 A 
HETATM    7  C6  UNL     1      26.294 -27.018 -13.670  1.00  0.00     0.088 C 
HETATM    8  O7  UNL     1      26.748 -25.457 -15.214  1.00  0.00    -0.306 OA
HETATM    9  C7  UNL     1      26.872 -24.537 -14.125  1.00  0.00     0.234 A 
HETATM   10  C8  UNL     1      26.985 -23.245 -14.732  1.00  0.00     0.079 C 
HETATM   11  C9  UNL     1      25.833 -22.431 -15.156  1.00  0.00    -0.013 C 
HETATM   12  C10 UNL     1      25.999 -20.936 -14.801  1.00  0.00     0.010 C 
HETATM   13  C11 UNL     1      24.477 -22.812 -14.764  1.00  0.00     0.015 C 
HETATM   14  C12 UNL     1      24.090 -23.065 -13.401  1.00  0.00     0.058 C 
HETATM   15  C13 UNL     1      23.428 -21.896 -12.647  1.00  0.00     0.021 C 
HETATM   16  C14 UNL     1      22.915 -22.821 -11.485  1.00  0.00     0.037 C 
HETATM   17  C22 UNL     1      24.303 -23.219 -11.079  1.00  0.00     0.050 C 
HETATM   18  N1  UNL     1      24.786 -23.168  -9.946  1.00  0.00    -0.401 N 
ATOM     19  H11 UNL     1      24.336 -22.875  -9.078  1.00  0.00     0.155 HD
ATOM     20  H12 UNL     1      25.729 -23.438  -9.669  1.00  0.00     0.155 HD
HETATM   21  O8  UNL     1      27.778 -24.711 -13.094  1.00  0.00    -0.264 OA
ENDROOT
BRANCH  16  22
HETATM   22  C15 UNL     1      22.110 -22.082 -10.523  1.00  0.00     0.014 C 
BRANCH  22  23
HETATM   23  C16 UNL     1      20.944 -21.406 -11.143  1.00  0.00     0.028 C 
BRANCH  23  24
HETATM   24  C17 UNL     1      20.551 -20.150 -10.473  1.00  0.00    -0.024 C 
HETATM   25  C18 UNL     1      20.740 -18.995 -11.072  1.00  0.00    -0.088 C 
HETATM   26  C19 UNL     1      21.354 -18.938 -12.434  1.00  0.00     0.043 C 
BRANCH  25  27
HETATM   27  C20 UNL     1      20.365 -17.684 -10.448  1.00  0.00     0.029 C 
HETATM   28  C21 UNL     1      18.878 -17.477 -10.412  1.00  0.00     0.010 C 
ENDBRANCH  25  27
ENDBRANCH  23  24
ENDBRANCH  22  23
ENDBRANCH  16  22
BRANCH   1  29
HETATM   29  O1  UNL     1      28.135 -23.569 -11.076  1.00  0.00    -0.307 OA
BRANCH  29  30
HETATM   30  C2  UNL     1      28.617 -22.356 -11.110  1.00  0.00     0.172 C 
HETATM   31  C1  UNL     1      29.569 -21.956 -12.204  1.00  0.00     0.033 C 
ENDBRANCH  29  30
ENDBRANCH   1  29
BRANCH   1  32
HETATM   32  O2  UNL     1      26.671 -25.109 -11.075  1.00  0.00    -0.146 OA
BRANCH  32  33
HETATM   33  O3  UNL     1      27.204 -25.036  -9.873  1.00  0.00    -0.243 OA
ATOM     34  H3  UNL     1      27.840 -24.332  -9.835  1.00  0.00     0.254 HD
ENDBRANCH  32  33
ENDBRANCH   1  32
TORSDOF 8
ENDMDL
