MODEL 1
REMARK VINA RESULT: -7.293032274      0.000      0.000
REMARK  9 active torsions:
REMARK  status: ('A' for Active; 'I' for Inactive)
REMARK    1  A    between atoms: C2_2  and  C3_3 
REMARK    2  A    between atoms: C3_3  and  C4_4 
REMARK    3  A    between atoms: C4_4  and  C5_5 
REMARK    4  A    between atoms: C5_5  and  C6_6 
REMARK    5  A    between atoms: C6_6  and  O1_7 
REMARK    6  A    between atoms: O1_7  and  N1_8 
REMARK    7  A    between atoms: C7_9  and  O2_10 
REMARK    8  A    between atoms: C10_14  and  O3_15 
REMARK    9  A    between atoms: C12_20  and  O5_21 
ROOT
HETATM    1  N1  UNL     1      21.835 -20.765 -11.906  1.00  0.00    -0.173 N 
HETATM    2  C7  UNL     1      22.753 -21.832 -11.429  1.00  0.00     0.184 A 
HETATM    3  C8  UNL     1      23.703 -21.973 -12.369  1.00  0.00     0.068 A 
HETATM    4  C9  UNL     1      23.401 -21.048 -13.370  1.00  0.00     0.107 A 
HETATM    5  C10 UNL     1      22.313 -20.355 -12.991  1.00  0.00     0.198 A 
HETATM    6  N2  UNL     1      23.911 -21.095 -14.674  1.00  0.00    -0.301 N 
HETATM    7  C11 UNL     1      23.014 -20.585 -15.649  1.00  0.00     0.281 C 
HETATM    8  O4  UNL     1      21.780 -20.835 -15.453  1.00  0.00    -0.265 OA
HETATM    9  C12 UNL     1      23.568 -19.924 -16.727  1.00  0.00     0.132 C 
HETATM   10  C14 UNL     1      24.897 -19.760 -16.811  1.00  0.00     0.018 C 
HETATM   11  C15 UNL     1      25.810 -20.295 -15.732  1.00  0.00     0.057 C 
HETATM   12  C16 UNL     1      25.162 -21.599 -15.260  1.00  0.00     0.116 C 
HETATM   13  C17 UNL     1      25.968 -22.472 -14.434  1.00  0.00     0.099 C 
HETATM   14  C18 UNL     1      25.823 -23.929 -14.909  1.00  0.00     0.023 C 
HETATM   15  C19 UNL     1      24.477 -24.493 -14.610  1.00  0.00     0.003 C 
HETATM   16  C20 UNL     1      24.227 -24.880 -13.205  1.00  0.00     0.022 C 
HETATM   17  C21 UNL     1      25.007 -24.172 -12.173  1.00  0.00     0.110 C 
HETATM   18  S1  UNL     1      26.750 -23.890 -12.496  1.00  0.00    -0.067 SA
HETATM   19  N3  UNL     1      26.015 -22.352 -13.057  1.00  0.00    -0.219 NA
HETATM   20  C22 UNL     1      24.949 -22.727 -12.222  1.00  0.00     0.031 C 
ENDROOT
BRANCH   1  21
HETATM   21  O1  UNL     1      20.766 -20.766 -11.155  1.00  0.00    -0.269 OA
BRANCH  21  22
HETATM   22  C6  UNL     1      20.300 -20.208 -10.034  1.00  0.00     0.202 C 
BRANCH  22  23
HETATM   23  C5  UNL     1      20.156 -18.698 -10.559  1.00  0.00     0.029 C 
BRANCH  23  24
HETATM   24  C4  UNL     1      19.108 -18.016  -9.765  1.00  0.00     0.002 C 
BRANCH  24  25
HETATM   25  C3  UNL     1      18.513 -16.830 -10.440  1.00  0.00    -0.000 C 
BRANCH  25  26
HETATM   26  C2  UNL     1      18.828 -17.011 -11.927  1.00  0.00    -0.005 C 
HETATM   27  C1  UNL     1      17.810 -16.318 -12.783  1.00  0.00     0.005 C 
ENDBRANCH  25  26
ENDBRANCH  24  25
ENDBRANCH  23  24
ENDBRANCH  22  23
ENDBRANCH  21  22
ENDBRANCH   1  21
BRANCH   2  28
HETATM   28  O2  UNL     1      22.583 -22.493 -10.243  1.00  0.00    -0.344 OA
ATOM     29  H2  UNL     1      23.149 -23.200  -9.954  1.00  0.00     0.219 HD
ENDBRANCH   2  28
BRANCH   5  30
HETATM   30  O3  UNL     1      21.816 -19.297 -13.752  1.00  0.00    -0.343 OA
ATOM     31  H3  UNL     1      22.327 -18.740 -14.327  1.00  0.00     0.219 HD
ENDBRANCH   5  30
BRANCH   9  32
HETATM   32  O5  UNL     1      22.789 -19.389 -17.767  1.00  0.00    -0.351 OA
HETATM   33  C13 UNL     1      22.415 -20.149 -18.890  1.00  0.00     0.210 C 
ENDBRANCH   9  32
TORSDOF 9
ENDMDL
MODEL 2
REMARK VINA RESULT: -7.187673091      1.770      2.428
REMARK  9 active torsions:
REMARK  status: ('A' for Active; 'I' for Inactive)
REMARK    1  A    between atoms: C2_2  and  C3_3 
REMARK    2  A    between atoms: C3_3  and  C4_4 
REMARK    3  A    between atoms: C4_4  and  C5_5 
REMARK    4  A    between atoms: C5_5  and  C6_6 
REMARK    5  A    between atoms: C6_6  and  O1_7 
REMARK    6  A    between atoms: O1_7  and  N1_8 
REMARK    7  A    between atoms: C7_9  and  O2_10 
REMARK    8  A    between atoms: C10_14  and  O3_15 
REMARK    9  A    between atoms: C12_20  and  O5_21 
ROOT
HETATM    1  N1  UNL     1      22.758 -21.201 -13.498  1.00  0.00    -0.173 N 
HETATM    2  C7  UNL     1      24.099 -21.800 -13.263  1.00  0.00     0.184 A 
HETATM    3  C8  UNL     1      24.869 -21.441 -14.304  1.00  0.00     0.068 A 
HETATM    4  C9  UNL     1      24.063 -20.663 -15.136  1.00  0.00     0.107 A 
HETATM    5  C10 UNL     1      22.854 -20.542 -14.560  1.00  0.00     0.198 A 
HETATM    6  N2  UNL     1      24.345 -20.383 -16.480  1.00  0.00    -0.301 N 
HETATM    7  C11 UNL     1      23.183 -20.237 -17.282  1.00  0.00     0.281 C 
HETATM    8  O4  UNL     1      22.212 -21.012 -16.998  1.00  0.00    -0.265 OA
HETATM    9  C12 UNL     1      23.242 -19.320 -18.312  1.00  0.00     0.132 C 
HETATM   10  C14 UNL     1      24.351 -18.591 -18.507  1.00  0.00     0.018 C 
HETATM   11  C15 UNL     1      25.553 -18.760 -17.607  1.00  0.00     0.057 C 
HETATM   12  C16 UNL     1      25.590 -20.249 -17.251  1.00  0.00     0.116 C 
HETATM   13  C17 UNL     1      26.800 -20.747 -16.636  1.00  0.00     0.099 C 
HETATM   14  C18 UNL     1      27.210 -22.082 -17.285  1.00  0.00     0.023 C 
HETATM   15  C19 UNL     1      26.285 -23.194 -16.930  1.00  0.00     0.003 C 
HETATM   16  C20 UNL     1      26.432 -23.759 -15.572  1.00  0.00     0.022 C 
HETATM   17  C21 UNL     1      26.988 -22.867 -14.538  1.00  0.00     0.110 C 
HETATM   18  S1  UNL     1      28.382 -21.834 -14.995  1.00  0.00    -0.067 SA
HETATM   19  N3  UNL     1      26.997 -20.727 -15.267  1.00  0.00    -0.219 NA
HETATM   20  C22 UNL     1      26.323 -21.591 -14.387  1.00  0.00     0.031 C 
ENDROOT
BRANCH   1  21
HETATM   21  O1  UNL     1      21.914 -21.724 -12.649  1.00  0.00    -0.269 OA
BRANCH  21  22
HETATM   22  C6  UNL     1      20.910 -21.361 -11.846  1.00  0.00     0.202 C 
BRANCH  22  23
HETATM   23  C5  UNL     1      21.666 -20.212 -11.019  1.00  0.00     0.029 C 
BRANCH  23  24
HETATM   24  C4  UNL     1      20.709 -19.118 -10.739  1.00  0.00     0.002 C 
BRANCH  24  25
HETATM   25  C3  UNL     1      20.763 -18.001 -11.722  1.00  0.00    -0.000 C 
BRANCH  25  26
HETATM   26  C2  UNL     1      19.438 -17.252 -11.556  1.00  0.00    -0.005 C 
HETATM   27  C1  UNL     1      18.829 -17.523 -10.212  1.00  0.00     0.005 C 
ENDBRANCH  25  26
ENDBRANCH  24  25
ENDBRANCH  23  24
ENDBRANCH  22  23
ENDBRANCH  21  22
ENDBRANCH   1  21
BRANCH   2  28
HETATM   28  O2  UNL     1      24.400 -22.559 -12.165  1.00  0.00    -0.344 OA
ATOM     29  H2  UNL     1      25.205 -23.058 -12.081  1.00  0.00     0.219 HD
ENDBRANCH   2  28
BRANCH   5  30
HETATM   30  O3  UNL     1      21.852 -19.748 -15.119  1.00  0.00    -0.343 OA
ATOM     31  H3  UNL     1      21.540 -18.922 -14.768  1.00  0.00     0.219 HD
ENDBRANCH   5  30
BRANCH   9  32
HETATM   32  O5  UNL     1      22.165 -19.095 -19.187  1.00  0.00    -0.351 OA
HETATM   33  C13 UNL     1      22.096 -19.692 -20.458  1.00  0.00     0.210 C 
ENDBRANCH   9  32
TORSDOF 9
ENDMDL
MODEL 3
REMARK VINA RESULT: -7.144043066      1.266      1.466
REMARK  9 active torsions:
REMARK  status: ('A' for Active; 'I' for Inactive)
REMARK    1  A    between atoms: C2_2  and  C3_3 
REMARK    2  A    between atoms: C3_3  and  C4_4 
REMARK    3  A    between atoms: C4_4  and  C5_5 
REMARK    4  A    between atoms: C5_5  and  C6_6 
REMARK    5  A    between atoms: C6_6  and  O1_7 
REMARK    6  A    between atoms: O1_7  and  N1_8 
REMARK    7  A    between atoms: C7_9  and  O2_10 
REMARK    8  A    between atoms: C10_14  and  O3_15 
REMARK    9  A    between atoms: C12_20  and  O5_21 
ROOT
HETATM    1  N1  UNL     1      22.160 -21.209 -12.921  1.00  0.00    -0.173 N 
HETATM    2  C7  UNL     1      23.316 -22.083 -12.588  1.00  0.00     0.184 A 
HETATM    3  C8  UNL     1      24.229 -21.899 -13.556  1.00  0.00     0.068 A 
HETATM    4  C9  UNL     1      23.683 -20.965 -14.437  1.00  0.00     0.107 A 
HETATM    5  C10 UNL     1      22.484 -20.585 -13.959  1.00  0.00     0.198 A 
HETATM    6  N2  UNL     1      24.130 -20.752 -15.747  1.00  0.00    -0.301 N 
HETATM    7  C11 UNL     1      23.098 -20.358 -16.639  1.00  0.00     0.281 C 
HETATM    8  O4  UNL     1      21.963 -20.905 -16.450  1.00  0.00    -0.265 OA
HETATM    9  C12 UNL     1      23.440 -19.475 -17.644  1.00  0.00     0.132 C 
HETATM   10  C14 UNL     1      24.692 -19.003 -17.733  1.00  0.00     0.018 C 
HETATM   11  C15 UNL     1      25.750 -19.428 -16.742  1.00  0.00     0.057 C 
HETATM   12  C16 UNL     1      25.435 -20.890 -16.411  1.00  0.00     0.116 C 
HETATM   13  C17 UNL     1      26.454 -21.639 -15.708  1.00  0.00     0.099 C 
HETATM   14  C18 UNL     1      26.620 -23.030 -16.346  1.00  0.00     0.023 C 
HETATM   15  C19 UNL     1      25.450 -23.916 -16.088  1.00  0.00     0.003 C 
HETATM   16  C20 UNL     1      25.357 -24.500 -14.734  1.00  0.00     0.022 C 
HETATM   17  C21 UNL     1      26.003 -23.750 -13.641  1.00  0.00     0.110 C 
HETATM   18  S1  UNL     1      27.621 -23.042 -13.963  1.00  0.00    -0.067 SA
HETATM   19  N3  UNL     1      26.534 -21.662 -14.327  1.00  0.00    -0.219 NA
HETATM   20  C22 UNL     1      25.619 -22.360 -13.521  1.00  0.00     0.031 C 
ENDROOT
BRANCH   1  21
HETATM   21  O1  UNL     1      21.154 -21.536 -12.153  1.00  0.00    -0.269 OA
BRANCH  21  22
HETATM   22  C6  UNL     1      20.665 -21.279 -10.937  1.00  0.00     0.202 C 
BRANCH  22  23
HETATM   23  C5  UNL     1      21.032 -19.719 -10.855  1.00  0.00     0.029 C 
BRANCH  23  24
HETATM   24  C4  UNL     1      19.968 -19.019 -10.101  1.00  0.00     0.002 C 
BRANCH  24  25
HETATM   25  C3  UNL     1      19.682 -17.643 -10.594  1.00  0.00    -0.000 C 
BRANCH  25  26
HETATM   26  C2  UNL     1      18.438 -17.190  -9.826  1.00  0.00    -0.005 C 
HETATM   27  C1  UNL     1      17.763 -16.043 -10.519  1.00  0.00     0.005 C 
ENDBRANCH  25  26
ENDBRANCH  24  25
ENDBRANCH  23  24
ENDBRANCH  22  23
ENDBRANCH  21  22
ENDBRANCH   1  21
BRANCH   2  28
HETATM   28  O2  UNL     1      23.353 -22.890 -11.484  1.00  0.00    -0.344 OA
ATOM     29  H2  UNL     1      23.855 -23.696 -11.443  1.00  0.00     0.219 HD
ENDBRANCH   2  28
BRANCH   5  30
HETATM   30  O3  UNL     1      21.728 -19.593 -14.583  1.00  0.00    -0.343 OA
ATOM     31  H3  UNL     1      20.931 -19.735 -15.081  1.00  0.00     0.219 HD
ENDBRANCH   5  30
BRANCH   9  32
HETATM   32  O5  UNL     1      22.514 -19.023 -18.599  1.00  0.00    -0.351 OA
HETATM   33  C13 UNL     1      22.596 -19.391 -19.954  1.00  0.00     0.210 C 
ENDBRANCH   9  32
TORSDOF 9
ENDMDL
MODEL 4
REMARK VINA RESULT: -7.123134744      1.777      4.651
REMARK  9 active torsions:
REMARK  status: ('A' for Active; 'I' for Inactive)
REMARK    1  A    between atoms: C2_2  and  C3_3 
REMARK    2  A    between atoms: C3_3  and  C4_4 
REMARK    3  A    between atoms: C4_4  and  C5_5 
REMARK    4  A    between atoms: C5_5  and  C6_6 
REMARK    5  A    between atoms: C6_6  and  O1_7 
REMARK    6  A    between atoms: O1_7  and  N1_8 
REMARK    7  A    between atoms: C7_9  and  O2_10 
REMARK    8  A    between atoms: C10_14  and  O3_15 
REMARK    9  A    between atoms: C12_20  and  O5_21 
ROOT
HETATM    1  N1  UNL     1      22.326 -20.983 -11.811  1.00  0.00    -0.173 N 
HETATM    2  C7  UNL     1      22.590 -20.523 -13.200  1.00  0.00     0.184 A 
HETATM    3  C8  UNL     1      23.536 -21.335 -13.701  1.00  0.00     0.068 A 
HETATM    4  C9  UNL     1      23.842 -22.249 -12.692  1.00  0.00     0.107 A 
HETATM    5  C10 UNL     1      23.051 -21.990 -11.635  1.00  0.00     0.198 A 
HETATM    6  N2  UNL     1      25.001 -23.034 -12.656  1.00  0.00    -0.301 N 
HETATM    7  C11 UNL     1      25.457 -23.308 -11.339  1.00  0.00     0.281 C 
HETATM    8  O4  UNL     1      25.319 -22.361 -10.497  1.00  0.00    -0.265 OA
HETATM    9  C12 UNL     1      26.047 -24.536 -11.122  1.00  0.00     0.132 C 
HETATM   10  C14 UNL     1      26.147 -25.425 -12.120  1.00  0.00     0.018 C 
HETATM   11  C15 UNL     1      25.620 -25.101 -13.499  1.00  0.00     0.057 C 
HETATM   12  C16 UNL     1      25.876 -23.604 -13.691  1.00  0.00     0.116 C 
HETATM   13  C17 UNL     1      25.734 -23.080 -15.032  1.00  0.00     0.099 C 
HETATM   14  C18 UNL     1      26.910 -22.141 -15.359  1.00  0.00     0.023 C 
HETATM   15  C19 UNL     1      26.846 -20.864 -14.594  1.00  0.00     0.003 C 
HETATM   16  C20 UNL     1      25.861 -19.867 -15.066  1.00  0.00     0.022 C 
HETATM   17  C21 UNL     1      24.685 -20.386 -15.789  1.00  0.00     0.110 C 
HETATM   18  S1  UNL     1      24.958 -21.690 -16.992  1.00  0.00    -0.067 SA
HETATM   19  N3  UNL     1      24.524 -22.625 -15.524  1.00  0.00    -0.219 NA
HETATM   20  C22 UNL     1      23.936 -21.420 -15.108  1.00  0.00     0.031 C 
ENDROOT
BRANCH   1  21
HETATM   21  O1  UNL     1      21.603 -20.080 -11.202  1.00  0.00    -0.269 OA
BRANCH  21  22
HETATM   22  C6  UNL     1      20.562 -19.989 -10.371  1.00  0.00     0.202 C 
BRANCH  22  23
HETATM   23  C5  UNL     1      20.367 -18.397 -10.401  1.00  0.00     0.029 C 
BRANCH  23  24
HETATM   24  C4  UNL     1      19.042 -18.068  -9.828  1.00  0.00     0.002 C 
BRANCH  24  25
HETATM   25  C3  UNL     1      18.397 -16.874 -10.440  1.00  0.00    -0.000 C 
BRANCH  25  26
HETATM   26  C2  UNL     1      18.805 -16.906 -11.915  1.00  0.00    -0.005 C 
HETATM   27  C1  UNL     1      17.719 -16.349 -12.787  1.00  0.00     0.005 C 
ENDBRANCH  25  26
ENDBRANCH  24  25
ENDBRANCH  23  24
ENDBRANCH  22  23
ENDBRANCH  21  22
ENDBRANCH   1  21
BRANCH   2  28
HETATM   28  O2  UNL     1      21.944 -19.463 -13.775  1.00  0.00    -0.344 OA
ATOM     29  H2  UNL     1      21.143 -19.551 -14.279  1.00  0.00     0.219 HD
ENDBRANCH   2  28
BRANCH   5  30
HETATM   30  O3  UNL     1      23.067 -22.794 -10.495  1.00  0.00    -0.343 OA
ATOM     31  H3  UNL     1      22.324 -22.968  -9.929  1.00  0.00     0.219 HD
ENDBRANCH   5  30
BRANCH   9  32
HETATM   32  O5  UNL     1      26.554 -24.919  -9.868  1.00  0.00    -0.351 OA
HETATM   33  C13 UNL     1      25.749 -25.529  -8.889  1.00  0.00     0.210 C 
ENDBRANCH   9  32
TORSDOF 9
ENDMDL
MODEL 5
REMARK VINA RESULT: -7.081856246      1.894      5.717
REMARK  9 active torsions:
REMARK  status: ('A' for Active; 'I' for Inactive)
REMARK    1  A    between atoms: C2_2  and  C3_3 
REMARK    2  A    between atoms: C3_3  and  C4_4 
REMARK    3  A    between atoms: C4_4  and  C5_5 
REMARK    4  A    between atoms: C5_5  and  C6_6 
REMARK    5  A    between atoms: C6_6  and  O1_7 
REMARK    6  A    between atoms: O1_7  and  N1_8 
REMARK    7  A    between atoms: C7_9  and  O2_10 
REMARK    8  A    between atoms: C10_14  and  O3_15 
REMARK    9  A    between atoms: C12_20  and  O5_21 
ROOT
HETATM    1  N1  UNL     1      23.206 -20.614 -15.714  1.00  0.00    -0.173 N 
HETATM    2  C7  UNL     1      24.104 -21.773 -15.464  1.00  0.00     0.184 A 
HETATM    3  C8  UNL     1      23.832 -22.211 -14.223  1.00  0.00     0.068 A 
HETATM    4  C9  UNL     1      22.823 -21.382 -13.729  1.00  0.00     0.107 A 
HETATM    5  C10 UNL     1      22.491 -20.503 -14.690  1.00  0.00     0.198 A 
HETATM    6  N2  UNL     1      22.492 -21.255 -12.374  1.00  0.00    -0.301 N 
HETATM    7  C11 UNL     1      22.022 -19.962 -12.025  1.00  0.00     0.281 C 
HETATM    8  O4  UNL     1      22.586 -18.987 -12.623  1.00  0.00    -0.265 OA
HETATM    9  C12 UNL     1      21.051 -19.889 -11.047  1.00  0.00     0.132 C 
HETATM   10  C14 UNL     1      20.570 -21.008 -10.486  1.00  0.00     0.018 C 
HETATM   11  C15 UNL     1      21.080 -22.365 -10.910  1.00  0.00     0.057 C 
HETATM   12  C16 UNL     1      22.567 -22.164 -11.219  1.00  0.00     0.116 C 
HETATM   13  C17 UNL     1      23.373 -23.355 -11.372  1.00  0.00     0.099 C 
HETATM   14  C18 UNL     1      24.701 -23.193 -10.609  1.00  0.00     0.023 C 
HETATM   15  C19 UNL     1      25.609 -22.204 -11.254  1.00  0.00     0.003 C 
HETATM   16  C20 UNL     1      26.313 -22.659 -12.472  1.00  0.00     0.022 C 
HETATM   17  C21 UNL     1      25.663 -23.724 -13.257  1.00  0.00     0.110 C 
HETATM   18  S1  UNL     1      24.925 -25.089 -12.353  1.00  0.00    -0.067 SA
HETATM   19  N3  UNL     1      23.521 -23.997 -12.588  1.00  0.00    -0.219 NA
HETATM   20  C22 UNL     1      24.290 -23.473 -13.640  1.00  0.00     0.031 C 
ENDROOT
BRANCH   1  21
HETATM   21  O1  UNL     1      23.604 -20.004 -16.799  1.00  0.00    -0.269 OA
BRANCH  21  22
HETATM   22  C6  UNL     1      23.107 -19.492 -17.929  1.00  0.00     0.202 C 
BRANCH  22  23
HETATM   23  C5  UNL     1      22.500 -20.839 -18.556  1.00  0.00     0.029 C 
BRANCH  23  24
HETATM   24  C4  UNL     1      21.058 -20.633 -18.819  1.00  0.00     0.002 C 
BRANCH  24  25
HETATM   25  C3  UNL     1      20.300 -21.892 -19.057  1.00  0.00    -0.000 C 
BRANCH  25  26
HETATM   26  C2  UNL     1      18.987 -21.725 -18.289  1.00  0.00    -0.005 C 
HETATM   27  C1  UNL     1      19.096 -20.635 -17.264  1.00  0.00     0.005 C 
ENDBRANCH  25  26
ENDBRANCH  24  25
ENDBRANCH  23  24
ENDBRANCH  22  23
ENDBRANCH  21  22
ENDBRANCH   1  21
BRANCH   2  28
HETATM   28  O2  UNL     1      25.007 -22.235 -16.382  1.00  0.00    -0.344 OA
ATOM     29  H2  UNL     1      25.893 -21.900 -16.456  1.00  0.00     0.219 HD
ENDBRANCH   2  28
BRANCH   5  30
HETATM   30  O3  UNL     1      21.449 -19.591 -14.521  1.00  0.00    -0.343 OA
ATOM     31  H3  UNL     1      21.277 -19.086 -13.735  1.00  0.00     0.219 HD
ENDBRANCH   5  30
BRANCH   9  32
HETATM   32  O5  UNL     1      20.517 -18.667 -10.602  1.00  0.00    -0.351 OA
HETATM   33  C13 UNL     1      19.509 -18.602  -9.624  1.00  0.00     0.210 C 
ENDBRANCH   9  32
TORSDOF 9
ENDMDL
