MODEL 1
REMARK VINA RESULT: -7.612054392      0.000      0.000
REMARK  9 active torsions:
REMARK  status: ('A' for Active; 'I' for Inactive)
REMARK    1  A    between atoms: C2_2  and  C3_3 
REMARK    2  A    between atoms: C3_3  and  C4_4 
REMARK    3  A    between atoms: C4_4  and  N1_5 
REMARK    4  A    between atoms: C5_6  and  S1_7 
REMARK    5  A    between atoms: S1_7  and  C6_8 
REMARK    6  A    between atoms: C6_8  and  C7_9 
REMARK    7  A    between atoms: C14_23  and  C15_24 
REMARK    8  A    between atoms: C20_32  and  C21_33 
REMARK    9  A    between atoms: C21_33  and  O1_35 
ROOT
HETATM    1  N1  UNL     1      23.120 -21.795 -12.911  1.00  0.00    -0.323 N 
HETATM    2  C5  UNL     1      23.031 -22.348 -11.643  1.00  0.00     0.148 A 
HETATM    3  N5  UNL     1      22.263 -21.491 -10.948  1.00  0.00    -0.335 N 
ATOM      4  H5  UNL     1      22.014 -21.621  -9.968  1.00  0.00     0.168 HD
HETATM    5  C14 UNL     1      21.857 -20.433 -11.698  1.00  0.00     0.066 A 
HETATM    6  C20 UNL     1      22.416 -20.673 -12.957  1.00  0.00     0.070 A 
ENDROOT
BRANCH   2   7
HETATM    7  S1  UNL     1      23.666 -23.854 -11.014  1.00  0.00    -0.086 SA
BRANCH   7   8
HETATM    8  C6  UNL     1      25.195 -24.119 -10.317  1.00  0.00     0.160 C 
BRANCH   8   9
HETATM    9  C7  UNL     1      25.382 -23.891  -8.879  1.00  0.00     0.109 A 
HETATM   10  N2  UNL     1      26.017 -22.826  -8.287  1.00  0.00    -0.287 N 
HETATM   11  N3  UNL     1      26.025 -22.974  -6.981  1.00  0.00    -0.287 N 
ATOM     12  H2  UNL     1      26.422 -22.035  -8.788  1.00  0.00     0.188 HD
HETATM   13  C8  UNL     1      25.409 -24.117  -6.704  1.00  0.00     0.099 A 
ATOM     14  H3  UNL     1      26.431 -22.329  -6.303  1.00  0.00     0.188 HD
HETATM   15  N4  UNL     1      25.016 -24.679  -7.870  1.00  0.00    -0.323 N 
HETATM   16  C13 UNL     1      25.206 -24.654  -5.310  1.00  0.00     0.078 C 
HETATM   17  C9  UNL     1      24.339 -25.966  -8.007  1.00  0.00     0.131 C 
HETATM   18  C10 UNL     1      25.393 -27.040  -7.649  1.00  0.00     0.020 C 
HETATM   19  C11 UNL     1      26.328 -26.474  -6.601  1.00  0.00     0.002 C 
HETATM   20  C12 UNL     1      25.633 -26.110  -5.335  1.00  0.00     0.007 C 
ENDBRANCH   8   9
ENDBRANCH   7   8
ENDBRANCH   2   7
BRANCH   1  21
HETATM   21  C4  UNL     1      24.013 -22.426 -13.900  1.00  0.00     0.158 C 
BRANCH  21  22
HETATM   22  C3  UNL     1      25.423 -22.021 -13.731  1.00  0.00    -0.011 C 
BRANCH  22  23
HETATM   23  C2  UNL     1      26.282 -21.384 -14.714  1.00  0.00    -0.033 C 
HETATM   24  C1  UNL     1      26.081 -19.998 -15.158  1.00  0.00     0.036 C 
ENDBRANCH  22  23
ENDBRANCH  21  22
ENDBRANCH   1  21
BRANCH   6  25
HETATM   25  C21 UNL     1      22.036 -19.847 -14.157  1.00  0.00     0.166 C 
HETATM   26  C22 UNL     1      22.523 -20.375 -15.472  1.00  0.00     0.046 C 
BRANCH  25  27
HETATM   27  O1  UNL     1      20.608 -20.023 -14.271  1.00  0.00    -0.390 OA
ATOM     28  H1  UNL     1      20.273 -19.142 -14.393  1.00  0.00     0.210 HD
ENDBRANCH  25  27
ENDBRANCH   6  25
BRANCH   5  29
HETATM   29  C15 UNL     1      21.069 -19.346 -11.169  1.00  0.00    -0.030 C 
HETATM   30  C16 UNL     1      20.268 -19.668 -10.095  1.00  0.00     0.010 C 
HETATM   31  C17 UNL     1      19.454 -18.585  -9.534  1.00  0.00     0.260 C 
HETATM   32  N6  UNL     1      18.773 -17.764 -10.487  1.00  0.00    -0.072 N 
HETATM   33  C18 UNL     1      19.579 -17.437 -11.641  1.00  0.00     0.237 C 
ATOM     34  H62 UNL     1      17.893 -18.194 -10.771  1.00  0.00     0.277 HD
ATOM     35  H61 UNL     1      18.414 -16.918 -10.045  1.00  0.00     0.277 HD
HETATM   36  C19 UNL     1      21.017 -17.917 -11.457  1.00  0.00     0.068 C 
ENDBRANCH   5  29
TORSDOF 9
ENDMDL
MODEL 2
REMARK VINA RESULT: -7.406113394      2.293      3.249
REMARK  9 active torsions:
REMARK  status: ('A' for Active; 'I' for Inactive)
REMARK    1  A    between atoms: C2_2  and  C3_3 
REMARK    2  A    between atoms: C3_3  and  C4_4 
REMARK    3  A    between atoms: C4_4  and  N1_5 
REMARK    4  A    between atoms: C5_6  and  S1_7 
REMARK    5  A    between atoms: S1_7  and  C6_8 
REMARK    6  A    between atoms: C6_8  and  C7_9 
REMARK    7  A    between atoms: C14_23  and  C15_24 
REMARK    8  A    between atoms: C20_32  and  C21_33 
REMARK    9  A    between atoms: C21_33  and  O1_35 
ROOT
HETATM    1  N1  UNL     1      23.011 -21.783 -12.852  1.00  0.00    -0.323 N 
HETATM    2  C5  UNL     1      22.900 -22.321 -11.579  1.00  0.00     0.148 A 
HETATM    3  N5  UNL     1      22.139 -21.445 -10.902  1.00  0.00    -0.335 N 
ATOM      4  H5  UNL     1      21.877 -21.560  -9.923  1.00  0.00     0.168 HD
HETATM    5  C14 UNL     1      21.758 -20.387 -11.666  1.00  0.00     0.066 A 
HETATM    6  C20 UNL     1      22.327 -20.650 -12.917  1.00  0.00     0.070 A 
ENDROOT
BRANCH   2   7
HETATM    7  S1  UNL     1      23.502 -23.832 -10.929  1.00  0.00    -0.086 SA
BRANCH   7   8
HETATM    8  C6  UNL     1      25.119 -24.359 -10.871  1.00  0.00     0.160 C 
BRANCH   8   9
HETATM    9  C7  UNL     1      26.172 -23.413 -10.486  1.00  0.00     0.109 A 
HETATM   10  N2  UNL     1      26.014 -22.236  -9.794  1.00  0.00    -0.287 N 
HETATM   11  N3  UNL     1      27.173 -21.631  -9.661  1.00  0.00    -0.287 N 
ATOM     12  H2  UNL     1      25.126 -21.884  -9.436  1.00  0.00     0.188 HD
HETATM   13  C8  UNL     1      28.090 -22.386 -10.252  1.00  0.00     0.099 A 
ATOM     14  H3  UNL     1      27.338 -20.741  -9.189  1.00  0.00     0.188 HD
HETATM   15  N4  UNL     1      27.474 -23.479 -10.759  1.00  0.00    -0.323 N 
HETATM   16  C13 UNL     1      29.556 -22.042 -10.321  1.00  0.00     0.078 C 
HETATM   17  C9  UNL     1      28.123 -24.541 -11.525  1.00  0.00     0.131 C 
HETATM   18  C10 UNL     1      28.500 -23.914 -12.887  1.00  0.00     0.020 C 
HETATM   19  C11 UNL     1      28.825 -22.450 -12.675  1.00  0.00     0.002 C 
HETATM   20  C12 UNL     1      29.984 -22.237 -11.764  1.00  0.00     0.007 C 
ENDBRANCH   8   9
ENDBRANCH   7   8
ENDBRANCH   2   7
BRANCH   1  21
HETATM   21  C4  UNL     1      23.904 -22.439 -13.825  1.00  0.00     0.158 C 
BRANCH  21  22
HETATM   22  C3  UNL     1      25.288 -21.926 -13.761  1.00  0.00    -0.011 C 
BRANCH  22  23
HETATM   23  C2  UNL     1      26.083 -21.395 -14.855  1.00  0.00    -0.033 C 
HETATM   24  C1  UNL     1      26.073 -19.972 -15.220  1.00  0.00     0.036 C 
ENDBRANCH  22  23
ENDBRANCH  21  22
ENDBRANCH   1  21
BRANCH   6  25
HETATM   25  C21 UNL     1      21.974 -19.829 -14.129  1.00  0.00     0.166 C 
HETATM   26  C22 UNL     1      22.460 -20.383 -15.434  1.00  0.00     0.046 C 
BRANCH  25  27
HETATM   27  O1  UNL     1      20.543 -19.977 -14.252  1.00  0.00    -0.390 OA
ATOM     28  H1  UNL     1      20.217 -19.825 -13.373  1.00  0.00     0.210 HD
ENDBRANCH  25  27
ENDBRANCH   6  25
BRANCH   5  29
HETATM   29  C15 UNL     1      20.983 -19.283 -11.157  1.00  0.00    -0.030 C 
HETATM   30  C16 UNL     1      20.180 -19.575 -10.076  1.00  0.00     0.010 C 
HETATM   31  C17 UNL     1      19.379 -18.474  -9.535  1.00  0.00     0.260 C 
HETATM   32  N6  UNL     1      18.707 -17.662 -10.502  1.00  0.00    -0.072 N 
HETATM   33  C18 UNL     1      19.515 -17.365 -11.662  1.00  0.00     0.237 C 
ATOM     34  H62 UNL     1      17.821 -18.087 -10.777  1.00  0.00     0.277 HD
ATOM     35  H61 UNL     1      18.357 -16.804 -10.075  1.00  0.00     0.277 HD
HETATM   36  C19 UNL     1      20.947 -17.859 -11.471  1.00  0.00     0.068 C 
ENDBRANCH   5  29
TORSDOF 9
ENDMDL
MODEL 3
REMARK VINA RESULT: -7.234255522      0.857      1.606
REMARK  9 active torsions:
REMARK  status: ('A' for Active; 'I' for Inactive)
REMARK    1  A    between atoms: C2_2  and  C3_3 
REMARK    2  A    between atoms: C3_3  and  C4_4 
REMARK    3  A    between atoms: C4_4  and  N1_5 
REMARK    4  A    between atoms: C5_6  and  S1_7 
REMARK    5  A    between atoms: S1_7  and  C6_8 
REMARK    6  A    between atoms: C6_8  and  C7_9 
REMARK    7  A    between atoms: C14_23  and  C15_24 
REMARK    8  A    between atoms: C20_32  and  C21_33 
REMARK    9  A    between atoms: C21_33  and  O1_35 
ROOT
HETATM    1  N1  UNL     1      23.098 -21.719 -12.765  1.00  0.00    -0.323 N 
HETATM    2  C5  UNL     1      23.008 -22.211 -11.471  1.00  0.00     0.148 A 
HETATM    3  N5  UNL     1      22.220 -21.335 -10.825  1.00  0.00    -0.335 N 
ATOM      4  H5  UNL     1      21.965 -21.421  -9.842  1.00  0.00     0.168 HD
HETATM    5  C14 UNL     1      21.802 -20.321 -11.628  1.00  0.00     0.066 A 
HETATM    6  C20 UNL     1      22.376 -20.613 -12.870  1.00  0.00     0.070 A 
ENDROOT
BRANCH   2   7
HETATM    7  S1  UNL     1      23.663 -23.674 -10.765  1.00  0.00    -0.086 SA
BRANCH   7   8
HETATM    8  C6  UNL     1      25.261 -23.946 -10.251  1.00  0.00     0.160 C 
BRANCH   8   9
HETATM    9  C7  UNL     1      25.556 -25.099  -9.392  1.00  0.00     0.109 A 
HETATM   10  N2  UNL     1      25.549 -26.424  -9.755  1.00  0.00    -0.287 N 
HETATM   11  N3  UNL     1      25.825 -27.180  -8.715  1.00  0.00    -0.287 N 
ATOM     12  H2  UNL     1      25.358 -26.771 -10.695  1.00  0.00     0.188 HD
HETATM   13  C8  UNL     1      26.012 -26.377  -7.675  1.00  0.00     0.099 A 
ATOM     14  H3  UNL     1      25.885 -28.198  -8.709  1.00  0.00     0.188 HD
HETATM   15  N4  UNL     1      25.845 -25.100  -8.092  1.00  0.00    -0.323 N 
HETATM   16  C13 UNL     1      26.351 -26.854  -6.286  1.00  0.00     0.078 C 
HETATM   17  C9  UNL     1      25.923 -23.913  -7.244  1.00  0.00     0.131 C 
HETATM   18  C10 UNL     1      24.674 -23.958  -6.333  1.00  0.00     0.020 C 
HETATM   19  C11 UNL     1      24.329 -25.405  -6.051  1.00  0.00     0.002 C 
HETATM   20  C12 UNL     1      25.414 -26.133  -5.335  1.00  0.00     0.007 C 
ENDBRANCH   8   9
ENDBRANCH   7   8
ENDBRANCH   2   7
BRANCH   1  21
HETATM   21  C4  UNL     1      24.010 -22.381 -13.715  1.00  0.00     0.158 C 
BRANCH  21  22
HETATM   22  C3  UNL     1      25.401 -21.897 -13.599  1.00  0.00    -0.011 C 
BRANCH  22  23
HETATM   23  C2  UNL     1      26.241 -21.365 -14.658  1.00  0.00    -0.033 C 
HETATM   24  C1  UNL     1      26.073 -20.007 -15.192  1.00  0.00     0.036 C 
ENDBRANCH  22  23
ENDBRANCH  21  22
ENDBRANCH   1  21
BRANCH   6  25
HETATM   25  C21 UNL     1      21.993 -19.851 -14.112  1.00  0.00     0.166 C 
HETATM   26  C22 UNL     1      22.476 -20.450 -15.398  1.00  0.00     0.046 C 
BRANCH  25  27
HETATM   27  O1  UNL     1      20.564 -20.034 -14.212  1.00  0.00    -0.390 OA
ATOM     28  H1  UNL     1      20.356 -19.763 -15.098  1.00  0.00     0.210 HD
ENDBRANCH  25  27
ENDBRANCH   6  25
BRANCH   5  29
HETATM   29  C15 UNL     1      20.992 -19.224 -11.159  1.00  0.00    -0.030 C 
HETATM   30  C16 UNL     1      20.178 -19.510 -10.085  1.00  0.00     0.010 C 
HETATM   31  C17 UNL     1      19.341 -18.416  -9.583  1.00  0.00     0.260 C 
HETATM   32  N6  UNL     1      18.666 -17.645 -10.581  1.00  0.00    -0.072 N 
HETATM   33  C18 UNL     1      19.486 -17.356 -11.735  1.00  0.00     0.237 C 
ATOM     34  H62 UNL     1      17.795 -18.098 -10.861  1.00  0.00     0.277 HD
ATOM     35  H61 UNL     1      18.288 -16.786 -10.181  1.00  0.00     0.277 HD
HETATM   36  C19 UNL     1      20.927 -17.809 -11.508  1.00  0.00     0.068 C 
ENDBRANCH   5  29
TORSDOF 9
ENDMDL
MODEL 4
REMARK VINA RESULT: -7.217076646      1.586      1.892
REMARK  9 active torsions:
REMARK  status: ('A' for Active; 'I' for Inactive)
REMARK    1  A    between atoms: C2_2  and  C3_3 
REMARK    2  A    between atoms: C3_3  and  C4_4 
REMARK    3  A    between atoms: C4_4  and  N1_5 
REMARK    4  A    between atoms: C5_6  and  S1_7 
REMARK    5  A    between atoms: S1_7  and  C6_8 
REMARK    6  A    between atoms: C6_8  and  C7_9 
REMARK    7  A    between atoms: C14_23  and  C15_24 
REMARK    8  A    between atoms: C20_32  and  C21_33 
REMARK    9  A    between atoms: C21_33  and  O1_35 
ROOT
HETATM    1  N1  UNL     1      23.113 -21.795 -12.797  1.00  0.00    -0.323 N 
HETATM    2  C5  UNL     1      23.016 -22.322 -11.519  1.00  0.00     0.148 A 
HETATM    3  N5  UNL     1      22.240 -21.454 -10.848  1.00  0.00    -0.335 N 
ATOM      4  H5  UNL     1      21.984 -21.564  -9.867  1.00  0.00     0.168 HD
HETATM    5  C14 UNL     1      21.837 -20.412 -11.622  1.00  0.00     0.066 A 
HETATM    6  C20 UNL     1      22.407 -20.677 -12.872  1.00  0.00     0.070 A 
ENDROOT
BRANCH   2   7
HETATM    7  S1  UNL     1      23.650 -23.814 -10.854  1.00  0.00    -0.086 SA
BRANCH   7   8
HETATM    8  C6  UNL     1      25.282 -24.218 -10.598  1.00  0.00     0.160 C 
BRANCH   8   9
HETATM    9  C7  UNL     1      25.879 -24.001  -9.274  1.00  0.00     0.109 A 
HETATM   10  N2  UNL     1      25.416 -23.168  -8.285  1.00  0.00    -0.287 N 
HETATM   11  N3  UNL     1      26.225 -23.202  -7.250  1.00  0.00    -0.287 N 
ATOM     12  H2  UNL     1      24.567 -22.606  -8.345  1.00  0.00     0.188 HD
HETATM   13  C8  UNL     1      27.212 -24.040  -7.540  1.00  0.00     0.099 A 
ATOM     14  H3  UNL     1      26.115 -22.678  -6.381  1.00  0.00     0.188 HD
HETATM   15  N4  UNL     1      26.999 -24.529  -8.784  1.00  0.00    -0.323 N 
HETATM   16  C13 UNL     1      28.354 -24.361  -6.609  1.00  0.00     0.078 C 
HETATM   17  C9  UNL     1      27.879 -25.453  -9.495  1.00  0.00     0.131 C 
HETATM   18  C10 UNL     1      29.148 -24.645  -9.848  1.00  0.00     0.020 C 
HETATM   19  C11 UNL     1      29.393 -23.622  -8.758  1.00  0.00     0.002 C 
HETATM   20  C12 UNL     1      29.629 -24.240  -7.423  1.00  0.00     0.007 C 
ENDBRANCH   8   9
ENDBRANCH   7   8
ENDBRANCH   2   7
BRANCH   1  21
HETATM   21  C4  UNL     1      24.016 -22.444 -13.766  1.00  0.00     0.158 C 
BRANCH  21  22
HETATM   22  C3  UNL     1      25.398 -21.928 -13.688  1.00  0.00    -0.011 C 
BRANCH  22  23
HETATM   23  C2  UNL     1      26.211 -21.417 -14.777  1.00  0.00    -0.033 C 
HETATM   24  C1  UNL     1      26.129 -20.024 -15.238  1.00  0.00     0.036 C 
ENDBRANCH  22  23
ENDBRANCH  21  22
ENDBRANCH   1  21
BRANCH   6  25
HETATM   25  C21 UNL     1      22.035 -19.875 -14.091  1.00  0.00     0.166 C 
HETATM   26  C22 UNL     1      22.514 -20.442 -15.393  1.00  0.00     0.046 C 
BRANCH  25  27
HETATM   27  O1  UNL     1      20.604 -20.039 -14.199  1.00  0.00    -0.390 OA
ATOM     28  H1  UNL     1      20.271 -19.736 -13.362  1.00  0.00     0.210 HD
ENDBRANCH  25  27
ENDBRANCH   6  25
BRANCH   5  29
HETATM   29  C15 UNL     1      21.042 -19.317 -11.122  1.00  0.00    -0.030 C 
HETATM   30  C16 UNL     1      20.227 -19.621 -10.054  1.00  0.00     0.010 C 
HETATM   31  C17 UNL     1      19.405 -18.530  -9.522  1.00  0.00     0.260 C 
HETATM   32  N6  UNL     1      18.738 -17.724 -10.498  1.00  0.00    -0.072 N 
HETATM   33  C18 UNL     1      19.559 -17.415 -11.645  1.00  0.00     0.237 C 
ATOM     34  H62 UNL     1      17.861 -18.158 -10.787  1.00  0.00     0.277 HD
ATOM     35  H61 UNL     1      18.372 -16.871 -10.074  1.00  0.00     0.277 HD
HETATM   36  C19 UNL     1      20.995 -17.893 -11.434  1.00  0.00     0.068 C 
ENDBRANCH   5  29
TORSDOF 9
ENDMDL
MODEL 5
REMARK VINA RESULT: -7.082210411      1.539      2.048
REMARK  9 active torsions:
REMARK  status: ('A' for Active; 'I' for Inactive)
REMARK    1  A    between atoms: C2_2  and  C3_3 
REMARK    2  A    between atoms: C3_3  and  C4_4 
REMARK    3  A    between atoms: C4_4  and  N1_5 
REMARK    4  A    between atoms: C5_6  and  S1_7 
REMARK    5  A    between atoms: S1_7  and  C6_8 
REMARK    6  A    between atoms: C6_8  and  C7_9 
REMARK    7  A    between atoms: C14_23  and  C15_24 
REMARK    8  A    between atoms: C20_32  and  C21_33 
REMARK    9  A    between atoms: C21_33  and  O1_35 
ROOT
HETATM    1  N1  UNL     1      23.125 -21.805 -12.919  1.00  0.00    -0.323 N 
HETATM    2  C5  UNL     1      23.003 -22.379 -11.662  1.00  0.00     0.148 A 
HETATM    3  N5  UNL     1      22.231 -21.525 -10.969  1.00  0.00    -0.335 N 
ATOM      4  H5  UNL     1      21.960 -21.668  -9.996  1.00  0.00     0.168 HD
HETATM    5  C14 UNL     1      21.852 -20.449 -11.708  1.00  0.00     0.066 A 
HETATM    6  C20 UNL     1      22.435 -20.674 -12.960  1.00  0.00     0.070 A 
ENDROOT
BRANCH   2   7
HETATM    7  S1  UNL     1      23.607 -23.903 -11.046  1.00  0.00    -0.086 SA
BRANCH   7   8
HETATM    8  C6  UNL     1      24.356 -24.186  -9.545  1.00  0.00     0.160 C 
BRANCH   8   9
HETATM    9  C7  UNL     1      25.814 -24.341  -9.485  1.00  0.00     0.109 A 
HETATM   10  N2  UNL     1      26.614 -24.995 -10.391  1.00  0.00    -0.287 N 
HETATM   11  N3  UNL     1      27.867 -24.962  -9.993  1.00  0.00    -0.287 N 
ATOM     12  H2  UNL     1      26.284 -25.440 -11.247  1.00  0.00     0.188 HD
HETATM   13  C8  UNL     1      27.905 -24.301  -8.844  1.00  0.00     0.099 A 
ATOM     14  H3  UNL     1      28.665 -25.372 -10.480  1.00  0.00     0.188 HD
HETATM   15  N4  UNL     1      26.644 -23.921  -8.532  1.00  0.00    -0.323 N 
HETATM   16  C13 UNL     1      29.164 -24.042  -8.056  1.00  0.00     0.078 C 
HETATM   17  C9  UNL     1      26.247 -23.205  -7.322  1.00  0.00     0.131 C 
HETATM   18  C10 UNL     1      26.412 -24.211  -6.159  1.00  0.00     0.020 C 
HETATM   19  C11 UNL     1      27.568 -25.137  -6.477  1.00  0.00     0.002 C 
HETATM   20  C12 UNL     1      28.866 -24.420  -6.617  1.00  0.00     0.007 C 
ENDBRANCH   8   9
ENDBRANCH   7   8
ENDBRANCH   2   7
BRANCH   1  21
HETATM   21  C4  UNL     1      24.032 -22.429 -13.900  1.00  0.00     0.158 C 
BRANCH  21  22
HETATM   22  C3  UNL     1      25.431 -21.983 -13.744  1.00  0.00    -0.011 C 
BRANCH  22  23
HETATM   23  C2  UNL     1      26.540 -22.737 -13.185  1.00  0.00    -0.033 C 
HETATM   24  C1  UNL     1      27.630 -22.098 -12.436  1.00  0.00     0.036 C 
ENDBRANCH  22  23
ENDBRANCH  21  22
ENDBRANCH   1  21
BRANCH   6  25
HETATM   25  C21 UNL     1      22.091 -19.822 -14.152  1.00  0.00     0.166 C 
HETATM   26  C22 UNL     1      22.646 -20.303 -15.458  1.00  0.00     0.046 C 
BRANCH  25  27
HETATM   27  O1  UNL     1      20.673 -20.025 -14.334  1.00  0.00    -0.390 OA
ATOM     28  H1  UNL     1      20.560 -20.965 -14.254  1.00  0.00     0.210 HD
ENDBRANCH  25  27
ENDBRANCH   6  25
BRANCH   5  29
HETATM   29  C15 UNL     1      21.067 -19.362 -11.177  1.00  0.00    -0.030 C 
HETATM   30  C16 UNL     1      20.269 -19.684 -10.100  1.00  0.00     0.010 C 
HETATM   31  C17 UNL     1      19.457 -18.601  -9.537  1.00  0.00     0.260 C 
HETATM   32  N6  UNL     1      18.773 -17.780 -10.488  1.00  0.00    -0.072 N 
HETATM   33  C18 UNL     1      19.576 -17.452 -11.644  1.00  0.00     0.237 C 
ATOM     34  H62 UNL     1      17.892 -18.209 -10.770  1.00  0.00     0.277 HD
ATOM     35  H61 UNL     1      18.415 -16.934 -10.044  1.00  0.00     0.277 HD
HETATM   36  C19 UNL     1      21.015 -17.933 -11.464  1.00  0.00     0.068 C 
ENDBRANCH   5  29
TORSDOF 9
ENDMDL
