MODEL 1
REMARK VINA RESULT: -4.901928278      0.000      0.000
REMARK  2 active torsions:
REMARK  status: ('A' for Active; 'I' for Inactive)
REMARK    1  A    between atoms: C5_5  and  N1_6 
REMARK    2  A    between atoms: N1_6  and  N2_8 
ROOT
HETATM    1  C1  UNL     1       1.760  23.682  78.827  1.00  0.00     0.018 C 
HETATM    2  C2  UNL     1       1.617  24.484  77.571  1.00  0.00    -0.017 C 
HETATM    3  C3  UNL     1       2.411  25.745  77.694  1.00  0.00     0.018 C 
HETATM    4  C4  UNL     1       2.068  23.745  76.341  1.00  0.00     0.088 C 
HETATM    5  C5  UNL     1       0.855  23.101  75.819  1.00  0.00     0.099 C 
HETATM    6  N3  UNL     1      -0.174  23.636  76.341  1.00  0.00    -0.369 N 
ATOM      7  H3  UNL     1      -1.131  23.351  76.127  1.00  0.00     0.161 HD
HETATM    8  C6  UNL     1       0.164  24.700  77.277  1.00  0.00     0.031 C 
HETATM    9  C7  UNL     1      -0.153  26.012  76.651  1.00  0.00     0.039 C 
HETATM   10  C8  UNL     1      -0.718  24.523  78.492  1.00  0.00     0.039 C 
ENDROOT
BRANCH   5  11
HETATM   11  N1  UNL     1       0.868  22.048  74.877  1.00  0.00    -0.230 N 
ATOM     12  H1  UNL     1       1.774  21.782  74.489  1.00  0.00     0.194 HD
BRANCH  11  13
HETATM   13  N2  UNL     1      -0.230  21.349  74.437  1.00  0.00    -0.038 N 
HETATM   14  O1  UNL     1      -0.408  21.001  73.256  1.00  0.00    -0.516 OA
HETATM   15  O2  UNL     1      -1.203  21.005  75.344  1.00  0.00    -0.516 OA
ENDBRANCH  11  13
ENDBRANCH   5  11
TORSDOF 2
ENDMDL
MODEL 2
REMARK VINA RESULT: -4.753365983      2.568      3.618
REMARK  2 active torsions:
REMARK  status: ('A' for Active; 'I' for Inactive)
REMARK    1  A    between atoms: C5_5  and  N1_6 
REMARK    2  A    between atoms: N1_6  and  N2_8 
ROOT
HETATM    1  C1  UNL     1       3.163  20.899  74.811  1.00  0.00     0.018 C 
HETATM    2  C2  UNL     1       2.173  21.971  74.480  1.00  0.00    -0.017 C 
HETATM    3  C3  UNL     1       2.846  23.305  74.546  1.00  0.00     0.018 C 
HETATM    4  C4  UNL     1       1.554  21.807  73.120  1.00  0.00     0.088 C 
HETATM    5  C5  UNL     1       0.324  21.037  73.353  1.00  0.00     0.099 C 
HETATM    6  N3  UNL     1       0.025  21.067  74.589  1.00  0.00    -0.369 N 
ATOM      7  H3  UNL     1      -0.791  20.601  74.987  1.00  0.00     0.161 HD
HETATM    8  C6  UNL     1       0.978  21.842  75.374  1.00  0.00     0.031 C 
HETATM    9  C7  UNL     1       0.349  23.135  75.757  1.00  0.00     0.039 C 
HETATM   10  C8  UNL     1       1.263  21.057  76.634  1.00  0.00     0.039 C 
ENDROOT
BRANCH   5  11
HETATM   11  N1  UNL     1      -0.393  20.373  72.332  1.00  0.00    -0.230 N 
ATOM     12  H1  UNL     1      -0.192  20.648  71.370  1.00  0.00     0.194 HD
BRANCH  11  13
HETATM   13  N2  UNL     1      -1.336  19.392  72.519  1.00  0.00    -0.038 N 
HETATM   14  O1  UNL     1      -1.399  18.348  71.845  1.00  0.00    -0.516 OA
HETATM   15  O2  UNL     1      -2.276  19.557  73.507  1.00  0.00    -0.516 OA
ENDBRANCH  11  13
ENDBRANCH   5  11
TORSDOF 2
ENDMDL
MODEL 3
REMARK VINA RESULT: -4.642472418      3.199      4.441
REMARK  2 active torsions:
REMARK  status: ('A' for Active; 'I' for Inactive)
REMARK    1  A    between atoms: C5_5  and  N1_6 
REMARK    2  A    between atoms: N1_6  and  N2_8 
ROOT
HETATM    1  C1  UNL     1       0.249  23.038  75.268  1.00  0.00     0.018 C 
HETATM    2  C2  UNL     1       0.850  21.671  75.166  1.00  0.00    -0.017 C 
HETATM    3  C3  UNL     1       0.975  21.081  76.534  1.00  0.00     0.018 C 
HETATM    4  C4  UNL     1       0.048  20.734  74.305  1.00  0.00     0.088 C 
HETATM    5  C5  UNL     1       0.631  20.860  72.962  1.00  0.00     0.099 C 
HETATM    6  N3  UNL     1       1.773  21.415  73.039  1.00  0.00    -0.369 N 
ATOM      7  H3  UNL     1       2.366  21.606  72.231  1.00  0.00     0.161 HD
HETATM    8  C6  UNL     1       2.140  21.746  74.410  1.00  0.00     0.031 C 
HETATM    9  C7  UNL     1       3.185  20.793  74.873  1.00  0.00     0.039 C 
HETATM   10  C8  UNL     1       2.735  23.136  74.390  1.00  0.00     0.039 C 
ENDROOT
BRANCH   5  11
HETATM   11  N1  UNL     1      -0.011  20.421  71.783  1.00  0.00    -0.230 N 
ATOM     12  H1  UNL     1      -0.299  21.138  71.116  1.00  0.00     0.194 HD
BRANCH  11  13
HETATM   13  N2  UNL     1      -0.282  19.115  71.454  1.00  0.00    -0.038 N 
HETATM   14  O1  UNL     1       0.444  18.414  70.726  1.00  0.00    -0.516 OA
HETATM   15  O2  UNL     1      -1.422  18.530  71.949  1.00  0.00    -0.516 OA
ENDBRANCH  11  13
ENDBRANCH   5  11
TORSDOF 2
ENDMDL
MODEL 4
REMARK VINA RESULT: -4.633419486      0.716      1.129
REMARK  2 active torsions:
REMARK  status: ('A' for Active; 'I' for Inactive)
REMARK    1  A    between atoms: C5_5  and  N1_6 
REMARK    2  A    between atoms: N1_6  and  N2_8 
ROOT
HETATM    1  C1  UNL     1       1.721  23.871  79.008  1.00  0.00     0.018 C 
HETATM    2  C2  UNL     1       1.611  24.573  77.691  1.00  0.00    -0.017 C 
HETATM    3  C3  UNL     1       2.197  25.944  77.808  1.00  0.00     0.018 C 
HETATM    4  C4  UNL     1       2.302  23.845  76.571  1.00  0.00     0.088 C 
HETATM    5  C5  UNL     1       1.262  22.999  75.969  1.00  0.00     0.099 C 
HETATM    6  N3  UNL     1       0.114  23.401  76.339  1.00  0.00    -0.369 N 
ATOM      7  H3  UNL     1      -0.761  22.966  76.046  1.00  0.00     0.161 HD
HETATM    8  C6  UNL     1       0.187  24.553  77.229  1.00  0.00     0.031 C 
HETATM    9  C7  UNL     1      -0.240  25.767  76.483  1.00  0.00     0.039 C 
HETATM   10  C8  UNL     1      -0.796  24.313  78.352  1.00  0.00     0.039 C 
ENDROOT
BRANCH   5  11
HETATM   11  N1  UNL     1       1.534  21.910  75.111  1.00  0.00    -0.230 N 
ATOM     12  H1  UNL     1       2.371  21.361  75.309  1.00  0.00     0.194 HD
BRANCH  11  13
HETATM   13  N2  UNL     1       0.772  21.525  74.035  1.00  0.00    -0.038 N 
HETATM   14  O1  UNL     1      -0.447  21.282  74.095  1.00  0.00    -0.516 OA
HETATM   15  O2  UNL     1       1.377  21.393  72.809  1.00  0.00    -0.516 OA
ENDBRANCH  11  13
ENDBRANCH   5  11
TORSDOF 2
ENDMDL
MODEL 5
REMARK VINA RESULT: -4.513287107      1.170      2.399
REMARK  2 active torsions:
REMARK  status: ('A' for Active; 'I' for Inactive)
REMARK    1  A    between atoms: C5_5  and  N1_6 
REMARK    2  A    between atoms: N1_6  and  N2_8 
ROOT
HETATM    1  C1  UNL     1      -0.276  26.132  77.053  1.00  0.00     0.018 C 
HETATM    2  C2  UNL     1       0.182  25.022  77.946  1.00  0.00    -0.017 C 
HETATM    3  C3  UNL     1       0.142  25.480  79.368  1.00  0.00     0.018 C 
HETATM    4  C4  UNL     1      -0.649  23.775  77.815  1.00  0.00     0.088 C 
HETATM    5  C5  UNL     1       0.042  22.963  76.803  1.00  0.00     0.099 C 
HETATM    6  N3  UNL     1       1.227  23.395  76.641  1.00  0.00    -0.369 N 
ATOM      7  H3  UNL     1       1.896  22.985  75.988  1.00  0.00     0.161 HD
HETATM    8  C6  UNL     1       1.526  24.538  77.495  1.00  0.00     0.031 C 
HETATM    9  C7  UNL     1       2.426  24.098  78.594  1.00  0.00     0.039 C 
HETATM   10  C8  UNL     1       2.264  25.548  76.646  1.00  0.00     0.039 C 
ENDROOT
BRANCH   5  11
HETATM   11  N1  UNL     1      -0.554  21.873  76.129  1.00  0.00    -0.230 N 
ATOM     12  H1  UNL     1      -1.289  21.368  76.624  1.00  0.00     0.194 HD
BRANCH  11  13
HETATM   13  N2  UNL     1      -0.231  21.434  74.868  1.00  0.00    -0.038 N 
HETATM   14  O1  UNL     1       0.829  21.717  74.281  1.00  0.00    -0.516 OA
HETATM   15  O2  UNL     1      -1.123  20.632  74.199  1.00  0.00    -0.516 OA
ENDBRANCH  11  13
ENDBRANCH   5  11
TORSDOF 2
ENDMDL
