MODEL 1
REMARK VINA RESULT: -8.819648965      0.000      0.000
REMARK  11 active torsions:
REMARK  status: ('A' for Active; 'I' for Inactive)
REMARK    1  A    between atoms: C2_2  and  O1_3 
REMARK    2  A    between atoms: C2_2  and  C9_11 
REMARK    3  A    between atoms: O1_3  and  C3_4 
REMARK    4  A    between atoms: C3_4  and  C4_5 
REMARK    5  A    between atoms: C4_5  and  N1_6 
REMARK    6  A    between atoms: C12_14  and  C13_15 
REMARK    7  A    between atoms: C15_17  and  O2_18 
REMARK    8  A    between atoms: C19_23  and  C20_24 
REMARK    9  A    between atoms: C21_25  and  C22_26 
REMARK   10  A    between atoms: C26_32  and  O5_33 
REMARK   11  A    between atoms: C33_42  and  O7_43 
ROOT
HETATM    1  C13 UNL     1       1.809 -15.138 -18.302  1.00  0.00     0.022 C 
HETATM    2  C14 UNL     1       2.728 -14.616 -19.379  1.00  0.00     0.040 C 
HETATM    3  C15 UNL     1       1.863 -13.556 -20.068  1.00  0.00     0.129 C 
HETATM    4  C16 UNL     1       0.699 -13.308 -19.179  1.00  0.00     0.009 C 
HETATM    5  C17 UNL     1      -0.541 -14.061 -19.612  1.00  0.00     0.020 C 
HETATM    6  C18 UNL     1       0.338 -11.855 -18.985  1.00  0.00     0.025 C 
HETATM    7  C19 UNL     1       0.163 -11.624 -17.506  1.00  0.00     0.033 C 
HETATM    8  C27 UNL     1      -0.538 -12.796 -16.838  1.00  0.00     0.176 C 
HETATM    9  O6  UNL     1       0.214 -13.963 -16.897  1.00  0.00    -0.384 OA
HETATM   10  C28 UNL     1       1.194 -13.819 -17.836  1.00  0.00     0.136 C 
ENDROOT
BRANCH   1  11
HETATM   11  C12 UNL     1       2.521 -15.750 -17.149  1.00  0.00    -0.003 C 
HETATM   12  C11 UNL     1       1.901 -16.994 -16.622  1.00  0.00     0.001 C 
HETATM   13  C10 UNL     1       0.801 -16.595 -15.630  1.00  0.00     0.015 C 
HETATM   14  C31 UNL     1       2.999 -17.617 -15.792  1.00  0.00    -0.014 C 
HETATM   15  C9  UNL     1       1.068 -17.554 -14.500  1.00  0.00     0.044 C 
HETATM   16  C33 UNL     1       2.561 -17.396 -14.337  1.00  0.00     0.133 C 
HETATM   17  C30 UNL     1       4.274 -16.926 -16.131  1.00  0.00     0.012 C 
HETATM   18  C32 UNL     1       3.149 -19.098 -16.055  1.00  0.00     0.018 C 
HETATM   19  C29 UNL     1       3.940 -16.120 -17.393  1.00  0.00     0.006 C 
BRANCH  15  20
HETATM   20  C2  UNL     1       0.262 -17.288 -13.284  1.00  0.00     0.123 C 
HETATM   21  C1  UNL     1      -0.564 -16.024 -13.378  1.00  0.00     0.040 C 
BRANCH  20  22
HETATM   22  O1  UNL     1       1.143 -17.191 -12.209  1.00  0.00    -0.384 OA
BRANCH  22  23
HETATM   23  C3  UNL     1       0.533 -17.333 -10.978  1.00  0.00     0.198 C 
BRANCH  23  24
HETATM   24  C4  UNL     1       0.987 -16.219 -10.052  1.00  0.00     0.298 C 
BRANCH  24  25
HETATM   25  N1  UNL     1      -0.107 -15.674  -9.276  1.00  0.00     0.090 N 
HETATM   26  C5  UNL     1      -1.380 -16.155  -9.712  1.00  0.00     0.272 C 
HETATM   27  C6  UNL     1      -2.228 -14.954 -10.065  1.00  0.00     0.032 C 
HETATM   28  C7  UNL     1      -1.180 -13.924 -10.445  1.00  0.00     0.032 C 
HETATM   29  C8  UNL     1      -0.103 -14.230  -9.422  1.00  0.00     0.272 C 
ENDBRANCH  24  25
ENDBRANCH  23  24
ENDBRANCH  22  23
ENDBRANCH  20  22
ENDBRANCH  15  20
BRANCH  16  30
HETATM   30  O7  UNL     1       2.926 -16.110 -13.998  1.00  0.00    -0.394 OA
ATOM     31  H7  UNL     1       3.796 -16.065 -13.618  1.00  0.00     0.210 HD
ENDBRANCH  16  30
ENDBRANCH   1  11
BRANCH   3  32
HETATM   32  O2  UNL     1       2.586 -12.434 -20.411  1.00  0.00    -0.395 OA
ATOM     33  H2  UNL     1       2.027 -11.703 -20.647  1.00  0.00     0.210 HD
ENDBRANCH   3  32
BRANCH   7  34
HETATM   34  C20 UNL     1      -0.613 -10.399 -17.178  1.00  0.00    -0.021 C 
HETATM   35  C21 UNL     1      -0.914  -9.958 -15.994  1.00  0.00     0.006 C 
BRANCH  35  36
HETATM   36  C22 UNL     1      -1.701  -8.709 -15.840  1.00  0.00     0.202 C 
HETATM   37  O3  UNL     1      -0.952  -7.647 -15.399  1.00  0.00    -0.342 OA
HETATM   38  C23 UNL     1      -1.480  -7.196 -14.205  1.00  0.00     0.161 C 
HETATM   39  C24 UNL     1      -2.015  -5.798 -14.402  1.00  0.00     0.078 C 
HETATM   40  C25 UNL     1      -0.353  -7.208 -13.177  1.00  0.00     0.078 C 
HETATM   41  O4  UNL     1      -2.448  -8.078 -13.802  1.00  0.00    -0.323 OA
HETATM   42  C26 UNL     1      -2.821  -8.879 -14.850  1.00  0.00     0.293 C 
BRANCH  42  43
HETATM   43  O5  UNL     1      -2.813 -10.222 -14.428  1.00  0.00    -0.368 OA
ATOM     44  H5  UNL     1      -2.141 -10.308 -13.761  1.00  0.00     0.212 HD
ENDBRANCH  42  43
ENDBRANCH  35  36
ENDBRANCH   7  34
TORSDOF 11
ENDMDL
MODEL 2
REMARK VINA RESULT: -8.814415998      1.786      2.934
REMARK  11 active torsions:
REMARK  status: ('A' for Active; 'I' for Inactive)
REMARK    1  A    between atoms: C2_2  and  O1_3 
REMARK    2  A    between atoms: C2_2  and  C9_11 
REMARK    3  A    between atoms: O1_3  and  C3_4 
REMARK    4  A    between atoms: C3_4  and  C4_5 
REMARK    5  A    between atoms: C4_5  and  N1_6 
REMARK    6  A    between atoms: C12_14  and  C13_15 
REMARK    7  A    between atoms: C15_17  and  O2_18 
REMARK    8  A    between atoms: C19_23  and  C20_24 
REMARK    9  A    between atoms: C21_25  and  C22_26 
REMARK   10  A    between atoms: C26_32  and  O5_33 
REMARK   11  A    between atoms: C33_42  and  O7_43 
ROOT
HETATM    1  C13 UNL     1       1.805 -15.147 -18.312  1.00  0.00     0.022 C 
HETATM    2  C14 UNL     1       2.703 -14.624 -19.405  1.00  0.00     0.040 C 
HETATM    3  C15 UNL     1       1.824 -13.564 -20.078  1.00  0.00     0.129 C 
HETATM    4  C16 UNL     1       0.677 -13.317 -19.167  1.00  0.00     0.009 C 
HETATM    5  C17 UNL     1      -0.570 -14.071 -19.578  1.00  0.00     0.020 C 
HETATM    6  C18 UNL     1       0.318 -11.865 -18.965  1.00  0.00     0.025 C 
HETATM    7  C19 UNL     1       0.170 -11.636 -17.483  1.00  0.00     0.033 C 
HETATM    8  C27 UNL     1      -0.517 -12.808 -16.803  1.00  0.00     0.176 C 
HETATM    9  O6  UNL     1       0.235 -13.975 -16.878  1.00  0.00    -0.384 OA
HETATM   10  C28 UNL     1       1.197 -13.829 -17.834  1.00  0.00     0.136 C 
ENDROOT
BRANCH   1  11
HETATM   11  C12 UNL     1       2.538 -15.760 -17.173  1.00  0.00    -0.003 C 
HETATM   12  C11 UNL     1       1.981 -17.052 -16.694  1.00  0.00     0.001 C 
HETATM   13  C10 UNL     1       0.853 -16.745 -15.700  1.00  0.00     0.015 C 
HETATM   14  C31 UNL     1       3.104 -17.644 -15.874  1.00  0.00    -0.014 C 
HETATM   15  C9  UNL     1       1.161 -17.726 -14.601  1.00  0.00     0.044 C 
HETATM   16  C33 UNL     1       2.642 -17.495 -14.417  1.00  0.00     0.133 C 
HETATM   17  C30 UNL     1       4.343 -16.874 -16.176  1.00  0.00     0.012 C 
HETATM   18  C32 UNL     1       3.334 -19.104 -16.185  1.00  0.00     0.018 C 
HETATM   19  C29 UNL     1       3.978 -16.045 -17.415  1.00  0.00     0.006 C 
BRANCH  15  20
HETATM   20  C2  UNL     1       0.331 -17.544 -13.385  1.00  0.00     0.123 C 
HETATM   21  C1  UNL     1      -0.326 -16.184 -13.307  1.00  0.00     0.040 C 
BRANCH  20  22
HETATM   22  O1  UNL     1       1.161 -17.726 -12.280  1.00  0.00    -0.384 OA
BRANCH  22  23
HETATM   23  C3  UNL     1       0.796 -18.794 -11.483  1.00  0.00     0.198 C 
BRANCH  23  24
HETATM   24  C4  UNL     1       1.850 -19.882 -11.576  1.00  0.00     0.298 C 
BRANCH  24  25
HETATM   25  N1  UNL     1       1.271 -21.181 -11.853  1.00  0.00     0.090 N 
HETATM   26  C5  UNL     1       2.240 -22.231 -11.809  1.00  0.00     0.272 C 
HETATM   27  C6  UNL     1       2.207 -22.939 -13.145  1.00  0.00     0.032 C 
HETATM   28  C7  UNL     1       1.718 -21.845 -14.075  1.00  0.00     0.032 C 
HETATM   29  C8  UNL     1       0.700 -21.157 -13.187  1.00  0.00     0.272 C 
ENDBRANCH  24  25
ENDBRANCH  23  24
ENDBRANCH  22  23
ENDBRANCH  20  22
ENDBRANCH  15  20
BRANCH  16  30
HETATM   30  O7  UNL     1       2.936 -16.204 -14.032  1.00  0.00    -0.394 OA
ATOM     31  H7  UNL     1       2.659 -16.014 -13.143  1.00  0.00     0.210 HD
ENDBRANCH  16  30
ENDBRANCH   1  11
BRANCH   3  32
HETATM   32  O2  UNL     1       2.540 -12.441 -20.434  1.00  0.00    -0.395 OA
ATOM     33  H2  UNL     1       2.313 -12.130 -21.302  1.00  0.00     0.210 HD
ENDBRANCH   3  32
BRANCH   7  34
HETATM   34  C20 UNL     1      -0.601 -10.412 -17.141  1.00  0.00    -0.021 C 
HETATM   35  C21 UNL     1      -0.883  -9.973 -15.951  1.00  0.00     0.006 C 
BRANCH  35  36
HETATM   36  C22 UNL     1      -1.668  -8.725 -15.782  1.00  0.00     0.202 C 
HETATM   37  O3  UNL     1      -0.918  -7.671 -15.321  1.00  0.00    -0.342 OA
HETATM   38  C23 UNL     1      -1.450  -7.237 -14.123  1.00  0.00     0.161 C 
HETATM   39  C24 UNL     1      -1.981  -5.835 -14.301  1.00  0.00     0.078 C 
HETATM   40  C25 UNL     1      -0.328  -7.267 -13.091  1.00  0.00     0.078 C 
HETATM   41  O4  UNL     1      -2.422  -8.123 -13.737  1.00  0.00    -0.323 OA
HETATM   42  C26 UNL     1      -2.793  -8.907 -14.799  1.00  0.00     0.293 C 
BRANCH  42  43
HETATM   43  O5  UNL     1      -2.789 -10.256 -14.397  1.00  0.00    -0.368 OA
ATOM     44  H5  UNL     1      -3.692 -10.553 -14.384  1.00  0.00     0.212 HD
ENDBRANCH  42  43
ENDBRANCH  35  36
ENDBRANCH   7  34
TORSDOF 11
ENDMDL
MODEL 3
REMARK VINA RESULT: -8.779767333      1.255      1.620
REMARK  11 active torsions:
REMARK  status: ('A' for Active; 'I' for Inactive)
REMARK    1  A    between atoms: C2_2  and  O1_3 
REMARK    2  A    between atoms: C2_2  and  C9_11 
REMARK    3  A    between atoms: O1_3  and  C3_4 
REMARK    4  A    between atoms: C3_4  and  C4_5 
REMARK    5  A    between atoms: C4_5  and  N1_6 
REMARK    6  A    between atoms: C12_14  and  C13_15 
REMARK    7  A    between atoms: C15_17  and  O2_18 
REMARK    8  A    between atoms: C19_23  and  C20_24 
REMARK    9  A    between atoms: C21_25  and  C22_26 
REMARK   10  A    between atoms: C26_32  and  O5_33 
REMARK   11  A    between atoms: C33_42  and  O7_43 
ROOT
HETATM    1  C13 UNL     1       1.789 -15.127 -18.320  1.00  0.00     0.022 C 
HETATM    2  C14 UNL     1       2.694 -14.592 -19.402  1.00  0.00     0.040 C 
HETATM    3  C15 UNL     1       1.815 -13.532 -20.075  1.00  0.00     0.129 C 
HETATM    4  C16 UNL     1       0.658 -13.299 -19.172  1.00  0.00     0.009 C 
HETATM    5  C17 UNL     1      -0.581 -14.056 -19.598  1.00  0.00     0.020 C 
HETATM    6  C18 UNL     1       0.289 -11.849 -18.963  1.00  0.00     0.025 C 
HETATM    7  C19 UNL     1       0.128 -11.631 -17.481  1.00  0.00     0.033 C 
HETATM    8  C27 UNL     1      -0.558 -12.812 -16.815  1.00  0.00     0.176 C 
HETATM    9  O6  UNL     1       0.201 -13.974 -16.891  1.00  0.00    -0.384 OA
HETATM   10  C28 UNL     1       1.170 -13.816 -17.838  1.00  0.00     0.136 C 
ENDROOT
BRANCH   1  11
HETATM   11  C12 UNL     1       2.516 -15.744 -17.179  1.00  0.00    -0.003 C 
HETATM   12  C11 UNL     1       1.923 -17.008 -16.670  1.00  0.00     0.001 C 
HETATM   13  C10 UNL     1       0.818 -16.645 -15.668  1.00  0.00     0.015 C 
HETATM   14  C31 UNL     1       3.035 -17.622 -15.852  1.00  0.00    -0.014 C 
HETATM   15  C9  UNL     1       1.107 -17.616 -14.554  1.00  0.00     0.044 C 
HETATM   16  C33 UNL     1       2.598 -17.432 -14.392  1.00  0.00     0.133 C 
HETATM   17  C30 UNL     1       4.295 -16.900 -16.184  1.00  0.00     0.012 C 
HETATM   18  C32 UNL     1       3.213 -19.095 -16.139  1.00  0.00     0.018 C 
HETATM   19  C29 UNL     1       3.942 -16.081 -17.433  1.00  0.00     0.006 C 
BRANCH  15  20
HETATM   20  C2  UNL     1       0.300 -17.385 -13.331  1.00  0.00     0.123 C 
HETATM   21  C1  UNL     1      -0.429 -16.060 -13.338  1.00  0.00     0.040 C 
BRANCH  20  22
HETATM   22  O1  UNL     1       1.166 -17.436 -12.241  1.00  0.00    -0.384 OA
BRANCH  22  23
HETATM   23  C3  UNL     1       0.875 -18.451 -11.349  1.00  0.00     0.198 C 
BRANCH  23  24
HETATM   24  C4  UNL     1       0.632 -17.864  -9.971  1.00  0.00     0.298 C 
BRANCH  24  25
HETATM   25  N1  UNL     1       0.267 -18.876  -9.002  1.00  0.00     0.090 N 
HETATM   26  C5  UNL     1      -0.323 -20.027  -9.611  1.00  0.00     0.272 C 
HETATM   27  C6  UNL     1      -1.684 -20.230  -8.985  1.00  0.00     0.032 C 
HETATM   28  C7  UNL     1      -2.053 -18.821  -8.560  1.00  0.00     0.032 C 
HETATM   29  C8  UNL     1      -0.706 -18.310  -8.086  1.00  0.00     0.272 C 
ENDBRANCH  24  25
ENDBRANCH  23  24
ENDBRANCH  22  23
ENDBRANCH  20  22
ENDBRANCH  15  20
BRANCH  16  30
HETATM   30  O7  UNL     1       2.939 -16.144 -14.035  1.00  0.00    -0.394 OA
ATOM     31  H7  UNL     1       2.590 -15.895 -13.187  1.00  0.00     0.210 HD
ENDBRANCH  16  30
ENDBRANCH   1  11
BRANCH   3  32
HETATM   32  O2  UNL     1       2.527 -12.404 -20.417  1.00  0.00    -0.395 OA
ATOM     33  H2  UNL     1       2.073 -11.873 -21.061  1.00  0.00     0.210 HD
ENDBRANCH   3  32
BRANCH   7  34
HETATM   34  C20 UNL     1      -0.652 -10.413 -17.137  1.00  0.00    -0.021 C 
HETATM   35  C21 UNL     1      -0.928  -9.972 -15.947  1.00  0.00     0.006 C 
BRANCH  35  36
HETATM   36  C22 UNL     1      -1.724  -8.731 -15.776  1.00  0.00     0.202 C 
HETATM   37  O3  UNL     1      -0.979  -7.664 -15.340  1.00  0.00    -0.342 OA
HETATM   38  C23 UNL     1      -1.493  -7.224 -14.137  1.00  0.00     0.161 C 
HETATM   39  C24 UNL     1      -2.044  -5.830 -14.320  1.00  0.00     0.078 C 
HETATM   40  C25 UNL     1      -0.352  -7.230 -13.125  1.00  0.00     0.078 C 
HETATM   41  O4  UNL     1      -2.447  -8.117 -13.724  1.00  0.00    -0.323 OA
HETATM   42  C26 UNL     1      -2.828  -8.916 -14.771  1.00  0.00     0.293 C 
BRANCH  42  43
HETATM   43  O5  UNL     1      -2.802 -10.261 -14.355  1.00  0.00    -0.368 OA
ATOM     44  H5  UNL     1      -3.535 -10.703 -14.767  1.00  0.00     0.212 HD
ENDBRANCH  42  43
ENDBRANCH  35  36
ENDBRANCH   7  34
TORSDOF 11
ENDMDL
MODEL 4
REMARK VINA RESULT: -8.711253488      1.648      2.412
REMARK  11 active torsions:
REMARK  status: ('A' for Active; 'I' for Inactive)
REMARK    1  A    between atoms: C2_2  and  O1_3 
REMARK    2  A    between atoms: C2_2  and  C9_11 
REMARK    3  A    between atoms: O1_3  and  C3_4 
REMARK    4  A    between atoms: C3_4  and  C4_5 
REMARK    5  A    between atoms: C4_5  and  N1_6 
REMARK    6  A    between atoms: C12_14  and  C13_15 
REMARK    7  A    between atoms: C15_17  and  O2_18 
REMARK    8  A    between atoms: C19_23  and  C20_24 
REMARK    9  A    between atoms: C21_25  and  C22_26 
REMARK   10  A    between atoms: C26_32  and  O5_33 
REMARK   11  A    between atoms: C33_42  and  O7_43 
ROOT
HETATM    1  C13 UNL     1       1.796 -15.131 -18.312  1.00  0.00     0.022 C 
HETATM    2  C14 UNL     1       2.697 -14.608 -19.403  1.00  0.00     0.040 C 
HETATM    3  C15 UNL     1       1.817 -13.552 -20.081  1.00  0.00     0.129 C 
HETATM    4  C16 UNL     1       0.666 -13.307 -19.174  1.00  0.00     0.009 C 
HETATM    5  C17 UNL     1      -0.578 -14.065 -19.587  1.00  0.00     0.020 C 
HETATM    6  C18 UNL     1       0.302 -11.855 -18.977  1.00  0.00     0.025 C 
HETATM    7  C19 UNL     1       0.149 -11.623 -17.496  1.00  0.00     0.033 C 
HETATM    8  C27 UNL     1      -0.537 -12.796 -16.815  1.00  0.00     0.176 C 
HETATM    9  O6  UNL     1       0.219 -13.961 -16.885  1.00  0.00    -0.384 OA
HETATM   10  C28 UNL     1       1.184 -13.814 -17.839  1.00  0.00     0.136 C 
ENDROOT
BRANCH   1  11
HETATM   11  C12 UNL     1       2.528 -15.739 -17.169  1.00  0.00    -0.003 C 
HETATM   12  C11 UNL     1       1.942 -17.004 -16.654  1.00  0.00     0.001 C 
HETATM   13  C10 UNL     1       0.836 -16.643 -15.652  1.00  0.00     0.015 C 
HETATM   14  C31 UNL     1       3.059 -17.609 -15.835  1.00  0.00    -0.014 C 
HETATM   15  C9  UNL     1       1.132 -17.608 -14.535  1.00  0.00     0.044 C 
HETATM   16  C33 UNL     1       2.621 -17.416 -14.376  1.00  0.00     0.133 C 
HETATM   17  C30 UNL     1       4.314 -16.882 -16.171  1.00  0.00     0.012 C 
HETATM   18  C32 UNL     1       3.244 -19.082 -16.117  1.00  0.00     0.018 C 
HETATM   19  C29 UNL     1       3.955 -16.071 -17.424  1.00  0.00     0.006 C 
BRANCH  15  20
HETATM   20  C2  UNL     1       0.325 -17.376 -13.312  1.00  0.00     0.123 C 
HETATM   21  C1  UNL     1      -0.425 -16.063 -13.331  1.00  0.00     0.040 C 
BRANCH  20  22
HETATM   22  O1  UNL     1       1.195 -17.401 -12.224  1.00  0.00    -0.384 OA
BRANCH  22  23
HETATM   23  C3  UNL     1       0.807 -18.273 -11.224  1.00  0.00     0.198 C 
BRANCH  23  24
HETATM   24  C4  UNL     1       1.546 -19.589 -11.381  1.00  0.00     0.298 C 
BRANCH  24  25
HETATM   25  N1  UNL     1       0.835 -20.691 -10.768  1.00  0.00     0.090 N 
HETATM   26  C5  UNL     1       0.059 -20.282  -9.639  1.00  0.00     0.272 C 
HETATM   27  C6  UNL     1       0.511 -21.101  -8.452  1.00  0.00     0.032 C 
HETATM   28  C7  UNL     1       1.946 -21.433  -8.820  1.00  0.00     0.032 C 
HETATM   29  C8  UNL     1       1.803 -21.671 -10.312  1.00  0.00     0.272 C 
ENDBRANCH  24  25
ENDBRANCH  23  24
ENDBRANCH  22  23
ENDBRANCH  20  22
ENDBRANCH  15  20
BRANCH  16  30
HETATM   30  O7  UNL     1       2.957 -16.125 -14.024  1.00  0.00    -0.394 OA
ATOM     31  H7  UNL     1       3.090 -16.023 -13.089  1.00  0.00     0.210 HD
ENDBRANCH  16  30
ENDBRANCH   1  11
BRANCH   3  32
HETATM   32  O2  UNL     1       2.530 -12.428 -20.437  1.00  0.00    -0.395 OA
ATOM     33  H2  UNL     1       3.323 -12.327 -19.924  1.00  0.00     0.210 HD
ENDBRANCH   3  32
BRANCH   7  34
HETATM   34  C20 UNL     1      -0.627 -10.401 -17.158  1.00  0.00    -0.021 C 
HETATM   35  C21 UNL     1      -0.917  -9.962 -15.970  1.00  0.00     0.006 C 
BRANCH  35  36
HETATM   36  C22 UNL     1      -1.706  -8.715 -15.806  1.00  0.00     0.202 C 
HETATM   37  O3  UNL     1      -0.956  -7.654 -15.364  1.00  0.00    -0.342 OA
HETATM   38  C23 UNL     1      -1.478  -7.210 -14.165  1.00  0.00     0.161 C 
HETATM   39  C24 UNL     1      -2.017  -5.812 -14.352  1.00  0.00     0.078 C 
HETATM   40  C25 UNL     1      -0.346  -7.225 -13.143  1.00  0.00     0.078 C 
HETATM   41  O4  UNL     1      -2.443  -8.096 -13.761  1.00  0.00    -0.323 OA
HETATM   42  C26 UNL     1      -2.820  -8.892 -14.811  1.00  0.00     0.293 C 
BRANCH  42  43
HETATM   43  O5  UNL     1      -2.807 -10.237 -14.395  1.00  0.00    -0.368 OA
ATOM     44  H5  UNL     1      -3.575 -10.377 -13.853  1.00  0.00     0.212 HD
ENDBRANCH  42  43
ENDBRANCH  35  36
ENDBRANCH   7  34
TORSDOF 11
ENDMDL
MODEL 5
REMARK VINA RESULT: -8.700393752      1.392      1.716
REMARK  11 active torsions:
REMARK  status: ('A' for Active; 'I' for Inactive)
REMARK    1  A    between atoms: C2_2  and  O1_3 
REMARK    2  A    between atoms: C2_2  and  C9_11 
REMARK    3  A    between atoms: O1_3  and  C3_4 
REMARK    4  A    between atoms: C3_4  and  C4_5 
REMARK    5  A    between atoms: C4_5  and  N1_6 
REMARK    6  A    between atoms: C12_14  and  C13_15 
REMARK    7  A    between atoms: C15_17  and  O2_18 
REMARK    8  A    between atoms: C19_23  and  C20_24 
REMARK    9  A    between atoms: C21_25  and  C22_26 
REMARK   10  A    between atoms: C26_32  and  O5_33 
REMARK   11  A    between atoms: C33_42  and  O7_43 
ROOT
HETATM    1  C13 UNL     1       1.981 -15.225 -18.276  1.00  0.00     0.022 C 
HETATM    2  C14 UNL     1       2.810 -14.720 -19.431  1.00  0.00     0.040 C 
HETATM    3  C15 UNL     1       1.871 -13.708 -20.096  1.00  0.00     0.129 C 
HETATM    4  C16 UNL     1       0.763 -13.458 -19.139  1.00  0.00     0.009 C 
HETATM    5  C17 UNL     1      -0.482 -14.258 -19.459  1.00  0.00     0.020 C 
HETATM    6  C18 UNL     1       0.374 -12.008 -18.971  1.00  0.00     0.025 C 
HETATM    7  C19 UNL     1       0.293 -11.728 -17.493  1.00  0.00     0.033 C 
HETATM    8  C27 UNL     1      -0.328 -12.892 -16.738  1.00  0.00     0.176 C 
HETATM    9  O6  UNL     1       0.451 -14.041 -16.808  1.00  0.00    -0.384 OA
HETATM   10  C28 UNL     1       1.362 -13.906 -17.816  1.00  0.00     0.136 C 
ENDROOT
BRANCH   1  11
HETATM   11  C12 UNL     1       2.785 -15.776 -17.154  1.00  0.00    -0.003 C 
HETATM   12  C11 UNL     1       2.399 -17.144 -16.721  1.00  0.00     0.001 C 
HETATM   13  C10 UNL     1       1.239 -17.019 -15.724  1.00  0.00     0.015 C 
HETATM   14  C31 UNL     1       3.587 -17.614 -15.914  1.00  0.00    -0.014 C 
HETATM   15  C9  UNL     1       1.669 -17.988 -14.656  1.00  0.00     0.044 C 
HETATM   16  C33 UNL     1       3.108 -17.575 -14.456  1.00  0.00     0.133 C 
HETATM   17  C30 UNL     1       4.717 -16.682 -16.184  1.00  0.00     0.012 C 
HETATM   18  C32 UNL     1       4.004 -19.022 -16.272  1.00  0.00     0.018 C 
HETATM   19  C29 UNL     1       4.250 -15.865 -17.397  1.00  0.00     0.006 C 
BRANCH  15  20
HETATM   20  C2  UNL     1       0.822 -17.956 -13.439  1.00  0.00     0.123 C 
HETATM   21  C1  UNL     1       0.196 -19.293 -13.111  1.00  0.00     0.040 C 
BRANCH  20  22
HETATM   22  O1  UNL     1      -0.180 -17.011 -13.650  1.00  0.00    -0.384 OA
BRANCH  22  23
HETATM   23  C3  UNL     1      -0.183 -15.989 -12.720  1.00  0.00     0.198 C 
BRANCH  23  24
HETATM   24  C4  UNL     1      -0.581 -14.689 -13.393  1.00  0.00     0.298 C 
BRANCH  24  25
HETATM   25  N1  UNL     1       0.441 -13.671 -13.263  1.00  0.00     0.090 N 
HETATM   26  C5  UNL     1       1.313 -13.911 -12.156  1.00  0.00     0.272 C 
HETATM   27  C6  UNL     1       1.265 -12.692 -11.262  1.00  0.00     0.032 C 
HETATM   28  C7  UNL     1      -0.115 -12.134 -11.557  1.00  0.00     0.032 C 
HETATM   29  C8  UNL     1      -0.207 -12.390 -13.049  1.00  0.00     0.272 C 
ENDBRANCH  24  25
ENDBRANCH  23  24
ENDBRANCH  22  23
ENDBRANCH  20  22
ENDBRANCH  15  20
BRANCH  16  30
HETATM   30  O7  UNL     1       3.232 -16.270 -14.027  1.00  0.00    -0.394 OA
ATOM     31  H7  UNL     1       4.116 -16.058 -13.751  1.00  0.00     0.210 HD
ENDBRANCH  16  30
ENDBRANCH   1  11
BRANCH   3  32
HETATM   32  O2  UNL     1       2.537 -12.582 -20.527  1.00  0.00    -0.395 OA
ATOM     33  H2  UNL     1       2.220 -11.792 -20.105  1.00  0.00     0.210 HD
ENDBRANCH   3  32
BRANCH   7  34
HETATM   34  C20 UNL     1      -0.493 -10.512 -17.156  1.00  0.00    -0.021 C 
HETATM   35  C21 UNL     1      -0.792 -10.078 -15.969  1.00  0.00     0.006 C 
BRANCH  35  36
HETATM   36  C22 UNL     1      -1.591  -8.838 -15.806  1.00  0.00     0.202 C 
HETATM   37  O3  UNL     1      -0.864  -7.787 -15.305  1.00  0.00    -0.342 OA
HETATM   38  C23 UNL     1      -1.437  -7.376 -14.118  1.00  0.00     0.161 C 
HETATM   39  C24 UNL     1      -1.972  -5.974 -14.291  1.00  0.00     0.078 C 
HETATM   40  C25 UNL     1      -0.349  -7.415 -13.050  1.00  0.00     0.078 C 
HETATM   41  O4  UNL     1      -2.415  -8.273 -13.778  1.00  0.00    -0.323 OA
HETATM   42  C26 UNL     1      -2.745  -9.043 -14.863  1.00  0.00     0.293 C 
BRANCH  42  43
HETATM   43  O5  UNL     1      -2.745 -10.399 -14.482  1.00  0.00    -0.368 OA
ATOM     44  H5  UNL     1      -1.839 -10.672 -14.399  1.00  0.00     0.212 HD
ENDBRANCH  42  43
ENDBRANCH  35  36
ENDBRANCH   7  34
TORSDOF 11
ENDMDL
