MODEL 1
REMARK VINA RESULT: -4.226591313      0.000      0.000
REMARK  4 active torsions:
REMARK  status: ('A' for Active; 'I' for Inactive)
REMARK    1  A    between atoms: C2_2  and  O1_3 
REMARK    2  A    between atoms: O1_3  and  C3_4 
REMARK    3  A    between atoms: C3_4  and  C4_6 
REMARK       I    between atoms: N1_11  and  C8_12 
REMARK    4  A    between atoms: C8_12  and  O3_14 
ROOT
HETATM    1  C4  UNL     1       4.632  22.327 -18.748  1.00  0.00     0.167 C 
HETATM    2  C5  UNL     1       5.166  22.989 -17.464  1.00  0.00     0.107 C 
HETATM    3  S2  UNL     1       6.995  22.953 -17.654  1.00  0.00    -0.165 SA
HETATM    4  C6  UNL     1       7.336  21.221 -18.169  1.00  0.00     0.094 C 
HETATM    5  C7  UNL     1       6.060  20.433 -17.939  1.00  0.00     0.139 C 
HETATM    6  N1  UNL     1       4.943  20.919 -18.715  1.00  0.00    -0.315 N 
HETATM    7  C8  UNL     1       4.174  19.974 -19.435  1.00  0.00     0.363 C 
HETATM    8  O2  UNL     1       3.204  20.383 -20.114  1.00  0.00    -0.238 OA
ENDROOT
BRANCH   1   9
HETATM    9  C3  UNL     1       3.231  22.653 -18.977  1.00  0.00     0.136 C 
HETATM   10  S1  UNL     1       2.120  22.339 -17.833  1.00  0.00    -0.055 SA
BRANCH   9  11
HETATM   11  O1  UNL     1       2.819  23.233 -20.164  1.00  0.00    -0.342 OA
BRANCH  11  12
HETATM   12  C2  UNL     1       3.423  24.396 -20.641  1.00  0.00     0.172 C 
HETATM   13  C1  UNL     1       3.354  25.557 -19.684  1.00  0.00     0.034 C 
ENDBRANCH  11  12
ENDBRANCH   9  11
ENDBRANCH   1   9
BRANCH   7  14
HETATM   14  O3  UNL     1       4.425  18.620 -19.439  1.00  0.00    -0.309 OA
HETATM   15  C9  UNL     1       5.489  18.065 -20.229  1.00  0.00     0.215 C 
ENDBRANCH   7  14
TORSDOF 4
ENDMDL
MODEL 2
REMARK VINA RESULT: -4.222828368      1.434      1.797
REMARK  4 active torsions:
REMARK  status: ('A' for Active; 'I' for Inactive)
REMARK    1  A    between atoms: C2_2  and  O1_3 
REMARK    2  A    between atoms: O1_3  and  C3_4 
REMARK    3  A    between atoms: C3_4  and  C4_6 
REMARK       I    between atoms: N1_11  and  C8_12 
REMARK    4  A    between atoms: C8_12  and  O3_14 
ROOT
HETATM    1  C4  UNL     1       4.950  23.392 -18.736  1.00  0.00     0.167 C 
HETATM    2  C5  UNL     1       5.735  23.606 -17.429  1.00  0.00     0.107 C 
HETATM    3  S2  UNL     1       7.280  22.635 -17.655  1.00  0.00    -0.165 SA
HETATM    4  C6  UNL     1       6.676  21.010 -18.268  1.00  0.00     0.094 C 
HETATM    5  C7  UNL     1       5.173  20.990 -18.056  1.00  0.00     0.139 C 
HETATM    6  N1  UNL     1       4.482  22.028 -18.784  1.00  0.00    -0.315 N 
HETATM    7  C8  UNL     1       3.342  21.663 -19.539  1.00  0.00     0.363 C 
HETATM    8  O2  UNL     1       2.735  22.553 -20.177  1.00  0.00    -0.238 OA
ENDROOT
BRANCH   1   9
HETATM    9  C3  UNL     1       3.926  24.411 -18.921  1.00  0.00     0.136 C 
HETATM   10  S1  UNL     1       3.031  24.911 -17.660  1.00  0.00    -0.055 SA
BRANCH   9  11
HETATM   11  O1  UNL     1       3.695  24.972 -20.165  1.00  0.00    -0.342 OA
BRANCH  11  12
HETATM   12  C2  UNL     1       3.229  26.281 -20.285  1.00  0.00     0.172 C 
HETATM   13  C1  UNL     1       3.929  27.083 -21.351  1.00  0.00     0.034 C 
ENDBRANCH  11  12
ENDBRANCH   9  11
ENDBRANCH   1   9
BRANCH   7  14
HETATM   14  O3  UNL     1       2.851  20.378 -19.619  1.00  0.00    -0.309 OA
HETATM   15  C9  UNL     1       3.599  19.338 -20.268  1.00  0.00     0.215 C 
ENDBRANCH   7  14
TORSDOF 4
ENDMDL
MODEL 3
REMARK VINA RESULT: -3.995922206      7.367      9.589
REMARK  4 active torsions:
REMARK  status: ('A' for Active; 'I' for Inactive)
REMARK    1  A    between atoms: C2_2  and  O1_3 
REMARK    2  A    between atoms: O1_3  and  C3_4 
REMARK    3  A    between atoms: C3_4  and  C4_6 
REMARK       I    between atoms: N1_11  and  C8_12 
REMARK    4  A    between atoms: C8_12  and  O3_14 
ROOT
HETATM    1  C4  UNL     1       8.604  14.196 -22.469  1.00  0.00     0.167 C 
HETATM    2  C5  UNL     1       8.847  12.983 -21.552  1.00  0.00     0.107 C 
HETATM    3  S2  UNL     1      10.674  12.780 -21.532  1.00  0.00    -0.165 SA
HETATM    4  C6  UNL     1      11.132  12.866 -23.311  1.00  0.00     0.094 C 
HETATM    5  C7  UNL     1       9.843  12.757 -24.104  1.00  0.00     0.139 C 
HETATM    6  N1  UNL     1       8.913  13.827 -23.829  1.00  0.00    -0.315 N 
HETATM    7  C8  UNL     1       8.324  14.493 -24.930  1.00  0.00     0.363 C 
HETATM    8  O2  UNL     1       7.517  15.424 -24.704  1.00  0.00    -0.238 OA
ENDROOT
BRANCH   1   9
HETATM    9  C3  UNL     1       7.281  14.769 -22.262  1.00  0.00     0.136 C 
HETATM   10  S1  UNL     1       5.958  13.830 -22.358  1.00  0.00    -0.055 SA
BRANCH   9  11
HETATM   11  O1  UNL     1       7.123  16.115 -21.981  1.00  0.00    -0.342 OA
BRANCH  11  12
HETATM   12  C2  UNL     1       7.180  16.584 -20.669  1.00  0.00     0.172 C 
HETATM   13  C1  UNL     1       6.173  17.660 -20.360  1.00  0.00     0.034 C 
ENDBRANCH  11  12
ENDBRANCH   9  11
ENDBRANCH   1   9
BRANCH   7  14
HETATM   14  O3  UNL     1       8.582  14.182 -26.246  1.00  0.00    -0.309 OA
HETATM   15  C9  UNL     1       8.225  15.083 -27.305  1.00  0.00     0.215 C 
ENDBRANCH   7  14
TORSDOF 4
ENDMDL
MODEL 4
REMARK VINA RESULT: -3.995913414      7.732     10.052
REMARK  4 active torsions:
REMARK  status: ('A' for Active; 'I' for Inactive)
REMARK    1  A    between atoms: C2_2  and  O1_3 
REMARK    2  A    between atoms: O1_3  and  C3_4 
REMARK    3  A    between atoms: C3_4  and  C4_6 
REMARK       I    between atoms: N1_11  and  C8_12 
REMARK    4  A    between atoms: C8_12  and  O3_14 
ROOT
HETATM    1  C4  UNL     1       8.478  14.036 -23.649  1.00  0.00     0.167 C 
HETATM    2  C5  UNL     1       8.232  15.110 -24.724  1.00  0.00     0.107 C 
HETATM    3  S2  UNL     1       8.982  14.413 -26.251  1.00  0.00    -0.165 SA
HETATM    4  C6  UNL     1      10.638  13.841 -25.690  1.00  0.00     0.094 C 
HETATM    5  C7  UNL     1      10.863  14.429 -24.309  1.00  0.00     0.139 C 
HETATM    6  N1  UNL     1       9.886  13.994 -23.339  1.00  0.00    -0.315 N 
HETATM    7  C8  UNL     1      10.356  13.530 -22.087  1.00  0.00     0.363 C 
HETATM    8  O2  UNL     1       9.519  13.148 -21.237  1.00  0.00    -0.238 OA
ENDROOT
BRANCH   1   9
HETATM    9  C3  UNL     1       7.591  14.207 -22.505  1.00  0.00     0.136 C 
HETATM   10  S1  UNL     1       6.456  13.091 -22.175  1.00  0.00    -0.055 SA
BRANCH   9  11
HETATM   11  O1  UNL     1       7.695  15.315 -21.683  1.00  0.00    -0.342 OA
BRANCH  11  12
HETATM   12  C2  UNL     1       6.592  16.134 -21.441  1.00  0.00     0.172 C 
HETATM   13  C1  UNL     1       6.826  17.175 -20.378  1.00  0.00     0.034 C 
ENDBRANCH  11  12
ENDBRANCH   9  11
ENDBRANCH   1   9
BRANCH   7  14
HETATM   14  O3  UNL     1      11.687  13.470 -21.739  1.00  0.00    -0.309 OA
HETATM   15  C9  UNL     1      12.175  12.458 -20.844  1.00  0.00     0.215 C 
ENDBRANCH   7  14
TORSDOF 4
ENDMDL
MODEL 5
REMARK VINA RESULT: -3.823197481      9.169     10.641
REMARK  4 active torsions:
REMARK  status: ('A' for Active; 'I' for Inactive)
REMARK    1  A    between atoms: C2_2  and  O1_3 
REMARK    2  A    between atoms: O1_3  and  C3_4 
REMARK    3  A    between atoms: C3_4  and  C4_6 
REMARK       I    between atoms: N1_11  and  C8_12 
REMARK    4  A    between atoms: C8_12  and  O3_14 
ROOT
HETATM    1  C4  UNL     1       9.898  15.031 -24.207  1.00  0.00     0.167 C 
HETATM    2  C5  UNL     1      10.698  13.843 -23.642  1.00  0.00     0.107 C 
HETATM    3  S2  UNL     1      12.062  14.621 -22.684  1.00  0.00    -0.165 SA
HETATM    4  C6  UNL     1      12.727  15.886 -23.841  1.00  0.00     0.094 C 
HETATM    5  C7  UNL     1      12.127  15.596 -25.204  1.00  0.00     0.139 C 
HETATM    6  N1  UNL     1      10.686  15.688 -25.222  1.00  0.00    -0.315 N 
HETATM    7  C8  UNL     1      10.082  16.437 -26.259  1.00  0.00     0.363 C 
HETATM    8  O2  UNL     1       8.832  16.525 -26.285  1.00  0.00    -0.238 OA
ENDROOT
BRANCH   1   9
HETATM    9  C3  UNL     1       8.559  14.630 -24.617  1.00  0.00     0.136 C 
HETATM   10  S1  UNL     1       8.355  13.385 -25.641  1.00  0.00    -0.055 SA
BRANCH   9  11
HETATM   11  O1  UNL     1       7.440  15.296 -24.147  1.00  0.00    -0.342 OA
BRANCH  11  12
HETATM   12  C2  UNL     1       7.051  15.188 -22.812  1.00  0.00     0.172 C 
HETATM   13  C1  UNL     1       5.820  14.346 -22.601  1.00  0.00     0.034 C 
ENDBRANCH  11  12
ENDBRANCH   9  11
ENDBRANCH   1   9
BRANCH   7  14
HETATM   14  O3  UNL     1      10.784  17.082 -27.253  1.00  0.00    -0.309 OA
HETATM   15  C9  UNL     1      10.526  18.458 -27.570  1.00  0.00     0.215 C 
ENDBRANCH   7  14
TORSDOF 4
ENDMDL
