MODEL 1
REMARK VINA RESULT: -7.183189374      0.000      0.000
REMARK  6 active torsions:
REMARK  status: ('A' for Active; 'I' for Inactive)
REMARK    1  A    between atoms: N1_2  and  C2_4 
REMARK    2  A    between atoms: C2_4  and  C3_5 
REMARK    3  A    between atoms: C3_5  and  S1_7 
REMARK    4  A    between atoms: S1_7  and  C4_10 
REMARK    5  A    between atoms: C7_13  and  O3_14 
REMARK    6  A    between atoms: O3_14  and  C8_15 
ROOT
HETATM    1  C4  UNL     1       4.764  22.606 -17.594  1.00  0.00     0.115 C 
HETATM    2  C5  UNL     1       5.784  23.477 -16.938  1.00  0.00     0.023 C 
HETATM    3  C6  UNL     1       6.018  24.688 -17.828  1.00  0.00     0.034 C 
HETATM    4  C7  UNL     1       4.673  25.409 -17.923  1.00  0.00     0.132 C 
HETATM    5  C10 UNL     1       3.789  24.576 -18.801  1.00  0.00     0.034 C 
HETATM    6  C11 UNL     1       4.252  23.142 -18.901  1.00  0.00     0.023 C 
ENDROOT
BRANCH   1   7
HETATM    7  S1  UNL     1       5.541  21.027 -17.950  1.00  0.00     0.199 S 
HETATM    8  O1  UNL     1       5.586  20.200 -16.672  1.00  0.00    -0.221 OA
HETATM    9  O2  UNL     1       6.984  21.285 -18.317  1.00  0.00    -0.221 OA
BRANCH   7  10
HETATM   10  C3  UNL     1       4.695  20.151 -19.171  1.00  0.00     0.190 C 
HETATM   11 CL1  UNL     1       3.191  20.729 -19.792  1.00  0.00    -0.061 Cl
BRANCH  10  12
HETATM   12  C2  UNL     1       5.188  19.039 -19.624  1.00  0.00    -0.010 C 
BRANCH  12  13
HETATM   13  N1  UNL     1       5.623  18.081 -20.387  1.00  0.00    -0.359 N 
HETATM   14  C1  UNL     1       6.960  17.576 -20.043  1.00  0.00     0.156 C 
ATOM     15  H1  UNL     1       5.079  17.709 -21.165  1.00  0.00     0.168 HD
ENDBRANCH  12  13
ENDBRANCH  10  12
ENDBRANCH   7  10
ENDBRANCH   1   7
BRANCH   4  16
HETATM   16  O3  UNL     1       4.906  26.698 -18.409  1.00  0.00    -0.316 OA
BRANCH  16  17
HETATM   17  C8  UNL     1       4.107  27.269 -19.391  1.00  0.00     0.255 C 
HETATM   18  C9  UNL     1       4.579  27.189 -20.795  1.00  0.00     0.126 C 
HETATM   19  O4  UNL     1       3.042  27.815 -19.048  1.00  0.00    -0.266 OA
ENDBRANCH  16  17
ENDBRANCH   4  16
TORSDOF 6
ENDMDL
MODEL 2
REMARK VINA RESULT: -6.935124937      1.125      1.247
REMARK  6 active torsions:
REMARK  status: ('A' for Active; 'I' for Inactive)
REMARK    1  A    between atoms: N1_2  and  C2_4 
REMARK    2  A    between atoms: C2_4  and  C3_5 
REMARK    3  A    between atoms: C3_5  and  S1_7 
REMARK    4  A    between atoms: S1_7  and  C4_10 
REMARK    5  A    between atoms: C7_13  and  O3_14 
REMARK    6  A    between atoms: O3_14  and  C8_15 
ROOT
HETATM    1  C4  UNL     1       4.624  21.887 -17.780  1.00  0.00     0.115 C 
HETATM    2  C5  UNL     1       5.344  22.906 -16.959  1.00  0.00     0.023 C 
HETATM    3  C6  UNL     1       5.498  24.166 -17.794  1.00  0.00     0.034 C 
HETATM    4  C7  UNL     1       4.080  24.637 -18.116  1.00  0.00     0.132 C 
HETATM    5  C10 UNL     1       3.522  23.688 -19.134  1.00  0.00     0.034 C 
HETATM    6  C11 UNL     1       4.249  22.365 -19.154  1.00  0.00     0.023 C 
ENDROOT
BRANCH   1   7
HETATM    7  S1  UNL     1       5.724  20.486 -18.000  1.00  0.00     0.199 S 
HETATM    8  O1  UNL     1       5.717  19.648 -16.728  1.00  0.00    -0.221 OA
HETATM    9  O2  UNL     1       7.134  21.010 -18.132  1.00  0.00    -0.221 OA
BRANCH   7  10
HETATM   10  C3  UNL     1       5.257  19.502 -19.337  1.00  0.00     0.190 C 
HETATM   11 CL1  UNL     1       3.676  19.628 -20.019  1.00  0.00    -0.061 Cl
BRANCH  10  12
HETATM   12  C2  UNL     1       6.100  18.647 -19.834  1.00  0.00    -0.010 C 
BRANCH  12  13
HETATM   13  N1  UNL     1       6.934  17.666 -20.003  1.00  0.00    -0.359 N 
HETATM   14  C1  UNL     1       6.542  16.691 -21.031  1.00  0.00     0.156 C 
ATOM     15  H1  UNL     1       7.795  17.579 -19.464  1.00  0.00     0.168 HD
ENDBRANCH  12  13
ENDBRANCH  10  12
ENDBRANCH   7  10
ENDBRANCH   1   7
BRANCH   4  16
HETATM   16  O3  UNL     1       4.152  25.962 -18.554  1.00  0.00    -0.316 OA
BRANCH  16  17
HETATM   17  C8  UNL     1       3.807  26.328 -19.849  1.00  0.00     0.255 C 
HETATM   18  C9  UNL     1       2.506  27.014 -20.047  1.00  0.00     0.126 C 
HETATM   19  O4  UNL     1       4.599  26.066 -20.773  1.00  0.00    -0.266 OA
ENDBRANCH  16  17
ENDBRANCH   4  16
TORSDOF 6
ENDMDL
MODEL 3
REMARK VINA RESULT: -6.916303526      1.480      2.130
REMARK  6 active torsions:
REMARK  status: ('A' for Active; 'I' for Inactive)
REMARK    1  A    between atoms: N1_2  and  C2_4 
REMARK    2  A    between atoms: C2_4  and  C3_5 
REMARK    3  A    between atoms: C3_5  and  S1_7 
REMARK    4  A    between atoms: S1_7  and  C4_10 
REMARK    5  A    between atoms: C7_13  and  O3_14 
REMARK    6  A    between atoms: O3_14  and  C8_15 
ROOT
HETATM    1  C4  UNL     1       6.065  21.388 -18.803  1.00  0.00     0.115 C 
HETATM    2  C5  UNL     1       4.643  21.751 -19.078  1.00  0.00     0.023 C 
HETATM    3  C6  UNL     1       4.220  22.812 -18.075  1.00  0.00     0.034 C 
HETATM    4  C7  UNL     1       5.139  24.011 -18.315  1.00  0.00     0.132 C 
HETATM    5  C10 UNL     1       6.491  23.640 -17.785  1.00  0.00     0.034 C 
HETATM    6  C11 UNL     1       6.678  22.147 -17.660  1.00  0.00     0.023 C 
ENDROOT
BRANCH   1   7
HETATM    7  S1  UNL     1       6.108  19.650 -18.354  1.00  0.00     0.199 S 
HETATM    8  O1  UNL     1       5.321  19.454 -17.065  1.00  0.00    -0.221 OA
HETATM    9  O2  UNL     1       7.535  19.287 -18.016  1.00  0.00    -0.221 OA
BRANCH   7  10
HETATM   10  C3  UNL     1       5.445  18.647 -19.590  1.00  0.00     0.190 C 
HETATM   11 CL1  UNL     1       3.819  18.864 -20.128  1.00  0.00    -0.061 Cl
BRANCH  10  12
HETATM   12  C2  UNL     1       6.172  17.709 -20.118  1.00  0.00    -0.010 C 
BRANCH  12  13
HETATM   13  N1  UNL     1       7.159  16.953 -20.494  1.00  0.00    -0.359 N 
HETATM   14  C1  UNL     1       6.862  16.066 -21.627  1.00  0.00     0.156 C 
ATOM     15  H1  UNL     1       8.071  16.973 -20.037  1.00  0.00     0.168 HD
ENDBRANCH  12  13
ENDBRANCH  10  12
ENDBRANCH   7  10
ENDBRANCH   1   7
BRANCH   4  16
HETATM   16  O3  UNL     1       4.569  25.124 -17.692  1.00  0.00    -0.316 OA
BRANCH  16  17
HETATM   17  C8  UNL     1       4.295  26.295 -18.388  1.00  0.00     0.255 C 
HETATM   18  C9  UNL     1       3.096  26.312 -19.261  1.00  0.00     0.126 C 
HETATM   19  O4  UNL     1       5.063  27.265 -18.247  1.00  0.00    -0.266 OA
ENDBRANCH  16  17
ENDBRANCH   4  16
TORSDOF 6
ENDMDL
MODEL 4
REMARK VINA RESULT: -6.690904658      3.268      6.641
REMARK  6 active torsions:
REMARK  status: ('A' for Active; 'I' for Inactive)
REMARK    1  A    between atoms: N1_2  and  C2_4 
REMARK    2  A    between atoms: C2_4  and  C3_5 
REMARK    3  A    between atoms: C3_5  and  S1_7 
REMARK    4  A    between atoms: S1_7  and  C4_10 
REMARK    5  A    between atoms: C7_13  and  O3_14 
REMARK    6  A    between atoms: O3_14  and  C8_15 
ROOT
HETATM    1  C4  UNL     1       4.661  22.838 -18.906  1.00  0.00     0.115 C 
HETATM    2  C5  UNL     1       5.975  22.340 -18.399  1.00  0.00     0.023 C 
HETATM    3  C6  UNL     1       5.788  20.909 -17.923  1.00  0.00     0.034 C 
HETATM    4  C7  UNL     1       5.344  20.109 -19.148  1.00  0.00     0.132 C 
HETATM    5  C10 UNL     1       3.926  20.500 -19.437  1.00  0.00     0.034 C 
HETATM    6  C11 UNL     1       3.552  21.828 -18.823  1.00  0.00     0.023 C 
ENDROOT
BRANCH   1   7
HETATM    7  S1  UNL     1       4.173  24.230 -17.882  1.00  0.00     0.199 S 
HETATM    8  O1  UNL     1       5.148  24.353 -16.719  1.00  0.00    -0.221 OA
HETATM    9  O2  UNL     1       2.836  23.908 -17.257  1.00  0.00    -0.221 OA
BRANCH   7  10
HETATM   10  C3  UNL     1       4.149  25.708 -18.770  1.00  0.00     0.190 C 
HETATM   11 CL1  UNL     1       4.962  27.110 -18.176  1.00  0.00    -0.061 Cl
BRANCH  10  12
HETATM   12  C2  UNL     1       3.503  25.773 -19.895  1.00  0.00    -0.010 C 
BRANCH  12  13
HETATM   13  N1  UNL     1       3.113  26.066 -21.099  1.00  0.00    -0.359 N 
HETATM   14  C1  UNL     1       4.065  26.868 -21.880  1.00  0.00     0.156 C 
ATOM     15  H1  UNL     1       2.214  25.763 -21.474  1.00  0.00     0.168 HD
ENDBRANCH  12  13
ENDBRANCH  10  12
ENDBRANCH   7  10
ENDBRANCH   1   7
BRANCH   4  16
HETATM   16  O3  UNL     1       5.513  18.752 -18.864  1.00  0.00    -0.316 OA
BRANCH  16  17
HETATM   17  C8  UNL     1       6.538  18.005 -19.430  1.00  0.00     0.255 C 
HETATM   18  C9  UNL     1       6.184  17.068 -20.524  1.00  0.00     0.126 C 
HETATM   19  O4  UNL     1       7.695  18.157 -18.995  1.00  0.00    -0.266 OA
ENDBRANCH  16  17
ENDBRANCH   4  16
TORSDOF 6
ENDMDL
MODEL 5
REMARK VINA RESULT: -6.557007688      1.117      1.706
REMARK  6 active torsions:
REMARK  status: ('A' for Active; 'I' for Inactive)
REMARK    1  A    between atoms: N1_2  and  C2_4 
REMARK    2  A    between atoms: C2_4  and  C3_5 
REMARK    3  A    between atoms: C3_5  and  S1_7 
REMARK    4  A    between atoms: S1_7  and  C4_10 
REMARK    5  A    between atoms: C7_13  and  O3_14 
REMARK    6  A    between atoms: O3_14  and  C8_15 
ROOT
HETATM    1  C4  UNL     1       5.217  22.615 -18.421  1.00  0.00     0.115 C 
HETATM    2  C5  UNL     1       4.042  23.043 -19.236  1.00  0.00     0.023 C 
HETATM    3  C6  UNL     1       3.464  24.304 -18.612  1.00  0.00     0.034 C 
HETATM    4  C7  UNL     1       4.575  25.353 -18.673  1.00  0.00     0.132 C 
HETATM    5  C10 UNL     1       5.598  24.969 -17.647  1.00  0.00     0.034 C 
HETATM    6  C11 UNL     1       5.511  23.515 -17.254  1.00  0.00     0.023 C 
ENDROOT
BRANCH   1   7
HETATM    7  S1  UNL     1       4.852  20.992 -17.746  1.00  0.00     0.199 S 
HETATM    8  O1  UNL     1       3.451  21.010 -17.148  1.00  0.00    -0.221 OA
HETATM    9  O2  UNL     1       5.785  20.745 -16.583  1.00  0.00    -0.221 OA
BRANCH   7  10
HETATM   10  C3  UNL     1       4.949  19.757 -18.945  1.00  0.00     0.190 C 
HETATM   11 CL1  UNL     1       3.702  19.570 -20.125  1.00  0.00    -0.061 Cl
BRANCH  10  12
HETATM   12  C2  UNL     1       5.965  18.949 -18.957  1.00  0.00    -0.010 C 
BRANCH  12  13
HETATM   13  N1  UNL     1       6.924  18.148 -19.316  1.00  0.00    -0.359 N 
HETATM   14  C1  UNL     1       6.628  17.315 -20.489  1.00  0.00     0.156 C 
ATOM     15  H1  UNL     1       7.814  18.102 -18.821  1.00  0.00     0.168 HD
ENDBRANCH  12  13
ENDBRANCH  10  12
ENDBRANCH   7  10
ENDBRANCH   1   7
BRANCH   4  16
HETATM   16  O3  UNL     1       3.997  26.607 -18.460  1.00  0.00    -0.316 OA
BRANCH  16  17
HETATM   17  C8  UNL     1       3.661  27.449 -19.512  1.00  0.00     0.255 C 
HETATM   18  C9  UNL     1       2.391  27.179 -20.231  1.00  0.00     0.126 C 
HETATM   19  O4  UNL     1       4.433  28.382 -19.798  1.00  0.00    -0.266 OA
ENDBRANCH  16  17
ENDBRANCH   4  16
TORSDOF 6
ENDMDL
