MODEL 1
REMARK VINA RESULT: -9.176920580      0.000      0.000
REMARK  13 active torsions:
REMARK  status: ('A' for Active; 'I' for Inactive)
REMARK    1  A    between atoms: C7_7  and  O1_8 
REMARK    2  A    between atoms: O1_8  and  C8_9 
REMARK    3  A    between atoms: C9_12  and  N2_13 
REMARK    4  A    between atoms: N2_13  and  C10_15 
REMARK    5  A    between atoms: C15_20  and  C16_21 
REMARK    6  A    between atoms: C16_21  and  N3_22 
REMARK    7  A    between atoms: N3_22  and  C17_24 
REMARK    8  A    between atoms: C20_31  and  O2_32 
REMARK    9  A    between atoms: O2_32  and  C21_33 
REMARK   10  A    between atoms: C21_33  and  C22_34 
REMARK   11  A    between atoms: C28_41  and  N6_42 
REMARK   12  A    between atoms: N6_42  and  C29_44 
REMARK   13  A    between atoms: N7_47  and  C32_48 
ROOT
HETATM    1  C32 UNL     1      38.258  -8.537  15.279  1.00  0.00     0.252 C 
HETATM    2  C33 UNL     1      39.137  -9.555  15.812  1.00  0.00     0.079 C 
HETATM    3  N8  UNL     1      39.836 -10.371  16.231  1.00  0.00    -0.196 NA
ENDROOT
BRANCH   1   4
HETATM    4  N7  UNL     1      37.552  -9.034  14.090  1.00  0.00    -0.340 N 
HETATM    5  C31 UNL     1      37.567  -8.351  12.936  1.00  0.00     0.096 A 
HETATM    6  C30 UNL     1      36.889  -8.837  11.818  1.00  0.00     0.066 A 
HETATM    7  C29 UNL     1      36.191 -10.025  11.867  1.00  0.00     0.108 A 
HETATM    8  N9  UNL     1      36.201 -10.677  13.042  1.00  0.00    -0.338 N 
HETATM    9  C34 UNL     1      36.866 -10.190  14.123  1.00  0.00     0.185 A 
ATOM     10  H9  UNL     1      35.697 -11.560  13.125  1.00  0.00     0.168 HD
BRANCH   7  11
HETATM   11  N6  UNL     1      35.583 -10.432  10.826  1.00  0.00    -0.326 N 
ATOM     12  H6  UNL     1      35.915 -10.092   9.924  1.00  0.00     0.169 HD
BRANCH  11  13
HETATM   13  C28 UNL     1      34.482 -11.318  10.822  1.00  0.00     0.147 A 
HETATM   14  C20 UNL     1      33.195 -10.739  10.866  1.00  0.00     0.158 A 
HETATM   15  C9  UNL     1      32.066 -11.514  10.878  1.00  0.00     0.146 A 
HETATM   16  N1  UNL     1      32.248 -12.873  10.843  1.00  0.00    -0.305 N 
HETATM   17  C8  UNL     1      33.468 -13.424  10.799  1.00  0.00     0.232 A 
ATOM     18  H1  UNL     1      31.430 -13.483  10.850  1.00  0.00     0.171 HD
HETATM   19  N10 UNL     1      34.559 -12.633  10.789  1.00  0.00    -0.305 N 
ATOM     20  H10 UNL     1      35.480 -13.069  10.755  1.00  0.00     0.171 HD
BRANCH  14  21
HETATM   21  O2  UNL     1      33.074  -9.365  10.891  1.00  0.00    -0.340 OA
BRANCH  21  22
HETATM   22  C21 UNL     1      32.633  -8.629   9.805  1.00  0.00     0.214 C 
BRANCH  22  23
HETATM   23  C22 UNL     1      33.403  -7.495   9.327  1.00  0.00    -0.031 A 
HETATM   24  C23 UNL     1      33.020  -6.782   8.185  1.00  0.00     0.009 A 
HETATM   25  C24 UNL     1      33.768  -5.762   7.691  1.00  0.00     0.004 A 
HETATM   26  C25 UNL     1      34.951  -5.375   8.294  1.00  0.00     0.042 A 
HETATM   27  C26 UNL     1      35.312  -6.092   9.423  1.00  0.00     0.117 A 
HETATM   28  F1  UNL     1      36.485  -5.714  10.026  1.00  0.00    -0.206 F 
HETATM   29  C27 UNL     1      34.573  -7.131   9.946  1.00  0.00     0.051 A 
ENDBRANCH  22  23
ENDBRANCH  21  22
ENDBRANCH  14  21
BRANCH  15  30
HETATM   30  N2  UNL     1      30.863 -11.066  11.005  1.00  0.00    -0.340 N 
ATOM     31  H2  UNL     1      30.403 -10.615  10.214  1.00  0.00     0.167 HD
BRANCH  30  32
HETATM   32  C10 UNL     1      30.178 -11.196  12.233  1.00  0.00     0.041 A 
HETATM   33  C11 UNL     1      30.699 -10.694  13.432  1.00  0.00     0.030 A 
HETATM   34  C12 UNL     1      30.026 -10.816  14.620  1.00  0.00     0.002 A 
HETATM   35  C13 UNL     1      28.809 -11.436  14.685  1.00  0.00     0.001 A 
HETATM   36  C14 UNL     1      28.254 -11.946  13.529  1.00  0.00     0.011 A 
HETATM   37  C15 UNL     1      28.962 -11.807  12.337  1.00  0.00    -0.013 A 
BRANCH  37  38
HETATM   38  C16 UNL     1      28.333 -12.355  11.120  1.00  0.00     0.178 C 
BRANCH  38  39
HETATM   39  N3  UNL     1      27.353 -13.367  11.351  1.00  0.00    -0.222 N 
ATOM     40  H3  UNL     1      26.379 -13.073  11.274  1.00  0.00     0.178 HD
BRANCH  39  41
HETATM   41  C17 UNL     1      27.546 -14.590  11.642  1.00  0.00     0.678 A 
HETATM   42  N4  UNL     1      27.008 -15.237  12.681  1.00  0.00    -0.201 N 
HETATM   43  C18 UNL     1      27.420 -16.515  12.693  1.00  0.00     0.123 A 
ATOM     44  H4  UNL     1      26.376 -14.821  13.365  1.00  0.00     0.183 HD
HETATM   45  C19 UNL     1      28.257 -16.669  11.608  1.00  0.00     0.123 A 
HETATM   46  N5  UNL     1      28.313 -15.468  10.986  1.00  0.00    -0.201 N 
ATOM     47  H5  UNL     1      28.855 -15.264  10.146  1.00  0.00     0.183 HD
ENDBRANCH  39  41
ENDBRANCH  38  39
ENDBRANCH  37  38
ENDBRANCH  30  32
ENDBRANCH  15  30
BRANCH  17  48
HETATM   48  O1  UNL     1      33.636 -14.822  10.761  1.00  0.00    -0.279 OA
BRANCH  48  49
HETATM   49  C7  UNL     1      33.605 -15.571  11.929  1.00  0.00     0.080 A 
HETATM   50  C6  UNL     1      34.788 -15.996  12.528  1.00  0.00     0.044 A 
HETATM   51  C4  UNL     1      34.765 -16.746  13.695  1.00  0.00    -0.059 A 
HETATM   52  C3  UNL     1      33.569 -17.086  14.288  1.00  0.00     0.013 A 
HETATM   53  C5  UNL     1      36.042 -17.178  14.299  1.00  0.00     0.048 C 
HETATM   54  C2  UNL     1      32.405 -16.663  13.694  1.00  0.00    -0.059 A 
HETATM   55  C1  UNL     1      31.121 -17.034  14.336  1.00  0.00     0.048 C 
HETATM   56  C35 UNL     1      32.429 -15.908  12.517  1.00  0.00     0.044 A 
ENDBRANCH  48  49
ENDBRANCH  17  48
ENDBRANCH  11  13
ENDBRANCH   7  11
ENDBRANCH   1   4
TORSDOF 13
ENDMDL
MODEL 2
REMARK VINA RESULT: -9.155622537      1.475      2.488
REMARK  13 active torsions:
REMARK  status: ('A' for Active; 'I' for Inactive)
REMARK    1  A    between atoms: C7_7  and  O1_8 
REMARK    2  A    between atoms: O1_8  and  C8_9 
REMARK    3  A    between atoms: C9_12  and  N2_13 
REMARK    4  A    between atoms: N2_13  and  C10_15 
REMARK    5  A    between atoms: C15_20  and  C16_21 
REMARK    6  A    between atoms: C16_21  and  N3_22 
REMARK    7  A    between atoms: N3_22  and  C17_24 
REMARK    8  A    between atoms: C20_31  and  O2_32 
REMARK    9  A    between atoms: O2_32  and  C21_33 
REMARK   10  A    between atoms: C21_33  and  C22_34 
REMARK   11  A    between atoms: C28_41  and  N6_42 
REMARK   12  A    between atoms: N6_42  and  C29_44 
REMARK   13  A    between atoms: N7_47  and  C32_48 
ROOT
HETATM    1  C32 UNL     1      38.896  -7.853  14.763  1.00  0.00     0.252 C 
HETATM    2  C33 UNL     1      38.104  -6.924  15.540  1.00  0.00     0.079 C 
HETATM    3  N8  UNL     1      37.467  -6.186  16.155  1.00  0.00    -0.196 NA
ENDROOT
BRANCH   1   4
HETATM    4  N7  UNL     1      38.049  -8.593  13.819  1.00  0.00    -0.340 N 
HETATM    5  C31 UNL     1      37.623  -8.032  12.678  1.00  0.00     0.096 A 
HETATM    6  C30 UNL     1      36.817  -8.750  11.794  1.00  0.00     0.066 A 
HETATM    7  C29 UNL     1      36.440 -10.048  12.066  1.00  0.00     0.108 A 
HETATM    8  N9  UNL     1      36.888 -10.572  13.220  1.00  0.00    -0.338 N 
HETATM    9  C34 UNL     1      37.672  -9.859  14.071  1.00  0.00     0.185 A 
ATOM     10  H9  UNL     1      36.633 -11.530  13.463  1.00  0.00     0.168 HD
BRANCH   7  11
HETATM   11  N6  UNL     1      35.701 -10.667  11.236  1.00  0.00    -0.326 N 
ATOM     12  H6  UNL     1      35.966 -10.630  10.252  1.00  0.00     0.169 HD
BRANCH  11  13
HETATM   13  C28 UNL     1      34.542 -11.403  11.571  1.00  0.00     0.147 A 
HETATM   14  C20 UNL     1      33.315 -10.705  11.559  1.00  0.00     0.158 A 
HETATM   15  C9  UNL     1      32.139 -11.327  11.880  1.00  0.00     0.146 A 
HETATM   16  N1  UNL     1      32.211 -12.657  12.210  1.00  0.00    -0.305 N 
HETATM   17  C8  UNL     1      33.374 -13.321  12.220  1.00  0.00     0.232 A 
ATOM     18  H1  UNL     1      31.355 -13.154  12.455  1.00  0.00     0.171 HD
HETATM   19  N10 UNL     1      34.514 -12.679  11.899  1.00  0.00    -0.305 N 
ATOM     20  H10 UNL     1      35.391 -13.200  11.912  1.00  0.00     0.171 HD
BRANCH  14  21
HETATM   21  O2  UNL     1      33.303  -9.369  11.210  1.00  0.00    -0.340 OA
BRANCH  21  22
HETATM   22  C21 UNL     1      32.777  -8.910  10.015  1.00  0.00     0.214 C 
BRANCH  22  23
HETATM   23  C22 UNL     1      33.320  -7.720   9.385  1.00  0.00    -0.031 A 
HETATM   24  C23 UNL     1      32.753  -7.186   8.223  1.00  0.00     0.009 A 
HETATM   25  C24 UNL     1      33.292  -6.113   7.588  1.00  0.00     0.004 A 
HETATM   26  C25 UNL     1      34.433  -5.490   8.062  1.00  0.00     0.042 A 
HETATM   27  C26 UNL     1      34.978  -6.034   9.214  1.00  0.00     0.117 A 
HETATM   28  F1  UNL     1      36.111  -5.422   9.689  1.00  0.00    -0.206 F 
HETATM   29  C27 UNL     1      34.453  -7.121   9.878  1.00  0.00     0.051 A 
ENDBRANCH  22  23
ENDBRANCH  21  22
ENDBRANCH  14  21
BRANCH  15  30
HETATM   30  N2  UNL     1      30.994 -10.740  11.978  1.00  0.00    -0.340 N 
ATOM     31  H2  UNL     1      30.797  -9.916  11.409  1.00  0.00     0.167 HD
BRANCH  30  32
HETATM   32  C10 UNL     1      30.012 -11.231  12.865  1.00  0.00     0.041 A 
HETATM   33  C11 UNL     1      30.045 -10.955  14.238  1.00  0.00     0.030 A 
HETATM   34  C12 UNL     1      29.084 -11.428  15.094  1.00  0.00     0.002 A 
HETATM   35  C13 UNL     1      28.045 -12.192  14.640  1.00  0.00     0.001 A 
HETATM   36  C14 UNL     1      27.969 -12.490  13.295  1.00  0.00     0.011 A 
HETATM   37  C15 UNL     1      28.960 -11.995  12.449  1.00  0.00    -0.013 A 
BRANCH  37  38
HETATM   38  C16 UNL     1      28.840 -12.324  11.016  1.00  0.00     0.178 C 
BRANCH  38  39
HETATM   39  N3  UNL     1      27.586 -12.886  10.630  1.00  0.00    -0.222 N 
ATOM     40  H3  UNL     1      27.363 -13.800  11.025  1.00  0.00     0.178 HD
BRANCH  39  41
HETATM   41  C17 UNL     1      26.712 -12.385   9.853  1.00  0.00     0.678 A 
HETATM   42  N4  UNL     1      26.229 -12.965   8.749  1.00  0.00    -0.201 N 
HETATM   43  C18 UNL     1      25.323 -12.164   8.165  1.00  0.00     0.123 A 
ATOM     44  H4  UNL     1      26.508 -13.882   8.400  1.00  0.00     0.183 HD
HETATM   45  C19 UNL     1      25.240 -11.029   8.945  1.00  0.00     0.123 A 
HETATM   46  N5  UNL     1      26.106 -11.199   9.972  1.00  0.00    -0.201 N 
ATOM     47  H5  UNL     1      26.271 -10.525  10.720  1.00  0.00     0.183 HD
ENDBRANCH  39  41
ENDBRANCH  38  39
ENDBRANCH  37  38
ENDBRANCH  30  32
ENDBRANCH  15  30
BRANCH  17  48
HETATM   48  O1  UNL     1      33.430 -14.688  12.560  1.00  0.00    -0.279 OA
BRANCH  48  49
HETATM   49  C7  UNL     1      32.266 -15.415  12.766  1.00  0.00     0.080 A 
HETATM   50  C6  UNL     1      32.071 -16.116  13.952  1.00  0.00     0.044 A 
HETATM   51  C4  UNL     1      30.910 -16.846  14.165  1.00  0.00    -0.059 A 
HETATM   52  C3  UNL     1      29.924 -16.892  13.205  1.00  0.00     0.013 A 
HETATM   53  C5  UNL     1      30.742 -17.576  15.438  1.00  0.00     0.048 C 
HETATM   54  C2  UNL     1      30.120 -16.197  12.037  1.00  0.00    -0.059 A 
HETATM   55  C1  UNL     1      29.055 -16.251  11.006  1.00  0.00     0.048 C 
HETATM   56  C35 UNL     1      31.291 -15.462  11.823  1.00  0.00     0.044 A 
ENDBRANCH  48  49
ENDBRANCH  17  48
ENDBRANCH  11  13
ENDBRANCH   7  11
ENDBRANCH   1   4
TORSDOF 13
ENDMDL
MODEL 3
REMARK VINA RESULT: -9.149984201      1.969      3.987
REMARK  13 active torsions:
REMARK  status: ('A' for Active; 'I' for Inactive)
REMARK    1  A    between atoms: C7_7  and  O1_8 
REMARK    2  A    between atoms: O1_8  and  C8_9 
REMARK    3  A    between atoms: C9_12  and  N2_13 
REMARK    4  A    between atoms: N2_13  and  C10_15 
REMARK    5  A    between atoms: C15_20  and  C16_21 
REMARK    6  A    between atoms: C16_21  and  N3_22 
REMARK    7  A    between atoms: N3_22  and  C17_24 
REMARK    8  A    between atoms: C20_31  and  O2_32 
REMARK    9  A    between atoms: O2_32  and  C21_33 
REMARK   10  A    between atoms: C21_33  and  C22_34 
REMARK   11  A    between atoms: C28_41  and  N6_42 
REMARK   12  A    between atoms: N6_42  and  C29_44 
REMARK   13  A    between atoms: N7_47  and  C32_48 
ROOT
HETATM    1  C32 UNL     1      38.289  -9.026  15.709  1.00  0.00     0.252 C 
HETATM    2  C33 UNL     1      39.289  -9.977  16.143  1.00  0.00     0.079 C 
HETATM    3  N8  UNL     1      40.084 -10.738  16.485  1.00  0.00    -0.196 NA
ENDROOT
BRANCH   1   4
HETATM    4  N7  UNL     1      37.579  -9.527  14.523  1.00  0.00    -0.340 N 
HETATM    5  C31 UNL     1      37.929  -9.140  13.288  1.00  0.00     0.096 A 
HETATM    6  C30 UNL     1      37.243  -9.625  12.174  1.00  0.00     0.066 A 
HETATM    7  C29 UNL     1      36.195 -10.510  12.311  1.00  0.00     0.108 A 
HETATM    8  N9  UNL     1      35.877 -10.872  13.566  1.00  0.00    -0.338 N 
HETATM    9  C34 UNL     1      36.555 -10.390  14.641  1.00  0.00     0.185 A 
ATOM     10  H9  UNL     1      35.108 -11.525  13.715  1.00  0.00     0.168 HD
BRANCH   7  11
HETATM   11  N6  UNL     1      35.593 -10.926  11.270  1.00  0.00    -0.326 N 
ATOM     12  H6  UNL     1      36.035 -10.748  10.368  1.00  0.00     0.169 HD
BRANCH  11  13
HETATM   13  C28 UNL     1      34.359 -11.614  11.265  1.00  0.00     0.147 A 
HETATM   14  C20 UNL     1      33.188 -10.827  11.199  1.00  0.00     0.158 A 
HETATM   15  C9  UNL     1      31.944 -11.401  11.201  1.00  0.00     0.146 A 
HETATM   16  N1  UNL     1      31.894 -12.770  11.268  1.00  0.00    -0.305 N 
HETATM   17  C8  UNL     1      33.004 -13.517  11.330  1.00  0.00     0.232 A 
ATOM     18  H1  UNL     1      30.985 -13.232  11.272  1.00  0.00     0.171 HD
HETATM   19  N10 UNL     1      34.212 -12.922  11.327  1.00  0.00    -0.305 N 
ATOM     20  H10 UNL     1      35.047 -13.506  11.373  1.00  0.00     0.171 HD
BRANCH  14  21
HETATM   21  O2  UNL     1      33.302  -9.454  11.124  1.00  0.00    -0.340 OA
BRANCH  21  22
HETATM   22  C21 UNL     1      33.037  -8.740   9.968  1.00  0.00     0.214 C 
BRANCH  22  23
HETATM   23  C22 UNL     1      33.966  -7.727   9.504  1.00  0.00    -0.031 A 
HETATM   24  C23 UNL     1      35.075  -7.347  10.269  1.00  0.00     0.009 A 
HETATM   25  C24 UNL     1      35.914  -6.354   9.875  1.00  0.00     0.004 A 
HETATM   26  C25 UNL     1      35.714  -5.666   8.692  1.00  0.00     0.042 A 
HETATM   27  C26 UNL     1      34.611  -6.057   7.949  1.00  0.00     0.117 A 
HETATM   28  F1  UNL     1      34.406  -5.378   6.775  1.00  0.00    -0.206 F 
HETATM   29  C27 UNL     1      33.745  -7.060   8.325  1.00  0.00     0.051 A 
ENDBRANCH  22  23
ENDBRANCH  21  22
ENDBRANCH  14  21
BRANCH  15  30
HETATM   30  N2  UNL     1      30.830 -10.750  11.231  1.00  0.00    -0.340 N 
ATOM     31  H2  UNL     1      30.726  -9.898  10.680  1.00  0.00     0.167 HD
BRANCH  30  32
HETATM   32  C10 UNL     1      29.754 -11.212  12.021  1.00  0.00     0.041 A 
HETATM   33  C11 UNL     1      28.643 -11.853  11.461  1.00  0.00     0.030 A 
HETATM   34  C12 UNL     1      27.605 -12.306  12.234  1.00  0.00     0.002 A 
HETATM   35  C13 UNL     1      27.613 -12.151  13.593  1.00  0.00     0.001 A 
HETATM   36  C14 UNL     1      28.688 -11.526  14.190  1.00  0.00     0.011 A 
HETATM   37  C15 UNL     1      29.728 -11.076  13.378  1.00  0.00    -0.013 A 
BRANCH  37  38
HETATM   38  C16 UNL     1      30.865 -10.422  14.053  1.00  0.00     0.178 C 
BRANCH  38  39
HETATM   39  N3  UNL     1      30.626 -10.043  15.408  1.00  0.00    -0.222 N 
ATOM     40  H3  UNL     1      29.815 -10.470  15.857  1.00  0.00     0.178 HD
BRANCH  39  41
HETATM   41  C17 UNL     1      31.301  -9.237  16.125  1.00  0.00     0.678 A 
HETATM   42  N4  UNL     1      30.955  -7.978  16.416  1.00  0.00    -0.201 N 
HETATM   43  C18 UNL     1      31.890  -7.411  17.195  1.00  0.00     0.123 A 
ATOM     44  H4  UNL     1      30.105  -7.517  16.094  1.00  0.00     0.183 HD
HETATM   45  C19 UNL     1      32.866  -8.365  17.396  1.00  0.00     0.123 A 
HETATM   46  N5  UNL     1      32.472  -9.473  16.725  1.00  0.00    -0.201 N 
ATOM     47  H5  UNL     1      32.989 -10.351  16.684  1.00  0.00     0.183 HD
ENDBRANCH  39  41
ENDBRANCH  38  39
ENDBRANCH  37  38
ENDBRANCH  30  32
ENDBRANCH  15  30
BRANCH  17  48
HETATM   48  O1  UNL     1      32.933 -14.923  11.397  1.00  0.00    -0.279 OA
BRANCH  48  49
HETATM   49  C7  UNL     1      31.783 -15.554  11.851  1.00  0.00     0.080 A 
HETATM   50  C6  UNL     1      30.797 -15.959  10.955  1.00  0.00     0.044 A 
HETATM   51  C4  UNL     1      29.645 -16.589  11.402  1.00  0.00    -0.059 A 
HETATM   52  C3  UNL     1      29.451 -16.829  12.745  1.00  0.00     0.013 A 
HETATM   53  C5  UNL     1      28.623 -17.003  10.418  1.00  0.00     0.048 C 
HETATM   54  C2  UNL     1      30.427 -16.428  13.624  1.00  0.00    -0.059 A 
HETATM   55  C1  UNL     1      30.212 -16.688  15.068  1.00  0.00     0.048 C 
HETATM   56  C35 UNL     1      31.588 -15.793  13.173  1.00  0.00     0.044 A 
ENDBRANCH  48  49
ENDBRANCH  17  48
ENDBRANCH  11  13
ENDBRANCH   7  11
ENDBRANCH   1   4
TORSDOF 13
ENDMDL
MODEL 4
REMARK VINA RESULT: -9.080064082      7.375     12.435
REMARK  13 active torsions:
REMARK  status: ('A' for Active; 'I' for Inactive)
REMARK    1  A    between atoms: C7_7  and  O1_8 
REMARK    2  A    between atoms: O1_8  and  C8_9 
REMARK    3  A    between atoms: C9_12  and  N2_13 
REMARK    4  A    between atoms: N2_13  and  C10_15 
REMARK    5  A    between atoms: C15_20  and  C16_21 
REMARK    6  A    between atoms: C16_21  and  N3_22 
REMARK    7  A    between atoms: N3_22  and  C17_24 
REMARK    8  A    between atoms: C20_31  and  O2_32 
REMARK    9  A    between atoms: O2_32  and  C21_33 
REMARK   10  A    between atoms: C21_33  and  C22_34 
REMARK   11  A    between atoms: C28_41  and  N6_42 
REMARK   12  A    between atoms: N6_42  and  C29_44 
REMARK   13  A    between atoms: N7_47  and  C32_48 
ROOT
HETATM    1  C32 UNL     1      35.429  -7.263   9.306  1.00  0.00     0.252 C 
HETATM    2  C33 UNL     1      34.957  -6.037   8.701  1.00  0.00     0.079 C 
HETATM    3  N8  UNL     1      34.583  -5.056   8.224  1.00  0.00    -0.196 NA
ENDROOT
BRANCH   1   4
HETATM    4  N7  UNL     1      36.131  -6.982  10.566  1.00  0.00    -0.340 N 
HETATM    5  C31 UNL     1      36.362  -7.950  11.465  1.00  0.00     0.096 A 
HETATM    6  C30 UNL     1      37.029  -7.664  12.656  1.00  0.00     0.066 A 
HETATM    7  C29 UNL     1      37.466  -6.388  12.941  1.00  0.00     0.108 A 
HETATM    8  N9  UNL     1      37.214  -5.448  12.014  1.00  0.00    -0.338 N 
HETATM    9  C34 UNL     1      36.563  -5.742  10.858  1.00  0.00     0.185 A 
ATOM     10  H9  UNL     1      37.519  -4.489  12.183  1.00  0.00     0.168 HD
BRANCH   7  11
HETATM   11  N6  UNL     1      38.067  -6.168  14.041  1.00  0.00    -0.326 N 
ATOM     12  H6  UNL     1      39.081  -6.275  14.053  1.00  0.00     0.169 HD
BRANCH  11  13
HETATM   13  C28 UNL     1      37.439  -5.786  15.248  1.00  0.00     0.147 A 
HETATM   14  C20 UNL     1      38.067  -6.181  16.449  1.00  0.00     0.158 A 
HETATM   15  C9  UNL     1      37.530  -5.869  17.669  1.00  0.00     0.146 A 
HETATM   16  N1  UNL     1      36.358  -5.156  17.666  1.00  0.00    -0.305 N 
HETATM   17  C8  UNL     1      35.761  -4.780  16.527  1.00  0.00     0.232 A 
ATOM     18  H1  UNL     1      35.928  -4.905  18.556  1.00  0.00     0.171 HD
HETATM   19  N10 UNL     1      36.316  -5.103  15.343  1.00  0.00    -0.305 N 
ATOM     20  H10 UNL     1      35.849  -4.808  14.486  1.00  0.00     0.171 HD
BRANCH  14  21
HETATM   21  O2  UNL     1      39.250  -6.889  16.390  1.00  0.00    -0.340 OA
BRANCH  21  22
HETATM   22  C21 UNL     1      39.299  -8.255  16.169  1.00  0.00     0.214 C 
BRANCH  22  23
HETATM   23  C22 UNL     1      39.850  -9.140  17.178  1.00  0.00    -0.031 A 
HETATM   24  C23 UNL     1      39.292 -10.399  17.428  1.00  0.00     0.009 A 
HETATM   25  C24 UNL     1      39.758 -11.209  18.414  1.00  0.00     0.004 A 
HETATM   26  C25 UNL     1      40.812 -10.828  19.224  1.00  0.00     0.042 A 
HETATM   27  C26 UNL     1      41.351  -9.579  18.960  1.00  0.00     0.117 A 
HETATM   28  F1  UNL     1      42.398  -9.195  19.760  1.00  0.00    -0.206 F 
HETATM   29  C27 UNL     1      40.899  -8.738  17.968  1.00  0.00     0.051 A 
ENDBRANCH  22  23
ENDBRANCH  21  22
ENDBRANCH  14  21
BRANCH  15  30
HETATM   30  N2  UNL     1      37.995  -6.266  18.805  1.00  0.00    -0.340 N 
ATOM     31  H2  UNL     1      38.655  -5.680  19.316  1.00  0.00     0.167 HD
BRANCH  30  32
HETATM   32  C10 UNL     1      37.595  -7.508  19.346  1.00  0.00     0.041 A 
HETATM   33  C11 UNL     1      36.552  -8.260  18.791  1.00  0.00     0.030 A 
HETATM   34  C12 UNL     1      36.174  -9.469  19.315  1.00  0.00     0.002 A 
HETATM   35  C13 UNL     1      36.804  -9.995  20.408  1.00  0.00     0.001 A 
HETATM   36  C14 UNL     1      37.838  -9.292  20.990  1.00  0.00     0.011 A 
HETATM   37  C15 UNL     1      38.201  -8.065  20.434  1.00  0.00    -0.013 A 
BRANCH  37  38
HETATM   38  C16 UNL     1      39.318  -7.347  21.076  1.00  0.00     0.178 C 
BRANCH  38  39
HETATM   39  N3  UNL     1      39.778  -7.918  22.301  1.00  0.00    -0.222 N 
ATOM     40  H3  UNL     1      39.122  -7.894  23.081  1.00  0.00     0.178 HD
BRANCH  39  41
HETATM   41  C17 UNL     1      40.908  -8.453  22.536  1.00  0.00     0.678 A 
HETATM   42  N4  UNL     1      41.133  -9.764  22.682  1.00  0.00    -0.201 N 
HETATM   43  C18 UNL     1      42.435  -9.986  22.919  1.00  0.00     0.123 A 
ATOM     44  H4  UNL     1      40.418 -10.489  22.621  1.00  0.00     0.183 HD
HETATM   45  C19 UNL     1      43.050  -8.751  22.923  1.00  0.00     0.123 A 
HETATM   46  N5  UNL     1      42.084  -7.833  22.685  1.00  0.00    -0.201 N 
ATOM     47  H5  UNL     1      42.229  -6.825  22.628  1.00  0.00     0.183 HD
ENDBRANCH  39  41
ENDBRANCH  38  39
ENDBRANCH  37  38
ENDBRANCH  30  32
ENDBRANCH  15  30
BRANCH  17  48
HETATM   48  O1  UNL     1      34.558  -4.046  16.543  1.00  0.00    -0.279 OA
BRANCH  48  49
HETATM   49  C7  UNL     1      34.291  -3.145  17.563  1.00  0.00     0.080 A 
HETATM   50  C6  UNL     1      33.362  -3.452  18.554  1.00  0.00     0.044 A 
HETATM   51  C4  UNL     1      33.089  -2.556  19.576  1.00  0.00    -0.059 A 
HETATM   52  C3  UNL     1      33.733  -1.340  19.635  1.00  0.00     0.013 A 
HETATM   53  C5  UNL     1      32.096  -2.921  20.608  1.00  0.00     0.048 C 
HETATM   54  C2  UNL     1      34.650  -1.041  18.657  1.00  0.00    -0.059 A 
HETATM   55  C1  UNL     1      35.339   0.270  18.724  1.00  0.00     0.048 C 
HETATM   56  C35 UNL     1      34.924  -1.946  17.625  1.00  0.00     0.044 A 
ENDBRANCH  48  49
ENDBRANCH  17  48
ENDBRANCH  11  13
ENDBRANCH   7  11
ENDBRANCH   1   4
TORSDOF 13
ENDMDL
MODEL 5
REMARK VINA RESULT: -8.963001702      1.994      3.756
REMARK  13 active torsions:
REMARK  status: ('A' for Active; 'I' for Inactive)
REMARK    1  A    between atoms: C7_7  and  O1_8 
REMARK    2  A    between atoms: O1_8  and  C8_9 
REMARK    3  A    between atoms: C9_12  and  N2_13 
REMARK    4  A    between atoms: N2_13  and  C10_15 
REMARK    5  A    between atoms: C15_20  and  C16_21 
REMARK    6  A    between atoms: C16_21  and  N3_22 
REMARK    7  A    between atoms: N3_22  and  C17_24 
REMARK    8  A    between atoms: C20_31  and  O2_32 
REMARK    9  A    between atoms: O2_32  and  C21_33 
REMARK   10  A    between atoms: C21_33  and  C22_34 
REMARK   11  A    between atoms: C28_41  and  N6_42 
REMARK   12  A    between atoms: N6_42  and  C29_44 
REMARK   13  A    between atoms: N7_47  and  C32_48 
ROOT
HETATM    1  C32 UNL     1      37.594  -7.684  14.672  1.00  0.00     0.252 C 
HETATM    2  C33 UNL     1      36.529  -6.905  15.266  1.00  0.00     0.079 C 
HETATM    3  N8  UNL     1      35.676  -6.287  15.734  1.00  0.00    -0.196 NA
ENDROOT
BRANCH   1   4
HETATM    4  N7  UNL     1      37.059  -8.601  13.656  1.00  0.00    -0.340 N 
HETATM    5  C31 UNL     1      36.668  -9.843  13.976  1.00  0.00     0.096 A 
HETATM    6  C30 UNL     1      36.164 -10.700  12.998  1.00  0.00     0.066 A 
HETATM    7  C29 UNL     1      36.055 -10.297  11.683  1.00  0.00     0.108 A 
HETATM    8  N9  UNL     1      36.458  -9.046  11.405  1.00  0.00    -0.338 N 
HETATM    9  C34 UNL     1      36.947  -8.223  12.370  1.00  0.00     0.185 A 
ATOM     10  H9  UNL     1      36.396  -8.705  10.446  1.00  0.00     0.168 HD
BRANCH   7  11
HETATM   11  N6  UNL     1      35.594 -11.111  10.821  1.00  0.00    -0.326 N 
ATOM     12  H6  UNL     1      36.158 -11.285   9.989  1.00  0.00     0.169 HD
BRANCH  11  13
HETATM   13  C28 UNL     1      34.361 -11.793  10.924  1.00  0.00     0.147 A 
HETATM   14  C20 UNL     1      33.192 -11.042  10.675  1.00  0.00     0.158 A 
HETATM   15  C9  UNL     1      31.949 -11.611  10.762  1.00  0.00     0.146 A 
HETATM   16  N1  UNL     1      31.897 -12.939  11.100  1.00  0.00    -0.305 N 
HETATM   17  C8  UNL     1      33.006 -13.653  11.336  1.00  0.00     0.232 A 
ATOM     18  H1  UNL     1      30.989 -13.396  11.174  1.00  0.00     0.171 HD
HETATM   19  N10 UNL     1      34.214 -13.063  11.243  1.00  0.00    -0.305 N 
ATOM     20  H10 UNL     1      35.047 -13.622  11.425  1.00  0.00     0.171 HD
BRANCH  14  21
HETATM   21  O2  UNL     1      33.306  -9.711  10.329  1.00  0.00    -0.340 OA
BRANCH  21  22
HETATM   22  C21 UNL     1      33.150  -9.255   9.031  1.00  0.00     0.214 C 
BRANCH  22  23
HETATM   23  C22 UNL     1      33.633  -7.940   8.654  1.00  0.00    -0.031 A 
HETATM   24  C23 UNL     1      32.850  -7.066   7.892  1.00  0.00     0.009 A 
HETATM   25  C24 UNL     1      33.316  -5.859   7.477  1.00  0.00     0.004 A 
HETATM   26  C25 UNL     1      34.594  -5.432   7.790  1.00  0.00     0.042 A 
HETATM   27  C26 UNL     1      35.353  -6.311   8.546  1.00  0.00     0.117 A 
HETATM   28  F1  UNL     1      36.622  -5.894   8.859  1.00  0.00    -0.206 F 
HETATM   29  C27 UNL     1      34.906  -7.540   8.979  1.00  0.00     0.051 A 
ENDBRANCH  22  23
ENDBRANCH  21  22
ENDBRANCH  14  21
BRANCH  15  30
HETATM   30  N2  UNL     1      30.834 -10.973  10.634  1.00  0.00    -0.340 N 
ATOM     31  H2  UNL     1      30.783 -10.158  10.023  1.00  0.00     0.167 HD
BRANCH  30  32
HETATM   32  C10 UNL     1      29.684 -11.398  11.335  1.00  0.00     0.041 A 
HETATM   33  C11 UNL     1      28.685 -12.168  10.727  1.00  0.00     0.030 A 
HETATM   34  C12 UNL     1      27.574 -12.584  11.415  1.00  0.00     0.002 A 
HETATM   35  C13 UNL     1      27.396 -12.265  12.732  1.00  0.00     0.001 A 
HETATM   36  C14 UNL     1      28.354 -11.509  13.375  1.00  0.00     0.011 A 
HETATM   37  C15 UNL     1      29.472 -11.100  12.650  1.00  0.00    -0.013 A 
BRANCH  37  38
HETATM   38  C16 UNL     1      30.481 -10.302  13.372  1.00  0.00     0.178 C 
BRANCH  38  39
HETATM   39  N3  UNL     1      30.708 -10.700  14.724  1.00  0.00    -0.222 N 
ATOM     40  H3  UNL     1      31.018 -11.661  14.863  1.00  0.00     0.178 HD
BRANCH  39  41
HETATM   41  C17 UNL     1      30.571  -9.999  15.778  1.00  0.00     0.678 A 
HETATM   42  N4  UNL     1      31.200  -8.847  16.033  1.00  0.00    -0.201 N 
HETATM   43  C18 UNL     1      30.825  -8.372  17.232  1.00  0.00     0.123 A 
ATOM     44  H4  UNL     1      31.867  -8.394  15.409  1.00  0.00     0.183 HD
HETATM   45  C19 UNL     1      29.919  -9.276  17.747  1.00  0.00     0.123 A 
HETATM   46  N5  UNL     1      29.787 -10.262  16.829  1.00  0.00    -0.201 N 
ATOM     47  H5  UNL     1      29.183 -11.078  16.924  1.00  0.00     0.183 HD
ENDBRANCH  39  41
ENDBRANCH  38  39
ENDBRANCH  37  38
ENDBRANCH  30  32
ENDBRANCH  15  30
BRANCH  17  48
HETATM   48  O1  UNL     1      32.934 -15.017  11.681  1.00  0.00    -0.279 OA
BRANCH  48  49
HETATM   49  C7  UNL     1      31.725 -15.594  12.044  1.00  0.00     0.080 A 
HETATM   50  C6  UNL     1      31.399 -15.766  13.387  1.00  0.00     0.044 A 
HETATM   51  C4  UNL     1      30.193 -16.342  13.758  1.00  0.00    -0.059 A 
HETATM   52  C3  UNL     1      29.290 -16.756  12.805  1.00  0.00     0.013 A 
HETATM   53  C5  UNL     1      29.885 -16.506  15.194  1.00  0.00     0.048 C 
HETATM   54  C2  UNL     1      29.615 -16.583  11.482  1.00  0.00    -0.059 A 
HETATM   55  C1  UNL     1      28.639 -17.032  10.460  1.00  0.00     0.048 C 
HETATM   56  C35 UNL     1      30.832 -16.002  11.108  1.00  0.00     0.044 A 
ENDBRANCH  48  49
ENDBRANCH  17  48
ENDBRANCH  11  13
ENDBRANCH   7  11
ENDBRANCH   1   4
TORSDOF 13
ENDMDL
