MODEL 1
REMARK VINA RESULT: -6.566235139      0.000      0.000
REMARK  6 active torsions:
REMARK  status: ('A' for Active; 'I' for Inactive)
REMARK    1  A    between atoms: O1_2  and  C2_3 
REMARK    2  A    between atoms: N1_5  and  C4_6 
REMARK    3  A    between atoms: C5_9  and  C6_10 
REMARK       I    between atoms: C6_10  and  N3_12 
REMARK    4  A    between atoms: C14_20  and  O3_21 
REMARK    5  A    between atoms: C18_28  and  N5_29 
REMARK       I    between atoms: N5_29  and  C20_31 
REMARK       I    between atoms: C20_31  and  N6_33 
REMARK    6  A    between atoms: N6_33  and  C21_35 
ROOT
HETATM    1  C4  UNL     1      21.094  -1.730  10.045  1.00  0.00     0.165 A 
HETATM    2  N2  UNL     1      21.611  -1.744   8.834  1.00  0.00    -0.317 N 
ATOM      3  H2  UNL     1      22.536  -2.145   8.678  1.00  0.00     0.169 HD
HETATM    4  C5  UNL     1      20.939  -1.246   7.841  1.00  0.00     0.183 A 
HETATM    5  N4  UNL     1      19.731  -0.732   8.113  1.00  0.00    -0.305 N 
ATOM      6  H4  UNL     1      19.065  -0.300   7.473  1.00  0.00     0.176 HD
HETATM    7  S1  UNL     1      19.589  -0.977   9.772  1.00  0.00     0.024 SA
ENDROOT
BRANCH   1   8
HETATM    8  N1  UNL     1      21.674  -2.225  11.276  1.00  0.00    -0.356 N 
HETATM    9  C3  UNL     1      22.765  -3.174  11.275  1.00  0.00     0.159 C 
HETATM   10  C2  UNL     1      23.282  -3.193  12.707  1.00  0.00     0.163 C 
HETATM   11  C18 UNL     1      22.005  -2.916  13.466  1.00  0.00     0.137 C 
HETATM   12  C17 UNL     1      21.282  -1.888  12.619  1.00  0.00     0.153 C 
BRANCH  10  13
HETATM   13  O1  UNL     1      24.311  -2.338  12.940  1.00  0.00    -0.387 OA
HETATM   14  C1  UNL     1      25.564  -2.917  12.895  1.00  0.00     0.202 C 
ENDBRANCH  10  13
BRANCH  11  15
HETATM   15  N5  UNL     1      22.155  -2.517  14.813  1.00  0.00    -0.330 N 
HETATM   16  C19 UNL     1      21.627  -1.215  15.296  1.00  0.00     0.155 C 
HETATM   17  C20 UNL     1      22.813  -3.315  15.769  1.00  0.00     0.318 C 
HETATM   18  O4  UNL     1      22.856  -2.910  17.001  1.00  0.00    -0.247 OA
HETATM   19  N6  UNL     1      23.435  -4.522  15.479  1.00  0.00    -0.339 N 
ATOM     20  H6  UNL     1      23.432  -4.879  14.523  1.00  0.00     0.164 HD
BRANCH  19  21
HETATM   21  C21 UNL     1      24.099  -5.287  16.547  1.00  0.00     0.078 C 
HETATM   22  C22 UNL     1      23.491  -6.645  16.664  1.00  0.00     0.032 C 
HETATM   23  C23 UNL     1      25.592  -5.273  16.362  1.00  0.00     0.032 C 
ENDBRANCH  19  21
ENDBRANCH  11  15
ENDBRANCH   1   8
BRANCH   4  24
HETATM   24  C6  UNL     1      21.490  -1.249   6.463  1.00  0.00     0.288 C 
HETATM   25  O2  UNL     1      20.845  -1.859   5.532  1.00  0.00    -0.264 OA
HETATM   26  N3  UNL     1      22.710  -0.595   6.157  1.00  0.00    -0.345 N 
HETATM   27  C7  UNL     1      23.551   0.123   7.048  1.00  0.00     0.127 C 
HETATM   28  C16 UNL     1      23.308  -0.568   4.825  1.00  0.00     0.138 C 
HETATM   29  C8  UNL     1      24.740   0.679   6.250  1.00  0.00     0.033 C 
HETATM   30  C9  UNL     1      24.136   0.690   4.856  1.00  0.00     0.004 C 
HETATM   31  C10 UNL     1      23.269   1.874   4.634  1.00  0.00     0.014 C 
HETATM   32  C14 UNL     1      25.203   0.585   3.764  1.00  0.00     0.131 C 
HETATM   33  C11 UNL     1      23.977   2.987   3.907  1.00  0.00     0.001 C 
HETATM   34  C12 UNL     1      25.460   3.043   4.149  1.00  0.00     0.002 C 
HETATM   35  C13 UNL     1      26.163   1.747   3.849  1.00  0.00     0.033 C 
BRANCH  32  36
HETATM   36  O3  UNL     1      24.538   0.503   2.576  1.00  0.00    -0.390 OA
HETATM   37  C15 UNL     1      25.251   0.514   1.422  1.00  0.00     0.202 C 
ENDBRANCH  32  36
ENDBRANCH   4  24
TORSDOF 6
ENDMDL
MODEL 2
REMARK VINA RESULT: -6.376450122      3.791      6.219
REMARK  6 active torsions:
REMARK  status: ('A' for Active; 'I' for Inactive)
REMARK    1  A    between atoms: O1_2  and  C2_3 
REMARK    2  A    between atoms: N1_5  and  C4_6 
REMARK    3  A    between atoms: C5_9  and  C6_10 
REMARK       I    between atoms: C6_10  and  N3_12 
REMARK    4  A    between atoms: C14_20  and  O3_21 
REMARK    5  A    between atoms: C18_28  and  N5_29 
REMARK       I    between atoms: N5_29  and  C20_31 
REMARK       I    between atoms: C20_31  and  N6_33 
REMARK    6  A    between atoms: N6_33  and  C21_35 
ROOT
HETATM    1  C4  UNL     1      23.061  -0.715   7.082  1.00  0.00     0.165 A 
HETATM    2  N2  UNL     1      23.823  -1.172   6.111  1.00  0.00    -0.317 N 
ATOM      3  H2  UNL     1      24.299  -2.068   6.213  1.00  0.00     0.169 HD
HETATM    4  C5  UNL     1      23.967  -0.476   5.024  1.00  0.00     0.183 A 
HETATM    5  N4  UNL     1      23.318   0.694   4.953  1.00  0.00    -0.305 N 
ATOM      6  H4  UNL     1      23.308   1.372   4.191  1.00  0.00     0.176 HD
HETATM    7  S1  UNL     1      22.521   0.767   6.434  1.00  0.00     0.024 SA
ENDROOT
BRANCH   1   8
HETATM    8  N1  UNL     1      22.775  -1.326   8.363  1.00  0.00    -0.356 N 
HETATM    9  C3  UNL     1      23.804  -1.979   9.141  1.00  0.00     0.159 C 
HETATM   10  C2  UNL     1      23.190  -2.198  10.517  1.00  0.00     0.163 C 
HETATM   11  C18 UNL     1      21.739  -2.393  10.144  1.00  0.00     0.137 C 
HETATM   12  C17 UNL     1      21.501  -1.393   9.030  1.00  0.00     0.153 C 
BRANCH  10  13
HETATM   13  O1  UNL     1      23.448  -1.206  11.408  1.00  0.00    -0.387 OA
HETATM   14  C1  UNL     1      24.494  -1.464  12.272  1.00  0.00     0.202 C 
ENDBRANCH  10  13
BRANCH  11  15
HETATM   15  N5  UNL     1      20.804  -2.280  11.197  1.00  0.00    -0.330 N 
HETATM   16  C19 UNL     1      21.007  -2.983  12.490  1.00  0.00     0.155 C 
HETATM   17  C20 UNL     1      19.630  -1.509  11.086  1.00  0.00     0.318 C 
HETATM   18  O4  UNL     1      18.850  -1.401  12.118  1.00  0.00    -0.247 OA
HETATM   19  N6  UNL     1      19.239  -0.849   9.928  1.00  0.00    -0.339 N 
ATOM     20  H6  UNL     1      19.817  -0.908   9.089  1.00  0.00     0.164 HD
BRANCH  19  21
HETATM   21  C21 UNL     1      17.994  -0.066   9.907  1.00  0.00     0.078 C 
HETATM   22  C22 UNL     1      18.069   0.998   8.863  1.00  0.00     0.032 C 
HETATM   23  C23 UNL     1      16.797  -0.972   9.806  1.00  0.00     0.032 C 
ENDBRANCH  19  21
ENDBRANCH  11  15
ENDBRANCH   1   8
BRANCH   4  24
HETATM   24  C6  UNL     1      24.815  -0.963   3.907  1.00  0.00     0.288 C 
HETATM   25  O2  UNL     1      25.814  -0.252   3.522  1.00  0.00    -0.264 OA
HETATM   26  N3  UNL     1      24.543  -2.196   3.261  1.00  0.00    -0.345 N 
HETATM   27  C7  UNL     1      23.493  -3.108   3.550  1.00  0.00     0.127 C 
HETATM   28  C16 UNL     1      25.334  -2.726   2.154  1.00  0.00     0.138 C 
HETATM   29  C8  UNL     1      23.626  -4.314   2.607  1.00  0.00     0.033 C 
HETATM   30  C9  UNL     1      25.102  -4.211   2.261  1.00  0.00     0.004 C 
HETATM   31  C10 UNL     1      25.965  -4.785   3.324  1.00  0.00     0.014 C 
HETATM   32  C14 UNL     1      25.421  -4.842   0.903  1.00  0.00     0.131 C 
HETATM   33  C11 UNL     1      26.398  -6.196   3.025  1.00  0.00     0.001 C 
HETATM   34  C12 UNL     1      25.422  -6.983   2.195  1.00  0.00     0.002 C 
HETATM   35  C13 UNL     1      25.058  -6.307   0.902  1.00  0.00     0.033 C 
BRANCH  32  36
HETATM   36  O3  UNL     1      26.741  -4.599   0.661  1.00  0.00    -0.390 OA
HETATM   37  C15 UNL     1      27.245  -4.870  -0.569  1.00  0.00     0.202 C 
ENDBRANCH  32  36
ENDBRANCH   4  24
TORSDOF 6
ENDMDL
MODEL 3
REMARK VINA RESULT: -6.336570294      5.151      9.342
REMARK  6 active torsions:
REMARK  status: ('A' for Active; 'I' for Inactive)
REMARK    1  A    between atoms: O1_2  and  C2_3 
REMARK    2  A    between atoms: N1_5  and  C4_6 
REMARK    3  A    between atoms: C5_9  and  C6_10 
REMARK       I    between atoms: C6_10  and  N3_12 
REMARK    4  A    between atoms: C14_20  and  O3_21 
REMARK    5  A    between atoms: C18_28  and  N5_29 
REMARK       I    between atoms: N5_29  and  C20_31 
REMARK       I    between atoms: C20_31  and  N6_33 
REMARK    6  A    between atoms: N6_33  and  C21_35 
ROOT
HETATM    1  C4  UNL     1      24.504   2.990   7.165  1.00  0.00     0.165 A 
HETATM    2  N2  UNL     1      24.495   3.621   8.321  1.00  0.00    -0.317 N 
ATOM      3  H2  UNL     1      24.216   3.130   9.170  1.00  0.00     0.169 HD
HETATM    4  C5  UNL     1      24.843   4.871   8.374  1.00  0.00     0.183 A 
HETATM    5  N4  UNL     1      25.196   5.460   7.223  1.00  0.00    -0.305 N 
ATOM      6  H4  UNL     1      25.495   6.422   7.065  1.00  0.00     0.176 HD
HETATM    7  S1  UNL     1      25.025   4.216   6.102  1.00  0.00     0.024 SA
ENDROOT
BRANCH   1   8
HETATM    8  N1  UNL     1      24.150   1.612   6.892  1.00  0.00    -0.356 N 
HETATM    9  C3  UNL     1      24.935   0.510   7.401  1.00  0.00     0.159 C 
HETATM   10  C2  UNL     1      24.082  -0.730   7.172  1.00  0.00     0.163 C 
HETATM   11  C18 UNL     1      23.348  -0.332   5.913  1.00  0.00     0.137 C 
HETATM   12  C17 UNL     1      23.039   1.139   6.109  1.00  0.00     0.153 C 
BRANCH  10  13
HETATM   13  O1  UNL     1      23.306  -1.076   8.231  1.00  0.00    -0.387 OA
HETATM   14  C1  UNL     1      23.999  -1.314   9.401  1.00  0.00     0.202 C 
ENDBRANCH  10  13
BRANCH  11  15
HETATM   15  N5  UNL     1      22.205  -1.098   5.589  1.00  0.00    -0.330 N 
HETATM   16  C19 UNL     1      22.203  -2.031   4.433  1.00  0.00     0.155 C 
HETATM   17  C20 UNL     1      21.008  -1.020   6.328  1.00  0.00     0.318 C 
HETATM   18  O4  UNL     1      20.022  -1.801   6.010  1.00  0.00    -0.247 OA
HETATM   19  N6  UNL     1      20.805  -0.147   7.389  1.00  0.00    -0.339 N 
ATOM     20  H6  UNL     1      21.550   0.490   7.674  1.00  0.00     0.164 HD
BRANCH  19  21
HETATM   21  C21 UNL     1      19.518  -0.138   8.103  1.00  0.00     0.078 C 
HETATM   22  C22 UNL     1      19.675  -0.739   9.460  1.00  0.00     0.032 C 
HETATM   23  C23 UNL     1      18.909   1.237   8.084  1.00  0.00     0.032 C 
ENDBRANCH  19  21
ENDBRANCH  11  15
ENDBRANCH   1   8
BRANCH   4  24
HETATM   24  C6  UNL     1      24.849   5.612   9.660  1.00  0.00     0.288 C 
HETATM   25  O2  UNL     1      24.833   6.898   9.642  1.00  0.00    -0.264 OA
HETATM   26  N3  UNL     1      24.872   4.929  10.902  1.00  0.00    -0.345 N 
HETATM   27  C7  UNL     1      24.890   3.525  11.114  1.00  0.00     0.127 C 
HETATM   28  C16 UNL     1      24.887   5.599  12.199  1.00  0.00     0.138 C 
HETATM   29  C8  UNL     1      24.879   3.263  12.628  1.00  0.00     0.033 C 
HETATM   30  C9  UNL     1      24.274   4.570  13.113  1.00  0.00     0.004 C 
HETATM   31  C10 UNL     1      22.796   4.584  12.975  1.00  0.00     0.014 C 
HETATM   32  C14 UNL     1      24.689   4.899  14.548  1.00  0.00     0.131 C 
HETATM   33  C11 UNL     1      22.088   4.237  14.258  1.00  0.00     0.001 C 
HETATM   34  C12 UNL     1      22.856   3.313  15.162  1.00  0.00     0.002 C 
HETATM   35  C13 UNL     1      24.236   3.813  15.493  1.00  0.00     0.033 C 
BRANCH  32  36
HETATM   36  O3  UNL     1      24.173   6.129  14.831  1.00  0.00    -0.390 OA
HETATM   37  C15 UNL     1      24.447   6.698  16.032  1.00  0.00     0.202 C 
ENDBRANCH  32  36
ENDBRANCH   4  24
TORSDOF 6
ENDMDL
MODEL 4
REMARK VINA RESULT: -6.334105127      5.205      9.942
REMARK  6 active torsions:
REMARK  status: ('A' for Active; 'I' for Inactive)
REMARK    1  A    between atoms: O1_2  and  C2_3 
REMARK    2  A    between atoms: N1_5  and  C4_6 
REMARK    3  A    between atoms: C5_9  and  C6_10 
REMARK       I    between atoms: C6_10  and  N3_12 
REMARK    4  A    between atoms: C14_20  and  O3_21 
REMARK    5  A    between atoms: C18_28  and  N5_29 
REMARK       I    between atoms: N5_29  and  C20_31 
REMARK       I    between atoms: C20_31  and  N6_33 
REMARK    6  A    between atoms: N6_33  and  C21_35 
ROOT
HETATM    1  C4  UNL     1      25.466   3.132   7.509  1.00  0.00     0.165 A 
HETATM    2  N2  UNL     1      25.179   3.849   8.576  1.00  0.00    -0.317 N 
ATOM      3  H2  UNL     1      24.214   3.926   8.897  1.00  0.00     0.169 HD
HETATM    4  C5  UNL     1      26.131   4.457   9.217  1.00  0.00     0.183 A 
HETATM    5  N4  UNL     1      27.377   4.319   8.743  1.00  0.00    -0.305 N 
ATOM      6  H4  UNL     1      28.244   4.717   9.105  1.00  0.00     0.176 HD
HETATM    7  S1  UNL     1      27.156   3.325   7.403  1.00  0.00     0.024 SA
ENDROOT
BRANCH   1   8
HETATM    8  N1  UNL     1      24.561   2.387   6.659  1.00  0.00    -0.356 N 
HETATM    9  C3  UNL     1      24.398   2.705   5.258  1.00  0.00     0.159 C 
HETATM   10  C2  UNL     1      23.633   1.530   4.665  1.00  0.00     0.163 C 
HETATM   11  C18 UNL     1      22.793   1.120   5.852  1.00  0.00     0.137 C 
HETATM   12  C17 UNL     1      23.719   1.283   7.040  1.00  0.00     0.153 C 
BRANCH  10  13
HETATM   13  O1  UNL     1      24.423   0.564   4.130  1.00  0.00    -0.387 OA
HETATM   14  C1  UNL     1      25.465   1.033   3.355  1.00  0.00     0.202 C 
ENDBRANCH  10  13
BRANCH  11  15
HETATM   15  N5  UNL     1      22.202  -0.162   5.784  1.00  0.00    -0.330 N 
HETATM   16  C19 UNL     1      22.707  -1.197   4.845  1.00  0.00     0.155 C 
HETATM   17  C20 UNL     1      21.105  -0.532   6.586  1.00  0.00     0.318 C 
HETATM   18  O4  UNL     1      20.656  -1.748   6.513  1.00  0.00    -0.247 OA
HETATM   19  N6  UNL     1      20.455   0.330   7.460  1.00  0.00    -0.339 N 
ATOM     20  H6  UNL     1      20.768   1.296   7.549  1.00  0.00     0.164 HD
BRANCH  19  21
HETATM   21  C21 UNL     1      19.315  -0.149   8.259  1.00  0.00     0.078 C 
HETATM   22  C22 UNL     1      19.799  -0.799   9.512  1.00  0.00     0.032 C 
HETATM   23  C23 UNL     1      18.309   0.950   8.461  1.00  0.00     0.032 C 
ENDBRANCH  19  21
ENDBRANCH  11  15
ENDBRANCH   1   8
BRANCH   4  24
HETATM   24  C6  UNL     1      25.845   5.270  10.425  1.00  0.00     0.288 C 
HETATM   25  O2  UNL     1      25.921   6.551  10.351  1.00  0.00    -0.264 OA
HETATM   26  N3  UNL     1      25.491   4.659  11.655  1.00  0.00    -0.345 N 
HETATM   27  C7  UNL     1      25.357   3.271  11.921  1.00  0.00     0.127 C 
HETATM   28  C16 UNL     1      25.205   5.401  12.880  1.00  0.00     0.138 C 
HETATM   29  C8  UNL     1      24.926   3.097  13.386  1.00  0.00     0.033 C 
HETATM   30  C9  UNL     1      24.303   4.461  13.636  1.00  0.00     0.004 C 
HETATM   31  C10 UNL     1      22.919   4.546  13.106  1.00  0.00     0.014 C 
HETATM   32  C14 UNL     1      24.343   4.850  15.116  1.00  0.00     0.131 C 
HETATM   33  C11 UNL     1      21.874   4.312  14.163  1.00  0.00     0.001 C 
HETATM   34  C12 UNL     1      22.310   3.402  15.279  1.00  0.00     0.002 C 
HETATM   35  C13 UNL     1      23.582   3.846  15.948  1.00  0.00     0.033 C 
BRANCH  32  36
HETATM   36  O3  UNL     1      23.853   6.120  15.197  1.00  0.00    -0.390 OA
HETATM   37  C15 UNL     1      23.680   6.680  16.421  1.00  0.00     0.202 C 
ENDBRANCH  32  36
ENDBRANCH   4  24
TORSDOF 6
ENDMDL
MODEL 5
REMARK VINA RESULT: -6.309859485      3.354     11.493
REMARK  6 active torsions:
REMARK  status: ('A' for Active; 'I' for Inactive)
REMARK    1  A    between atoms: O1_2  and  C2_3 
REMARK    2  A    between atoms: N1_5  and  C4_6 
REMARK    3  A    between atoms: C5_9  and  C6_10 
REMARK       I    between atoms: C6_10  and  N3_12 
REMARK    4  A    between atoms: C14_20  and  O3_21 
REMARK    5  A    between atoms: C18_28  and  N5_29 
REMARK       I    between atoms: N5_29  and  C20_31 
REMARK       I    between atoms: C20_31  and  N6_33 
REMARK    6  A    between atoms: N6_33  and  C21_35 
ROOT
HETATM    1  C4  UNL     1      22.694   0.076   3.946  1.00  0.00     0.165 A 
HETATM    2  N2  UNL     1      22.288  -0.045   5.192  1.00  0.00    -0.317 N 
ATOM      3  H2  UNL     1      22.485   0.692   5.869  1.00  0.00     0.169 HD
HETATM    4  C5  UNL     1      21.636  -1.108   5.556  1.00  0.00     0.183 A 
HETATM    5  N4  UNL     1      21.412  -2.042   4.620  1.00  0.00    -0.305 N 
ATOM      6  H4  UNL     1      20.926  -2.933   4.714  1.00  0.00     0.176 HD
HETATM    7  S1  UNL     1      22.133  -1.377   3.253  1.00  0.00     0.024 SA
ENDROOT
BRANCH   1   8
HETATM    8  N1  UNL     1      23.432   1.167   3.344  1.00  0.00    -0.356 N 
HETATM    9  C3  UNL     1      23.700   2.393   4.062  1.00  0.00     0.159 C 
HETATM   10  C2  UNL     1      24.739   3.129   3.228  1.00  0.00     0.163 C 
HETATM   11  C18 UNL     1      24.350   2.677   1.840  1.00  0.00     0.137 C 
HETATM   12  C17 UNL     1      23.977   1.218   2.012  1.00  0.00     0.153 C 
BRANCH  10  13
HETATM   13  O1  UNL     1      26.023   2.886   3.597  1.00  0.00    -0.387 OA
HETATM   14  C1  UNL     1      26.728   4.002   4.004  1.00  0.00     0.202 C 
ENDBRANCH  10  13
BRANCH  11  15
HETATM   15  N5  UNL     1      25.311   2.886   0.825  1.00  0.00    -0.330 N 
HETATM   16  C19 UNL     1      26.035   1.748   0.201  1.00  0.00     0.155 C 
HETATM   17  C20 UNL     1      25.645   4.170   0.353  1.00  0.00     0.318 C 
HETATM   18  O4  UNL     1      26.490   4.279  -0.626  1.00  0.00    -0.247 OA
HETATM   19  N6  UNL     1      25.127   5.349   0.874  1.00  0.00    -0.339 N 
ATOM     20  H6  UNL     1      24.463   5.315   1.647  1.00  0.00     0.164 HD
BRANCH  19  21
HETATM   21  C21 UNL     1      25.536   6.647   0.314  1.00  0.00     0.078 C 
HETATM   22  C22 UNL     1      24.334   7.466  -0.025  1.00  0.00     0.032 C 
HETATM   23  C23 UNL     1      26.533   7.324   1.213  1.00  0.00     0.032 C 
ENDBRANCH  19  21
ENDBRANCH  11  15
ENDBRANCH   1   8
BRANCH   4  24
HETATM   24  C6  UNL     1      21.159  -1.276   6.951  1.00  0.00     0.288 C 
HETATM   25  O2  UNL     1      19.910  -1.493   7.164  1.00  0.00    -0.264 OA
HETATM   26  N3  UNL     1      22.054  -1.201   8.048  1.00  0.00    -0.345 N 
HETATM   27  C7  UNL     1      23.455  -0.972   8.004  1.00  0.00     0.127 C 
HETATM   28  C16 UNL     1      21.647  -1.350   9.442  1.00  0.00     0.138 C 
HETATM   29  C8  UNL     1      23.998  -1.009   9.441  1.00  0.00     0.033 C 
HETATM   30  C9  UNL     1      22.909  -1.834  10.108  1.00  0.00     0.004 C 
HETATM   31  C10 UNL     1      23.085  -3.288   9.868  1.00  0.00     0.014 C 
HETATM   32  C14 UNL     1      22.799  -1.540  11.606  1.00  0.00     0.131 C 
HETATM   33  C11 UNL     1      23.769  -3.990  11.012  1.00  0.00     0.001 C 
HETATM   34  C12 UNL     1      24.724  -3.126  11.789  1.00  0.00     0.002 C 
HETATM   35  C13 UNL     1      24.099  -1.859  12.304  1.00  0.00     0.033 C 
BRANCH  32  36
HETATM   36  O3  UNL     1      21.734  -2.256  12.067  1.00  0.00    -0.390 OA
HETATM   37  C15 UNL     1      21.123  -1.862  13.213  1.00  0.00     0.202 C 
ENDBRANCH  32  36
ENDBRANCH   4  24
TORSDOF 6
ENDMDL
