MODEL 1
REMARK VINA RESULT: -7.593047170      0.000      0.000
REMARK  5 active torsions:
REMARK  status: ('A' for Active; 'I' for Inactive)
REMARK    1  A    between atoms: C7_8  and  O1_9 
REMARK    2  A    between atoms: C9_13  and  C10_14 
REMARK    3  A    between atoms: C9_13  and  C12_16 
REMARK    4  A    between atoms: C12_16  and  O3_17 
REMARK    5  A    between atoms: C17_24  and  O5_25 
ROOT
HETATM    1  C1  UNL     1       6.013  20.022  18.760  1.00  0.00     0.015 C 
HETATM    2  C2  UNL     1       6.831  19.026  18.962  1.00  0.00    -0.083 C 
HETATM    3  C3  UNL     1       7.723  19.131  20.130  1.00  0.00     0.049 C 
HETATM    4  C4  UNL     1       9.171  19.205  19.923  1.00  0.00     0.062 C 
HETATM    5 BR1  UNL     1      10.024  19.658  21.597  1.00  0.00    -0.091 Br
HETATM    6  C5  UNL     1       9.793  17.923  19.342  1.00  0.00     0.024 C 
HETATM    7  C6  UNL     1       9.408  17.960  17.936  1.00  0.00     0.026 C 
HETATM    8  C7  UNL     1      10.197  17.024  16.977  1.00  0.00     0.154 C 
HETATM    9  C8  UNL     1       9.166  16.390  16.163  1.00  0.00     0.192 C 
HETATM   10  O2  UNL     1       9.093  15.988  14.937  1.00  0.00    -0.342 OA
HETATM   11  C9  UNL     1       7.804  15.440  14.751  1.00  0.00     0.186 C 
HETATM   12  O4  UNL     1       6.788  15.973  15.510  1.00  0.00    -0.345 OA
HETATM   13  C13 UNL     1       6.838  17.303  15.703  1.00  0.00     0.163 C 
HETATM   14  C14 UNL     1       6.042  17.979  16.756  1.00  0.00     0.044 C 
HETATM   15  C15 UNL     1       6.790  17.916  18.056  1.00  0.00     0.024 C 
HETATM   16  C16 UNL     1       8.072  17.424  17.752  1.00  0.00     0.040 C 
HETATM   17  C17 UNL     1       8.166  17.559  16.222  1.00  0.00     0.119 C 
ENDROOT
BRANCH  11  18
HETATM   18  C10 UNL     1       7.517  15.557  13.251  1.00  0.00     0.066 C 
HETATM   19  C11 UNL     1       8.386  16.559  12.569  1.00  0.00     0.010 C 
ENDBRANCH  11  18
BRANCH  11  20
HETATM   20  C12 UNL     1       7.862  13.961  15.068  1.00  0.00     0.232 C 
BRANCH  20  21
HETATM   21  O3  UNL     1       6.925  13.628  16.064  1.00  0.00    -0.396 OA
ATOM     22  H3  UNL     1       6.966  12.700  16.267  1.00  0.00     0.209 HD
ENDBRANCH  20  21
ENDBRANCH  11  20
BRANCH   8  23
HETATM   23  O1  UNL     1      10.811  16.084  17.837  1.00  0.00    -0.392 OA
ATOM     24  H1  UNL     1      11.055  15.368  17.263  1.00  0.00     0.210 HD
ENDBRANCH   8  23
BRANCH  17  25
HETATM   25  O5  UNL     1       8.668  18.726  15.820  1.00  0.00    -0.379 OA
HETATM   26  C18 UNL     1       8.337  19.204  14.603  1.00  0.00     0.202 C 
ENDBRANCH  17  25
TORSDOF 5
ENDMDL
MODEL 2
REMARK VINA RESULT: -7.368268825      2.885      5.782
REMARK  5 active torsions:
REMARK  status: ('A' for Active; 'I' for Inactive)
REMARK    1  A    between atoms: C7_8  and  O1_9 
REMARK    2  A    between atoms: C9_13  and  C10_14 
REMARK    3  A    between atoms: C9_13  and  C12_16 
REMARK    4  A    between atoms: C12_16  and  O3_17 
REMARK    5  A    between atoms: C17_24  and  O5_25 
ROOT
HETATM    1  C1  UNL     1       8.712  13.423  15.681  1.00  0.00     0.015 C 
HETATM    2  C2  UNL     1       8.104  14.573  15.587  1.00  0.00    -0.083 C 
HETATM    3  C3  UNL     1       7.616  14.955  14.251  1.00  0.00     0.049 C 
HETATM    4  C4  UNL     1       8.183  16.131  13.588  1.00  0.00     0.062 C 
HETATM    5 BR1  UNL     1       7.581  16.171  11.753  1.00  0.00    -0.091 Br
HETATM    6  C5  UNL     1       7.857  17.466  14.281  1.00  0.00     0.024 C 
HETATM    7  C6  UNL     1       8.737  17.473  15.445  1.00  0.00     0.026 C 
HETATM    8  C7  UNL     1       8.949  18.845  16.145  1.00  0.00     0.154 C 
HETATM    9  C8  UNL     1       8.797  18.553  17.566  1.00  0.00     0.192 C 
HETATM   10  O2  UNL     1       9.333  19.005  18.650  1.00  0.00    -0.342 OA
HETATM   11  C9  UNL     1       8.747  18.309  19.731  1.00  0.00     0.186 C 
HETATM   12  O4  UNL     1       8.335  17.019  19.486  1.00  0.00    -0.345 OA
HETATM   13  C13 UNL     1       9.132  16.293  18.682  1.00  0.00     0.163 C 
HETATM   14  C14 UNL     1       8.674  15.033  18.047  1.00  0.00     0.044 C 
HETATM   15  C15 UNL     1       7.944  15.358  16.776  1.00  0.00     0.024 C 
HETATM   16  C16 UNL     1       8.146  16.731  16.543  1.00  0.00     0.040 C 
HETATM   17  C17 UNL     1       9.300  17.100  17.491  1.00  0.00     0.119 C 
ENDROOT
BRANCH  11  18
HETATM   18  C10 UNL     1       9.770  18.374  20.869  1.00  0.00     0.066 C 
HETATM   19  C11 UNL     1       9.263  19.106  22.066  1.00  0.00     0.010 C 
ENDBRANCH  11  18
BRANCH  11  20
HETATM   20  C12 UNL     1       7.531  19.079  20.196  1.00  0.00     0.232 C 
BRANCH  20  21
HETATM   21  O3  UNL     1       6.385  18.682  19.482  1.00  0.00    -0.396 OA
ATOM     22  H3  UNL     1       5.675  19.299  19.615  1.00  0.00     0.209 HD
ENDBRANCH  20  21
ENDBRANCH  11  20
BRANCH   8  23
HETATM   23  O1  UNL     1       7.879  19.642  15.676  1.00  0.00    -0.392 OA
ATOM     24  H1  UNL     1       7.101  19.184  15.969  1.00  0.00     0.210 HD
ENDBRANCH   8  23
BRANCH  17  25
HETATM   25  O5  UNL     1      10.505  16.969  16.938  1.00  0.00    -0.379 OA
HETATM   26  C18 UNL     1      11.445  16.233  17.568  1.00  0.00     0.202 C 
ENDBRANCH  17  25
TORSDOF 5
ENDMDL
MODEL 3
REMARK VINA RESULT: -6.198975849      3.267      6.196
REMARK  5 active torsions:
REMARK  status: ('A' for Active; 'I' for Inactive)
REMARK    1  A    between atoms: C7_8  and  O1_9 
REMARK    2  A    between atoms: C9_13  and  C10_14 
REMARK    3  A    between atoms: C9_13  and  C12_16 
REMARK    4  A    between atoms: C12_16  and  O3_17 
REMARK    5  A    between atoms: C17_24  and  O5_25 
ROOT
HETATM    1  C1  UNL     1       9.005  18.289  15.351  1.00  0.00     0.015 C 
HETATM    2  C2  UNL     1       9.359  17.509  16.335  1.00  0.00    -0.083 C 
HETATM    3  C3  UNL     1       9.390  16.063  16.054  1.00  0.00     0.049 C 
HETATM    4  C4  UNL     1       8.470  15.173  16.764  1.00  0.00     0.062 C 
HETATM    5 BR1  UNL     1       8.531  13.423  15.949  1.00  0.00    -0.091 Br
HETATM    6  C5  UNL     1       8.739  15.062  18.276  1.00  0.00     0.024 C 
HETATM    7  C6  UNL     1       8.224  16.318  18.811  1.00  0.00     0.026 C 
HETATM    8  C7  UNL     1       7.980  16.369  20.345  1.00  0.00     0.154 C 
HETATM    9  C8  UNL     1       8.562  17.640  20.761  1.00  0.00     0.192 C 
HETATM   10  O2  UNL     1       8.274  18.523  21.659  1.00  0.00    -0.342 OA
HETATM   11  C9  UNL     1       9.243  19.547  21.568  1.00  0.00     0.186 C 
HETATM   12  O4  UNL     1       9.787  19.776  20.325  1.00  0.00    -0.345 OA
HETATM   13  C13 UNL     1       8.937  19.677  19.287  1.00  0.00     0.163 C 
HETATM   14  C14 UNL     1       9.413  19.552  17.887  1.00  0.00     0.044 C 
HETATM   15  C15 UNL     1       9.700  18.109  17.592  1.00  0.00     0.024 C 
HETATM   16  C16 UNL     1       9.211  17.375  18.688  1.00  0.00     0.040 C 
HETATM   17  C17 UNL     1       8.314  18.378  19.433  1.00  0.00     0.119 C 
ENDROOT
BRANCH  11  18
HETATM   18  C10 UNL     1       8.575  20.802  22.138  1.00  0.00     0.066 C 
HETATM   19  C11 UNL     1       9.552  21.875  22.482  1.00  0.00     0.010 C 
ENDBRANCH  11  18
BRANCH  11  20
HETATM   20  C12 UNL     1      10.389  19.206  22.495  1.00  0.00     0.232 C 
BRANCH  20  21
HETATM   21  O3  UNL     1       9.930  19.040  23.815  1.00  0.00    -0.396 OA
ATOM     22  H3  UNL     1       9.693  19.877  24.197  1.00  0.00     0.209 HD
ENDBRANCH  20  21
ENDBRANCH  11  20
BRANCH   8  23
HETATM   23  O1  UNL     1       8.727  15.280  20.851  1.00  0.00    -0.392 OA
ATOM     24  H1  UNL     1       8.623  15.346  21.793  1.00  0.00     0.210 HD
ENDBRANCH   8  23
BRANCH  17  25
HETATM   25  O5  UNL     1       7.044  18.360  19.028  1.00  0.00    -0.379 OA
HETATM   26  C18 UNL     1       6.315  19.494  19.090  1.00  0.00     0.202 C 
ENDBRANCH  17  25
TORSDOF 5
ENDMDL
MODEL 4
REMARK VINA RESULT: -5.898055491      2.804      5.725
REMARK  5 active torsions:
REMARK  status: ('A' for Active; 'I' for Inactive)
REMARK    1  A    between atoms: C7_8  and  O1_9 
REMARK    2  A    between atoms: C9_13  and  C10_14 
REMARK    3  A    between atoms: C9_13  and  C12_16 
REMARK    4  A    between atoms: C12_16  and  O3_17 
REMARK    5  A    between atoms: C17_24  and  O5_25 
ROOT
HETATM    1  C1  UNL     1       4.993  17.652  16.456  1.00  0.00     0.015 C 
HETATM    2  C2  UNL     1       6.240  17.959  16.229  1.00  0.00    -0.083 C 
HETATM    3  C3  UNL     1       6.781  17.595  14.908  1.00  0.00     0.049 C 
HETATM    4  C4  UNL     1       7.864  16.613  14.820  1.00  0.00     0.062 C 
HETATM    5 BR1  UNL     1       8.118  16.120  12.970  1.00  0.00    -0.091 Br
HETATM    6  C5  UNL     1       9.196  17.086  15.429  1.00  0.00     0.024 C 
HETATM    7  C6  UNL     1       8.974  16.982  16.867  1.00  0.00     0.026 C 
HETATM    8  C7  UNL     1      10.240  17.006  17.768  1.00  0.00     0.154 C 
HETATM    9  C8  UNL     1       9.905  17.936  18.839  1.00  0.00     0.192 C 
HETATM   10  O2  UNL     1      10.187  18.016  20.097  1.00  0.00    -0.342 OA
HETATM   11  C9  UNL     1       9.554  19.177  20.597  1.00  0.00     0.186 C 
HETATM   12  O4  UNL     1       8.380  19.554  19.986  1.00  0.00    -0.345 OA
HETATM   13  C13 UNL     1       7.563  18.551  19.619  1.00  0.00     0.163 C 
HETATM   14  C14 UNL     1       6.449  18.752  18.661  1.00  0.00     0.044 C 
HETATM   15  C15 UNL     1       6.974  18.632  17.261  1.00  0.00     0.024 C 
HETATM   16  C16 UNL     1       8.296  18.162  17.372  1.00  0.00     0.040 C 
HETATM   17  C17 UNL     1       8.389  17.664  18.825  1.00  0.00     0.119 C 
ENDROOT
BRANCH  11  18
HETATM   18  C10 UNL     1       9.363  18.931  22.097  1.00  0.00     0.066 C 
HETATM   19  C11 UNL     1      10.141  19.879  22.945  1.00  0.00     0.010 C 
ENDBRANCH  11  18
BRANCH  11  20
HETATM   20  C12 UNL     1      10.513  20.340  20.466  1.00  0.00     0.232 C 
BRANCH  20  21
HETATM   21  O3  UNL     1      10.147  21.170  19.390  1.00  0.00    -0.396 OA
ATOM     22  H3  UNL     1       9.202  21.231  19.319  1.00  0.00     0.209 HD
ENDBRANCH  20  21
ENDBRANCH  11  20
BRANCH   8  23
HETATM   23  O1  UNL     1      11.249  17.539  16.933  1.00  0.00    -0.392 OA
ATOM     24  H1  UNL     1      11.095  17.129  16.090  1.00  0.00     0.210 HD
ENDBRANCH   8  23
BRANCH  17  25
HETATM   25  O5  UNL     1       8.064  16.380  18.970  1.00  0.00    -0.379 OA
HETATM   26  C18 UNL     1       8.195  15.798  20.180  1.00  0.00     0.202 C 
ENDBRANCH  17  25
TORSDOF 5
ENDMDL
MODEL 5
REMARK VINA RESULT: -4.889815147      1.737      2.641
REMARK  5 active torsions:
REMARK  status: ('A' for Active; 'I' for Inactive)
REMARK    1  A    between atoms: C7_8  and  O1_9 
REMARK    2  A    between atoms: C9_13  and  C10_14 
REMARK    3  A    between atoms: C9_13  and  C12_16 
REMARK    4  A    between atoms: C12_16  and  O3_17 
REMARK    5  A    between atoms: C17_24  and  O5_25 
ROOT
HETATM    1  C1  UNL     1      10.309  20.786  18.817  1.00  0.00     0.015 C 
HETATM    2  C2  UNL     1       9.449  19.936  19.307  1.00  0.00    -0.083 C 
HETATM    3  C3  UNL     1       9.264  19.952  20.769  1.00  0.00     0.049 C 
HETATM    4  C4  UNL     1       9.634  18.772  21.552  1.00  0.00     0.062 C 
HETATM    5 BR1  UNL     1       9.580  19.221  23.430  1.00  0.00    -0.091 Br
HETATM    6  C5  UNL     1       8.762  17.533  21.279  1.00  0.00     0.024 C 
HETATM    7  C6  UNL     1       9.243  17.051  19.989  1.00  0.00     0.026 C 
HETATM    8  C7  UNL     1       8.852  15.597  19.603  1.00  0.00     0.154 C 
HETATM    9  C8  UNL     1       8.400  15.698  18.221  1.00  0.00     0.192 C 
HETATM   10  O2  UNL     1       8.461  14.930  17.184  1.00  0.00    -0.342 OA
HETATM   11  C9  UNL     1       7.822  15.607  16.121  1.00  0.00     0.186 C 
HETATM   12  O4  UNL     1       7.880  16.981  16.138  1.00  0.00    -0.345 OA
HETATM   13  C13 UNL     1       9.041  17.513  16.559  1.00  0.00     0.163 C 
HETATM   14  C14 UNL     1       9.157  18.936  16.962  1.00  0.00     0.044 C 
HETATM   15  C15 UNL     1       8.748  19.076  18.399  1.00  0.00     0.024 C 
HETATM   16  C16 UNL     1       8.607  17.768  18.900  1.00  0.00     0.040 C 
HETATM   17  C17 UNL     1       9.297  16.891  17.841  1.00  0.00     0.119 C 
ENDROOT
BRANCH  11  18
HETATM   18  C10 UNL     1       8.425  15.026  14.838  1.00  0.00     0.066 C 
HETATM   19  C11 UNL     1       8.066  15.809  13.621  1.00  0.00     0.010 C 
ENDBRANCH  11  18
BRANCH  11  20
HETATM   20  C12 UNL     1       6.357  15.226  16.123  1.00  0.00     0.232 C 
BRANCH  20  21
HETATM   21  O3  UNL     1       6.205  13.830  16.032  1.00  0.00    -0.396 OA
ATOM     22  H3  UNL     1       6.499  13.513  15.186  1.00  0.00     0.209 HD
ENDBRANCH  20  21
ENDBRANCH  11  20
BRANCH   8  23
HETATM   23  O1  UNL     1       7.774  15.287  20.466  1.00  0.00    -0.392 OA
ATOM     24  H1  UNL     1       7.423  14.476  20.117  1.00  0.00     0.210 HD
ENDBRANCH   8  23
BRANCH  17  25
HETATM   25  O5  UNL     1      10.594  16.694  18.077  1.00  0.00    -0.379 OA
HETATM   26  C18 UNL     1      11.364  16.146  17.114  1.00  0.00     0.202 C 
ENDBRANCH  17  25
TORSDOF 5
ENDMDL
