MODEL 1
REMARK VINA RESULT: -3.897926233      0.000      0.000
REMARK  4 active torsions:
REMARK  status: ('A' for Active; 'I' for Inactive)
REMARK    1  A    between atoms: C7_8  and  C8_9 
REMARK       I    between atoms: C8_9  and  N1_11 
REMARK    2  A    between atoms: N1_11  and  C9_13 
REMARK    3  A    between atoms: C9_13  and  C11_16 
REMARK    4  A    between atoms: C15_20  and  C16_21 
ROOT
HETATM    1  C9  UNL     1       8.698  16.380  14.326  1.00  0.00     0.196 C 
HETATM    2  C10 UNL     1       7.810  16.764  13.212  1.00  0.00     0.085 C 
HETATM    3  N2  UNL     1       7.116  17.070  12.329  1.00  0.00    -0.195 NA
ENDROOT
BRANCH   1   4
HETATM    4  N1  UNL     1       8.289  17.038  15.543  1.00  0.00    -0.343 N 
HETATM    5  C8  UNL     1       9.276  17.381  16.503  1.00  0.00     0.225 C 
HETATM    6  O2  UNL     1      10.505  17.122  16.317  1.00  0.00    -0.273 OA
ATOM      7  H1  UNL     1       7.306  17.253  15.710  1.00  0.00     0.163 HD
BRANCH   5   8
HETATM    8  C7  UNL     1       8.850  18.047  17.733  1.00  0.00     0.102 C 
HETATM    9  C6  UNL     1       7.951  17.227  18.606  1.00  0.00     0.182 C 
HETATM   10  O1  UNL     1       8.364  17.274  19.953  1.00  0.00    -0.385 OA
HETATM   11  C5  UNL     1       8.377  18.603  20.376  1.00  0.00     0.126 C 
HETATM   12  C4  UNL     1       8.656  18.642  21.851  1.00  0.00     0.042 C 
HETATM   13  C19 UNL     1       9.407  19.419  19.654  1.00  0.00     0.017 C 
HETATM   14  C2  UNL     1       8.623  20.116  22.269  1.00  0.00    -0.029 C 
HETATM   15  C1  UNL     1       7.307  20.718  21.810  1.00  0.00     0.016 C 
HETATM   16  C3  UNL     1       8.720  20.185  23.773  1.00  0.00     0.016 C 
HETATM   17  C21 UNL     1       9.748  20.840  21.599  1.00  0.00     0.090 C 
HETATM   18  C20 UNL     1      10.459  19.997  20.562  1.00  0.00     0.028 C 
HETATM   19 CL1  UNL     1      10.878  21.458  22.823  1.00  0.00    -0.124 Cl
HETATM   20  C18 UNL     1      10.005  18.544  18.569  1.00  0.00     0.023 C 
ENDBRANCH   5   8
ENDBRANCH   1   4
BRANCH   1  21
HETATM   21  C11 UNL     1       8.650  14.858  14.504  1.00  0.00     0.028 C 
HETATM   22  C12 UNL     1       7.394  14.584  15.360  1.00  0.00     0.008 C 
HETATM   23  C13 UNL     1       7.871  13.575  16.429  1.00  0.00     0.006 C 
HETATM   24  C14 UNL     1       8.994  12.980  15.674  1.00  0.00     0.004 A 
HETATM   25  C15 UNL     1      10.384  13.172  15.644  1.00  0.00     0.084 A 
HETATM   26  C17 UNL     1       9.690  14.383  15.439  1.00  0.00     0.010 A 
BRANCH  25  27
HETATM   27  C16 UNL     1      11.138  12.953  16.917  1.00  0.00     0.236 C 
HETATM   28  N3  UNL     1      11.978  13.912  17.504  1.00  0.00    -0.062 NA
HETATM   29  O3  UNL     1      11.029  11.835  17.528  1.00  0.00    -0.276 OA
ENDBRANCH  25  27
ENDBRANCH   1  21
TORSDOF 4
ENDMDL
MODEL 2
REMARK VINA RESULT: -3.592377229      1.906      3.852
REMARK  4 active torsions:
REMARK  status: ('A' for Active; 'I' for Inactive)
REMARK    1  A    between atoms: C7_8  and  C8_9 
REMARK       I    between atoms: C8_9  and  N1_11 
REMARK    2  A    between atoms: N1_11  and  C9_13 
REMARK    3  A    between atoms: C9_13  and  C11_16 
REMARK    4  A    between atoms: C15_20  and  C16_21 
ROOT
HETATM    1  C9  UNL     1       7.483  14.350  16.399  1.00  0.00     0.196 C 
HETATM    2  C10 UNL     1       8.583  13.427  16.060  1.00  0.00     0.085 C 
HETATM    3  N2  UNL     1       9.444  12.692  15.794  1.00  0.00    -0.195 NA
ENDROOT
BRANCH   1   4
HETATM    4  N1  UNL     1       7.892  15.250  17.450  1.00  0.00    -0.343 N 
HETATM    5  C8  UNL     1       9.217  15.757  17.443  1.00  0.00     0.225 C 
HETATM    6  O2  UNL     1      10.049  15.437  16.538  1.00  0.00    -0.273 OA
ATOM      7  H1  UNL     1       7.238  15.518  18.186  1.00  0.00     0.163 HD
BRANCH   5   8
HETATM    8  C7  UNL     1       9.620  16.668  18.513  1.00  0.00     0.102 C 
HETATM    9  C6  UNL     1      10.798  17.534  18.183  1.00  0.00     0.182 C 
HETATM   10  O1  UNL     1      10.561  18.876  18.542  1.00  0.00    -0.385 OA
HETATM   11  C5  UNL     1      10.277  18.937  19.905  1.00  0.00     0.126 C 
HETATM   12  C4  UNL     1      10.188  20.378  20.321  1.00  0.00     0.042 C 
HETATM   13  C19 UNL     1       8.994  18.242  20.249  1.00  0.00     0.017 C 
HETATM   14  C2  UNL     1       9.912  20.389  21.827  1.00  0.00    -0.029 C 
HETATM   15  C1  UNL     1      10.969  19.545  22.518  1.00  0.00     0.016 C 
HETATM   16  C3  UNL     1       9.994  21.813  22.316  1.00  0.00     0.016 C 
HETATM   17  C21 UNL     1       8.567  19.784  22.082  1.00  0.00     0.090 C 
HETATM   18  C20 UNL     1       7.958  19.156  20.847  1.00  0.00     0.028 C 
HETATM   19 CL1  UNL     1       7.486  21.002  22.795  1.00  0.00    -0.124 Cl
HETATM   20  C18 UNL     1       8.496  17.554  18.993  1.00  0.00     0.023 C 
ENDBRANCH   5   8
ENDBRANCH   1   4
BRANCH   1  21
HETATM   21  C11 UNL     1       7.088  15.141  15.147  1.00  0.00     0.028 C 
HETATM   22  C12 UNL     1       7.927  14.539  13.999  1.00  0.00     0.008 C 
HETATM   23  C13 UNL     1       8.478  15.768  13.241  1.00  0.00     0.006 C 
HETATM   24  C14 UNL     1       7.426  16.737  13.612  1.00  0.00     0.004 A 
HETATM   25  C15 UNL     1       7.301  17.746  14.581  1.00  0.00     0.084 A 
HETATM   26  C17 UNL     1       7.646  16.509  15.165  1.00  0.00     0.010 A 
BRANCH  25  27
HETATM   27  C16 UNL     1       8.300  18.859  14.550  1.00  0.00     0.236 C 
HETATM   28  N3  UNL     1       8.571  19.634  13.411  1.00  0.00    -0.062 NA
HETATM   29  O3  UNL     1       8.960  19.141  15.608  1.00  0.00    -0.276 OA
ENDBRANCH  25  27
ENDBRANCH   1  21
TORSDOF 4
ENDMDL
MODEL 3
REMARK VINA RESULT: -3.291603422      1.833      2.276
REMARK  4 active torsions:
REMARK  status: ('A' for Active; 'I' for Inactive)
REMARK    1  A    between atoms: C7_8  and  C8_9 
REMARK       I    between atoms: C8_9  and  N1_11 
REMARK    2  A    between atoms: N1_11  and  C9_13 
REMARK    3  A    between atoms: C9_13  and  C11_16 
REMARK    4  A    between atoms: C15_20  and  C16_21 
ROOT
HETATM    1  C9  UNL     1       8.309  15.211  15.350  1.00  0.00     0.196 C 
HETATM    2  C10 UNL     1       7.018  14.514  15.510  1.00  0.00     0.085 C 
HETATM    3  N2  UNL     1       5.998  13.968  15.629  1.00  0.00    -0.195 NA
ENDROOT
BRANCH   1   4
HETATM    4  N1  UNL     1       8.537  16.105  16.459  1.00  0.00    -0.343 N 
HETATM    5  C8  UNL     1       8.756  17.482  16.197  1.00  0.00     0.225 C 
HETATM    6  O2  UNL     1       8.757  17.944  15.013  1.00  0.00    -0.273 OA
ATOM      7  H1  UNL     1       8.540  15.753  17.416  1.00  0.00     0.163 HD
BRANCH   5   8
HETATM    8  C7  UNL     1       8.986  18.379  17.328  1.00  0.00     0.102 C 
HETATM    9  C6  UNL     1       8.065  19.559  17.385  1.00  0.00     0.182 C 
HETATM   10  O1  UNL     1       7.546  19.741  18.682  1.00  0.00    -0.385 OA
HETATM   11  C5  UNL     1       8.605  19.904  19.575  1.00  0.00     0.126 C 
HETATM   12  C4  UNL     1       8.054  20.261  20.925  1.00  0.00     0.042 C 
HETATM   13  C19 UNL     1       9.444  18.668  19.693  1.00  0.00     0.017 C 
HETATM   14  C2  UNL     1       9.254  20.465  21.854  1.00  0.00    -0.029 C 
HETATM   15  C1  UNL     1      10.194  21.472  21.215  1.00  0.00     0.016 C 
HETATM   16  C3  UNL     1       8.751  20.999  23.172  1.00  0.00     0.016 C 
HETATM   17  C21 UNL     1       9.976  19.163  22.014  1.00  0.00     0.090 C 
HETATM   18  C20 UNL     1       9.465  18.087  21.081  1.00  0.00     0.028 C 
HETATM   19 CL1  UNL     1       9.905  18.642  23.712  1.00  0.00    -0.124 Cl
HETATM   20  C18 UNL     1       8.942  17.674  18.663  1.00  0.00     0.023 C 
ENDBRANCH   5   8
ENDBRANCH   1   4
BRANCH   1  21
HETATM   21  C11 UNL     1       9.434  14.171  15.268  1.00  0.00     0.028 C 
HETATM   22  C12 UNL     1       8.888  12.919  15.988  1.00  0.00     0.008 C 
HETATM   23  C13 UNL     1      10.050  12.465  16.900  1.00  0.00     0.006 C 
HETATM   24  C14 UNL     1      11.168  13.044  16.126  1.00  0.00     0.004 A 
HETATM   25  C15 UNL     1      11.934  14.218  16.213  1.00  0.00     0.084 A 
HETATM   26  C17 UNL     1      10.553  14.504  16.172  1.00  0.00     0.010 A 
BRANCH  25  27
HETATM   27  C16 UNL     1      12.704  14.446  17.475  1.00  0.00     0.236 C 
HETATM   28  N3  UNL     1      12.881  13.471  18.469  1.00  0.00    -0.062 NA
HETATM   29  O3  UNL     1      13.241  15.586  17.686  1.00  0.00    -0.276 OA
ENDBRANCH  25  27
ENDBRANCH   1  21
TORSDOF 4
ENDMDL
MODEL 4
REMARK VINA RESULT: -2.783263549      1.135      1.354
REMARK  4 active torsions:
REMARK  status: ('A' for Active; 'I' for Inactive)
REMARK    1  A    between atoms: C7_8  and  C8_9 
REMARK       I    between atoms: C8_9  and  N1_11 
REMARK    2  A    between atoms: N1_11  and  C9_13 
REMARK    3  A    between atoms: C9_13  and  C11_16 
REMARK    4  A    between atoms: C15_20  and  C16_21 
ROOT
HETATM    1  C9  UNL     1       8.777  16.388  14.359  1.00  0.00     0.196 C 
HETATM    2  C10 UNL     1       7.853  16.821  13.294  1.00  0.00     0.085 C 
HETATM    3  N2  UNL     1       7.130  17.164  12.449  1.00  0.00    -0.195 NA
ENDROOT
BRANCH   1   4
HETATM    4  N1  UNL     1       8.719  17.299  15.475  1.00  0.00    -0.343 N 
HETATM    5  C8  UNL     1       9.815  17.355  16.374  1.00  0.00     0.225 C 
HETATM    6  O2  UNL     1      10.842  16.623  16.220  1.00  0.00    -0.273 OA
ATOM      7  H1  UNL     1       7.902  17.894  15.616  1.00  0.00     0.163 HD
BRANCH   5   8
HETATM    8  C7  UNL     1       9.745  18.282  17.502  1.00  0.00     0.102 C 
HETATM    9  C6  UNL     1       8.649  19.299  17.406  1.00  0.00     0.182 C 
HETATM   10  O1  UNL     1       7.938  19.400  18.619  1.00  0.00    -0.385 OA
HETATM   11  C5  UNL     1       8.828  19.736  19.639  1.00  0.00     0.126 C 
HETATM   12  C4  UNL     1       8.050  20.005  20.895  1.00  0.00     0.042 C 
HETATM   13  C19 UNL     1       9.829  18.651  19.898  1.00  0.00     0.017 C 
HETATM   14  C2  UNL     1       9.067  20.404  21.969  1.00  0.00    -0.029 C 
HETATM   15  C1  UNL     1       9.912  21.546  21.434  1.00  0.00     0.016 C 
HETATM   16  C3  UNL     1       8.313  20.855  23.194  1.00  0.00     0.016 C 
HETATM   17  C21 UNL     1       9.958  19.236  22.256  1.00  0.00     0.090 C 
HETATM   18  C20 UNL     1       9.756  18.087  21.292  1.00  0.00     0.028 C 
HETATM   19 CL1  UNL     1       9.743  18.717  23.943  1.00  0.00    -0.124 Cl
HETATM   20  C18 UNL     1       9.635  17.585  18.837  1.00  0.00     0.023 C 
ENDBRANCH   5   8
ENDBRANCH   1   4
BRANCH   1  21
HETATM   21  C11 UNL     1       8.395  14.972  14.809  1.00  0.00     0.028 C 
HETATM   22  C12 UNL     1       7.384  15.167  15.960  1.00  0.00     0.008 C 
HETATM   23  C13 UNL     1       7.857  14.184  17.055  1.00  0.00     0.006 C 
HETATM   24  C14 UNL     1       8.551  13.213  16.185  1.00  0.00     0.004 A 
HETATM   25  C15 UNL     1       9.886  12.991  15.810  1.00  0.00     0.084 A 
HETATM   26  C17 UNL     1       9.492  14.321  15.555  1.00  0.00     0.010 A 
BRANCH  25  27
HETATM   27  C16 UNL     1      10.869  12.702  16.899  1.00  0.00     0.236 C 
HETATM   28  N3  UNL     1      11.810  13.631  17.370  1.00  0.00    -0.062 NA
HETATM   29  O3  UNL     1      10.875  11.548  17.451  1.00  0.00    -0.276 OA
ENDBRANCH  25  27
ENDBRANCH   1  21
TORSDOF 4
ENDMDL
MODEL 5
REMARK VINA RESULT: -2.568679304      1.125      1.353
REMARK  4 active torsions:
REMARK  status: ('A' for Active; 'I' for Inactive)
REMARK    1  A    between atoms: C7_8  and  C8_9 
REMARK       I    between atoms: C8_9  and  N1_11 
REMARK    2  A    between atoms: N1_11  and  C9_13 
REMARK    3  A    between atoms: C9_13  and  C11_16 
REMARK    4  A    between atoms: C15_20  and  C16_21 
ROOT
HETATM    1  C9  UNL     1       9.200  15.630  14.801  1.00  0.00     0.196 C 
HETATM    2  C10 UNL     1       7.963  15.394  14.033  1.00  0.00     0.085 C 
HETATM    3  N2  UNL     1       6.991  15.213  13.420  1.00  0.00    -0.195 NA
ENDROOT
BRANCH   1   4
HETATM    4  N1  UNL     1       8.891  16.236  16.074  1.00  0.00    -0.343 N 
HETATM    5  C8  UNL     1       8.844  17.651  16.167  1.00  0.00     0.225 C 
HETATM    6  O2  UNL     1       9.067  18.393  15.161  1.00  0.00    -0.273 OA
ATOM      7  H1  UNL     1       8.709  15.655  16.893  1.00  0.00     0.163 HD
BRANCH   5   8
HETATM    8  C7  UNL     1       8.530  18.254  17.462  1.00  0.00     0.102 C 
HETATM    9  C6  UNL     1       7.529  17.494  18.277  1.00  0.00     0.182 C 
HETATM   10  O1  UNL     1       7.957  17.355  19.613  1.00  0.00    -0.385 OA
HETATM   11  C5  UNL     1       8.166  18.623  20.154  1.00  0.00     0.126 C 
HETATM   12  C4  UNL     1       8.461  18.484  21.620  1.00  0.00     0.042 C 
HETATM   13  C19 UNL     1       9.297  19.346  19.487  1.00  0.00     0.017 C 
HETATM   14  C2  UNL     1       8.646  19.901  22.172  1.00  0.00    -0.029 C 
HETATM   15  C1  UNL     1       7.427  20.727  21.798  1.00  0.00     0.016 C 
HETATM   16  C3  UNL     1       8.765  19.816  23.672  1.00  0.00     0.016 C 
HETATM   17  C21 UNL     1       9.858  20.516  21.545  1.00  0.00     0.090 C 
HETATM   18  C20 UNL     1      10.430  19.679  20.421  1.00  0.00     0.028 C 
HETATM   19 CL1  UNL     1      11.077  20.848  22.795  1.00  0.00    -0.124 Cl
HETATM   20  C18 UNL     1       9.752  18.499  18.314  1.00  0.00     0.023 C 
ENDBRANCH   5   8
ENDBRANCH   1   4
BRANCH   1  21
HETATM   21  C11 UNL     1       9.923  14.294  15.011  1.00  0.00     0.028 C 
HETATM   22  C12 UNL     1       8.911  13.391  15.750  1.00  0.00     0.008 C 
HETATM   23  C13 UNL     1       9.735  12.741  16.884  1.00  0.00     0.006 C 
HETATM   24  C14 UNL     1      11.069  12.827  16.255  1.00  0.00     0.004 A 
HETATM   25  C15 UNL     1      12.160  13.706  16.352  1.00  0.00     0.084 A 
HETATM   26  C17 UNL     1      10.966  14.395  16.052  1.00  0.00     0.010 A 
BRANCH  25  27
HETATM   27  C16 UNL     1      12.796  13.868  17.696  1.00  0.00     0.236 C 
HETATM   28  N3  UNL     1      13.577  14.975  18.063  1.00  0.00    -0.062 NA
HETATM   29  O3  UNL     1      12.635  12.960  18.582  1.00  0.00    -0.276 OA
ENDBRANCH  25  27
ENDBRANCH   1  21
TORSDOF 4
ENDMDL
