MODEL 1
REMARK VINA RESULT: -5.984950826      0.000      0.000
REMARK  5 active torsions:
REMARK  status: ('A' for Active; 'I' for Inactive)
REMARK    1  A    between atoms: N1_2  and  C2_4 
REMARK    2  A    between atoms: C6_13  and  C7_14 
REMARK    3  A    between atoms: C8_17  and  N5_18 
REMARK    4  A    between atoms: N5_18  and  C9_20 
REMARK    5  A    between atoms: C17_31  and  C18_32 
ROOT
HETATM    1  C7  UNL     1       8.523  16.802  16.120  1.00  0.00     0.073 A 
HETATM    2  N4  UNL     1       8.309  17.685  17.129  1.00  0.00    -0.190 N 
ATOM      3  H4  UNL     1       8.512  17.396  18.086  1.00  0.00     0.184 HD
HETATM    4  C8  UNL     1       7.840  18.918  16.913  1.00  0.00     0.678 A 
HETATM    5  N7  UNL     1       7.576  19.284  15.651  1.00  0.00    -0.201 N 
ATOM      6  H7  UNL     1       7.217  20.223  15.476  1.00  0.00     0.183 HD
HETATM    7  C16 UNL     1       7.769  18.444  14.589  1.00  0.00     0.116 A 
HETATM    8  C17 UNL     1       8.252  17.173  14.818  1.00  0.00    -0.010 A 
ENDROOT
BRANCH   1   9
HETATM    9  C6  UNL     1       9.035  15.452  16.339  1.00  0.00     0.058 A 
HETATM   10  C2  UNL     1      10.361  15.309  16.714  1.00  0.00     0.117 A 
HETATM   11  N2  UNL     1      10.914  14.113  16.936  1.00  0.00    -0.318 N 
HETATM   12  C3  UNL     1      10.136  13.014  16.785  1.00  0.00     0.180 A 
ATOM     13  H2  UNL     1      11.892  14.030  17.211  1.00  0.00     0.170 HD
HETATM   14 CL1  UNL     1      10.892  11.451  17.084  1.00  0.00    -0.045 Cl
HETATM   15  N3  UNL     1       8.854  13.137  16.425  1.00  0.00    -0.336 N 
HETATM   16  C4  UNL     1       8.270  14.325  16.193  1.00  0.00     0.024 A 
ATOM     17  H3  UNL     1       8.294  12.291  16.320  1.00  0.00     0.168 HD
HETATM   18  C5  UNL     1       6.853  14.443  15.795  1.00  0.00     0.069 C 
BRANCH  10  19
HETATM   19  N1  UNL     1      11.102  16.378  16.855  1.00  0.00    -0.380 N 
HETATM   20  C1  UNL     1      12.474  16.318  17.253  1.00  0.00     0.147 C 
ATOM     21  H1  UNL     1      10.685  17.291  16.674  1.00  0.00     0.160 HD
ENDBRANCH  10  19
ENDBRANCH   1   9
BRANCH   8  22
HETATM   22  C18 UNL     1       8.464  16.260  13.684  1.00  0.00     0.022 A 
HETATM   23  C19 UNL     1       8.587  16.742  12.309  1.00  0.00     0.010 A 
HETATM   24  C20 UNL     1       7.337  15.993  12.720  1.00  0.00     0.010 A 
ENDBRANCH   8  22
BRANCH   4  25
HETATM   25  N5  UNL     1       7.627  19.777  17.845  1.00  0.00    -0.221 N 
ATOM     26  H5  UNL     1       6.827  20.399  17.734  1.00  0.00     0.178 HD
BRANCH  25  27
HETATM   27  C9  UNL     1       8.414  19.931  19.019  1.00  0.00     0.106 C 
HETATM   28  C10 UNL     1       9.805  20.487  18.843  1.00  0.00     0.033 C 
HETATM   29  C11 UNL     1      10.306  19.357  19.720  1.00  0.00     0.024 C 
HETATM   30  C12 UNL     1      10.424  19.749  21.169  1.00  0.00     0.277 C 
HETATM   31  C15 UNL     1       8.958  18.679  19.635  1.00  0.00     0.043 C 
HETATM   32  N6  UNL     1       9.583  18.852  21.921  1.00  0.00     0.085 N 
HETATM   33  C13 UNL     1       9.081  19.422  23.146  1.00  0.00     0.309 C 
HETATM   34  C14 UNL     1       8.541  18.394  21.040  1.00  0.00     0.279 C 
ENDBRANCH  25  27
ENDBRANCH   4  25
TORSDOF 5
ENDMDL
MODEL 2
REMARK VINA RESULT: -5.674121430      1.010      1.038
REMARK  5 active torsions:
REMARK  status: ('A' for Active; 'I' for Inactive)
REMARK    1  A    between atoms: N1_2  and  C2_4 
REMARK    2  A    between atoms: C6_13  and  C7_14 
REMARK    3  A    between atoms: C8_17  and  N5_18 
REMARK    4  A    between atoms: N5_18  and  C9_20 
REMARK    5  A    between atoms: C17_31  and  C18_32 
ROOT
HETATM    1  C7  UNL     1       8.621  16.199  16.542  1.00  0.00     0.073 A 
HETATM    2  N4  UNL     1       8.218  16.801  17.691  1.00  0.00    -0.190 N 
ATOM      3  H4  UNL     1       8.587  16.459  18.579  1.00  0.00     0.184 HD
HETATM    4  C8  UNL     1       7.358  17.823  17.700  1.00  0.00     0.678 A 
HETATM    5  N7  UNL     1       6.881  18.262  16.526  1.00  0.00    -0.201 N 
ATOM      6  H7  UNL     1       6.222  19.041  16.524  1.00  0.00     0.183 HD
HETATM    7  C16 UNL     1       7.245  17.702  15.333  1.00  0.00     0.116 A 
HETATM    8  C17 UNL     1       8.133  16.646  15.330  1.00  0.00    -0.010 A 
ENDROOT
BRANCH   1   9
HETATM    9  C6  UNL     1       9.561  15.083  16.515  1.00  0.00     0.058 A 
HETATM   10  C2  UNL     1      10.903  15.353  16.731  1.00  0.00     0.117 A 
HETATM   11  N2  UNL     1      11.833  14.393  16.725  1.00  0.00    -0.318 N 
HETATM   12  C3  UNL     1      11.431  13.119  16.498  1.00  0.00     0.180 A 
ATOM     13  H2  UNL     1      12.815  14.613  16.885  1.00  0.00     0.170 HD
HETATM   14 CL1  UNL     1      12.679  11.875  16.496  1.00  0.00    -0.045 Cl
HETATM   15  N3  UNL     1      10.140  12.844  16.290  1.00  0.00    -0.336 N 
HETATM   16  C4  UNL     1       9.181  13.786  16.289  1.00  0.00     0.024 A 
ATOM     17  H3  UNL     1       9.869  11.875  16.123  1.00  0.00     0.168 HD
HETATM   18  C5  UNL     1       7.760  13.465  16.056  1.00  0.00     0.069 C 
BRANCH  10  19
HETATM   19  N1  UNL     1      11.278  16.587  16.947  1.00  0.00    -0.380 N 
HETATM   20  C1  UNL     1      12.584  16.925  17.420  1.00  0.00     0.147 C 
ATOM     21  H1  UNL     1      10.611  17.340  16.771  1.00  0.00     0.160 HD
ENDBRANCH  10  19
ENDBRANCH   1   9
BRANCH   8  22
HETATM   22  C18 UNL     1       8.532  16.036  14.053  1.00  0.00     0.022 A 
HETATM   23  C19 UNL     1       8.228  16.656  12.764  1.00  0.00     0.010 A 
HETATM   24  C20 UNL     1       7.489  15.399  13.172  1.00  0.00     0.010 A 
ENDBRANCH   8  22
BRANCH   4  25
HETATM   25  N5  UNL     1       6.958  18.414  18.770  1.00  0.00    -0.221 N 
ATOM     26  H5  UNL     1       5.955  18.420  18.954  1.00  0.00     0.178 HD
BRANCH  25  27
HETATM   27  C9  UNL     1       7.797  19.059  19.718  1.00  0.00     0.106 C 
HETATM   28  C10 UNL     1       8.714  20.138  19.199  1.00  0.00     0.033 C 
HETATM   29  C11 UNL     1       9.837  19.477  19.971  1.00  0.00     0.024 C 
HETATM   30  C12 UNL     1      10.042  20.078  21.337  1.00  0.00     0.277 C 
HETATM   31  C15 UNL     1       8.964  18.272  20.230  1.00  0.00     0.043 C 
HETATM   32  N6  UNL     1       9.871  19.016  22.297  1.00  0.00     0.085 N 
HETATM   33  C13 UNL     1       9.413  19.472  23.586  1.00  0.00     0.309 C 
HETATM   34  C14 UNL     1       9.007  18.030  21.704  1.00  0.00     0.279 C 
ENDBRANCH  25  27
ENDBRANCH   4  25
TORSDOF 5
ENDMDL
MODEL 3
REMARK VINA RESULT: -5.188216824      1.005      1.179
REMARK  5 active torsions:
REMARK  status: ('A' for Active; 'I' for Inactive)
REMARK    1  A    between atoms: N1_2  and  C2_4 
REMARK    2  A    between atoms: C6_13  and  C7_14 
REMARK    3  A    between atoms: C8_17  and  N5_18 
REMARK    4  A    between atoms: N5_18  and  C9_20 
REMARK    5  A    between atoms: C17_31  and  C18_32 
ROOT
HETATM    1  C7  UNL     1       8.909  16.593  16.537  1.00  0.00     0.073 A 
HETATM    2  N4  UNL     1       8.712  17.388  17.621  1.00  0.00    -0.190 N 
ATOM      3  H4  UNL     1       9.037  17.065  18.532  1.00  0.00     0.184 HD
HETATM    4  C8  UNL     1       8.109  18.578  17.536  1.00  0.00     0.678 A 
HETATM    5  N7  UNL     1       7.687  18.990  16.331  1.00  0.00    -0.201 N 
ATOM      6  H7  UNL     1       7.225  19.896  16.257  1.00  0.00     0.183 HD
HETATM    7  C16 UNL     1       7.854  18.239  15.201  1.00  0.00     0.116 A 
HETATM    8  C17 UNL     1       8.476  17.012  15.295  1.00  0.00    -0.010 A 
ENDROOT
BRANCH   1   9
HETATM    9  C6  UNL     1       9.567  15.292  16.614  1.00  0.00     0.058 A 
HETATM   10  C2  UNL     1      10.930  15.262  16.861  1.00  0.00     0.117 A 
HETATM   11  N2  UNL     1      11.613  14.117  16.948  1.00  0.00    -0.318 N 
HETATM   12  C3  UNL     1      10.934  12.956  16.787  1.00  0.00     0.180 A 
ATOM     13  H2  UNL     1      12.617  14.117  17.130  1.00  0.00     0.170 HD
HETATM   14 CL1  UNL     1      11.861  11.463  16.907  1.00  0.00    -0.045 Cl
HETATM   15  N3  UNL     1       9.618  12.970  16.550  1.00  0.00    -0.336 N 
HETATM   16  C4  UNL     1       8.903  14.104  16.456  1.00  0.00     0.024 A 
ATOM     17  H3  UNL     1       9.135  12.079  16.435  1.00  0.00     0.168 HD
HETATM   18  C5  UNL     1       7.451  14.101  16.192  1.00  0.00     0.069 C 
BRANCH  10  19
HETATM   19  N1  UNL     1      11.575  16.390  17.013  1.00  0.00    -0.380 N 
HETATM   20  C1  UNL     1      12.977  16.446  17.285  1.00  0.00     0.147 C 
ATOM     21  H1  UNL     1      11.056  17.265  16.934  1.00  0.00     0.160 HD
ENDBRANCH  10  19
ENDBRANCH   1   9
BRANCH   8  22
HETATM   22  C18 UNL     1       8.661  16.195  14.086  1.00  0.00     0.022 A 
HETATM   23  C19 UNL     1       8.315  16.687  12.753  1.00  0.00     0.010 A 
HETATM   24  C20 UNL     1       7.460  15.611  13.389  1.00  0.00     0.010 A 
ENDBRANCH   8  22
BRANCH   4  25
HETATM   25  N5  UNL     1       7.909  19.353  18.541  1.00  0.00    -0.221 N 
ATOM     26  H5  UNL     1       7.018  19.848  18.579  1.00  0.00     0.178 HD
BRANCH  25  27
HETATM   27  C9  UNL     1       8.826  19.579  19.603  1.00  0.00     0.106 C 
HETATM   28  C10 UNL     1       9.859  18.510  19.855  1.00  0.00     0.033 C 
HETATM   29  C11 UNL     1       9.499  18.587  21.324  1.00  0.00     0.024 C 
HETATM   30  C12 UNL     1      10.396  19.517  22.099  1.00  0.00     0.277 C 
HETATM   31  C15 UNL     1       8.292  19.435  20.995  1.00  0.00     0.043 C 
HETATM   32  N6  UNL     1       9.551  20.524  22.691  1.00  0.00     0.085 N 
HETATM   33  C13 UNL     1      10.221  21.782  22.911  1.00  0.00     0.309 C 
HETATM   34  C14 UNL     1       8.376  20.644  21.867  1.00  0.00     0.279 C 
ENDBRANCH  25  27
ENDBRANCH   4  25
TORSDOF 5
ENDMDL
MODEL 4
REMARK VINA RESULT: -5.162438012      0.988      1.207
REMARK  5 active torsions:
REMARK  status: ('A' for Active; 'I' for Inactive)
REMARK    1  A    between atoms: N1_2  and  C2_4 
REMARK    2  A    between atoms: C6_13  and  C7_14 
REMARK    3  A    between atoms: C8_17  and  N5_18 
REMARK    4  A    between atoms: N5_18  and  C9_20 
REMARK    5  A    between atoms: C17_31  and  C18_32 
ROOT
HETATM    1  C7  UNL     1       8.432  16.646  16.409  1.00  0.00     0.073 A 
HETATM    2  N4  UNL     1       8.002  17.345  17.491  1.00  0.00    -0.190 N 
ATOM      3  H4  UNL     1       8.241  17.004  18.422  1.00  0.00     0.184 HD
HETATM    4  C8  UNL     1       7.276  18.462  17.379  1.00  0.00     0.678 A 
HETATM    5  N7  UNL     1       6.968  18.897  16.149  1.00  0.00    -0.201 N 
ATOM      6  H7  UNL     1       6.414  19.748  16.054  1.00  0.00     0.183 HD
HETATM    7  C16 UNL     1       7.370  18.242  15.018  1.00  0.00     0.116 A 
HETATM    8  C17 UNL     1       8.118  17.090  15.140  1.00  0.00    -0.010 A 
ENDROOT
BRANCH   1   9
HETATM    9  C6  UNL     1       9.227  15.426  16.514  1.00  0.00     0.058 A 
HETATM   10  C2  UNL     1      10.578  15.548  16.793  1.00  0.00     0.117 A 
HETATM   11  N2  UNL     1      11.381  14.485  16.908  1.00  0.00    -0.318 N 
HETATM   12  C3  UNL     1      10.837  13.255  16.743  1.00  0.00     0.180 A 
ATOM     13  H2  UNL     1      12.373  14.597  17.114  1.00  0.00     0.170 HD
HETATM   14 CL1  UNL     1      11.919  11.874  16.900  1.00  0.00    -0.045 Cl
HETATM   15  N3  UNL     1       9.534  13.123  16.474  1.00  0.00    -0.336 N 
HETATM   16  C4  UNL     1       8.701  14.171  16.352  1.00  0.00     0.024 A 
ATOM     17  H3  UNL     1       9.154  12.184  16.357  1.00  0.00     0.168 HD
HETATM   18  C5  UNL     1       7.265  14.007  16.054  1.00  0.00     0.069 C 
BRANCH  10  19
HETATM   19  N1  UNL     1      11.092  16.741  16.949  1.00  0.00    -0.380 N 
HETATM   20  C1  UNL     1      12.456  16.951  17.323  1.00  0.00     0.147 C 
ATOM     21  H1  UNL     1      10.495  17.554  16.798  1.00  0.00     0.160 HD
ENDBRANCH  10  19
ENDBRANCH   1   9
BRANCH   8  22
HETATM   22  C18 UNL     1       8.556  16.376  13.930  1.00  0.00     0.022 A 
HETATM   23  C19 UNL     1       8.197  16.827  12.587  1.00  0.00     0.010 A 
HETATM   24  C20 UNL     1       7.560  15.569  13.139  1.00  0.00     0.010 A 
ENDBRANCH   8  22
BRANCH   4  25
HETATM   25  N5  UNL     1       6.855  19.146  18.382  1.00  0.00    -0.221 N 
ATOM     26  H5  UNL     1       6.128  19.838  18.204  1.00  0.00     0.178 HD
BRANCH  25  27
HETATM   27  C9  UNL     1       7.317  19.017  19.720  1.00  0.00     0.106 C 
HETATM   28  C10 UNL     1       7.011  20.153  20.663  1.00  0.00     0.033 C 
HETATM   29  C11 UNL     1       8.463  20.116  21.090  1.00  0.00     0.024 C 
HETATM   30  C12 UNL     1       8.692  19.272  22.317  1.00  0.00     0.277 C 
HETATM   31  C15 UNL     1       8.788  19.187  19.943  1.00  0.00     0.043 C 
HETATM   32  N6  UNL     1       9.633  18.242  21.953  1.00  0.00     0.085 N 
HETATM   33  C13 UNL     1       9.497  17.035  22.730  1.00  0.00     0.309 C 
HETATM   34  C14 UNL     1       9.509  18.021  20.536  1.00  0.00     0.279 C 
ENDBRANCH  25  27
ENDBRANCH   4  25
TORSDOF 5
ENDMDL
MODEL 5
REMARK VINA RESULT: -5.137087591      2.356      3.830
REMARK  5 active torsions:
REMARK  status: ('A' for Active; 'I' for Inactive)
REMARK    1  A    between atoms: N1_2  and  C2_4 
REMARK    2  A    between atoms: C6_13  and  C7_14 
REMARK    3  A    between atoms: C8_17  and  N5_18 
REMARK    4  A    between atoms: N5_18  and  C9_20 
REMARK    5  A    between atoms: C17_31  and  C18_32 
ROOT
HETATM    1  C7  UNL     1       8.656  15.936  16.794  1.00  0.00     0.073 A 
HETATM    2  N4  UNL     1       8.110  16.770  17.715  1.00  0.00    -0.190 N 
ATOM      3  H4  UNL     1       7.359  17.398  17.426  1.00  0.00     0.184 HD
HETATM    4  C8  UNL     1       8.520  16.799  18.987  1.00  0.00     0.678 A 
HETATM    5  N7  UNL     1       9.507  15.969  19.354  1.00  0.00    -0.201 N 
ATOM      6  H7  UNL     1       9.828  15.985  20.322  1.00  0.00     0.183 HD
HETATM    7  C16 UNL     1      10.100  15.104  18.477  1.00  0.00     0.116 A 
HETATM    8  C17 UNL     1       9.673  15.079  17.166  1.00  0.00    -0.010 A 
ENDROOT
BRANCH   1   9
HETATM    9  C6  UNL     1       8.217  15.891  15.402  1.00  0.00     0.058 A 
HETATM   10  C2  UNL     1       8.438  17.007  14.611  1.00  0.00     0.117 A 
HETATM   11  N2  UNL     1       8.070  17.054  13.327  1.00  0.00    -0.318 N 
HETATM   12  C3  UNL     1       7.462  15.965  12.798  1.00  0.00     0.180 A 
ATOM     13  H2  UNL     1       8.241  17.886  12.762  1.00  0.00     0.170 HD
HETATM   14 CL1  UNL     1       6.989  16.057  11.104  1.00  0.00    -0.045 Cl
HETATM   15  N3  UNL     1       7.244  14.881  13.550  1.00  0.00    -0.336 N 
HETATM   16  C4  UNL     1       7.601  14.803  14.843  1.00  0.00     0.024 A 
ATOM     17  H3  UNL     1       6.786  14.076  13.122  1.00  0.00     0.168 HD
HETATM   18  C5  UNL     1       7.351  13.598  15.658  1.00  0.00     0.069 C 
BRANCH  10  19
HETATM   19  N1  UNL     1       9.024  18.053  15.134  1.00  0.00    -0.380 N 
HETATM   20  C1  UNL     1       8.391  19.333  15.215  1.00  0.00     0.147 C 
ATOM     21  H1  UNL     1       9.972  17.952  15.499  1.00  0.00     0.160 HD
ENDBRANCH  10  19
ENDBRANCH   1   9
BRANCH   8  22
HETATM   22  C18 UNL     1      10.302  14.152  16.213  1.00  0.00     0.022 A 
HETATM   23  C19 UNL     1      10.790  12.834  16.615  1.00  0.00     0.010 A 
HETATM   24  C20 UNL     1      11.790  13.918  16.272  1.00  0.00     0.010 A 
ENDBRANCH   8  22
BRANCH   4  25
HETATM   25  N5  UNL     1       8.024  17.576  19.883  1.00  0.00    -0.221 N 
ATOM     26  H5  UNL     1       7.196  17.248  20.380  1.00  0.00     0.178 HD
BRANCH  25  27
HETATM   27  C9  UNL     1       8.533  18.855  20.238  1.00  0.00     0.106 C 
HETATM   28  C10 UNL     1       9.147  19.679  19.135  1.00  0.00     0.033 C 
HETATM   29  C11 UNL     1      10.324  19.931  20.055  1.00  0.00     0.024 C 
HETATM   30  C12 UNL     1      10.197  21.217  20.829  1.00  0.00     0.277 C 
HETATM   31  C15 UNL     1       9.815  18.878  21.012  1.00  0.00     0.043 C 
HETATM   32  N6  UNL     1      10.239  20.875  22.229  1.00  0.00     0.085 N 
HETATM   33  C13 UNL     1       9.532  21.807  23.072  1.00  0.00     0.309 C 
HETATM   34  C14 UNL     1       9.767  19.521  22.359  1.00  0.00     0.279 C 
ENDBRANCH  25  27
ENDBRANCH   4  25
TORSDOF 5
ENDMDL
