MODEL 1
REMARK VINA RESULT: -7.401918089      0.000      0.000
REMARK  4 active torsions:
REMARK  status: ('A' for Active; 'I' for Inactive)
REMARK    1  A    between atoms: O1_2  and  C2_3 
REMARK       I    between atoms: N1_6  and  C5_7 
REMARK    2  A    between atoms: C5_7  and  C6_9 
REMARK    3  A    between atoms: N2_12  and  C9_13 
REMARK    4  A    between atoms: C11_19  and  N5_20 
ROOT
HETATM    1  C6  UNL     1       7.912  18.264  16.370  1.00  0.00     0.081 C 
HETATM    2  C7  UNL     1       9.295  18.066  16.978  1.00  0.00     0.034 C 
HETATM    3  C8  UNL     1       9.592  19.284  17.869  1.00  0.00     0.125 C 
HETATM    4  N2  UNL     1       8.709  19.169  19.029  1.00  0.00    -0.366 N 
HETATM    5  C13 UNL     1       7.397  18.680  18.741  1.00  0.00     0.125 C 
HETATM    6  C14 UNL     1       7.084  19.101  17.279  1.00  0.00     0.034 C 
ENDROOT
BRANCH   4   7
HETATM    7  C9  UNL     1       9.201  19.580  20.299  1.00  0.00     0.125 A 
HETATM    8  N3  UNL     1       9.744  20.842  20.407  1.00  0.00    -0.337 N 
HETATM    9  C10 UNL     1      10.231  21.228  21.574  1.00  0.00     0.183 A 
ATOM     10  H3  UNL     1       9.770  21.467  19.601  1.00  0.00     0.168 HD
HETATM   11  N4  UNL     1      10.237  20.471  22.679  1.00  0.00    -0.338 N 
HETATM   12  C11 UNL     1       9.725  19.252  22.612  1.00  0.00     0.121 A 
ATOM     13  H4  UNL     1      10.627  20.826  23.552  1.00  0.00     0.168 HD
HETATM   14  C12 UNL     1       9.192  18.777  21.406  1.00  0.00     0.098 A 
HETATM   15 BR1  UNL     1       8.499  16.998  21.318  1.00  0.00    -0.043 Br
BRANCH  12  16
HETATM   16  N5  UNL     1       9.673  18.420  23.617  1.00  0.00    -0.384 N 
ATOM     17  H52 UNL     1      10.479  17.803  23.720  1.00  0.00     0.157 HD
ATOM     18  H51 UNL     1       8.896  18.363  24.275  1.00  0.00     0.157 HD
ENDBRANCH  12  16
ENDBRANCH   4   7
BRANCH   1  19
HETATM   19  C5  UNL     1       7.289  16.924  16.216  1.00  0.00     0.224 C 
HETATM   20  N1  UNL     1       8.095  15.780  16.213  1.00  0.00    -0.352 N 
HETATM   21  C4  UNL     1       7.486  14.459  16.043  1.00  0.00     0.128 C 
HETATM   22  C15 UNL     1       9.514  15.814  16.386  1.00  0.00     0.128 C 
HETATM   23  C3  UNL     1       8.559  13.516  15.597  1.00  0.00     0.051 C 
HETATM   24  C2  UNL     1       9.652  13.383  16.619  1.00  0.00     0.123 C 
HETATM   25  C16 UNL     1       9.857  14.696  17.356  1.00  0.00     0.051 C 
HETATM   26  O2  UNL     1       6.024  16.813  16.085  1.00  0.00    -0.273 OA
BRANCH  24  27
HETATM   27  O1  UNL     1      10.849  12.989  16.011  1.00  0.00    -0.391 OA
HETATM   28  C1  UNL     1      11.870  12.976  16.938  1.00  0.00     0.202 C 
ENDBRANCH  24  27
ENDBRANCH   1  19
TORSDOF 4
ENDMDL
MODEL 2
REMARK VINA RESULT: -7.112110138      1.102      1.224
REMARK  4 active torsions:
REMARK  status: ('A' for Active; 'I' for Inactive)
REMARK    1  A    between atoms: O1_2  and  C2_3 
REMARK       I    between atoms: N1_6  and  C5_7 
REMARK    2  A    between atoms: C5_7  and  C6_9 
REMARK    3  A    between atoms: N2_12  and  C9_13 
REMARK    4  A    between atoms: C11_19  and  N5_20 
ROOT
HETATM    1  C6  UNL     1       7.660  17.245  15.822  1.00  0.00     0.081 C 
HETATM    2  C7  UNL     1       9.088  17.693  16.116  1.00  0.00     0.034 C 
HETATM    3  C8  UNL     1       9.010  18.941  17.011  1.00  0.00     0.125 C 
HETATM    4  N2  UNL     1       8.541  18.480  18.317  1.00  0.00    -0.366 N 
HETATM    5  C13 UNL     1       7.545  17.456  18.273  1.00  0.00     0.125 C 
HETATM    6  C14 UNL     1       6.771  17.656  16.941  1.00  0.00     0.034 C 
ENDROOT
BRANCH   4   7
HETATM    7  C9  UNL     1       9.068  19.100  19.485  1.00  0.00     0.125 A 
HETATM    8  N3  UNL     1       9.619  20.357  19.358  1.00  0.00    -0.337 N 
HETATM    9  C10 UNL     1      10.138  20.934  20.429  1.00  0.00     0.183 A 
ATOM     10  H3  UNL     1       9.628  20.832  18.456  1.00  0.00     0.168 HD
HETATM   11  N4  UNL     1      10.169  20.380  21.648  1.00  0.00    -0.338 N 
HETATM   12  C11 UNL     1       9.649  19.173  21.806  1.00  0.00     0.121 A 
ATOM     13  H4  UNL     1      10.584  20.877  22.436  1.00  0.00     0.168 HD
HETATM   14  C12 UNL     1       9.083  18.502  20.713  1.00  0.00     0.098 A 
HETATM   15 BR1  UNL     1       8.379  16.741  20.953  1.00  0.00    -0.043 Br
BRANCH  12  16
HETATM   16  N5  UNL     1       9.619  18.529  22.940  1.00  0.00    -0.384 N 
ATOM     17  H52 UNL     1       8.850  17.867  23.051  1.00  0.00     0.157 HD
ATOM     18  H51 UNL     1      10.301  18.652  23.689  1.00  0.00     0.157 HD
ENDBRANCH  12  16
ENDBRANCH   4   7
BRANCH   1  19
HETATM   19  C5  UNL     1       7.666  15.764  15.704  1.00  0.00     0.224 C 
HETATM   20  N1  UNL     1       8.791  15.039  16.115  1.00  0.00    -0.352 N 
HETATM   21  C4  UNL     1       8.808  13.580  15.982  1.00  0.00     0.128 C 
HETATM   22  C15 UNL     1       9.955  15.645  16.685  1.00  0.00     0.128 C 
HETATM   23  C3  UNL     1      10.236  13.135  16.021  1.00  0.00     0.051 C 
HETATM   24  C2  UNL     1      10.899  13.479  17.324  1.00  0.00     0.123 C 
HETATM   25  C16 UNL     1      10.349  14.785  17.875  1.00  0.00     0.051 C 
HETATM   26  O2  UNL     1       6.652  15.151  15.231  1.00  0.00    -0.273 OA
BRANCH  24  27
HETATM   27  O1  UNL     1      12.285  13.582  17.159  1.00  0.00    -0.391 OA
HETATM   28  C1  UNL     1      12.639  13.206  15.880  1.00  0.00     0.202 C 
ENDBRANCH  24  27
ENDBRANCH   1  19
TORSDOF 4
ENDMDL
MODEL 3
REMARK VINA RESULT: -6.867822354      1.292      1.434
REMARK  4 active torsions:
REMARK  status: ('A' for Active; 'I' for Inactive)
REMARK    1  A    between atoms: O1_2  and  C2_3 
REMARK       I    between atoms: N1_6  and  C5_7 
REMARK    2  A    between atoms: C5_7  and  C6_9 
REMARK    3  A    between atoms: N2_12  and  C9_13 
REMARK    4  A    between atoms: C11_19  and  N5_20 
ROOT
HETATM    1  C6  UNL     1       8.464  18.657  15.598  1.00  0.00     0.081 C 
HETATM    2  C7  UNL     1       9.591  18.019  16.402  1.00  0.00     0.034 C 
HETATM    3  C8  UNL     1       9.820  18.885  17.653  1.00  0.00     0.125 C 
HETATM    4  N2  UNL     1       8.654  18.679  18.512  1.00  0.00    -0.366 N 
HETATM    5  C13 UNL     1       7.407  18.573  17.820  1.00  0.00     0.125 C 
HETATM    6  C14 UNL     1       7.559  19.400  16.515  1.00  0.00     0.034 C 
ENDROOT
BRANCH   4   7
HETATM    7  C9  UNL     1       8.848  18.646  19.921  1.00  0.00     0.125 A 
HETATM    8  N3  UNL     1       9.051  19.841  20.576  1.00  0.00    -0.337 N 
HETATM    9  C10 UNL     1       9.261  19.823  21.882  1.00  0.00     0.183 A 
ATOM     10  H3  UNL     1       9.041  20.722  20.064  1.00  0.00     0.168 HD
HETATM   11  N4  UNL     1       9.291  18.712  22.629  1.00  0.00    -0.338 N 
HETATM   12  C11 UNL     1       9.100  17.545  22.032  1.00  0.00     0.121 A 
ATOM     13  H4  UNL     1       9.456  18.763  23.634  1.00  0.00     0.168 HD
HETATM   14  C12 UNL     1       8.874  17.490  20.650  1.00  0.00     0.098 A 
HETATM   15 BR1  UNL     1       8.646  15.792  19.801  1.00  0.00    -0.043 Br
BRANCH  12  16
HETATM   16  N5  UNL     1       9.106  16.395  22.649  1.00  0.00    -0.384 N 
ATOM     17  H52 UNL     1      10.010  15.922  22.692  1.00  0.00     0.157 HD
ATOM     18  H51 UNL     1       8.283  15.965  23.072  1.00  0.00     0.157 HD
ENDBRANCH  12  16
ENDBRANCH   4   7
BRANCH   1  19
HETATM   19  C5  UNL     1       7.712  17.564  14.929  1.00  0.00     0.224 C 
HETATM   20  N1  UNL     1       8.063  16.231  15.170  1.00  0.00    -0.352 N 
HETATM   21  C4  UNL     1       7.336  15.152  14.496  1.00  0.00     0.128 C 
HETATM   22  C15 UNL     1       9.105  15.839  16.068  1.00  0.00     0.128 C 
HETATM   23  C3  UNL     1       8.195  13.927  14.541  1.00  0.00     0.051 C 
HETATM   24  C2  UNL     1       8.467  13.480  15.949  1.00  0.00     0.123 C 
HETATM   25  C16 UNL     1       8.559  14.677  16.881  1.00  0.00     0.051 C 
HETATM   26  O2  UNL     1       6.751  17.837  14.135  1.00  0.00    -0.273 OA
BRANCH  24  27
HETATM   27  O1  UNL     1       9.653  12.740  16.009  1.00  0.00    -0.391 OA
HETATM   28  C1  UNL     1      10.595  13.416  16.756  1.00  0.00     0.202 C 
ENDBRANCH  24  27
ENDBRANCH   1  19
TORSDOF 4
ENDMDL
MODEL 4
REMARK VINA RESULT: -6.648430060      3.147      7.127
REMARK  4 active torsions:
REMARK  status: ('A' for Active; 'I' for Inactive)
REMARK    1  A    between atoms: O1_2  and  C2_3 
REMARK       I    between atoms: N1_6  and  C5_7 
REMARK    2  A    between atoms: C5_7  and  C6_9 
REMARK    3  A    between atoms: N2_12  and  C9_13 
REMARK    4  A    between atoms: C11_19  and  N5_20 
ROOT
HETATM    1  C6  UNL     1       9.668  15.544  18.735  1.00  0.00     0.081 C 
HETATM    2  C7  UNL     1      10.127  16.758  17.936  1.00  0.00     0.034 C 
HETATM    3  C8  UNL     1      10.097  16.374  16.446  1.00  0.00     0.125 C 
HETATM    4  N2  UNL     1       8.685  16.260  16.081  1.00  0.00    -0.366 N 
HETATM    5  C13 UNL     1       7.848  15.676  17.082  1.00  0.00     0.125 C 
HETATM    6  C14 UNL     1       8.753  14.717  17.903  1.00  0.00     0.034 C 
ENDROOT
BRANCH   4   7
HETATM    7  C9  UNL     1       8.284  16.688  14.784  1.00  0.00     0.125 A 
HETATM    8  N3  UNL     1       8.258  15.754  13.772  1.00  0.00    -0.337 N 
HETATM    9  C10 UNL     1       7.915  16.143  12.556  1.00  0.00     0.183 A 
ATOM     10  H3  UNL     1       8.501  14.781  13.957  1.00  0.00     0.168 HD
HETATM   11  N4  UNL     1       7.584  17.399  12.227  1.00  0.00    -0.338 N 
HETATM   12  C11 UNL     1       7.599  18.323  13.175  1.00  0.00     0.121 A 
ATOM     13  H4  UNL     1       7.326  17.637  11.270  1.00  0.00     0.168 HD
HETATM   14  C12 UNL     1       7.954  17.981  14.487  1.00  0.00     0.098 A 
HETATM   15 BR1  UNL     1       8.013  19.340  15.831  1.00  0.00    -0.043 Br
BRANCH  12  16
HETATM   16  N5  UNL     1       7.297  19.578  12.982  1.00  0.00    -0.384 N 
ATOM     17  H52 UNL     1       7.723  20.239  13.633  1.00  0.00     0.157 HD
ATOM     18  H51 UNL     1       6.682  19.914  12.241  1.00  0.00     0.157 HD
ENDBRANCH  12  16
ENDBRANCH   4   7
BRANCH   1  19
HETATM   19  C5  UNL     1       8.945  16.039  19.935  1.00  0.00     0.224 C 
HETATM   20  N1  UNL     1       9.094  17.372  20.334  1.00  0.00    -0.352 N 
HETATM   21  C4  UNL     1       8.398  17.858  21.528  1.00  0.00     0.128 C 
HETATM   22  C15 UNL     1       9.894  18.324  19.626  1.00  0.00     0.128 C 
HETATM   23  C3  UNL     1       9.092  19.103  21.985  1.00  0.00     0.051 C 
HETATM   24  C2  UNL     1       9.036  20.192  20.952  1.00  0.00     0.123 C 
HETATM   25  C16 UNL     1       9.077  19.603  19.552  1.00  0.00     0.051 C 
HETATM   26  O2  UNL     1       8.190  15.255  20.601  1.00  0.00    -0.273 OA
BRANCH  24  27
HETATM   27  O1  UNL     1      10.099  21.085  21.121  1.00  0.00    -0.391 OA
HETATM   28  C1  UNL     1      10.315  21.316  22.464  1.00  0.00     0.202 C 
ENDBRANCH  24  27
ENDBRANCH   1  19
TORSDOF 4
ENDMDL
MODEL 5
REMARK VINA RESULT: -6.511524876      3.347      7.072
REMARK  4 active torsions:
REMARK  status: ('A' for Active; 'I' for Inactive)
REMARK    1  A    between atoms: O1_2  and  C2_3 
REMARK       I    between atoms: N1_6  and  C5_7 
REMARK    2  A    between atoms: C5_7  and  C6_9 
REMARK    3  A    between atoms: N2_12  and  C9_13 
REMARK    4  A    between atoms: C11_19  and  N5_20 
ROOT
HETATM    1  C6  UNL     1       9.649  15.831  18.846  1.00  0.00     0.081 C 
HETATM    2  C7  UNL     1      10.266  17.055  18.180  1.00  0.00     0.034 C 
HETATM    3  C8  UNL     1      10.208  16.838  16.659  1.00  0.00     0.125 C 
HETATM    4  N2  UNL     1       8.798  16.942  16.284  1.00  0.00    -0.366 N 
HETATM    5  C13 UNL     1       7.882  16.365  17.217  1.00  0.00     0.125 C 
HETATM    6  C14 UNL     1       8.649  15.219  17.931  1.00  0.00     0.034 C 
ENDROOT
BRANCH   4   7
HETATM    7  C9  UNL     1       8.470  17.552  15.040  1.00  0.00     0.125 A 
HETATM    8  N3  UNL     1       8.567  18.923  14.945  1.00  0.00    -0.337 N 
HETATM    9  C10 UNL     1       8.239  19.506  13.805  1.00  0.00     0.183 A 
ATOM     10  H3  UNL     1       8.884  19.478  15.740  1.00  0.00     0.168 HD
HETATM   11  N4  UNL     1       7.813  18.854  12.716  1.00  0.00    -0.338 N 
HETATM   12  C11 UNL     1       7.707  17.535  12.772  1.00  0.00     0.121 A 
ATOM     13  H4  UNL     1       7.575  19.361  11.863  1.00  0.00     0.168 HD
HETATM   14  C12 UNL     1       8.037  16.851  13.950  1.00  0.00     0.098 A 
HETATM   15 BR1  UNL     1       7.834  14.952  14.024  1.00  0.00    -0.043 Br
BRANCH  12  16
HETATM   16  N5  UNL     1       7.304  16.787  11.780  1.00  0.00    -0.384 N 
ATOM     17  H52 UNL     1       7.549  17.123  10.848  1.00  0.00     0.157 HD
ATOM     18  H51 UNL     1       6.779  15.920  11.891  1.00  0.00     0.157 HD
ENDBRANCH  12  16
ENDBRANCH   4   7
BRANCH   1  19
HETATM   19  C5  UNL     1       8.978  16.284  20.092  1.00  0.00     0.224 C 
HETATM   20  N1  UNL     1       9.132  17.607  20.523  1.00  0.00    -0.352 N 
HETATM   21  C4  UNL     1       8.488  18.051  21.761  1.00  0.00     0.128 C 
HETATM   22  C15 UNL     1       9.887  18.587  19.805  1.00  0.00     0.128 C 
HETATM   23  C3  UNL     1       9.189  19.290  22.221  1.00  0.00     0.051 C 
HETATM   24  C2  UNL     1       9.073  20.407  21.223  1.00  0.00     0.123 C 
HETATM   25  C16 UNL     1       9.055  19.858  19.806  1.00  0.00     0.051 C 
HETATM   26  O2  UNL     1       8.264  15.472  20.770  1.00  0.00    -0.273 OA
BRANCH  24  27
HETATM   27  O1  UNL     1      10.135  21.308  21.368  1.00  0.00    -0.391 OA
HETATM   28  C1  UNL     1      10.486  21.417  22.697  1.00  0.00     0.202 C 
ENDBRANCH  24  27
ENDBRANCH   1  19
TORSDOF 4
ENDMDL
