MODEL 1
REMARK VINA RESULT: -4.466189335      0.000      0.000
REMARK  3 active torsions:
REMARK  status: ('A' for Active; 'I' for Inactive)
REMARK    1  A    between atoms: N1_1  and  N2_4 
REMARK    2  A    between atoms: N2_4  and  C1_6 
REMARK    3  A    between atoms: C1_6  and  C2_8 
ROOT
HETATM    1  C2  UNL     1      -4.053  16.048  -9.571  1.00  0.00     0.156 A 
HETATM    2  N3  UNL     1      -4.128  15.422  -8.382  1.00  0.00    -0.292 N 
ATOM      3  H3  UNL     1      -4.123  14.402  -8.354  1.00  0.00     0.187 HD
HETATM    4  N4  UNL     1      -4.208  16.101  -7.247  1.00  0.00    -0.295 N 
ATOM      5  H4  UNL     1      -4.265  15.599  -6.361  1.00  0.00     0.187 HD
HETATM    6  C3  UNL     1      -4.215  17.447  -7.251  1.00  0.00     0.200 A 
HETATM    7  N5  UNL     1      -4.142  18.131  -8.406  1.00  0.00    -0.317 N 
ATOM      8  H5  UNL     1      -4.146  19.152  -8.407  1.00  0.00     0.170 HD
HETATM    9  C4  UNL     1      -4.062  17.444  -9.561  1.00  0.00     0.277 A 
HETATM   10  O1  UNL     1      -3.992  18.042 -10.658  1.00  0.00    -0.265 OA
ENDROOT
BRANCH   1  11
HETATM   11  C1  UNL     1      -3.965  15.347 -10.844  1.00  0.00     0.148 C 
HETATM   12  S1  UNL     1      -2.774  14.248 -11.023  1.00  0.00    -0.056 SA
BRANCH  11  13
HETATM   13  N2  UNL     1      -4.897  15.619 -11.901  1.00  0.00    -0.295 N 
ATOM     14  H2  UNL     1      -5.864  15.314 -11.790  1.00  0.00     0.187 HD
BRANCH  13  15
HETATM   15  N1  UNL     1      -4.540  16.277 -13.063  1.00  0.00    -0.344 N 
ATOM     16  H12 UNL     1      -5.275  16.766 -13.574  1.00  0.00     0.176 HD
ATOM     17  H11 UNL     1      -3.584  16.289 -13.419  1.00  0.00     0.176 HD
ENDBRANCH  13  15
ENDBRANCH  11  13
ENDBRANCH   1  11
TORSDOF 3
ENDMDL
MODEL 2
REMARK VINA RESULT: -4.435131296      1.611      2.101
REMARK  3 active torsions:
REMARK  status: ('A' for Active; 'I' for Inactive)
REMARK    1  A    between atoms: N1_1  and  N2_4 
REMARK    2  A    between atoms: N2_4  and  C1_6 
REMARK    3  A    between atoms: C1_6  and  C2_8 
ROOT
HETATM    1  C2  UNL     1      -3.819  16.821  -9.392  1.00  0.00     0.156 A 
HETATM    2  N3  UNL     1      -3.801  18.054  -8.853  1.00  0.00    -0.292 N 
ATOM      3  H3  UNL     1      -3.605  18.857  -9.450  1.00  0.00     0.187 HD
HETATM    4  N4  UNL     1      -4.031  18.246  -7.562  1.00  0.00    -0.295 N 
ATOM      5  H4  UNL     1      -4.010  19.192  -7.181  1.00  0.00     0.187 HD
HETATM    6  C3  UNL     1      -4.293  17.207  -6.748  1.00  0.00     0.200 A 
HETATM    7  N5  UNL     1      -4.327  15.951  -7.227  1.00  0.00    -0.317 N 
ATOM      8  H5  UNL     1      -4.528  15.165  -6.608  1.00  0.00     0.170 HD
HETATM    9  C4  UNL     1      -4.092  15.751  -8.537  1.00  0.00     0.277 A 
HETATM   10  O1  UNL     1      -4.113  14.599  -9.024  1.00  0.00    -0.265 OA
ENDROOT
BRANCH   1  11
HETATM   11  C1  UNL     1      -3.572  16.558 -10.803  1.00  0.00     0.148 C 
HETATM   12  S1  UNL     1      -2.028  16.331 -11.273  1.00  0.00    -0.056 SA
BRANCH  11  13
HETATM   13  N2  UNL     1      -4.656  16.504 -11.742  1.00  0.00    -0.295 N 
ATOM     14  H2  UNL     1      -4.882  15.609 -12.176  1.00  0.00     0.187 HD
BRANCH  13  15
HETATM   15  N1  UNL     1      -5.407  17.613 -12.084  1.00  0.00    -0.344 N 
ATOM     16  H12 UNL     1      -4.970  18.529 -11.981  1.00  0.00     0.176 HD
ATOM     17  H11 UNL     1      -6.365  17.547 -12.428  1.00  0.00     0.176 HD
ENDBRANCH  13  15
ENDBRANCH  11  13
ENDBRANCH   1  11
TORSDOF 3
ENDMDL
MODEL 3
REMARK VINA RESULT: -4.333095838      1.339      1.377
REMARK  3 active torsions:
REMARK  status: ('A' for Active; 'I' for Inactive)
REMARK    1  A    between atoms: N1_1  and  N2_4 
REMARK    2  A    between atoms: N2_4  and  C1_6 
REMARK    3  A    between atoms: C1_6  and  C2_8 
ROOT
HETATM    1  C2  UNL     1      -3.949  16.066 -10.032  1.00  0.00     0.156 A 
HETATM    2  N3  UNL     1      -3.887  15.297  -8.929  1.00  0.00    -0.292 N 
ATOM      3  H3  UNL     1      -3.726  14.295  -9.027  1.00  0.00     0.187 HD
HETATM    4  N4  UNL     1      -4.030  15.816  -7.717  1.00  0.00    -0.295 N 
ATOM      5  H4  UNL     1      -3.979  15.208  -6.899  1.00  0.00     0.187 HD
HETATM    6  C3  UNL     1      -4.241  17.134  -7.554  1.00  0.00     0.200 A 
HETATM    7  N5  UNL     1      -4.312  17.955  -8.617  1.00  0.00    -0.317 N 
ATOM      8  H5  UNL     1      -4.471  18.955  -8.491  1.00  0.00     0.170 HD
HETATM    9  C4  UNL     1      -4.169  17.432  -9.849  1.00  0.00     0.277 A 
HETATM   10  O1  UNL     1      -4.228  18.161 -10.865  1.00  0.00    -0.265 OA
ENDROOT
BRANCH   1  11
HETATM   11  C1  UNL     1      -3.798  15.544 -11.383  1.00  0.00     0.148 C 
HETATM   12  S1  UNL     1      -4.739  14.287 -11.820  1.00  0.00    -0.056 SA
BRANCH  11  13
HETATM   13  N2  UNL     1      -2.850  16.122 -12.294  1.00  0.00    -0.295 N 
ATOM     14  H2  UNL     1      -3.088  16.163 -13.285  1.00  0.00     0.187 HD
BRANCH  13  15
HETATM   15  N1  UNL     1      -1.630  16.625 -11.884  1.00  0.00    -0.344 N 
ATOM     16  H12 UNL     1      -1.222  16.240 -11.033  1.00  0.00     0.176 HD
ATOM     17  H11 UNL     1      -1.133  17.354 -12.396  1.00  0.00     0.176 HD
ENDBRANCH  13  15
ENDBRANCH  11  13
ENDBRANCH   1  11
TORSDOF 3
ENDMDL
MODEL 4
REMARK VINA RESULT: -4.187492425      2.007      2.504
REMARK  3 active torsions:
REMARK  status: ('A' for Active; 'I' for Inactive)
REMARK    1  A    between atoms: N1_1  and  N2_4 
REMARK    2  A    between atoms: N2_4  and  C1_6 
REMARK    3  A    between atoms: C1_6  and  C2_8 
ROOT
HETATM    1  C2  UNL     1      -3.729  16.650  -8.936  1.00  0.00     0.156 A 
HETATM    2  N3  UNL     1      -4.043  17.958  -8.903  1.00  0.00    -0.292 N 
ATOM      3  H3  UNL     1      -4.106  18.479  -9.778  1.00  0.00     0.187 HD
HETATM    4  N4  UNL     1      -4.274  18.585  -7.758  1.00  0.00    -0.295 N 
ATOM      5  H4  UNL     1      -4.509  19.578  -7.764  1.00  0.00     0.187 HD
HETATM    6  C3  UNL     1      -4.200  17.926  -6.587  1.00  0.00     0.200 A 
HETATM    7  N5  UNL     1      -3.892  16.618  -6.553  1.00  0.00    -0.317 N 
ATOM      8  H5  UNL     1      -3.838  16.119  -5.664  1.00  0.00     0.170 HD
HETATM    9  C4  UNL     1      -3.656  15.978  -7.714  1.00  0.00     0.277 A 
HETATM   10  O1  UNL     1      -3.365  14.761  -7.728  1.00  0.00    -0.265 OA
ENDROOT
BRANCH   1  11
HETATM   11  C1  UNL     1      -3.467  15.918 -10.167  1.00  0.00     0.148 C 
HETATM   12  S1  UNL     1      -2.126  16.305 -11.009  1.00  0.00    -0.056 SA
BRANCH  11  13
HETATM   13  N2  UNL     1      -4.365  14.892 -10.618  1.00  0.00    -0.295 N 
ATOM     14  H2  UNL     1      -5.192  15.166 -11.149  1.00  0.00     0.187 HD
BRANCH  13  15
HETATM   15  N1  UNL     1      -4.156  13.550 -10.364  1.00  0.00    -0.344 N 
ATOM     16  H12 UNL     1      -3.969  12.942 -11.161  1.00  0.00     0.176 HD
ATOM     17  H11 UNL     1      -4.182  13.156  -9.423  1.00  0.00     0.176 HD
ENDBRANCH  13  15
ENDBRANCH  11  13
ENDBRANCH   1  11
TORSDOF 3
ENDMDL
MODEL 5
REMARK VINA RESULT: -4.177711570      2.115      2.564
REMARK  3 active torsions:
REMARK  status: ('A' for Active; 'I' for Inactive)
REMARK    1  A    between atoms: N1_1  and  N2_4 
REMARK    2  A    between atoms: N2_4  and  C1_6 
REMARK    3  A    between atoms: C1_6  and  C2_8 
ROOT
HETATM    1  C2  UNL     1      -3.935  17.179  -9.271  1.00  0.00     0.156 A 
HETATM    2  N3  UNL     1      -4.089  18.374  -8.671  1.00  0.00    -0.292 N 
ATOM      3  H3  UNL     1      -4.075  19.223  -9.237  1.00  0.00     0.187 HD
HETATM    4  N4  UNL     1      -4.258  18.472  -7.360  1.00  0.00    -0.295 N 
ATOM      5  H4  UNL     1      -4.371  19.391  -6.933  1.00  0.00     0.187 HD
HETATM    6  C3  UNL     1      -4.283  17.371  -6.587  1.00  0.00     0.200 A 
HETATM    7  N5  UNL     1      -4.136  16.148  -7.126  1.00  0.00    -0.317 N 
ATOM      8  H5  UNL     1      -4.157  15.315  -6.538  1.00  0.00     0.170 HD
HETATM    9  C4  UNL     1      -3.962  16.046  -8.457  1.00  0.00     0.277 A 
HETATM   10  O1  UNL     1      -3.821  14.927  -9.001  1.00  0.00    -0.265 OA
ENDROOT
BRANCH   1  11
HETATM   11  C1  UNL     1      -3.745  17.021 -10.706  1.00  0.00     0.148 C 
HETATM   12  S1  UNL     1      -5.057  17.156 -11.664  1.00  0.00    -0.056 SA
BRANCH  11  13
HETATM   13  N2  UNL     1      -2.444  16.754 -11.252  1.00  0.00    -0.295 N 
ATOM     14  H2  UNL     1      -1.865  17.542 -11.541  1.00  0.00     0.187 HD
BRANCH  13  15
HETATM   15  N1  UNL     1      -1.944  15.475 -11.402  1.00  0.00    -0.344 N 
ATOM     16  H12 UNL     1      -2.074  15.019 -12.305  1.00  0.00     0.176 HD
ATOM     17  H11 UNL     1      -1.457  14.981 -10.653  1.00  0.00     0.176 HD
ENDBRANCH  13  15
ENDBRANCH  11  13
ENDBRANCH   1  11
TORSDOF 3
ENDMDL
