MODEL 1
REMARK VINA RESULT: -4.615756462      0.000      0.000
REMARK  3 active torsions:
REMARK  status: ('A' for Active; 'I' for Inactive)
REMARK    1  A    between atoms: C2_2  and  C3_3 
REMARK    2  A    between atoms: C3_3  and  N1_4 
REMARK    3  A    between atoms: N1_4  and  C4_6 
ROOT
HETATM    1  C4  UNL     1      47.381 -67.687  39.977  1.00  0.00     0.171 C 
HETATM    2  N2  UNL     1      47.256 -68.900  39.591  1.00  0.00    -0.361 N 
ATOM      3  H2  UNL     1      47.107 -69.703  40.202  1.00  0.00     0.162 HD
HETATM    4  C5  UNL     1      47.359 -68.950  38.162  1.00  0.00     0.142 C 
HETATM    5  C6  UNL     1      48.177 -67.720  37.860  1.00  0.00     0.142 C 
HETATM    6  N3  UNL     1      47.589 -66.812  38.862  1.00  0.00    -0.361 N 
ATOM      7  H3  UNL     1      47.384 -65.816  38.781  1.00  0.00     0.162 HD
ENDROOT
BRANCH   1   8
HETATM    8  N1  UNL     1      47.331 -67.250  41.340  1.00  0.00    -0.359 N 
ATOM      9  H1  UNL     1      46.484 -67.359  41.898  1.00  0.00     0.162 HD
BRANCH   8  10
HETATM   10  C3  UNL     1      48.528 -66.644  41.901  1.00  0.00     0.149 C 
BRANCH  10  11
HETATM   11  C2  UNL     1      49.717 -67.479  41.578  1.00  0.00    -0.018 C 
HETATM   12  C1  UNL     1      49.837 -68.711  42.016  1.00  0.00     0.008 C 
ENDBRANCH  10  11
ENDBRANCH   8  10
ENDBRANCH   1   8
TORSDOF 3
ENDMDL
MODEL 2
REMARK VINA RESULT: -4.574780908      1.419      3.890
REMARK  3 active torsions:
REMARK  status: ('A' for Active; 'I' for Inactive)
REMARK    1  A    between atoms: C2_2  and  C3_3 
REMARK    2  A    between atoms: C3_3  and  N1_4 
REMARK    3  A    between atoms: N1_4  and  C4_6 
ROOT
HETATM    1  C4  UNL     1      48.061 -67.590  39.799  1.00  0.00     0.171 C 
HETATM    2  N2  UNL     1      48.633 -68.434  40.572  1.00  0.00    -0.361 N 
ATOM      3  H2  UNL     1      48.542 -69.448  40.512  1.00  0.00     0.162 HD
HETATM    4  C5  UNL     1      49.423 -67.726  41.536  1.00  0.00     0.142 C 
HETATM    5  C6  UNL     1      48.726 -66.391  41.598  1.00  0.00     0.142 C 
HETATM    6  N3  UNL     1      48.396 -66.247  40.169  1.00  0.00    -0.361 N 
ATOM      7  H3  UNL     1      48.404 -65.406  39.591  1.00  0.00     0.162 HD
ENDROOT
BRANCH   1   8
HETATM    8  N1  UNL     1      47.193 -67.929  38.712  1.00  0.00    -0.359 N 
ATOM      9  H1  UNL     1      46.507 -67.263  38.358  1.00  0.00     0.162 HD
BRANCH   8  10
HETATM   10  C3  UNL     1      47.323 -69.256  38.130  1.00  0.00     0.149 C 
BRANCH  10  11
HETATM   11  C2  UNL     1      46.322 -70.176  38.736  1.00  0.00    -0.018 C 
HETATM   12  C1  UNL     1      45.317 -70.658  38.042  1.00  0.00     0.008 C 
ENDBRANCH  10  11
ENDBRANCH   8  10
ENDBRANCH   1   8
TORSDOF 3
ENDMDL
MODEL 3
REMARK VINA RESULT: -4.354079406      0.745      1.417
REMARK  3 active torsions:
REMARK  status: ('A' for Active; 'I' for Inactive)
REMARK    1  A    between atoms: C2_2  and  C3_3 
REMARK    2  A    between atoms: C3_3  and  N1_4 
REMARK    3  A    between atoms: N1_4  and  C4_6 
ROOT
HETATM    1  C4  UNL     1      47.623 -67.808  39.520  1.00  0.00     0.171 C 
HETATM    2  N2  UNL     1      48.006 -67.656  38.309  1.00  0.00    -0.361 N 
ATOM      3  H2  UNL     1      48.361 -66.790  37.905  1.00  0.00     0.162 HD
HETATM    4  C5  UNL     1      47.858 -68.899  37.610  1.00  0.00     0.142 C 
HETATM    5  C6  UNL     1      46.768 -69.579  38.401  1.00  0.00     0.142 C 
HETATM    6  N3  UNL     1      47.173 -69.149  39.751  1.00  0.00    -0.361 N 
ATOM      7  H3  UNL     1      47.142 -69.673  40.626  1.00  0.00     0.162 HD
ENDROOT
BRANCH   1   8
HETATM    8  N1  UNL     1      47.629 -66.782  40.519  1.00  0.00    -0.359 N 
ATOM      9  H1  UNL     1      47.209 -65.870  40.341  1.00  0.00     0.162 HD
BRANCH   8  10
HETATM   10  C3  UNL     1      48.255 -67.086  41.796  1.00  0.00     0.149 C 
BRANCH  10  11
HETATM   11  C2  UNL     1      49.647 -67.566  41.578  1.00  0.00    -0.018 C 
HETATM   12  C1  UNL     1      50.032 -68.764  41.953  1.00  0.00     0.008 C 
ENDBRANCH  10  11
ENDBRANCH   8  10
ENDBRANCH   1   8
TORSDOF 3
ENDMDL
MODEL 4
REMARK VINA RESULT: -4.307682451      1.337      4.001
REMARK  3 active torsions:
REMARK  status: ('A' for Active; 'I' for Inactive)
REMARK    1  A    between atoms: C2_2  and  C3_3 
REMARK    2  A    between atoms: C3_3  and  N1_4 
REMARK    3  A    between atoms: N1_4  and  C4_6 
ROOT
HETATM    1  C4  UNL     1      47.973 -67.480  39.971  1.00  0.00     0.171 C 
HETATM    2  N2  UNL     1      48.330 -66.318  40.369  1.00  0.00    -0.361 N 
ATOM      3  H2  UNL     1      48.151 -65.443  39.877  1.00  0.00     0.162 HD
HETATM    4  C5  UNL     1      49.023 -66.442  41.618  1.00  0.00     0.142 C 
HETATM    5  C6  UNL     1      49.552 -67.853  41.548  1.00  0.00     0.142 C 
HETATM    6  N3  UNL     1      48.394 -68.491  40.896  1.00  0.00    -0.361 N 
ATOM      7  H3  UNL     1      47.995 -69.415  41.060  1.00  0.00     0.162 HD
ENDROOT
BRANCH   1   8
HETATM    8  N1  UNL     1      47.255 -67.750  38.762  1.00  0.00    -0.359 N 
ATOM      9  H1  UNL     1      46.650 -67.046  38.340  1.00  0.00     0.162 HD
BRANCH   8  10
HETATM   10  C3  UNL     1      47.418 -69.062  38.157  1.00  0.00     0.149 C 
BRANCH  10  11
HETATM   11  C2  UNL     1      46.452 -70.021  38.757  1.00  0.00    -0.018 C 
HETATM   12  C1  UNL     1      45.502 -70.584  38.046  1.00  0.00     0.008 C 
ENDBRANCH  10  11
ENDBRANCH   8  10
ENDBRANCH   1   8
TORSDOF 3
ENDMDL
MODEL 5
REMARK VINA RESULT: -4.034294150      1.509      4.129
REMARK  3 active torsions:
REMARK  status: ('A' for Active; 'I' for Inactive)
REMARK    1  A    between atoms: C2_2  and  C3_3 
REMARK    2  A    between atoms: C3_3  and  N1_4 
REMARK    3  A    between atoms: N1_4  and  C4_6 
ROOT
HETATM    1  C4  UNL     1      47.668 -67.990  40.267  1.00  0.00     0.171 C 
HETATM    2  N2  UNL     1      48.317 -67.193  39.506  1.00  0.00    -0.361 N 
ATOM      3  H2  UNL     1      48.550 -67.367  38.528  1.00  0.00     0.162 HD
HETATM    4  C5  UNL     1      48.665 -66.016  40.246  1.00  0.00     0.142 C 
HETATM    5  C6  UNL     1      48.680 -66.526  41.665  1.00  0.00     0.142 C 
HETATM    6  N3  UNL     1      47.525 -67.439  41.583  1.00  0.00    -0.361 N 
ATOM      7  H3  UNL     1      46.809 -67.631  42.283  1.00  0.00     0.162 HD
ENDROOT
BRANCH   1   8
HETATM    8  N1  UNL     1      47.154 -69.267  39.873  1.00  0.00    -0.359 N 
ATOM      9  H1  UNL     1      47.053 -70.025  40.547  1.00  0.00     0.162 HD
BRANCH   8  10
HETATM   10  C3  UNL     1      46.781 -69.445  38.479  1.00  0.00     0.149 C 
BRANCH  10  11
HETATM   11  C2  UNL     1      45.945 -70.667  38.330  1.00  0.00    -0.018 C 
HETATM   12  C1  UNL     1      44.696 -70.607  37.931  1.00  0.00     0.008 C 
ENDBRANCH  10  11
ENDBRANCH   8  10
ENDBRANCH   1   8
TORSDOF 3
ENDMDL
