MODEL 1
REMARK VINA RESULT: -4.820388645      0.000      0.000
REMARK  4 active torsions:
REMARK  status: ('A' for Active; 'I' for Inactive)
REMARK    1  A    between atoms: N1_2  and  N2_4 
REMARK    2  A    between atoms: C2_6  and  N3_7 
REMARK    3  A    between atoms: N3_7  and  C3_9 
REMARK    4  A    between atoms: C3_9  and  C4_10 
ROOT
HETATM    1  N2  UNL     1      47.466 -68.916  37.925  1.00  0.00    -0.301 N 
ATOM      2  H2  UNL     1      47.880 -69.494  37.193  1.00  0.00     0.187 HD
HETATM    3  C2  UNL     1      47.884 -67.719  38.020  1.00  0.00     0.192 C 
ENDROOT
BRANCH   3   4
HETATM    4  N3  UNL     1      47.454 -66.750  38.951  1.00  0.00    -0.385 N 
ATOM      5  H3  UNL     1      46.564 -66.268  38.833  1.00  0.00     0.160 HD
BRANCH   4   6
HETATM    6  C3  UNL     1      48.310 -66.462  40.072  1.00  0.00     0.125 C 
BRANCH   6   7
HETATM    7  C4  UNL     1      48.305 -67.506  41.139  1.00  0.00     0.003 A 
HETATM    8  C5  UNL     1      49.507 -67.587  42.015  1.00  0.00     0.007 A 
HETATM    9  C6  UNL     1      49.290 -68.629  40.984  1.00  0.00     0.007 A 
ENDBRANCH   6   7
ENDBRANCH   4   6
ENDBRANCH   3   4
BRANCH   1  10
HETATM   10  N1  UNL     1      46.507 -69.509  38.718  1.00  0.00    -0.340 N 
HETATM   11  C1  UNL     1      45.770 -70.667  38.263  1.00  0.00     0.167 C 
ATOM     12  H1  UNL     1      46.313 -69.123  39.642  1.00  0.00     0.179 HD
ENDBRANCH   1  10
TORSDOF 4
ENDMDL
MODEL 2
REMARK VINA RESULT: -4.506543664      1.311      1.637
REMARK  4 active torsions:
REMARK  status: ('A' for Active; 'I' for Inactive)
REMARK    1  A    between atoms: N1_2  and  N2_4 
REMARK    2  A    between atoms: C2_6  and  N3_7 
REMARK    3  A    between atoms: N3_7  and  C3_9 
REMARK    4  A    between atoms: C3_9  and  C4_10 
ROOT
HETATM    1  N2  UNL     1      46.191 -70.381  38.982  1.00  0.00    -0.301 N 
ATOM      2  H2  UNL     1      46.092 -71.199  39.585  1.00  0.00     0.187 HD
HETATM    3  C2  UNL     1      47.001 -69.479  39.366  1.00  0.00     0.192 C 
ENDROOT
BRANCH   3   4
HETATM    4  N3  UNL     1      47.294 -68.273  38.695  1.00  0.00    -0.385 N 
ATOM      5  H3  UNL     1      47.003 -68.126  37.729  1.00  0.00     0.160 HD
BRANCH   4   6
HETATM    6  C3  UNL     1      48.016 -67.256  39.414  1.00  0.00     0.125 C 
BRANCH   6   7
HETATM    7  C4  UNL     1      48.009 -67.424  40.898  1.00  0.00     0.003 A 
HETATM    8  C5  UNL     1      48.619 -66.332  41.706  1.00  0.00     0.007 A 
HETATM    9  C6  UNL     1      49.344 -67.616  41.558  1.00  0.00     0.007 A 
ENDBRANCH   6   7
ENDBRANCH   4   6
ENDBRANCH   3   4
BRANCH   1  10
HETATM   10  N1  UNL     1      45.435 -70.361  37.830  1.00  0.00    -0.340 N 
HETATM   11  C1  UNL     1      43.992 -70.446  37.880  1.00  0.00     0.167 C 
ATOM     12  H1  UNL     1      45.902 -70.284  36.927  1.00  0.00     0.179 HD
ENDBRANCH   1  10
TORSDOF 4
ENDMDL
MODEL 3
REMARK VINA RESULT: -4.391596969      1.167      1.435
REMARK  4 active torsions:
REMARK  status: ('A' for Active; 'I' for Inactive)
REMARK    1  A    between atoms: N1_2  and  N2_4 
REMARK    2  A    between atoms: C2_6  and  N3_7 
REMARK    3  A    between atoms: N3_7  and  C3_9 
REMARK    4  A    between atoms: C3_9  and  C4_10 
ROOT
HETATM    1  N2  UNL     1      46.790 -69.814  37.874  1.00  0.00    -0.301 N 
ATOM      2  H2  UNL     1      47.018 -70.145  36.936  1.00  0.00     0.187 HD
HETATM    3  C2  UNL     1      47.499 -68.865  38.338  1.00  0.00     0.192 C 
ENDROOT
BRANCH   3   4
HETATM    4  N3  UNL     1      47.363 -68.255  39.602  1.00  0.00    -0.385 N 
ATOM      5  H3  UNL     1      47.085 -68.798  40.419  1.00  0.00     0.160 HD
BRANCH   4   6
HETATM    6  C3  UNL     1      47.630 -66.844  39.705  1.00  0.00     0.125 C 
BRANCH   6   7
HETATM    7  C4  UNL     1      48.795 -66.495  40.571  1.00  0.00     0.003 A 
HETATM    8  C5  UNL     1      49.235 -67.518  41.560  1.00  0.00     0.007 A 
HETATM    9  C6  UNL     1      48.512 -66.315  42.035  1.00  0.00     0.007 A 
ENDBRANCH   6   7
ENDBRANCH   4   6
ENDBRANCH   3   4
BRANCH   1  10
HETATM   10  N1  UNL     1      45.744 -70.438  38.519  1.00  0.00    -0.340 N 
HETATM   11  C1  UNL     1      44.469 -70.631  37.863  1.00  0.00     0.167 C 
ATOM     12  H1  UNL     1      45.871 -70.768  39.475  1.00  0.00     0.179 HD
ENDBRANCH   1  10
TORSDOF 4
ENDMDL
MODEL 4
REMARK VINA RESULT: -4.317110682      0.934      1.164
REMARK  4 active torsions:
REMARK  status: ('A' for Active; 'I' for Inactive)
REMARK    1  A    between atoms: N1_2  and  N2_4 
REMARK    2  A    between atoms: C2_6  and  N3_7 
REMARK    3  A    between atoms: N3_7  and  C3_9 
REMARK    4  A    between atoms: C3_9  and  C4_10 
ROOT
HETATM    1  N2  UNL     1      47.105 -69.528  37.932  1.00  0.00    -0.301 N 
ATOM      2  H2  UNL     1      47.487 -69.982  37.102  1.00  0.00     0.187 HD
HETATM    3  C2  UNL     1      47.599 -68.400  38.250  1.00  0.00     0.192 C 
ENDROOT
BRANCH   3   4
HETATM    4  N3  UNL     1      47.225 -67.599  39.348  1.00  0.00    -0.385 N 
ATOM      5  H3  UNL     1      46.639 -66.774  39.221  1.00  0.00     0.160 HD
BRANCH   4   6
HETATM    6  C3  UNL     1      47.695 -67.979  40.655  1.00  0.00     0.125 C 
BRANCH   6   7
HETATM    7  C4  UNL     1      49.166 -68.221  40.739  1.00  0.00     0.003 A 
HETATM    8  C5  UNL     1      49.669 -68.926  41.950  1.00  0.00     0.007 A 
HETATM    9  C6  UNL     1      49.909 -67.471  41.806  1.00  0.00     0.007 A 
ENDBRANCH   6   7
ENDBRANCH   4   6
ENDBRANCH   3   4
BRANCH   1  10
HETATM   10  N1  UNL     1      46.102 -70.195  38.601  1.00  0.00    -0.340 N 
HETATM   11  C1  UNL     1      44.914 -70.649  37.912  1.00  0.00     0.167 C 
ATOM     12  H1  UNL     1      46.199 -70.371  39.601  1.00  0.00     0.179 HD
ENDBRANCH   1  10
TORSDOF 4
ENDMDL
MODEL 5
REMARK VINA RESULT: -3.967711472      1.128      1.463
REMARK  4 active torsions:
REMARK  status: ('A' for Active; 'I' for Inactive)
REMARK    1  A    between atoms: N1_2  and  N2_4 
REMARK    2  A    between atoms: C2_6  and  N3_7 
REMARK    3  A    between atoms: N3_7  and  C3_9 
REMARK    4  A    between atoms: C3_9  and  C4_10 
ROOT
HETATM    1  N2  UNL     1      46.900 -69.845  37.754  1.00  0.00    -0.301 N 
ATOM      2  H2  UNL     1      47.246 -70.383  36.958  1.00  0.00     0.187 HD
HETATM    3  C2  UNL     1      47.580 -68.828  38.101  1.00  0.00     0.192 C 
ENDROOT
BRANCH   3   4
HETATM    4  N3  UNL     1      47.290 -67.946  39.162  1.00  0.00    -0.385 N 
ATOM      5  H3  UNL     1      46.827 -67.054  38.991  1.00  0.00     0.160 HD
BRANCH   4   6
HETATM    6  C3  UNL     1      47.666 -68.342  40.494  1.00  0.00     0.125 C 
BRANCH   6   7
HETATM    7  C4  UNL     1      47.964 -67.207  41.417  1.00  0.00     0.003 A 
HETATM    8  C5  UNL     1      48.663 -66.027  40.836  1.00  0.00     0.007 A 
HETATM    9  C6  UNL     1      49.413 -66.951  41.719  1.00  0.00     0.007 A 
ENDBRANCH   6   7
ENDBRANCH   4   6
ENDBRANCH   3   4
BRANCH   1  10
HETATM   10  N1  UNL     1      45.740 -70.290  38.349  1.00  0.00    -0.340 N 
HETATM   11  C1  UNL     1      45.755 -71.385  39.294  1.00  0.00     0.167 C 
ATOM     12  H1  UNL     1      44.854 -69.839  38.119  1.00  0.00     0.179 HD
ENDBRANCH   1  10
TORSDOF 4
ENDMDL
