MODEL 1
REMARK VINA RESULT: -8.451579787      0.000      0.000
REMARK  4 active torsions:
REMARK  status: ('A' for Active; 'I' for Inactive)
REMARK    1  A    between atoms: O1_2  and  C2_3 
REMARK    2  A    between atoms: C2_3  and  C3_5 
REMARK    3  A    between atoms: C13_15  and  C14_16 
REMARK       I    between atoms: C14_16  and  N1_18 
REMARK    4  A    between atoms: N1_18  and  C15_20 
ROOT
HETATM    1  C15 UNL     1      -5.151   7.221   7.588  1.00  0.00     0.179 C 
HETATM    2  C16 UNL     1      -4.265   7.254   6.302  1.00  0.00     0.095 C 
HETATM    3  N2  UNL     1      -3.582   7.276   5.376  1.00  0.00    -0.194 NA
HETATM    4  C17 UNL     1      -6.505   6.823   6.950  1.00  0.00     0.231 C 
HETATM    5  C18 UNL     1      -7.565   6.564   7.883  1.00  0.00     0.041 C 
HETATM    6  C19 UNL     1      -8.216   7.630   8.664  1.00  0.00    -0.012 C 
HETATM    7  C20 UNL     1      -8.261   8.965   7.939  1.00  0.00     0.011 C 
HETATM    8  C21 UNL     1      -6.794   9.069   8.449  1.00  0.00     0.021 C 
HETATM    9  C22 UNL     1      -7.411   8.422   9.627  1.00  0.00     0.011 C 
HETATM   10  C23 UNL     1      -5.783   8.517   7.642  1.00  0.00     0.235 C 
HETATM   11  N3  UNL     1      -6.307   8.047   6.308  1.00  0.00    -0.059 N 
ATOM     12  H31 UNL     1      -7.060   8.532   5.819  1.00  0.00     0.278 HD
ATOM     13  H32 UNL     1      -5.760   8.128   5.451  1.00  0.00     0.278 HD
ENDROOT
BRANCH   1  14
HETATM   14  N1  UNL     1      -4.562   6.391   8.464  1.00  0.00    -0.334 N 
HETATM   15  C14 UNL     1      -3.767   5.313   8.783  1.00  0.00     0.241 C 
HETATM   16  O3  UNL     1      -3.212   4.509   8.049  1.00  0.00    -0.271 OA
ATOM     17  H1  UNL     1      -4.863   6.745   9.372  1.00  0.00     0.164 HD
BRANCH  15  18
HETATM   18  C13 UNL     1      -3.510   5.027  10.302  1.00  0.00     0.170 C 
HETATM   19  C12 UNL     1      -3.840   6.309  11.011  1.00  0.00     0.034 C 
HETATM   20  C11 UNL     1      -2.578   7.034  11.519  1.00  0.00     0.002 C 
HETATM   21  C10 UNL     1      -2.879   7.887  12.723  1.00  0.00     0.000 C 
HETATM   22  C9  UNL     1      -2.038   7.333  13.864  1.00  0.00     0.000 C 
HETATM   23  C8  UNL     1      -2.891   7.198  15.096  1.00  0.00     0.000 C 
HETATM   24  C7  UNL     1      -4.003   6.180  14.930  1.00  0.00     0.000 C 
HETATM   25  C6  UNL     1      -3.451   4.794  14.835  1.00  0.00     0.000 C 
HETATM   26  C5  UNL     1      -4.202   3.940  13.804  1.00  0.00     0.002 C 
HETATM   27  C4  UNL     1      -3.228   3.323  12.860  1.00  0.00     0.035 C 
HETATM   28  C3  UNL     1      -3.743   2.895  11.542  1.00  0.00     0.177 C 
HETATM   29  N4  UNL     1      -4.224   3.872  10.647  1.00  0.00    -0.397 N 
ATOM     30  H4  UNL     1      -5.143   3.730  10.227  1.00  0.00     0.154 HD
BRANCH  28  31
HETATM   31  C2  UNL     1      -4.799   1.823  11.724  1.00  0.00     0.281 C 
HETATM   32  O2  UNL     1      -5.900   1.952  11.132  1.00  0.00    -0.263 OA
BRANCH  31  33
HETATM   33  O1  UNL     1      -4.621   0.709  12.511  1.00  0.00    -0.325 OA
HETATM   34  C1  UNL     1      -4.381  -0.581  11.939  1.00  0.00     0.213 C 
ENDBRANCH  31  33
ENDBRANCH  28  31
ENDBRANCH  15  18
ENDBRANCH   1  14
TORSDOF 4
ENDMDL
MODEL 2
REMARK VINA RESULT: -7.999337449      5.064      7.117
REMARK  4 active torsions:
REMARK  status: ('A' for Active; 'I' for Inactive)
REMARK    1  A    between atoms: O1_2  and  C2_3 
REMARK    2  A    between atoms: C2_3  and  C3_5 
REMARK    3  A    between atoms: C13_15  and  C14_16 
REMARK       I    between atoms: C14_16  and  N1_18 
REMARK    4  A    between atoms: N1_18  and  C15_20 
ROOT
HETATM    1  C15 UNL     1      -3.908   2.798  13.304  1.00  0.00     0.179 C 
HETATM    2  C16 UNL     1      -3.867   1.461  12.495  1.00  0.00     0.095 C 
HETATM    3  N2  UNL     1      -3.824   0.496  11.871  1.00  0.00    -0.194 NA
HETATM    4  C17 UNL     1      -4.006   2.221  14.738  1.00  0.00     0.231 C 
HETATM    5  C18 UNL     1      -3.931   3.193  15.791  1.00  0.00     0.041 C 
HETATM    6  C19 UNL     1      -5.016   4.148  16.072  1.00  0.00    -0.012 C 
HETATM    7  C20 UNL     1      -6.397   3.599  15.751  1.00  0.00     0.011 C 
HETATM    8  C21 UNL     1      -6.006   4.005  14.300  1.00  0.00     0.021 C 
HETATM    9  C22 UNL     1      -5.402   5.137  15.035  1.00  0.00     0.011 C 
HETATM   10  C23 UNL     1      -5.308   3.060  13.526  1.00  0.00     0.235 C 
HETATM   11  N3  UNL     1      -5.200   1.722  14.214  1.00  0.00    -0.059 N 
ATOM     12  H31 UNL     1      -5.944   1.357  14.810  1.00  0.00     0.278 HD
ATOM     13  H32 UNL     1      -5.242   0.842  13.699  1.00  0.00     0.278 HD
ENDROOT
BRANCH   1  14
HETATM   14  N1  UNL     1      -2.829   3.516  12.951  1.00  0.00    -0.334 N 
HETATM   15  C14 UNL     1      -1.573   3.647  12.402  1.00  0.00     0.241 C 
HETATM   16  O3  UNL     1      -0.822   2.792  11.958  1.00  0.00    -0.271 OA
ATOM     17  H1  UNL     1      -3.064   4.464  13.246  1.00  0.00     0.164 HD
BRANCH  15  18
HETATM   18  C13 UNL     1      -0.966   5.090  12.319  1.00  0.00     0.170 C 
HETATM   19  C12 UNL     1      -1.361   5.763  13.603  1.00  0.00     0.034 C 
HETATM   20  C11 UNL     1      -2.455   6.826  13.390  1.00  0.00     0.002 C 
HETATM   21  C10 UNL     1      -2.389   7.904  14.440  1.00  0.00     0.000 C 
HETATM   22  C9  UNL     1      -2.112   9.206  13.703  1.00  0.00     0.000 C 
HETATM   23  C8  UNL     1      -1.017   9.959  14.409  1.00  0.00     0.000 C 
HETATM   24  C7  UNL     1       0.311   9.228  14.378  1.00  0.00     0.000 C 
HETATM   25  C6  UNL     1       0.868   9.187  12.991  1.00  0.00     0.000 C 
HETATM   26  C5  UNL     1       1.530   7.841  12.670  1.00  0.00     0.002 C 
HETATM   27  C4  UNL     1       0.978   7.301  11.396  1.00  0.00     0.035 C 
HETATM   28  C3  UNL     1       1.095   5.844  11.172  1.00  0.00     0.177 C 
HETATM   29  N4  UNL     1       0.397   4.965  12.024  1.00  0.00    -0.397 N 
ATOM     30  H4  UNL     1       0.913   4.194  12.449  1.00  0.00     0.154 HD
BRANCH  28  31
HETATM   31  C2  UNL     1       2.556   5.444  11.132  1.00  0.00     0.281 C 
HETATM   32  O2  UNL     1       3.245   5.770  10.133  1.00  0.00    -0.263 OA
BRANCH  31  33
HETATM   33  O1  UNL     1       3.177   4.736  12.135  1.00  0.00    -0.325 OA
HETATM   34  C1  UNL     1       4.241   5.305  12.905  1.00  0.00     0.213 C 
ENDBRANCH  31  33
ENDBRANCH  28  31
ENDBRANCH  15  18
ENDBRANCH   1  14
TORSDOF 4
ENDMDL
MODEL 3
REMARK VINA RESULT: -7.988547475      0.943      1.025
REMARK  4 active torsions:
REMARK  status: ('A' for Active; 'I' for Inactive)
REMARK    1  A    between atoms: O1_2  and  C2_3 
REMARK    2  A    between atoms: C2_3  and  C3_5 
REMARK    3  A    between atoms: C13_15  and  C14_16 
REMARK       I    between atoms: C14_16  and  N1_18 
REMARK    4  A    between atoms: N1_18  and  C15_20 
ROOT
HETATM    1  C15 UNL     1      -5.334   7.542   7.454  1.00  0.00     0.179 C 
HETATM    2  C16 UNL     1      -4.532   7.584   6.113  1.00  0.00     0.095 C 
HETATM    3  N2  UNL     1      -3.909   7.615   5.147  1.00  0.00    -0.194 NA
HETATM    4  C17 UNL     1      -6.703   7.061   6.911  1.00  0.00     0.231 C 
HETATM    5  C18 UNL     1      -7.688   6.775   7.916  1.00  0.00     0.041 C 
HETATM    6  C19 UNL     1      -8.344   7.827   8.710  1.00  0.00    -0.012 C 
HETATM    7  C20 UNL     1      -8.501   9.138   7.958  1.00  0.00     0.011 C 
HETATM    8  C21 UNL     1      -7.013   9.329   8.372  1.00  0.00     0.021 C 
HETATM    9  C22 UNL     1      -7.522   8.683   9.602  1.00  0.00     0.011 C 
HETATM   10  C23 UNL     1      -6.027   8.806   7.516  1.00  0.00     0.235 C 
HETATM   11  N3  UNL     1      -6.608   8.275   6.229  1.00  0.00    -0.059 N 
ATOM     12  H31 UNL     1      -7.413   8.709   5.778  1.00  0.00     0.278 HD
ATOM     13  H32 UNL     1      -6.119   8.360   5.338  1.00  0.00     0.278 HD
ENDROOT
BRANCH   1  14
HETATM   14  N1  UNL     1      -4.651   6.765   8.310  1.00  0.00    -0.334 N 
HETATM   15  C14 UNL     1      -3.937   5.633   8.631  1.00  0.00     0.241 C 
HETATM   16  O3  UNL     1      -3.683   4.651   7.949  1.00  0.00    -0.271 OA
ATOM     17  H1  UNL     1      -4.672   7.293   9.183  1.00  0.00     0.164 HD
BRANCH  15  18
HETATM   18  C13 UNL     1      -3.347   5.535  10.079  1.00  0.00     0.170 C 
HETATM   19  C12 UNL     1      -3.609   6.874  10.708  1.00  0.00     0.034 C 
HETATM   20  C11 UNL     1      -2.323   7.709  10.854  1.00  0.00     0.002 C 
HETATM   21  C10 UNL     1      -2.423   8.680  12.001  1.00  0.00     0.000 C 
HETATM   22  C9  UNL     1      -1.324   8.300  12.983  1.00  0.00     0.000 C 
HETATM   23  C8  UNL     1      -1.887   8.268  14.378  1.00  0.00     0.000 C 
HETATM   24  C7  UNL     1      -2.935   7.188  14.562  1.00  0.00     0.000 C 
HETATM   25  C6  UNL     1      -2.321   5.826  14.491  1.00  0.00     0.000 C 
HETATM   26  C5  UNL     1      -3.209   4.826  13.741  1.00  0.00     0.002 C 
HETATM   27  C4  UNL     1      -2.416   4.151  12.676  1.00  0.00     0.035 C 
HETATM   28  C3  UNL     1      -3.165   3.551  11.551  1.00  0.00     0.177 C 
HETATM   29  N4  UNL     1      -3.890   4.395  10.687  1.00  0.00    -0.397 N 
ATOM     30  H4  UNL     1      -4.865   4.164  10.493  1.00  0.00     0.154 HD
BRANCH  28  31
HETATM   31  C2  UNL     1      -4.082   2.459  12.067  1.00  0.00     0.281 C 
HETATM   32  O2  UNL     1      -5.244   2.374  11.597  1.00  0.00    -0.263 OA
BRANCH  31  33
HETATM   33  O1  UNL     1      -3.712   1.550  13.031  1.00  0.00    -0.325 OA
HETATM   34  C1  UNL     1      -4.513   1.326  14.195  1.00  0.00     0.213 C 
ENDBRANCH  31  33
ENDBRANCH  28  31
ENDBRANCH  15  18
ENDBRANCH   1  14
TORSDOF 4
ENDMDL
MODEL 4
REMARK VINA RESULT: -7.925263355      2.745      6.761
REMARK  4 active torsions:
REMARK  status: ('A' for Active; 'I' for Inactive)
REMARK    1  A    between atoms: O1_2  and  C2_3 
REMARK    2  A    between atoms: C2_3  and  C3_5 
REMARK    3  A    between atoms: C13_15  and  C14_16 
REMARK       I    between atoms: C14_16  and  N1_18 
REMARK    4  A    between atoms: N1_18  and  C15_20 
ROOT
HETATM    1  C15 UNL     1      -4.813   2.758  13.312  1.00  0.00     0.179 C 
HETATM    2  C16 UNL     1      -4.548   1.236  13.077  1.00  0.00     0.095 C 
HETATM    3  N2  UNL     1      -4.364   0.119  12.868  1.00  0.00    -0.194 NA
HETATM    4  C17 UNL     1      -3.979   2.961  14.602  1.00  0.00     0.231 C 
HETATM    5  C18 UNL     1      -3.880   4.320  15.054  1.00  0.00     0.041 C 
HETATM    6  C19 UNL     1      -5.017   5.048  15.642  1.00  0.00    -0.012 C 
HETATM    7  C20 UNL     1      -5.979   4.148  16.401  1.00  0.00     0.011 C 
HETATM    8  C21 UNL     1      -6.519   3.850  14.971  1.00  0.00     0.021 C 
HETATM    9  C22 UNL     1      -6.229   5.292  14.820  1.00  0.00     0.011 C 
HETATM   10  C23 UNL     1      -5.908   2.808  14.249  1.00  0.00     0.235 C 
HETATM   11  N3  UNL     1      -4.912   2.040  15.082  1.00  0.00    -0.059 N 
ATOM     12  H31 UNL     1      -5.050   1.878  16.080  1.00  0.00     0.278 HD
ATOM     13  H32 UNL     1      -4.782   1.034  14.981  1.00  0.00     0.278 HD
ENDROOT
BRANCH   1  14
HETATM   14  N1  UNL     1      -4.465   3.407  12.189  1.00  0.00    -0.334 N 
HETATM   15  C14 UNL     1      -4.219   3.464  10.836  1.00  0.00     0.241 C 
HETATM   16  O3  UNL     1      -4.226   2.569  10.003  1.00  0.00    -0.271 OA
ATOM     17  H1  UNL     1      -4.291   4.361  12.506  1.00  0.00     0.164 HD
BRANCH  15  18
HETATM   18  C13 UNL     1      -3.862   4.861  10.222  1.00  0.00     0.170 C 
HETATM   19  C12 UNL     1      -4.524   5.870  11.118  1.00  0.00     0.034 C 
HETATM   20  C11 UNL     1      -5.749   6.524  10.451  1.00  0.00     0.002 C 
HETATM   21  C10 UNL     1      -6.000   7.906  10.994  1.00  0.00     0.000 C 
HETATM   22  C9  UNL     1      -5.861   8.863   9.819  1.00  0.00     0.000 C 
HETATM   23  C8  UNL     1      -5.008  10.035  10.226  1.00  0.00     0.000 C 
HETATM   24  C7  UNL     1      -3.582   9.637  10.549  1.00  0.00     0.000 C 
HETATM   25  C6  UNL     1      -2.856   9.194   9.319  1.00  0.00     0.000 C 
HETATM   26  C5  UNL     1      -1.938   7.995   9.586  1.00  0.00     0.002 C 
HETATM   27  C4  UNL     1      -2.225   6.914   8.601  1.00  0.00     0.035 C 
HETATM   28  C3  UNL     1      -1.833   5.538   8.973  1.00  0.00     0.177 C 
HETATM   29  N4  UNL     1      -2.471   4.919  10.067  1.00  0.00    -0.397 N 
ATOM     30  H4  UNL     1      -1.888   4.489  10.785  1.00  0.00     0.154 HD
BRANCH  28  31
HETATM   31  C2  UNL     1      -0.332   5.463   9.165  1.00  0.00     0.281 C 
HETATM   32  O2  UNL     1       0.410   5.507   8.153  1.00  0.00    -0.263 OA
BRANCH  31  33
HETATM   33  O1  UNL     1       0.271   5.346  10.397  1.00  0.00    -0.325 OA
HETATM   34  C1  UNL     1       1.084   4.216  10.727  1.00  0.00     0.213 C 
ENDBRANCH  31  33
ENDBRANCH  28  31
ENDBRANCH  15  18
ENDBRANCH   1  14
TORSDOF 4
ENDMDL
MODEL 5
REMARK VINA RESULT: -7.895121033      2.633      7.054
REMARK  4 active torsions:
REMARK  status: ('A' for Active; 'I' for Inactive)
REMARK    1  A    between atoms: O1_2  and  C2_3 
REMARK    2  A    between atoms: C2_3  and  C3_5 
REMARK    3  A    between atoms: C13_15  and  C14_16 
REMARK       I    between atoms: C14_16  and  N1_18 
REMARK    4  A    between atoms: N1_18  and  C15_20 
ROOT
HETATM    1  C15 UNL     1      -3.950   4.048  12.888  1.00  0.00     0.179 C 
HETATM    2  C16 UNL     1      -2.696   3.266  12.378  1.00  0.00     0.095 C 
HETATM    3  N2  UNL     1      -1.787   2.693  11.968  1.00  0.00    -0.194 NA
HETATM    4  C17 UNL     1      -3.425   4.485  14.278  1.00  0.00     0.231 C 
HETATM    5  C18 UNL     1      -4.293   5.366  15.006  1.00  0.00     0.041 C 
HETATM    6  C19 UNL     1      -5.565   4.919  15.598  1.00  0.00    -0.012 C 
HETATM    7  C20 UNL     1      -5.544   3.466  16.043  1.00  0.00     0.011 C 
HETATM    8  C21 UNL     1      -5.806   3.204  14.530  1.00  0.00     0.021 C 
HETATM    9  C22 UNL     1      -6.641   4.410  14.712  1.00  0.00     0.011 C 
HETATM   10  C23 UNL     1      -4.686   3.098  13.685  1.00  0.00     0.235 C 
HETATM   11  N3  UNL     1      -3.387   3.100  14.451  1.00  0.00    -0.059 N 
ATOM     12  H31 UNL     1      -3.299   2.671  15.372  1.00  0.00     0.278 HD
ATOM     13  H32 UNL     1      -2.586   2.539  14.162  1.00  0.00     0.278 HD
ENDROOT
BRANCH   1  14
HETATM   14  N1  UNL     1      -4.246   4.980  11.968  1.00  0.00    -0.334 N 
HETATM   15  C14 UNL     1      -4.443   5.401  10.672  1.00  0.00     0.241 C 
HETATM   16  O3  UNL     1      -4.304   4.789   9.623  1.00  0.00    -0.271 OA
ATOM     17  H1  UNL     1      -4.414   5.820  12.522  1.00  0.00     0.164 HD
BRANCH  15  18
HETATM   18  C13 UNL     1      -4.907   6.881  10.453  1.00  0.00     0.170 C 
HETATM   19  C12 UNL     1      -3.663   7.638  10.083  1.00  0.00     0.034 C 
HETATM   20  C11 UNL     1      -3.182   8.557  11.222  1.00  0.00     0.002 C 
HETATM   21  C10 UNL     1      -2.413   9.738  10.691  1.00  0.00     0.000 C 
HETATM   22  C9  UNL     1      -3.189  10.979  11.106  1.00  0.00     0.000 C 
HETATM   23  C8  UNL     1      -3.315  11.909   9.929  1.00  0.00     0.000 C 
HETATM   24  C7  UNL     1      -4.139  11.317   8.802  1.00  0.00     0.000 C 
HETATM   25  C6  UNL     1      -5.576  11.192   9.197  1.00  0.00     0.000 C 
HETATM   26  C5  UNL     1      -6.210   9.895   8.678  1.00  0.00     0.002 C 
HETATM   27  C4  UNL     1      -6.869   9.173   9.803  1.00  0.00     0.035 C 
HETATM   28  C3  UNL     1      -7.090   7.721   9.638  1.00  0.00     0.177 C 
HETATM   29  N4  UNL     1      -5.973   6.867   9.544  1.00  0.00    -0.397 N 
ATOM     30  H4  UNL     1      -5.939   6.200   8.772  1.00  0.00     0.154 HD
BRANCH  28  31
HETATM   31  C2  UNL     1      -8.009   7.470   8.458  1.00  0.00     0.281 C 
HETATM   32  O2  UNL     1      -7.617   6.712   7.537  1.00  0.00    -0.263 OA
BRANCH  31  33
HETATM   33  O1  UNL     1      -9.259   8.033   8.337  1.00  0.00    -0.325 OA
HETATM   34  C1  UNL     1      -9.508   9.112   7.431  1.00  0.00     0.213 C 
ENDBRANCH  31  33
ENDBRANCH  28  31
ENDBRANCH  15  18
ENDBRANCH   1  14
TORSDOF 4
ENDMDL
