MODEL 1
REMARK VINA RESULT: -6.523477578      0.000      0.000
REMARK  4 active torsions:
REMARK  status: ('A' for Active; 'I' for Inactive)
REMARK    1  A    between atoms: C2_2  and  C3_3 
REMARK    2  A    between atoms: C3_3  and  C4_4 
REMARK    3  A    between atoms: C10_13  and  C11_14 
REMARK    4  A    between atoms: C13_17  and  O2_18 
ROOT
HETATM    1  C4  UNL     1      64.216   8.994  29.221  1.00  0.00    -0.009 C 
HETATM    2  N1  UNL     1      64.995   8.221  30.149  1.00  0.00    -0.354 N 
ATOM      3  H1  UNL     1      65.917   8.117  29.726  1.00  0.00     0.166 HD
HETATM    4  C5  UNL     1      65.044   7.617  31.248  1.00  0.00     0.102 C 
HETATM    5  N2  UNL     1      66.327   7.038  31.484  1.00  0.00    -0.087 NA
HETATM    6  C6  UNL     1      64.086   7.376  32.337  1.00  0.00     0.016 C 
HETATM    7  C7  UNL     1      64.298   5.962  32.864  1.00  0.00     0.023 C 
HETATM    8  C8  UNL     1      64.292   8.369  33.458  1.00  0.00     0.018 C 
HETATM    9  C9  UNL     1      63.052   8.983  33.991  1.00  0.00     0.016 C 
HETATM   10  C10 UNL     1      61.918   9.033  32.935  1.00  0.00    -0.007 C 
HETATM   11  C15 UNL     1      61.583   7.557  32.817  1.00  0.00     0.021 C 
HETATM   12  C16 UNL     1      62.711   7.518  31.811  1.00  0.00     0.007 C 
HETATM   13  C17 UNL     1      62.529   9.013  31.626  1.00  0.00     0.004 C 
HETATM   14  C18 UNL     1      61.911   9.226  30.328  1.00  0.00     0.016 C 
HETATM   15  C19 UNL     1      62.770   8.755  29.213  1.00  0.00     0.027 C 
HETATM   16  C20 UNL     1      62.103   9.079  27.873  1.00  0.00     0.016 C 
ENDROOT
BRANCH  10  17
HETATM   17  C11 UNL     1      60.849   9.950  33.300  1.00  0.00    -0.022 A 
HETATM   18  C12 UNL     1      59.547  10.058  32.856  1.00  0.00     0.152 A 
HETATM   19  O1  UNL     1      58.967  11.066  33.462  1.00  0.00    -0.300 OA
HETATM   20  C13 UNL     1      59.790  11.648  34.292  1.00  0.00     0.183 A 
HETATM   21  C14 UNL     1      60.983  10.972  34.215  1.00  0.00     0.073 A 
BRANCH  20  22
HETATM   22  O2  UNL     1      59.508  12.765  35.118  1.00  0.00    -0.341 OA
ATOM     23  H2  UNL     1      60.096  13.482  35.322  1.00  0.00     0.220 HD
ENDBRANCH  20  22
ENDBRANCH  10  17
BRANCH   1  24
HETATM   24  C3  UNL     1      64.798  10.340  29.086  1.00  0.00     0.052 C 
BRANCH  24  25
HETATM   25  C2  UNL     1      65.124  11.094  30.323  1.00  0.00     0.001 C 
HETATM   26  C1  UNL     1      64.192  12.314  30.345  1.00  0.00     0.005 C 
ENDBRANCH  24  25
ENDBRANCH   1  24
TORSDOF 4
ENDMDL
MODEL 2
REMARK VINA RESULT: -6.458697346      4.143      5.673
REMARK  4 active torsions:
REMARK  status: ('A' for Active; 'I' for Inactive)
REMARK    1  A    between atoms: C2_2  and  C3_3 
REMARK    2  A    between atoms: C3_3  and  C4_4 
REMARK    3  A    between atoms: C10_13  and  C11_14 
REMARK    4  A    between atoms: C13_17  and  O2_18 
ROOT
HETATM    1  C4  UNL     1      60.982   8.792  32.690  1.00  0.00    -0.009 C 
HETATM    2  N1  UNL     1      61.372   7.751  31.779  1.00  0.00    -0.354 N 
ATOM      3  H1  UNL     1      62.223   8.079  31.323  1.00  0.00     0.166 HD
HETATM    4  C5  UNL     1      61.131   6.619  31.294  1.00  0.00     0.102 C 
HETATM    5  N2  UNL     1      62.106   6.231  30.327  1.00  0.00    -0.087 NA
HETATM    6  C6  UNL     1      60.078   5.612  31.499  1.00  0.00     0.016 C 
HETATM    7  C7  UNL     1      59.739   4.986  30.152  1.00  0.00     0.023 C 
HETATM    8  C8  UNL     1      60.548   4.537  32.452  1.00  0.00     0.018 C 
HETATM    9  C9  UNL     1      59.574   4.159  33.504  1.00  0.00     0.016 C 
HETATM   10  C10 UNL     1      58.605   5.317  33.854  1.00  0.00    -0.007 C 
HETATM   11  C15 UNL     1      57.777   5.380  32.583  1.00  0.00     0.021 C 
HETATM   12  C16 UNL     1      58.882   6.272  32.065  1.00  0.00     0.007 C 
HETATM   13  C17 UNL     1      59.255   6.561  33.507  1.00  0.00     0.004 C 
HETATM   14  C18 UNL     1      58.841   7.920  33.807  1.00  0.00     0.016 C 
HETATM   15  C19 UNL     1      59.550   8.921  32.970  1.00  0.00     0.027 C 
HETATM   16  C20 UNL     1      59.132  10.334  33.388  1.00  0.00     0.016 C 
ENDROOT
BRANCH  10  17
HETATM   17  C11 UNL     1      57.909   5.108  35.114  1.00  0.00    -0.022 A 
HETATM   18  C12 UNL     1      58.377   4.802  36.376  1.00  0.00     0.152 A 
HETATM   19  O1  UNL     1      57.361   4.682  37.196  1.00  0.00    -0.300 OA
HETATM   20  C13 UNL     1      56.232   4.892  36.573  1.00  0.00     0.183 A 
HETATM   21  C14 UNL     1      56.540   5.162  35.262  1.00  0.00     0.073 A 
BRANCH  20  22
HETATM   22  O2  UNL     1      54.934   4.850  37.141  1.00  0.00    -0.341 OA
ATOM     23  H2  UNL     1      54.470   5.574  37.546  1.00  0.00     0.220 HD
ENDBRANCH  20  22
ENDBRANCH  10  17
BRANCH   1  24
HETATM   24  C3  UNL     1      62.012   8.950  33.731  1.00  0.00     0.052 C 
BRANCH  24  25
HETATM   25  C2  UNL     1      63.361   9.418  33.323  1.00  0.00     0.001 C 
HETATM   26  C1  UNL     1      64.339   8.294  33.694  1.00  0.00     0.005 C 
ENDBRANCH  24  25
ENDBRANCH   1  24
TORSDOF 4
ENDMDL
MODEL 3
REMARK VINA RESULT: -6.445594779      3.315      5.978
REMARK  4 active torsions:
REMARK  status: ('A' for Active; 'I' for Inactive)
REMARK    1  A    between atoms: C2_2  and  C3_3 
REMARK    2  A    between atoms: C3_3  and  C4_4 
REMARK    3  A    between atoms: C10_13  and  C11_14 
REMARK    4  A    between atoms: C13_17  and  O2_18 
ROOT
HETATM    1  C4  UNL     1      62.286   9.255  31.928  1.00  0.00    -0.009 C 
HETATM    2  N1  UNL     1      62.128   9.454  30.513  1.00  0.00    -0.354 N 
ATOM      3  H1  UNL     1      61.173   9.173  30.293  1.00  0.00     0.166 HD
HETATM    4  C5  UNL     1      62.644   9.819  29.429  1.00  0.00     0.102 C 
HETATM    5  N2  UNL     1      61.729   9.711  28.338  1.00  0.00    -0.087 NA
HETATM    6  C6  UNL     1      63.966  10.328  29.034  1.00  0.00     0.016 C 
HETATM    7  C7  UNL     1      64.326   9.739  27.677  1.00  0.00     0.023 C 
HETATM    8  C8  UNL     1      63.949  11.837  28.942  1.00  0.00     0.018 C 
HETATM    9  C9  UNL     1      65.102  12.519  29.578  1.00  0.00     0.016 C 
HETATM   10  C10 UNL     1      65.710  11.691  30.738  1.00  0.00    -0.007 C 
HETATM   11  C15 UNL     1      66.335  10.545  29.963  1.00  0.00     0.021 C 
HETATM   12  C16 UNL     1      64.964   9.916  30.045  1.00  0.00     0.007 C 
HETATM   13  C17 UNL     1      64.683  10.808  31.241  1.00  0.00     0.004 C 
HETATM   14  C18 UNL     1      64.700   9.972  32.429  1.00  0.00     0.016 C 
HETATM   15  C19 UNL     1      63.635   8.938  32.403  1.00  0.00     0.027 C 
HETATM   16  C20 UNL     1      63.652   8.145  33.714  1.00  0.00     0.016 C 
ENDROOT
BRANCH  10  17
HETATM   17  C11 UNL     1      66.572  12.482  31.604  1.00  0.00    -0.022 A 
HETATM   18  C12 UNL     1      66.740  13.846  31.724  1.00  0.00     0.152 A 
HETATM   19  O1  UNL     1      67.659  14.089  32.628  1.00  0.00    -0.300 OA
HETATM   20  C13 UNL     1      68.123  12.978  33.132  1.00  0.00     0.183 A 
HETATM   21  C14 UNL     1      67.461  11.947  32.510  1.00  0.00     0.073 A 
BRANCH  20  22
HETATM   22  O2  UNL     1      69.118  12.855  34.134  1.00  0.00    -0.341 OA
ATOM     23  H2  UNL     1      69.847  12.246  34.136  1.00  0.00     0.220 HD
ENDBRANCH  20  22
ENDBRANCH  10  17
BRANCH   1  24
HETATM   24  C3  UNL     1      61.378  10.155  32.659  1.00  0.00     0.052 C 
BRANCH  24  25
HETATM   25  C2  UNL     1      60.255   9.554  33.423  1.00  0.00     0.001 C 
HETATM   26  C1  UNL     1      60.117  10.380  34.710  1.00  0.00     0.005 C 
ENDBRANCH  24  25
ENDBRANCH   1  24
TORSDOF 4
ENDMDL
MODEL 4
REMARK VINA RESULT: -6.401254580      3.197      5.922
REMARK  4 active torsions:
REMARK  status: ('A' for Active; 'I' for Inactive)
REMARK    1  A    between atoms: C2_2  and  C3_3 
REMARK    2  A    between atoms: C3_3  and  C4_4 
REMARK    3  A    between atoms: C10_13  and  C11_14 
REMARK    4  A    between atoms: C13_17  and  O2_18 
ROOT
HETATM    1  C4  UNL     1      62.316   9.303  31.992  1.00  0.00    -0.009 C 
HETATM    2  N1  UNL     1      62.144   9.368  30.566  1.00  0.00    -0.354 N 
ATOM      3  H1  UNL     1      61.209   9.009  30.377  1.00  0.00     0.166 HD
HETATM    4  C5  UNL     1      62.634   9.671  29.451  1.00  0.00     0.102 C 
HETATM    5  N2  UNL     1      61.727   9.411  28.380  1.00  0.00    -0.087 NA
HETATM    6  C6  UNL     1      63.920  10.229  29.005  1.00  0.00     0.016 C 
HETATM    7  C7  UNL     1      64.316   9.550  27.701  1.00  0.00     0.023 C 
HETATM    8  C8  UNL     1      63.804  11.720  28.784  1.00  0.00     0.018 C 
HETATM    9  C9  UNL     1      64.911  12.528  29.351  1.00  0.00     0.016 C 
HETATM   10  C10 UNL     1      65.573  11.844  30.574  1.00  0.00    -0.007 C 
HETATM   11  C15 UNL     1      66.271  10.678  29.896  1.00  0.00     0.021 C 
HETATM   12  C16 UNL     1      64.943   9.971  30.041  1.00  0.00     0.007 C 
HETATM   13  C17 UNL     1      64.606  10.943  31.157  1.00  0.00     0.004 C 
HETATM   14  C18 UNL     1      64.679  10.216  32.413  1.00  0.00     0.016 C 
HETATM   15  C19 UNL     1      63.684   9.116  32.484  1.00  0.00     0.027 C 
HETATM   16  C20 UNL     1      63.754   8.442  33.857  1.00  0.00     0.016 C 
ENDROOT
BRANCH  10  17
HETATM   17  C11 UNL     1      66.383  12.761  31.362  1.00  0.00    -0.022 A 
HETATM   18  C12 UNL     1      67.374  12.533  32.294  1.00  0.00     0.152 A 
HETATM   19  O1  UNL     1      67.796  13.683  32.764  1.00  0.00    -0.300 OA
HETATM   20  C13 UNL     1      67.159  14.677  32.207  1.00  0.00     0.183 A 
HETATM   21  C14 UNL     1      66.262  14.133  31.320  1.00  0.00     0.073 A 
BRANCH  20  22
HETATM   22  O2  UNL     1      67.354  16.057  32.466  1.00  0.00    -0.341 OA
ATOM     23  H2  UNL     1      66.846  16.777  32.111  1.00  0.00     0.220 HD
ENDBRANCH  20  22
ENDBRANCH  10  17
BRANCH   1  24
HETATM   24  C3  UNL     1      61.353  10.202  32.649  1.00  0.00     0.052 C 
BRANCH  24  25
HETATM   25  C2  UNL     1      60.255   9.598  33.446  1.00  0.00     0.001 C 
HETATM   26  C1  UNL     1      60.215  10.363  34.777  1.00  0.00     0.005 C 
ENDBRANCH  24  25
ENDBRANCH   1  24
TORSDOF 4
ENDMDL
MODEL 5
REMARK VINA RESULT: -6.365714620      4.285      6.922
REMARK  4 active torsions:
REMARK  status: ('A' for Active; 'I' for Inactive)
REMARK    1  A    between atoms: C2_2  and  C3_3 
REMARK    2  A    between atoms: C3_3  and  C4_4 
REMARK    3  A    between atoms: C10_13  and  C11_14 
REMARK    4  A    between atoms: C13_17  and  O2_18 
ROOT
HETATM    1  C4  UNL     1      58.030   6.746  34.337  1.00  0.00    -0.009 C 
HETATM    2  N1  UNL     1      57.776   8.085  34.792  1.00  0.00    -0.354 N 
ATOM      3  H1  UNL     1      56.980   8.022  35.427  1.00  0.00     0.166 HD
HETATM    4  C5  UNL     1      58.098   9.297  34.756  1.00  0.00     0.102 C 
HETATM    5  N2  UNL     1      57.261  10.099  35.590  1.00  0.00    -0.087 NA
HETATM    6  C6  UNL     1      59.134  10.069  34.054  1.00  0.00     0.016 C 
HETATM    7  C7  UNL     1      58.538  11.404  33.629  1.00  0.00     0.023 C 
HETATM    8  C8  UNL     1      60.321  10.310  34.958  1.00  0.00     0.018 C 
HETATM    9  C9  UNL     1      61.646  10.067  34.336  1.00  0.00     0.016 C 
HETATM   10  C10 UNL     1      61.577   9.023  33.193  1.00  0.00    -0.007 C 
HETATM   11  C15 UNL     1      60.810   9.809  32.144  1.00  0.00     0.021 C 
HETATM   12  C16 UNL     1      59.578   9.311  32.864  1.00  0.00     0.007 C 
HETATM   13  C17 UNL     1      60.424   8.184  33.426  1.00  0.00     0.004 C 
HETATM   14  C18 UNL     1      60.035   6.959  32.747  1.00  0.00     0.016 C 
HETATM   15  C19 UNL     1      58.616   6.602  33.002  1.00  0.00     0.027 C 
HETATM   16  C20 UNL     1      58.290   5.265  32.329  1.00  0.00     0.016 C 
ENDROOT
BRANCH  10  17
HETATM   17  C11 UNL     1      62.884   8.495  32.833  1.00  0.00    -0.022 A 
HETATM   18  C12 UNL     1      63.327   7.851  31.696  1.00  0.00     0.152 A 
HETATM   19  O1  UNL     1      64.591   7.534  31.844  1.00  0.00    -0.300 OA
HETATM   20  C13 UNL     1      65.037   7.926  33.008  1.00  0.00     0.183 A 
HETATM   21  C14 UNL     1      63.989   8.534  33.656  1.00  0.00     0.073 A 
BRANCH  20  22
HETATM   22  O2  UNL     1      66.352   7.758  33.509  1.00  0.00    -0.341 OA
ATOM     23  H2  UNL     1      66.803   8.331  34.119  1.00  0.00     0.220 HD
ENDBRANCH  20  22
ENDBRANCH  10  17
BRANCH   1  24
HETATM   24  C3  UNL     1      58.434   5.903  35.476  1.00  0.00     0.052 C 
BRANCH  24  25
HETATM   25  C2  UNL     1      57.380   5.414  36.400  1.00  0.00     0.001 C 
HETATM   26  C1  UNL     1      56.343   4.688  35.529  1.00  0.00     0.005 C 
ENDBRANCH  24  25
ENDBRANCH   1  24
TORSDOF 4
ENDMDL
