MODEL 1
REMARK VINA RESULT: -5.441932969      0.000      0.000
REMARK  3 active torsions:
REMARK  status: ('A' for Active; 'I' for Inactive)
REMARK    1  A    between atoms: C2_2  and  C4_4 
REMARK    2  A    between atoms: C9_9  and  O1_10 
REMARK    3  A    between atoms: C10_12  and  N1_14 
ROOT
HETATM    1  C4  UNL     1     -40.396  14.399  52.301  1.00  0.00     0.027 C 
HETATM    2  C5  UNL     1     -40.198  14.747  50.840  1.00  0.00     0.008 C 
HETATM    3  C6  UNL     1     -38.793  15.299  50.582  1.00  0.00     0.007 C 
HETATM    4  C7  UNL     1     -37.863  14.170  50.946  1.00  0.00     0.013 C 
HETATM    5  C8  UNL     1     -36.471  14.537  50.521  1.00  0.00     0.012 C 
HETATM    6  C9  UNL     1     -37.976  13.747  52.365  1.00  0.00     0.157 C 
HETATM    7  C10 UNL     1     -39.147  14.352  53.108  1.00  0.00     0.149 C 
HETATM    8  C11 UNL     1     -39.374  13.380  54.274  1.00  0.00     0.049 C 
ENDROOT
BRANCH   7   9
HETATM    9  N1  UNL     1     -38.715  15.629  53.612  1.00  0.00    -0.068 N 
ATOM     10  H13 UNL     1     -39.109  16.385  53.050  1.00  0.00     0.275 HD
ATOM     11  H12 UNL     1     -39.161  15.828  54.507  1.00  0.00     0.275 HD
ATOM     12  H11 UNL     1     -37.703  15.733  53.687  1.00  0.00     0.275 HD
ENDBRANCH   7   9
BRANCH   1  13
HETATM   13  C2  UNL     1     -41.489  15.244  52.821  1.00  0.00    -0.016 C 
HETATM   14  C1  UNL     1     -41.755  16.360  51.828  1.00  0.00     0.010 C 
HETATM   15  C3  UNL     1     -42.799  14.590  53.057  1.00  0.00     0.010 C 
ENDBRANCH   1  13
BRANCH   6  16
HETATM   16  O1  UNL     1     -36.799  14.129  53.026  1.00  0.00    -0.393 OA
ATOM     17  H1  UNL     1     -36.748  13.641  53.839  1.00  0.00     0.210 HD
ENDBRANCH   6  16
TORSDOF 3
ENDMDL
MODEL 2
REMARK VINA RESULT: -5.431730847      9.021     10.498
REMARK  3 active torsions:
REMARK  status: ('A' for Active; 'I' for Inactive)
REMARK    1  A    between atoms: C2_2  and  C4_4 
REMARK    2  A    between atoms: C9_9  and  O1_10 
REMARK    3  A    between atoms: C10_12  and  N1_14 
ROOT
HETATM    1  C4  UNL     1     -36.333  10.468  43.832  1.00  0.00     0.027 C 
HETATM    2  C5  UNL     1     -37.147  11.354  44.753  1.00  0.00     0.008 C 
HETATM    3  C6  UNL     1     -36.724  12.820  44.635  1.00  0.00     0.007 C 
HETATM    4  C7  UNL     1     -37.024  13.193  43.205  1.00  0.00     0.013 C 
HETATM    5  C8  UNL     1     -36.847  14.676  43.048  1.00  0.00     0.012 C 
HETATM    6  C9  UNL     1     -36.274  12.381  42.214  1.00  0.00     0.157 C 
HETATM    7  C10 UNL     1     -35.544  11.193  42.801  1.00  0.00     0.149 C 
HETATM    8  C11 UNL     1     -35.358  10.255  41.600  1.00  0.00     0.049 C 
ENDROOT
BRANCH   7   9
HETATM    9  N1  UNL     1     -34.263  11.666  43.256  1.00  0.00    -0.068 N 
ATOM     10  H13 UNL     1     -34.098  12.618  42.929  1.00  0.00     0.275 HD
ATOM     11  H12 UNL     1     -34.280  11.827  44.263  1.00  0.00     0.275 HD
ATOM     12  H11 UNL     1     -33.478  11.064  43.006  1.00  0.00     0.275 HD
ENDBRANCH   7   9
BRANCH   1  13
HETATM   13  C2  UNL     1     -35.597   9.502  44.672  1.00  0.00    -0.016 C 
HETATM   14  C1  UNL     1     -35.906   9.791  46.130  1.00  0.00     0.010 C 
HETATM   15  C3  UNL     1     -35.894   8.063  44.472  1.00  0.00     0.010 C 
ENDBRANCH   1  13
BRANCH   6  16
HETATM   16  O1  UNL     1     -35.326  13.213  41.600  1.00  0.00    -0.393 OA
ATOM     17  H1  UNL     1     -35.641  13.424  40.730  1.00  0.00     0.210 HD
ENDBRANCH   6  16
TORSDOF 3
ENDMDL
MODEL 3
REMARK VINA RESULT: -5.302971785      8.908     11.237
REMARK  3 active torsions:
REMARK  status: ('A' for Active; 'I' for Inactive)
REMARK    1  A    between atoms: C2_2  and  C4_4 
REMARK    2  A    between atoms: C9_9  and  O1_10 
REMARK    3  A    between atoms: C10_12  and  N1_14 
ROOT
HETATM    1  C4  UNL     1     -34.880   9.139  43.787  1.00  0.00     0.027 C 
HETATM    2  C5  UNL     1     -35.503   9.096  45.167  1.00  0.00     0.008 C 
HETATM    3  C6  UNL     1     -35.711  10.504  45.730  1.00  0.00     0.007 C 
HETATM    4  C7  UNL     1     -36.677  11.161  44.778  1.00  0.00     0.013 C 
HETATM    5  C8  UNL     1     -37.114  12.472  45.364  1.00  0.00     0.012 C 
HETATM    6  C9  UNL     1     -36.161  11.255  43.388  1.00  0.00     0.157 C 
HETATM    7  C10 UNL     1     -34.889  10.477  43.137  1.00  0.00     0.149 C 
HETATM    8  C11 UNL     1     -34.891  10.265  41.617  1.00  0.00     0.049 C 
ENDROOT
BRANCH   7   9
HETATM    9  N1  UNL     1     -33.790  11.328  43.512  1.00  0.00    -0.068 N 
ATOM     10  H13 UNL     1     -34.128  12.260  43.752  1.00  0.00     0.275 HD
ATOM     11  H12 UNL     1     -33.411  11.042  44.415  1.00  0.00     0.275 HD
ATOM     12  H11 UNL     1     -33.046  11.388  42.816  1.00  0.00     0.275 HD
ENDBRANCH   7   9
BRANCH   1  13
HETATM   13  C2  UNL     1     -33.577   8.447  43.860  1.00  0.00    -0.016 C 
HETATM   14  C1  UNL     1     -33.621   7.448  45.002  1.00  0.00     0.010 C 
HETATM   15  C3  UNL     1     -33.148   7.680  42.666  1.00  0.00     0.010 C 
ENDBRANCH   1  13
BRANCH   6  16
HETATM   16  O1  UNL     1     -35.905  12.607  43.112  1.00  0.00    -0.393 OA
ATOM     17  H1  UNL     1     -35.726  13.046  43.935  1.00  0.00     0.210 HD
ENDBRANCH   6  16
TORSDOF 3
ENDMDL
MODEL 4
REMARK VINA RESULT: -5.129639858      8.025      9.729
REMARK  3 active torsions:
REMARK  status: ('A' for Active; 'I' for Inactive)
REMARK    1  A    between atoms: C2_2  and  C4_4 
REMARK    2  A    between atoms: C9_9  and  O1_10 
REMARK    3  A    between atoms: C10_12  and  N1_14 
ROOT
HETATM    1  C4  UNL     1     -36.166  11.022  45.026  1.00  0.00     0.027 C 
HETATM    2  C5  UNL     1     -35.802  10.629  46.442  1.00  0.00     0.008 C 
HETATM    3  C6  UNL     1     -36.014   9.131  46.679  1.00  0.00     0.007 C 
HETATM    4  C7  UNL     1     -35.065   8.453  45.724  1.00  0.00     0.013 C 
HETATM    5  C8  UNL     1     -35.040   6.984  46.033  1.00  0.00     0.012 C 
HETATM    6  C9  UNL     1     -35.335   8.772  44.299  1.00  0.00     0.157 C 
HETATM    7  C10 UNL     1     -36.339   9.883  44.084  1.00  0.00     0.149 C 
HETATM    8  C11 UNL     1     -36.022  10.386  42.669  1.00  0.00     0.049 C 
ENDROOT
BRANCH   7   9
HETATM    9  N1  UNL     1     -37.647   9.283  44.110  1.00  0.00    -0.068 N 
ATOM     10  H13 UNL     1     -38.165   9.522  43.264  1.00  0.00     0.275 HD
ATOM     11  H12 UNL     1     -37.577   8.273  43.992  1.00  0.00     0.275 HD
ATOM     12  H11 UNL     1     -38.198   9.507  44.939  1.00  0.00     0.275 HD
ENDBRANCH   7   9
BRANCH   1  13
HETATM   13  C2  UNL     1     -37.275  11.994  45.099  1.00  0.00    -0.016 C 
HETATM   14  C1  UNL     1     -37.387  12.496  46.527  1.00  0.00     0.010 C 
HETATM   15  C3  UNL     1     -37.174  13.205  44.250  1.00  0.00     0.010 C 
ENDBRANCH   1  13
BRANCH   6  16
HETATM   16  O1  UNL     1     -35.831   7.613  43.682  1.00  0.00    -0.393 OA
ATOM     17  H1  UNL     1     -36.754   7.541  43.894  1.00  0.00     0.210 HD
ENDBRANCH   6  16
TORSDOF 3
ENDMDL
MODEL 5
REMARK VINA RESULT: -5.043526550      9.725     11.121
REMARK  3 active torsions:
REMARK  status: ('A' for Active; 'I' for Inactive)
REMARK    1  A    between atoms: C2_2  and  C4_4 
REMARK    2  A    between atoms: C9_9  and  O1_10 
REMARK    3  A    between atoms: C10_12  and  N1_14 
ROOT
HETATM    1  C4  UNL     1     -37.631   8.352  44.328  1.00  0.00     0.027 C 
HETATM    2  C5  UNL     1     -38.876   8.115  43.498  1.00  0.00     0.008 C 
HETATM    3  C6  UNL     1     -39.536   6.779  43.849  1.00  0.00     0.007 C 
HETATM    4  C7  UNL     1     -39.931   6.913  45.297  1.00  0.00     0.013 C 
HETATM    5  C8  UNL     1     -40.783   5.735  45.674  1.00  0.00     0.012 C 
HETATM    6  C9  UNL     1     -38.779   7.148  46.203  1.00  0.00     0.157 C 
HETATM    7  C10 UNL     1     -37.475   7.443  45.496  1.00  0.00     0.149 C 
HETATM    8  C11 UNL     1     -36.647   8.177  46.560  1.00  0.00     0.049 C 
ENDROOT
BRANCH   7   9
HETATM    9  N1  UNL     1     -36.864   6.177  45.187  1.00  0.00    -0.068 N 
ATOM     10  H13 UNL     1     -37.064   5.911  44.223  1.00  0.00     0.275 HD
ATOM     11  H12 UNL     1     -35.851   6.274  45.135  1.00  0.00     0.275 HD
ATOM     12  H11 UNL     1     -37.117   5.421  45.824  1.00  0.00     0.275 HD
ENDBRANCH   7   9
BRANCH   1  13
HETATM   13  C2  UNL     1     -36.484   8.443  43.403  1.00  0.00    -0.016 C 
HETATM   14  C1  UNL     1     -36.905   7.895  42.052  1.00  0.00     0.010 C 
HETATM   15  C3  UNL     1     -35.931   9.794  43.139  1.00  0.00     0.010 C 
ENDBRANCH   1  13
BRANCH   6  16
HETATM   16  O1  UNL     1     -38.599   5.996  46.983  1.00  0.00    -0.393 OA
ATOM     17  H1  UNL     1     -38.567   6.261  47.895  1.00  0.00     0.210 HD
ENDBRANCH   6  16
TORSDOF 3
ENDMDL
