MODEL 1
REMARK VINA RESULT: -9.136872207      0.000      0.000
REMARK  12 active torsions:
REMARK  status: ('A' for Active; 'I' for Inactive)
REMARK       I    between atoms: C2_2  and  N1_4 
REMARK    1  A    between atoms: C3_6  and  S1_7 
REMARK    2  A    between atoms: C3_6  and  C7_14 
REMARK    3  A    between atoms: S1_7  and  C4_8 
REMARK    4  A    between atoms: C4_8  and  C5_9 
REMARK    5  A    between atoms: C5_9  and  C6_11 
REMARK    6  A    between atoms: C7_14  and  C21_28 
REMARK    7  A    between atoms: C8_15  and  C9_16 
REMARK    8  A    between atoms: C9_16  and  C10_17 
REMARK    9  A    between atoms: C10_17  and  C12_19 
REMARK   10  A    between atoms: C13_20  and  C14_21 
REMARK   11  A    between atoms: C21_28  and  C22_29 
REMARK   12  A    between atoms: C22_29  and  C23_30 
ROOT
HETATM    1  C7  UNL     1      -1.332   9.801 -24.289  1.00  0.00    -0.028 C 
HETATM    2  C8  UNL     1      -2.253  10.691 -24.031  1.00  0.00    -0.016 C 
ENDROOT
BRANCH   1   3
HETATM    3  C3  UNL     1      -0.376   9.859 -25.380  1.00  0.00     0.078 C 
HETATM    4  N1  UNL     1       0.441   8.803 -25.431  1.00  0.00    -0.321 N 
HETATM    5  C2  UNL     1       1.444   8.682 -26.402  1.00  0.00     0.218 C 
ATOM      6  H1  UNL     1       0.330   8.060 -24.741  1.00  0.00     0.169 HD
HETATM    7  C1  UNL     1       1.213   8.011 -27.695  1.00  0.00     0.117 C 
HETATM    8  O1  UNL     1       2.575   9.159 -26.164  1.00  0.00    -0.274 OA
BRANCH   3   9
HETATM    9  S1  UNL     1      -0.080  11.040 -26.606  1.00  0.00    -0.104 SA
BRANCH   9  10
HETATM   10  C4  UNL     1       1.016  12.366 -26.271  1.00  0.00     0.171 C 
BRANCH  10  11
HETATM   11  C5  UNL     1       0.315  13.706 -26.376  1.00  0.00     0.234 C 
HETATM   12  O2  UNL     1      -0.125  14.041 -27.501  1.00  0.00    -0.285 OA
BRANCH  11  13
HETATM   13  C6  UNL     1       0.184  14.530 -25.191  1.00  0.00     0.247 C 
HETATM   14  O3  UNL     1       1.117  14.548 -24.352  1.00  0.00    -0.642 OA
HETATM   15  O4  UNL     1      -0.922  15.310 -24.930  1.00  0.00    -0.642 OA
ENDBRANCH  11  13
ENDBRANCH  10  11
ENDBRANCH   9  10
ENDBRANCH   3   9
ENDBRANCH   1   3
BRANCH   1  16
HETATM   16  C21 UNL     1      -1.240   8.669 -23.295  1.00  0.00     0.051 C 
BRANCH  16  17
HETATM   17  C22 UNL     1      -2.414   7.767 -23.383  1.00  0.00     0.118 C 
BRANCH  17  18
HETATM   18  C23 UNL     1      -2.096   6.587 -24.250  1.00  0.00     0.172 C 
HETATM   19  O5  UNL     1      -0.938   6.387 -24.678  1.00  0.00    -0.648 OA
HETATM   20  O6  UNL     1      -3.154   5.736 -24.547  1.00  0.00    -0.648 OA
ENDBRANCH  17  18
ENDBRANCH  16  17
ENDBRANCH   1  16
BRANCH   2  21
HETATM   21  C9  UNL     1      -3.235  10.664 -22.942  1.00  0.00     0.036 C 
BRANCH  21  22
HETATM   22  C10 UNL     1      -3.924  12.015 -22.883  1.00  0.00     0.007 C 
HETATM   23  C11 UNL     1      -3.523  12.949 -23.977  1.00  0.00     0.014 C 
BRANCH  22  24
HETATM   24  C12 UNL     1      -5.386  11.945 -22.777  1.00  0.00    -0.022 C 
HETATM   25  C13 UNL     1      -6.030  11.189 -21.912  1.00  0.00     0.004 C 
BRANCH  25  26
HETATM   26  C14 UNL     1      -7.471  11.102 -21.785  1.00  0.00    -0.056 C 
HETATM   27  C15 UNL     1      -8.000  10.262 -20.906  1.00  0.00    -0.077 C 
HETATM   28  C16 UNL     1      -7.103   9.422 -20.061  1.00  0.00     0.044 C 
HETATM   29  C17 UNL     1      -9.464  10.111 -20.716  1.00  0.00     0.034 C 
HETATM   30  C18 UNL     1     -10.269  10.778 -21.789  1.00  0.00     0.005 C 
HETATM   31  C19 UNL     1      -9.700  12.118 -22.118  1.00  0.00     0.005 C 
HETATM   32  C20 UNL     1      -8.284  11.974 -22.657  1.00  0.00     0.039 C 
ENDBRANCH  25  26
ENDBRANCH  22  24
ENDBRANCH  21  22
ENDBRANCH   2  21
TORSDOF 12
ENDMDL
MODEL 2
REMARK VINA RESULT: -9.135685497      1.311      1.766
REMARK  12 active torsions:
REMARK  status: ('A' for Active; 'I' for Inactive)
REMARK       I    between atoms: C2_2  and  N1_4 
REMARK    1  A    between atoms: C3_6  and  S1_7 
REMARK    2  A    between atoms: C3_6  and  C7_14 
REMARK    3  A    between atoms: S1_7  and  C4_8 
REMARK    4  A    between atoms: C4_8  and  C5_9 
REMARK    5  A    between atoms: C5_9  and  C6_11 
REMARK    6  A    between atoms: C7_14  and  C21_28 
REMARK    7  A    between atoms: C8_15  and  C9_16 
REMARK    8  A    between atoms: C9_16  and  C10_17 
REMARK    9  A    between atoms: C10_17  and  C12_19 
REMARK   10  A    between atoms: C13_20  and  C14_21 
REMARK   11  A    between atoms: C21_28  and  C22_29 
REMARK   12  A    between atoms: C22_29  and  C23_30 
ROOT
HETATM    1  C7  UNL     1      -1.236  10.416 -24.807  1.00  0.00    -0.028 C 
HETATM    2  C8  UNL     1      -2.302  11.074 -24.437  1.00  0.00    -0.016 C 
ENDROOT
BRANCH   1   3
HETATM    3  C3  UNL     1      -0.358  10.771 -25.907  1.00  0.00     0.078 C 
HETATM    4  N1  UNL     1      -0.397   9.904 -26.922  1.00  0.00    -0.321 N 
HETATM    5  C2  UNL     1       0.392  10.063 -28.070  1.00  0.00     0.218 C 
ATOM      6  H1  UNL     1      -1.022   9.100 -26.862  1.00  0.00     0.169 HD
HETATM    7  C1  UNL     1      -0.081  10.800 -29.257  1.00  0.00     0.117 C 
HETATM    8  O1  UNL     1       1.538   9.562 -28.088  1.00  0.00    -0.274 OA
BRANCH   3   9
HETATM    9  S1  UNL     1       0.741  12.084 -26.141  1.00  0.00    -0.104 SA
BRANCH   9  10
HETATM   10  C4  UNL     1       0.116  13.649 -26.622  1.00  0.00     0.171 C 
BRANCH  10  11
HETATM   11  C5  UNL     1      -0.024  14.579 -25.432  1.00  0.00     0.234 C 
HETATM   12  O2  UNL     1       0.818  14.470 -24.511  1.00  0.00    -0.285 OA
BRANCH  11  13
HETATM   13  C6  UNL     1      -1.109  15.539 -25.410  1.00  0.00     0.247 C 
HETATM   14  O3  UNL     1      -2.125  15.332 -26.117  1.00  0.00    -0.642 OA
HETATM   15  O4  UNL     1      -1.091  16.686 -24.644  1.00  0.00    -0.642 OA
ENDBRANCH  11  13
ENDBRANCH  10  11
ENDBRANCH   9  10
ENDBRANCH   3   9
ENDBRANCH   1   3
BRANCH   1  16
HETATM   16  C21 UNL     1      -0.880   9.235 -23.938  1.00  0.00     0.051 C 
BRANCH  16  17
HETATM   17  C22 UNL     1      -1.276   7.952 -24.570  1.00  0.00     0.118 C 
BRANCH  17  18
HETATM   18  C23 UNL     1      -0.065   7.115 -24.846  1.00  0.00     0.172 C 
HETATM   19  O5  UNL     1      -0.127   5.865 -24.859  1.00  0.00    -0.648 OA
HETATM   20  O6  UNL     1       1.118   7.801 -25.088  1.00  0.00    -0.648 OA
ENDBRANCH  17  18
ENDBRANCH  16  17
ENDBRANCH   1  16
BRANCH   2  21
HETATM   21  C9  UNL     1      -3.213  10.745 -23.335  1.00  0.00     0.036 C 
BRANCH  21  22
HETATM   22  C10 UNL     1      -3.958  12.004 -22.935  1.00  0.00     0.007 C 
HETATM   23  C11 UNL     1      -3.598  13.206 -23.745  1.00  0.00     0.014 C 
BRANCH  22  24
HETATM   24  C12 UNL     1      -5.416  11.850 -22.865  1.00  0.00    -0.022 C 
HETATM   25  C13 UNL     1      -6.054  11.304 -21.850  1.00  0.00     0.004 C 
BRANCH  25  26
HETATM   26  C14 UNL     1      -7.491  11.140 -21.754  1.00  0.00    -0.056 C 
HETATM   27  C15 UNL     1      -7.992  10.255 -20.903  1.00  0.00    -0.077 C 
HETATM   28  C16 UNL     1      -7.069   9.445 -20.057  1.00  0.00     0.044 C 
HETATM   29  C17 UNL     1      -9.449  10.025 -20.747  1.00  0.00     0.034 C 
HETATM   30  C18 UNL     1     -10.267  10.671 -21.822  1.00  0.00     0.005 C 
HETATM   31  C19 UNL     1      -9.762  12.046 -22.112  1.00  0.00     0.005 C 
HETATM   32  C20 UNL     1      -8.331  11.987 -22.625  1.00  0.00     0.039 C 
ENDBRANCH  25  26
ENDBRANCH  22  24
ENDBRANCH  21  22
ENDBRANCH   2  21
TORSDOF 12
ENDMDL
MODEL 3
REMARK VINA RESULT: -9.009139427      1.630      2.387
REMARK  12 active torsions:
REMARK  status: ('A' for Active; 'I' for Inactive)
REMARK       I    between atoms: C2_2  and  N1_4 
REMARK    1  A    between atoms: C3_6  and  S1_7 
REMARK    2  A    between atoms: C3_6  and  C7_14 
REMARK    3  A    between atoms: S1_7  and  C4_8 
REMARK    4  A    between atoms: C4_8  and  C5_9 
REMARK    5  A    between atoms: C5_9  and  C6_11 
REMARK    6  A    between atoms: C7_14  and  C21_28 
REMARK    7  A    between atoms: C8_15  and  C9_16 
REMARK    8  A    between atoms: C9_16  and  C10_17 
REMARK    9  A    between atoms: C10_17  and  C12_19 
REMARK   10  A    between atoms: C13_20  and  C14_21 
REMARK   11  A    between atoms: C21_28  and  C22_29 
REMARK   12  A    between atoms: C22_29  and  C23_30 
ROOT
HETATM    1  C7  UNL     1      -1.113  10.251 -25.342  1.00  0.00    -0.028 C 
HETATM    2  C8  UNL     1      -1.746  10.908 -24.408  1.00  0.00    -0.016 C 
ENDROOT
BRANCH   1   3
HETATM    3  C3  UNL     1      -0.241  10.831 -26.347  1.00  0.00     0.078 C 
HETATM    4  N1  UNL     1      -0.184  10.124 -27.479  1.00  0.00    -0.321 N 
HETATM    5  C2  UNL     1       0.616  10.510 -28.562  1.00  0.00     0.218 C 
ATOM      6  H1  UNL     1      -0.742   9.273 -27.557  1.00  0.00     0.169 HD
HETATM    7  C1  UNL     1       0.111  11.376 -29.645  1.00  0.00     0.117 C 
HETATM    8  O1  UNL     1       1.799  10.109 -28.612  1.00  0.00    -0.274 OA
BRANCH   3   9
HETATM    9  S1  UNL     1       0.751  12.246 -26.349  1.00  0.00    -0.104 SA
BRANCH   9  10
HETATM   10  C4  UNL     1       0.022  13.803 -26.690  1.00  0.00     0.171 C 
BRANCH  10  11
HETATM   11  C5  UNL     1      -0.111  14.640 -25.432  1.00  0.00     0.234 C 
HETATM   12  O2  UNL     1       0.770  14.503 -24.552  1.00  0.00    -0.285 OA
BRANCH  11  13
HETATM   13  C6  UNL     1      -1.234  15.547 -25.303  1.00  0.00     0.247 C 
HETATM   14  O3  UNL     1      -2.335  15.234 -25.814  1.00  0.00    -0.642 OA
HETATM   15  O4  UNL     1      -1.160  16.753 -24.639  1.00  0.00    -0.642 OA
ENDBRANCH  11  13
ENDBRANCH  10  11
ENDBRANCH   9  10
ENDBRANCH   3   9
ENDBRANCH   1   3
BRANCH   1  16
HETATM   16  C21 UNL     1      -1.268   8.751 -25.287  1.00  0.00     0.051 C 
BRANCH  16  17
HETATM   17  C22 UNL     1      -0.192   8.119 -24.485  1.00  0.00     0.118 C 
BRANCH  17  18
HETATM   18  C23 UNL     1       0.613   7.188 -25.339  1.00  0.00     0.172 C 
HETATM   19  O5  UNL     1       1.053   7.545 -26.455  1.00  0.00    -0.648 OA
HETATM   20  O6  UNL     1       0.839   5.918 -24.824  1.00  0.00    -0.648 OA
ENDBRANCH  17  18
ENDBRANCH  16  17
ENDBRANCH   1  16
BRANCH   2  21
HETATM   21  C9  UNL     1      -2.635  10.357 -23.380  1.00  0.00     0.036 C 
BRANCH  21  22
HETATM   22  C10 UNL     1      -3.577  11.453 -22.920  1.00  0.00     0.007 C 
HETATM   23  C11 UNL     1      -3.710  12.584 -23.887  1.00  0.00     0.014 C 
BRANCH  22  24
HETATM   24  C12 UNL     1      -4.900  10.979 -22.499  1.00  0.00    -0.022 C 
HETATM   25  C13 UNL     1      -5.853  11.760 -22.034  1.00  0.00     0.004 C 
BRANCH  25  26
HETATM   26  C14 UNL     1      -7.168  11.319 -21.613  1.00  0.00    -0.056 C 
HETATM   27  C15 UNL     1      -8.246  11.872 -22.151  1.00  0.00    -0.077 C 
HETATM   28  C16 UNL     1      -8.088  12.939 -23.182  1.00  0.00     0.044 C 
HETATM   29  C17 UNL     1      -9.626  11.481 -21.773  1.00  0.00     0.034 C 
HETATM   30  C18 UNL     1      -9.680  10.620 -20.549  1.00  0.00     0.005 C 
HETATM   31  C19 UNL     1      -8.601   9.588 -20.583  1.00  0.00     0.005 C 
HETATM   32  C20 UNL     1      -7.234  10.254 -20.591  1.00  0.00     0.039 C 
ENDBRANCH  25  26
ENDBRANCH  22  24
ENDBRANCH  21  22
ENDBRANCH   2  21
TORSDOF 12
ENDMDL
MODEL 4
REMARK VINA RESULT: -8.957074066      0.573      1.127
REMARK  12 active torsions:
REMARK  status: ('A' for Active; 'I' for Inactive)
REMARK       I    between atoms: C2_2  and  N1_4 
REMARK    1  A    between atoms: C3_6  and  S1_7 
REMARK    2  A    between atoms: C3_6  and  C7_14 
REMARK    3  A    between atoms: S1_7  and  C4_8 
REMARK    4  A    between atoms: C4_8  and  C5_9 
REMARK    5  A    between atoms: C5_9  and  C6_11 
REMARK    6  A    between atoms: C7_14  and  C21_28 
REMARK    7  A    between atoms: C8_15  and  C9_16 
REMARK    8  A    between atoms: C9_16  and  C10_17 
REMARK    9  A    between atoms: C10_17  and  C12_19 
REMARK   10  A    between atoms: C13_20  and  C14_21 
REMARK   11  A    between atoms: C21_28  and  C22_29 
REMARK   12  A    between atoms: C22_29  and  C23_30 
ROOT
HETATM    1  C7  UNL     1      -1.346   9.926 -24.315  1.00  0.00    -0.028 C 
HETATM    2  C8  UNL     1      -2.294  10.789 -24.062  1.00  0.00    -0.016 C 
ENDROOT
BRANCH   1   3
HETATM    3  C3  UNL     1      -0.406   9.996 -25.420  1.00  0.00     0.078 C 
HETATM    4  N1  UNL     1       0.461   8.981 -25.448  1.00  0.00    -0.321 N 
HETATM    5  C2  UNL     1       1.458   8.878 -26.428  1.00  0.00     0.218 C 
ATOM      6  H1  UNL     1       0.395   8.255 -24.734  1.00  0.00     0.169 HD
HETATM    7  C1  UNL     1       1.245   8.155 -27.697  1.00  0.00     0.117 C 
HETATM    8  O1  UNL     1       2.566   9.417 -26.220  1.00  0.00    -0.274 OA
BRANCH   3   9
HETATM    9  S1  UNL     1      -0.184  11.151 -26.686  1.00  0.00    -0.104 SA
BRANCH   9  10
HETATM   10  C4  UNL     1       0.754  12.598 -26.370  1.00  0.00     0.171 C 
BRANCH  10  11
HETATM   11  C5  UNL     1      -0.139  13.772 -26.021  1.00  0.00     0.234 C 
HETATM   12  O2  UNL     1      -0.328  14.013 -24.806  1.00  0.00    -0.285 OA
BRANCH  11  13
HETATM   13  C6  UNL     1      -0.728  14.554 -27.089  1.00  0.00     0.247 C 
HETATM   14  O3  UNL     1      -1.364  15.597 -26.805  1.00  0.00    -0.642 OA
HETATM   15  O4  UNL     1      -0.627  14.213 -28.421  1.00  0.00    -0.642 OA
ENDBRANCH  11  13
ENDBRANCH  10  11
ENDBRANCH   9  10
ENDBRANCH   3   9
ENDBRANCH   1   3
BRANCH   1  16
HETATM   16  C21 UNL     1      -1.201   8.819 -23.301  1.00  0.00     0.051 C 
BRANCH  16  17
HETATM   17  C22 UNL     1      -2.338   7.868 -23.363  1.00  0.00     0.118 C 
BRANCH  17  18
HETATM   18  C23 UNL     1      -1.994   6.704 -24.242  1.00  0.00     0.172 C 
HETATM   19  O5  UNL     1      -0.825   6.521 -24.650  1.00  0.00    -0.648 OA
HETATM   20  O6  UNL     1      -3.037   5.849 -24.570  1.00  0.00    -0.648 OA
ENDBRANCH  17  18
ENDBRANCH  16  17
ENDBRANCH   1  16
BRANCH   2  21
HETATM   21  C9  UNL     1      -3.260  10.750 -22.960  1.00  0.00     0.036 C 
BRANCH  21  22
HETATM   22  C10 UNL     1      -3.972  12.088 -22.896  1.00  0.00     0.007 C 
HETATM   23  C11 UNL     1      -3.588  13.032 -23.988  1.00  0.00     0.014 C 
BRANCH  22  24
HETATM   24  C12 UNL     1      -5.432  11.994 -22.786  1.00  0.00    -0.022 C 
HETATM   25  C13 UNL     1      -6.061  11.240 -21.908  1.00  0.00     0.004 C 
BRANCH  25  26
HETATM   26  C14 UNL     1      -7.500  11.130 -21.777  1.00  0.00    -0.056 C 
HETATM   27  C15 UNL     1      -8.013  10.274 -20.904  1.00  0.00    -0.077 C 
HETATM   28  C16 UNL     1      -7.100   9.440 -20.070  1.00  0.00     0.044 C 
HETATM   29  C17 UNL     1      -9.474  10.098 -20.712  1.00  0.00     0.034 C 
HETATM   30  C18 UNL     1     -10.292  10.762 -21.776  1.00  0.00     0.005 C 
HETATM   31  C19 UNL     1      -9.746  12.114 -22.094  1.00  0.00     0.005 C 
HETATM   32  C20 UNL     1      -8.330  11.997 -22.638  1.00  0.00     0.039 C 
ENDBRANCH  25  26
ENDBRANCH  22  24
ENDBRANCH  21  22
ENDBRANCH   2  21
TORSDOF 12
ENDMDL
MODEL 5
REMARK VINA RESULT: -8.942579904      1.384      1.617
REMARK  12 active torsions:
REMARK  status: ('A' for Active; 'I' for Inactive)
REMARK       I    between atoms: C2_2  and  N1_4 
REMARK    1  A    between atoms: C3_6  and  S1_7 
REMARK    2  A    between atoms: C3_6  and  C7_14 
REMARK    3  A    between atoms: S1_7  and  C4_8 
REMARK    4  A    between atoms: C4_8  and  C5_9 
REMARK    5  A    between atoms: C5_9  and  C6_11 
REMARK    6  A    between atoms: C7_14  and  C21_28 
REMARK    7  A    between atoms: C8_15  and  C9_16 
REMARK    8  A    between atoms: C9_16  and  C10_17 
REMARK    9  A    between atoms: C10_17  and  C12_19 
REMARK   10  A    between atoms: C13_20  and  C14_21 
REMARK   11  A    between atoms: C21_28  and  C22_29 
REMARK   12  A    between atoms: C22_29  and  C23_30 
ROOT
HETATM    1  C7  UNL     1      -1.008  10.602 -24.668  1.00  0.00    -0.028 C 
HETATM    2  C8  UNL     1      -2.086  11.216 -24.259  1.00  0.00    -0.016 C 
ENDROOT
BRANCH   1   3
HETATM    3  C3  UNL     1      -0.034  11.130 -25.606  1.00  0.00     0.078 C 
HETATM    4  N1  UNL     1       0.922  10.256 -25.931  1.00  0.00    -0.321 N 
HETATM    5  C2  UNL     1       1.964  10.581 -26.810  1.00  0.00     0.218 C 
ATOM      6  H1  UNL     1       0.893   9.319 -25.527  1.00  0.00     0.169 HD
HETATM    7  C1  UNL     1       1.870  10.351 -28.264  1.00  0.00     0.117 C 
HETATM    8  O1  UNL     1       3.010  11.086 -26.346  1.00  0.00    -0.274 OA
BRANCH   3   9
HETATM    9  S1  UNL     1       0.136  12.675 -26.361  1.00  0.00    -0.104 SA
BRANCH   9  10
HETATM   10  C4  UNL     1      -0.312  14.117 -25.470  1.00  0.00     0.171 C 
BRANCH  10  11
HETATM   11  C5  UNL     1      -0.998  15.130 -26.366  1.00  0.00     0.234 C 
HETATM   12  O2  UNL     1      -1.105  14.847 -27.582  1.00  0.00    -0.285 OA
BRANCH  11  13
HETATM   13  C6  UNL     1      -1.493  16.363 -25.788  1.00  0.00     0.247 C 
HETATM   14  O3  UNL     1      -1.327  16.574 -24.562  1.00  0.00    -0.642 OA
HETATM   15  O4  UNL     1      -2.144  17.335 -26.518  1.00  0.00    -0.642 OA
ENDBRANCH  11  13
ENDBRANCH  10  11
ENDBRANCH   9  10
ENDBRANCH   3   9
ENDBRANCH   1   3
BRANCH   1  16
HETATM   16  C21 UNL     1      -0.752   9.262 -24.024  1.00  0.00     0.051 C 
BRANCH  16  17
HETATM   17  C22 UNL     1      -1.156   8.143 -24.911  1.00  0.00     0.118 C 
BRANCH  17  18
HETATM   18  C23 UNL     1      -0.109   7.071 -24.902  1.00  0.00     0.172 C 
HETATM   19  O5  UNL     1       1.106   7.348 -24.787  1.00  0.00    -0.648 OA
HETATM   20  O6  UNL     1      -0.563   5.764 -25.025  1.00  0.00    -0.648 OA
ENDBRANCH  17  18
ENDBRANCH  16  17
ENDBRANCH   1  16
BRANCH   2  21
HETATM   21  C9  UNL     1      -3.091  10.715 -23.316  1.00  0.00     0.036 C 
BRANCH  21  22
HETATM   22  C10 UNL     1      -3.983  11.871 -22.903  1.00  0.00     0.007 C 
HETATM   23  C11 UNL     1      -3.734  13.131 -23.666  1.00  0.00     0.014 C 
BRANCH  22  24
HETATM   24  C12 UNL     1      -5.415  11.556 -22.884  1.00  0.00    -0.022 C 
HETATM   25  C13 UNL     1      -6.163  11.573 -21.800  1.00  0.00     0.004 C 
BRANCH  25  26
HETATM   26  C14 UNL     1      -7.579  11.268 -21.753  1.00  0.00    -0.056 C 
HETATM   27  C15 UNL     1      -8.011  10.292 -20.967  1.00  0.00    -0.077 C 
HETATM   28  C16 UNL     1      -7.034   9.525 -20.141  1.00  0.00     0.044 C 
HETATM   29  C17 UNL     1      -9.443   9.915 -20.864  1.00  0.00     0.034 C 
HETATM   30  C18 UNL     1     -10.294  10.541 -21.925  1.00  0.00     0.005 C 
HETATM   31  C19 UNL     1      -9.919  11.973 -22.124  1.00  0.00     0.005 C 
HETATM   32  C20 UNL     1      -8.477  12.079 -22.599  1.00  0.00     0.039 C 
ENDBRANCH  25  26
ENDBRANCH  22  24
ENDBRANCH  21  22
ENDBRANCH   2  21
TORSDOF 12
ENDMDL
