MODEL 1
REMARK VINA RESULT: -7.608765651      0.000      0.000
REMARK  13 active torsions:
REMARK  status: ('A' for Active; 'I' for Inactive)
REMARK    1  A    between atoms: C2_2  and  C3_3 
REMARK    2  A    between atoms: C3_3  and  C4_4 
REMARK    3  A    between atoms: C4_4  and  C5_5 
REMARK    4  A    between atoms: C9_12  and  C10_13 
REMARK    5  A    between atoms: C10_13  and  C11_14 
REMARK    6  A    between atoms: C11_14  and  C12_15 
REMARK    7  A    between atoms: C12_15  and  O4_16 
REMARK    8  A    between atoms: C12_15  and  C13_18 
REMARK    9  A    between atoms: C13_18  and  C14_19 
REMARK   10  A    between atoms: C13_18  and  C21_26 
REMARK   11  A    between atoms: C14_19  and  C15_20 
REMARK   12  A    between atoms: C21_26  and  N1_28 
REMARK   13  A    between atoms: N1_28  and  C22_30 
ROOT
HETATM    1  C12 UNL     1      -0.604  10.417 -26.575  1.00  0.00     0.056 C 
ENDROOT
BRANCH   1   2
HETATM    2  C11 UNL     1       0.402  11.388 -26.991  1.00  0.00     0.068 C 
BRANCH   2   3
HETATM    3  C10 UNL     1       0.133  12.277 -28.157  1.00  0.00     0.039 C 
BRANCH   3   4
HETATM    4  C9  UNL     1       0.063  13.779 -27.760  1.00  0.00     0.133 C 
HETATM    5  O3  UNL     1       0.570  14.439 -28.848  1.00  0.00    -0.383 OA
HETATM    6  C8  UNL     1       1.813  14.891 -28.585  1.00  0.00     0.201 C 
HETATM    7  C7  UNL     1       2.140  14.707 -27.151  1.00  0.00     0.167 C 
HETATM    8  O2  UNL     1       2.303  15.865 -26.393  1.00  0.00    -0.309 OA
HETATM    9  C25 UNL     1       0.903  13.983 -26.585  1.00  0.00     0.085 C 
HETATM   10  C6  UNL     1       1.418  15.886 -25.323  1.00  0.00     0.290 C 
HETATM   11  C5  UNL     1       0.449  14.766 -25.442  1.00  0.00     0.026 C 
HETATM   12  O1  UNL     1       1.454  16.736 -24.404  1.00  0.00    -0.260 OA
BRANCH  11  13
HETATM   13  C4  UNL     1      -0.944  15.093 -25.187  1.00  0.00     0.013 C 
BRANCH  13  14
HETATM   14  C3  UNL     1      -1.519  16.369 -25.543  1.00  0.00    -0.004 C 
BRANCH  14  15
HETATM   15  C2  UNL     1      -1.916  16.832 -26.699  1.00  0.00    -0.031 C 
HETATM   16  C1  UNL     1      -0.983  17.471 -27.689  1.00  0.00     0.036 C 
ENDBRANCH  14  15
ENDBRANCH  13  14
ENDBRANCH  11  13
ENDBRANCH   3   4
ENDBRANCH   2   3
ENDBRANCH   1   2
BRANCH   1  17
HETATM   17  O4  UNL     1      -1.077   9.641 -27.630  1.00  0.00    -0.364 OA
ATOM     18  H4  UNL     1      -1.787   9.063 -27.375  1.00  0.00     0.217 HD
ENDBRANCH   1  17
BRANCH   1  19
HETATM   19  C13 UNL     1      -0.575   9.689 -25.307  1.00  0.00     0.027 C 
BRANCH  19  20
HETATM   20  C14 UNL     1      -1.163  10.210 -24.069  1.00  0.00    -0.005 C 
BRANCH  20  21
HETATM   21  C15 UNL     1      -2.572  10.689 -23.998  1.00  0.00     0.009 C 
HETATM   22  C16 UNL     1      -2.419  12.269 -23.985  1.00  0.00     0.008 C 
HETATM   23  C17 UNL     1      -3.756  12.906 -24.039  1.00  0.00     0.001 C 
HETATM   24  C18 UNL     1      -4.499  12.564 -22.749  1.00  0.00     0.000 C 
HETATM   25  C19 UNL     1      -4.676  11.062 -22.776  1.00  0.00     0.001 C 
HETATM   26  C20 UNL     1      -3.279  10.447 -22.708  1.00  0.00     0.008 C 
ENDBRANCH  20  21
ENDBRANCH  19  20
BRANCH  19  27
HETATM   27  C21 UNL     1      -0.509   8.213 -25.409  1.00  0.00     0.109 C 
HETATM   28  S1  UNL     1       0.907   7.455 -25.445  1.00  0.00    -0.060 SA
BRANCH  27  29
HETATM   29  N1  UNL     1      -1.680   7.452 -25.433  1.00  0.00    -0.376 N 
ATOM     30  H1  UNL     1      -2.416   7.717 -26.087  1.00  0.00     0.160 HD
BRANCH  29  31
HETATM   31  C22 UNL     1      -1.902   6.301 -24.571  1.00  0.00     0.074 C 
HETATM   32  C23 UNL     1      -2.447   5.181 -25.415  1.00  0.00     0.031 C 
HETATM   33  C24 UNL     1      -2.786   6.646 -23.400  1.00  0.00     0.031 C 
ENDBRANCH  29  31
ENDBRANCH  27  29
ENDBRANCH  19  27
ENDBRANCH   1  19
TORSDOF 13
ENDMDL
MODEL 2
REMARK VINA RESULT: -7.477774281      1.689      2.702
REMARK  13 active torsions:
REMARK  status: ('A' for Active; 'I' for Inactive)
REMARK    1  A    between atoms: C2_2  and  C3_3 
REMARK    2  A    between atoms: C3_3  and  C4_4 
REMARK    3  A    between atoms: C4_4  and  C5_5 
REMARK    4  A    between atoms: C9_12  and  C10_13 
REMARK    5  A    between atoms: C10_13  and  C11_14 
REMARK    6  A    between atoms: C11_14  and  C12_15 
REMARK    7  A    between atoms: C12_15  and  O4_16 
REMARK    8  A    between atoms: C12_15  and  C13_18 
REMARK    9  A    between atoms: C13_18  and  C14_19 
REMARK   10  A    between atoms: C13_18  and  C21_26 
REMARK   11  A    between atoms: C14_19  and  C15_20 
REMARK   12  A    between atoms: C21_26  and  N1_28 
REMARK   13  A    between atoms: N1_28  and  C22_30 
ROOT
HETATM    1  C12 UNL     1      -0.590  11.171 -26.061  1.00  0.00     0.056 C 
ENDROOT
BRANCH   1   2
HETATM    2  C11 UNL     1       0.353  12.283 -26.104  1.00  0.00     0.068 C 
BRANCH   2   3
HETATM    3  C10 UNL     1      -0.003  13.526 -26.846  1.00  0.00     0.039 C 
BRANCH   3   4
HETATM    4  C9  UNL     1       0.186  14.810 -25.988  1.00  0.00     0.133 C 
HETATM    5  O3  UNL     1      -0.715  14.668 -24.966  1.00  0.00    -0.383 OA
HETATM    6  C8  UNL     1      -1.768  15.489 -25.151  1.00  0.00     0.201 C 
HETATM    7  C7  UNL     1      -1.512  16.416 -26.280  1.00  0.00     0.167 C 
HETATM    8  O2  UNL     1      -1.392  17.768 -25.964  1.00  0.00    -0.309 OA
HETATM    9  C25 UNL     1      -0.139  15.967 -26.816  1.00  0.00     0.085 C 
HETATM   10  C6  UNL     1      -0.164  18.266 -26.377  1.00  0.00     0.290 C 
HETATM   11  C5  UNL     1       0.705  17.154 -26.843  1.00  0.00     0.026 C 
HETATM   12  O1  UNL     1       0.141  19.479 -26.351  1.00  0.00    -0.260 OA
BRANCH  11  13
HETATM   13  C4  UNL     1       2.082  17.179 -26.378  1.00  0.00     0.013 C 
BRANCH  13  14
HETATM   14  C3  UNL     1       2.429  17.391 -24.993  1.00  0.00    -0.004 C 
BRANCH  14  15
HETATM   15  C2  UNL     1       3.325  18.172 -24.449  1.00  0.00    -0.031 C 
HETATM   16  C1  UNL     1       3.039  19.592 -24.050  1.00  0.00     0.036 C 
ENDBRANCH  14  15
ENDBRANCH  13  14
ENDBRANCH  11  13
ENDBRANCH   3   4
ENDBRANCH   2   3
ENDBRANCH   1   2
BRANCH   1  17
HETATM   17  O4  UNL     1      -0.843  10.626 -27.316  1.00  0.00    -0.364 OA
ATOM     18  H4  UNL     1      -1.523  11.091 -27.791  1.00  0.00     0.217 HD
ENDBRANCH   1  17
BRANCH   1  19
HETATM   19  C13 UNL     1      -0.644  10.174 -24.991  1.00  0.00     0.027 C 
BRANCH  19  20
HETATM   20  C14 UNL     1      -1.367  10.386 -23.733  1.00  0.00    -0.005 C 
BRANCH  20  21
HETATM   21  C15 UNL     1      -2.823  10.701 -23.696  1.00  0.00     0.009 C 
HETATM   22  C16 UNL     1      -2.852  12.288 -23.671  1.00  0.00     0.008 C 
HETATM   23  C17 UNL     1      -4.251  12.769 -23.757  1.00  0.00     0.001 C 
HETATM   24  C18 UNL     1      -4.982  12.334 -22.488  1.00  0.00     0.000 C 
HETATM   25  C19 UNL     1      -4.985  10.823 -22.526  1.00  0.00     0.001 C 
HETATM   26  C20 UNL     1      -3.529  10.370 -22.426  1.00  0.00     0.008 C 
ENDBRANCH  20  21
ENDBRANCH  19  20
BRANCH  19  27
HETATM   27  C21 UNL     1      -0.501   8.763 -25.414  1.00  0.00     0.109 C 
HETATM   28  S1  UNL     1       0.940   8.164 -25.798  1.00  0.00    -0.060 SA
BRANCH  27  29
HETATM   29  N1  UNL     1      -1.611   7.917 -25.445  1.00  0.00    -0.376 N 
ATOM     30  H1  UNL     1      -2.403   8.178 -26.033  1.00  0.00     0.160 HD
BRANCH  29  31
HETATM   31  C22 UNL     1      -1.696   6.682 -24.680  1.00  0.00     0.074 C 
HETATM   32  C23 UNL     1      -2.080   5.573 -25.621  1.00  0.00     0.031 C 
HETATM   33  C24 UNL     1      -2.633   6.816 -23.508  1.00  0.00     0.031 C 
ENDBRANCH  29  31
ENDBRANCH  27  29
ENDBRANCH  19  27
ENDBRANCH   1  19
TORSDOF 13
ENDMDL
MODEL 3
REMARK VINA RESULT: -7.433381917      0.994      1.436
REMARK  13 active torsions:
REMARK  status: ('A' for Active; 'I' for Inactive)
REMARK    1  A    between atoms: C2_2  and  C3_3 
REMARK    2  A    between atoms: C3_3  and  C4_4 
REMARK    3  A    between atoms: C4_4  and  C5_5 
REMARK    4  A    between atoms: C9_12  and  C10_13 
REMARK    5  A    between atoms: C10_13  and  C11_14 
REMARK    6  A    between atoms: C11_14  and  C12_15 
REMARK    7  A    between atoms: C12_15  and  O4_16 
REMARK    8  A    between atoms: C12_15  and  C13_18 
REMARK    9  A    between atoms: C13_18  and  C14_19 
REMARK   10  A    between atoms: C13_18  and  C21_26 
REMARK   11  A    between atoms: C14_19  and  C15_20 
REMARK   12  A    between atoms: C21_26  and  N1_28 
REMARK   13  A    between atoms: N1_28  and  C22_30 
ROOT
HETATM    1  C12 UNL     1      -0.558  11.323 -25.974  1.00  0.00     0.056 C 
ENDROOT
BRANCH   1   2
HETATM    2  C11 UNL     1       0.386  12.432 -25.885  1.00  0.00     0.068 C 
BRANCH   2   3
HETATM    3  C10 UNL     1       0.793  13.157 -27.122  1.00  0.00     0.039 C 
BRANCH   3   4
HETATM    4  C9  UNL     1       0.458  14.674 -27.065  1.00  0.00     0.133 C 
HETATM    5  O3  UNL     1       1.601  15.289 -27.501  1.00  0.00    -0.383 OA
HETATM    6  C8  UNL     1       2.255  15.853 -26.466  1.00  0.00     0.201 C 
HETATM    7  C7  UNL     1       1.427  15.801 -25.238  1.00  0.00     0.167 C 
HETATM    8  O2  UNL     1       0.986  17.021 -24.729  1.00  0.00    -0.309 OA
HETATM    9  C25 UNL     1       0.169  15.029 -25.679  1.00  0.00     0.085 C 
HETATM   10  C6  UNL     1      -0.400  17.053 -24.652  1.00  0.00     0.290 C 
HETATM   11  C5  UNL     1      -0.975  15.857 -25.319  1.00  0.00     0.026 C 
HETATM   12  O1  UNL     1      -1.047  17.969 -24.094  1.00  0.00    -0.260 OA
BRANCH  11  13
HETATM   13  C4  UNL     1      -2.109  16.094 -26.196  1.00  0.00     0.013 C 
BRANCH  13  14
HETATM   14  C3  UNL     1      -2.208  17.264 -27.037  1.00  0.00    -0.004 C 
BRANCH  14  15
HETATM   15  C2  UNL     1      -1.568  17.583 -28.131  1.00  0.00    -0.031 C 
HETATM   16  C1  UNL     1      -0.245  18.295 -28.126  1.00  0.00     0.036 C 
ENDBRANCH  14  15
ENDBRANCH  13  14
ENDBRANCH  11  13
ENDBRANCH   3   4
ENDBRANCH   2   3
ENDBRANCH   1   2
BRANCH   1  17
HETATM   17  O4  UNL     1      -0.735  10.866 -27.277  1.00  0.00    -0.364 OA
ATOM     18  H4  UNL     1      -0.820   9.921 -27.329  1.00  0.00     0.217 HD
ENDBRANCH   1  17
BRANCH   1  19
HETATM   19  C13 UNL     1      -0.677  10.257 -24.980  1.00  0.00     0.027 C 
BRANCH  19  20
HETATM   20  C14 UNL     1      -1.450  10.397 -23.742  1.00  0.00    -0.005 C 
BRANCH  20  21
HETATM   21  C15 UNL     1      -2.885  10.797 -23.742  1.00  0.00     0.009 C 
HETATM   22  C16 UNL     1      -2.821  12.383 -23.691  1.00  0.00     0.008 C 
HETATM   23  C17 UNL     1      -4.187  12.946 -23.809  1.00  0.00     0.001 C 
HETATM   24  C18 UNL     1      -4.979  12.536 -22.569  1.00  0.00     0.000 C 
HETATM   25  C19 UNL     1      -5.071  11.029 -22.633  1.00  0.00     0.001 C 
HETATM   26  C20 UNL     1      -3.648  10.489 -22.499  1.00  0.00     0.008 C 
ENDBRANCH  20  21
ENDBRANCH  19  20
BRANCH  19  27
HETATM   27  C21 UNL     1      -0.541   8.875 -25.494  1.00  0.00     0.109 C 
HETATM   28  S1  UNL     1       0.864   8.348 -26.069  1.00  0.00    -0.060 SA
BRANCH  27  29
HETATM   29  N1  UNL     1      -1.622   7.993 -25.447  1.00  0.00    -0.376 N 
ATOM     30  H1  UNL     1      -2.466   8.232 -25.967  1.00  0.00     0.160 HD
BRANCH  29  31
HETATM   31  C22 UNL     1      -1.605   6.748 -24.693  1.00  0.00     0.074 C 
HETATM   32  C23 UNL     1      -1.878   5.618 -25.647  1.00  0.00     0.031 C 
HETATM   33  C24 UNL     1      -2.564   6.789 -23.531  1.00  0.00     0.031 C 
ENDBRANCH  29  31
ENDBRANCH  27  29
ENDBRANCH  19  27
ENDBRANCH   1  19
TORSDOF 13
ENDMDL
MODEL 4
REMARK VINA RESULT: -7.050910439      2.172      3.252
REMARK  13 active torsions:
REMARK  status: ('A' for Active; 'I' for Inactive)
REMARK    1  A    between atoms: C2_2  and  C3_3 
REMARK    2  A    between atoms: C3_3  and  C4_4 
REMARK    3  A    between atoms: C4_4  and  C5_5 
REMARK    4  A    between atoms: C9_12  and  C10_13 
REMARK    5  A    between atoms: C10_13  and  C11_14 
REMARK    6  A    between atoms: C11_14  and  C12_15 
REMARK    7  A    between atoms: C12_15  and  O4_16 
REMARK    8  A    between atoms: C12_15  and  C13_18 
REMARK    9  A    between atoms: C13_18  and  C14_19 
REMARK   10  A    between atoms: C13_18  and  C21_26 
REMARK   11  A    between atoms: C14_19  and  C15_20 
REMARK   12  A    between atoms: C21_26  and  N1_28 
REMARK   13  A    between atoms: N1_28  and  C22_30 
ROOT
HETATM    1  C12 UNL     1       0.101  11.786 -25.629  1.00  0.00     0.056 C 
ENDROOT
BRANCH   1   2
HETATM    2  C11 UNL     1      -0.163  13.158 -25.208  1.00  0.00     0.068 C 
BRANCH   2   3
HETATM    3  C10 UNL     1      -0.088  14.263 -26.206  1.00  0.00     0.039 C 
BRANCH   3   4
HETATM    4  C9  UNL     1      -0.214  15.669 -25.551  1.00  0.00     0.133 C 
HETATM    5  O3  UNL     1      -1.563  15.849 -25.397  1.00  0.00    -0.383 OA
HETATM    6  C8  UNL     1      -2.027  16.726 -26.308  1.00  0.00     0.201 C 
HETATM    7  C7  UNL     1      -0.904  17.360 -27.039  1.00  0.00     0.167 C 
HETATM    8  O2  UNL     1      -0.716  18.725 -26.836  1.00  0.00    -0.309 OA
HETATM    9  C25 UNL     1       0.344  16.655 -26.471  1.00  0.00     0.085 C 
HETATM   10  C6  UNL     1       0.560  18.983 -26.351  1.00  0.00     0.290 C 
HETATM   11  C5  UNL     1       1.244  17.707 -26.018  1.00  0.00     0.026 C 
HETATM   12  O1  UNL     1       1.039  20.132 -26.224  1.00  0.00    -0.260 OA
BRANCH  11  13
HETATM   13  C4  UNL     1       1.955  17.673 -24.750  1.00  0.00     0.013 C 
BRANCH  13  14
HETATM   14  C3  UNL     1       3.366  17.958 -24.645  1.00  0.00    -0.004 C 
BRANCH  14  15
HETATM   15  C2  UNL     1       4.227  18.348 -25.548  1.00  0.00    -0.031 C 
HETATM   16  C1  UNL     1       5.710  18.373 -25.307  1.00  0.00     0.036 C 
ENDBRANCH  14  15
ENDBRANCH  13  14
ENDBRANCH  11  13
ENDBRANCH   3   4
ENDBRANCH   2   3
ENDBRANCH   1   2
BRANCH   1  17
HETATM   17  O4  UNL     1       1.442  11.558 -25.923  1.00  0.00    -0.364 OA
ATOM     18  H4  UNL     1       1.631  10.644 -26.100  1.00  0.00     0.217 HD
ENDBRANCH   1  17
BRANCH   1  19
HETATM   19  C13 UNL     1      -0.564  10.609 -25.070  1.00  0.00     0.027 C 
BRANCH  19  20
HETATM   20  C14 UNL     1      -1.317  10.634 -23.813  1.00  0.00    -0.005 C 
BRANCH  20  21
HETATM   21  C15 UNL     1      -2.789  10.865 -23.771  1.00  0.00     0.009 C 
HETATM   22  C16 UNL     1      -2.907  12.446 -23.686  1.00  0.00     0.008 C 
HETATM   23  C17 UNL     1      -4.331  12.850 -23.761  1.00  0.00     0.001 C 
HETATM   24  C18 UNL     1      -5.040  12.327 -22.514  1.00  0.00     0.000 C 
HETATM   25  C19 UNL     1      -4.959  10.821 -22.610  1.00  0.00     0.001 C 
HETATM   26  C20 UNL     1      -3.480  10.447 -22.519  1.00  0.00     0.008 C 
ENDBRANCH  20  21
ENDBRANCH  19  20
BRANCH  19  27
HETATM   27  C21 UNL     1      -0.990   9.581 -26.047  1.00  0.00     0.109 C 
HETATM   28  S1  UNL     1      -0.655   9.748 -27.610  1.00  0.00    -0.060 SA
BRANCH  27  29
HETATM   29  N1  UNL     1      -1.652   8.429 -25.620  1.00  0.00    -0.376 N 
ATOM     30  H1  UNL     1      -2.611   8.517 -25.285  1.00  0.00     0.160 HD
BRANCH  29  31
HETATM   31  C22 UNL     1      -1.042   7.108 -25.630  1.00  0.00     0.074 C 
HETATM   32  C23 UNL     1      -2.009   6.140 -25.002  1.00  0.00     0.031 C 
HETATM   33  C24 UNL     1       0.309   7.113 -24.962  1.00  0.00     0.031 C 
ENDBRANCH  29  31
ENDBRANCH  27  29
ENDBRANCH  19  27
ENDBRANCH   1  19
TORSDOF 13
ENDMDL
MODEL 5
REMARK VINA RESULT: -7.047045548      1.804      3.347
REMARK  13 active torsions:
REMARK  status: ('A' for Active; 'I' for Inactive)
REMARK    1  A    between atoms: C2_2  and  C3_3 
REMARK    2  A    between atoms: C3_3  and  C4_4 
REMARK    3  A    between atoms: C4_4  and  C5_5 
REMARK    4  A    between atoms: C9_12  and  C10_13 
REMARK    5  A    between atoms: C10_13  and  C11_14 
REMARK    6  A    between atoms: C11_14  and  C12_15 
REMARK    7  A    between atoms: C12_15  and  O4_16 
REMARK    8  A    between atoms: C12_15  and  C13_18 
REMARK    9  A    between atoms: C13_18  and  C14_19 
REMARK   10  A    between atoms: C13_18  and  C21_26 
REMARK   11  A    between atoms: C14_19  and  C15_20 
REMARK   12  A    between atoms: C21_26  and  N1_28 
REMARK   13  A    between atoms: N1_28  and  C22_30 
ROOT
HETATM    1  C12 UNL     1       0.139  12.058 -26.056  1.00  0.00     0.056 C 
ENDROOT
BRANCH   1   2
HETATM    2  C11 UNL     1      -0.459  13.385 -26.152  1.00  0.00     0.068 C 
BRANCH   2   3
HETATM    3  C10 UNL     1      -0.061  14.447 -25.185  1.00  0.00     0.039 C 
BRANCH   3   4
HETATM    4  C9  UNL     1       0.253  15.803 -25.880  1.00  0.00     0.133 C 
HETATM    5  O3  UNL     1       0.339  16.699 -24.848  1.00  0.00    -0.383 OA
HETATM    6  C8  UNL     1      -0.757  17.483 -24.814  1.00  0.00     0.201 C 
HETATM    7  C7  UNL     1      -1.593  17.259 -26.017  1.00  0.00     0.167 C 
HETATM    8  O2  UNL     1      -1.704  18.324 -26.909  1.00  0.00    -0.309 OA
HETATM    9  C25 UNL     1      -0.858  16.132 -26.767  1.00  0.00     0.085 C 
HETATM   10  C6  UNL     1      -1.268  17.956 -28.175  1.00  0.00     0.290 C 
HETATM   11  C5  UNL     1      -0.641  16.610 -28.126  1.00  0.00     0.026 C 
HETATM   12  O1  UNL     1      -1.399  18.673 -29.193  1.00  0.00    -0.260 OA
BRANCH  11  13
HETATM   13  C4  UNL     1       0.613  16.460 -28.846  1.00  0.00     0.013 C 
BRANCH  13  14
HETATM   14  C3  UNL     1       0.918  15.292 -29.638  1.00  0.00    -0.004 C 
BRANCH  14  15
HETATM   15  C2  UNL     1       1.278  14.089 -29.278  1.00  0.00    -0.031 C 
HETATM   16  C1  UNL     1       0.561  12.850 -29.736  1.00  0.00     0.036 C 
ENDBRANCH  14  15
ENDBRANCH  13  14
ENDBRANCH  11  13
ENDBRANCH   3   4
ENDBRANCH   2   3
ENDBRANCH   1   2
BRANCH   1  17
HETATM   17  O4  UNL     1       1.526  12.096 -25.940  1.00  0.00    -0.364 OA
ATOM     18  H4  UNL     1       1.954  12.414 -26.726  1.00  0.00     0.217 HD
ENDBRANCH   1  17
BRANCH   1  19
HETATM   19  C13 UNL     1      -0.458  10.933 -25.336  1.00  0.00     0.027 C 
BRANCH  19  20
HETATM   20  C14 UNL     1      -1.151  11.079 -24.052  1.00  0.00    -0.005 C 
BRANCH  20  21
HETATM   21  C15 UNL     1      -2.635  11.152 -23.953  1.00  0.00     0.009 C 
HETATM   22  C16 UNL     1      -2.910  12.701 -23.734  1.00  0.00     0.008 C 
HETATM   23  C17 UNL     1      -4.370  12.959 -23.738  1.00  0.00     0.001 C 
HETATM   24  C18 UNL     1      -4.978  12.268 -22.520  1.00  0.00     0.000 C 
HETATM   25  C19 UNL     1      -4.748  10.790 -22.742  1.00  0.00     0.001 C 
HETATM   26  C20 UNL     1      -3.237  10.566 -22.721  1.00  0.00     0.008 C 
ENDBRANCH  20  21
ENDBRANCH  19  20
BRANCH  19  27
HETATM   27  C21 UNL     1      -0.895   9.790 -26.170  1.00  0.00     0.109 C 
HETATM   28  S1  UNL     1      -0.557   9.745 -27.740  1.00  0.00    -0.060 SA
BRANCH  27  29
HETATM   29  N1  UNL     1      -1.570   8.712 -25.595  1.00  0.00    -0.376 N 
ATOM     30  H1  UNL     1      -2.517   8.864 -25.245  1.00  0.00     0.160 HD
BRANCH  29  31
HETATM   31  C22 UNL     1      -0.993   7.383 -25.470  1.00  0.00     0.074 C 
HETATM   32  C23 UNL     1      -1.890   6.562 -24.583  1.00  0.00     0.031 C 
HETATM   33  C24 UNL     1       0.432   7.439 -24.981  1.00  0.00     0.031 C 
ENDBRANCH  29  31
ENDBRANCH  27  29
ENDBRANCH  19  27
ENDBRANCH   1  19
TORSDOF 13
ENDMDL
