MODEL 1
REMARK VINA RESULT: -9.557644415      0.000      0.000
REMARK  12 active torsions:
REMARK  status: ('A' for Active; 'I' for Inactive)
REMARK    1  A    between atoms: C6_9  and  N3_10 
REMARK       I    between atoms: N3_10  and  C7_12 
REMARK    2  A    between atoms: C7_12  and  C8_14 
REMARK    3  A    between atoms: C8_14  and  C9_15 
REMARK    4  A    between atoms: C9_15  and  C10_16 
REMARK    5  A    between atoms: C10_16  and  C11_17 
REMARK    6  A    between atoms: C12_18  and  C13_19 
REMARK    7  A    between atoms: C14_20  and  C15_21 
REMARK    8  A    between atoms: C15_21  and  C16_22 
REMARK    9  A    between atoms: C16_22  and  C17_23 
REMARK   10  A    between atoms: C18_24  and  C19_25 
REMARK   11  A    between atoms: C20_26  and  C21_27 
REMARK   12  A    between atoms: C22_28  and  C23_29 
ROOT
HETATM    1  N1  UNL     1     -12.678  10.060 -24.038  1.00  0.00    -0.196 NA
HETATM    2  C1  UNL     1     -12.171  10.822 -23.323  1.00  0.00     0.071 C 
HETATM    3  C2  UNL     1     -11.504  11.776 -22.399  1.00  0.00     0.154 C 
HETATM    4  C3  UNL     1     -12.529  12.215 -21.402  1.00  0.00     0.081 C 
HETATM    5  N2  UNL     1     -12.031  12.866 -20.255  1.00  0.00    -0.381 N 
ATOM      6  H2  UNL     1     -12.591  13.581 -19.790  1.00  0.00     0.164 HD
HETATM    7  C4  UNL     1     -10.762  12.529 -19.754  1.00  0.00     0.062 C 
HETATM    8  C5  UNL     1     -10.321  11.170 -20.251  1.00  0.00     0.071 C 
HETATM    9  C6  UNL     1     -10.362  11.059 -21.736  1.00  0.00     0.111 C 
ENDROOT
BRANCH   9  10
HETATM   10  N3  UNL     1      -9.158  11.503 -22.430  1.00  0.00    -0.354 N 
HETATM   11  C7  UNL     1      -7.848  11.209 -22.108  1.00  0.00     0.217 C 
HETATM   12  O1  UNL     1      -7.489  10.537 -21.065  1.00  0.00    -0.274 OA
ATOM     13  H3  UNL     1      -9.300  12.098 -23.246  1.00  0.00     0.162 HD
BRANCH  11  14
HETATM   14  C8  UNL     1      -6.690  11.613 -22.944  1.00  0.00     0.103 C 
BRANCH  14  15
HETATM   15  C9  UNL     1      -5.463  11.883 -21.991  1.00  0.00     0.013 C 
BRANCH  15  16
HETATM   16  C10 UNL     1      -4.371  11.061 -22.599  1.00  0.00     0.027 C 
BRANCH  16  17
HETATM   17  C11 UNL     1      -3.514  11.648 -23.618  1.00  0.00    -0.027 C 
HETATM   18  C12 UNL     1      -2.315  11.012 -23.832  1.00  0.00    -0.003 C 
BRANCH  18  19
HETATM   19  C13 UNL     1      -2.084   9.859 -22.973  1.00  0.00     0.008 C 
HETATM   20  C14 UNL     1      -1.358   8.815 -23.409  1.00  0.00     0.055 C 
BRANCH  20  21
HETATM   21  C15 UNL     1      -0.843   8.829 -24.680  1.00  0.00    -0.128 C 
BRANCH  21  22
HETATM   22  C16 UNL     1      -0.387   8.833 -25.830  1.00  0.00     0.055 C 
BRANCH  22  23
HETATM   23  C17 UNL     1      -0.835   9.665 -26.953  1.00  0.00     0.008 C 
HETATM   24  C18 UNL     1       0.020  10.226 -27.694  1.00  0.00     0.001 C 
BRANCH  24  25
HETATM   25  C19 UNL     1       0.071  11.077 -28.810  1.00  0.00     0.000 C 
HETATM   26  C20 UNL     1       0.136  12.412 -28.659  1.00  0.00    -0.000 C 
BRANCH  26  27
HETATM   27  C21 UNL     1       0.167  12.985 -27.359  1.00  0.00    -0.004 C 
HETATM   28  C22 UNL     1       0.061  14.254 -27.011  1.00  0.00    -0.020 C 
BRANCH  28  29
HETATM   29  C23 UNL     1       0.129  14.555 -25.510  1.00  0.00     0.033 C 
HETATM   30  C24 UNL     1      -1.321  14.567 -25.102  1.00  0.00     0.020 C 
HETATM   31  C25 UNL     1      -1.991  15.761 -25.710  1.00  0.00     0.112 C 
HETATM   32  C26 UNL     1      -1.147  16.991 -25.551  1.00  0.00     0.258 C 
HETATM   33  O2  UNL     1      -1.647  18.094 -25.820  1.00  0.00    -0.265 OA
HETATM   34  O3  UNL     1       0.148  16.920 -25.119  1.00  0.00    -0.321 OA
HETATM   35  C27 UNL     1       0.917  15.773 -25.220  1.00  0.00     0.187 C 
ENDBRANCH  28  29
ENDBRANCH  26  27
ENDBRANCH  24  25
ENDBRANCH  22  23
ENDBRANCH  21  22
ENDBRANCH  20  21
ENDBRANCH  18  19
ENDBRANCH  16  17
ENDBRANCH  15  16
ENDBRANCH  14  15
ENDBRANCH  11  14
ENDBRANCH   9  10
TORSDOF 12
ENDMDL
MODEL 2
REMARK VINA RESULT: -9.369346880      4.113     10.017
REMARK  12 active torsions:
REMARK  status: ('A' for Active; 'I' for Inactive)
REMARK    1  A    between atoms: C6_9  and  N3_10 
REMARK       I    between atoms: N3_10  and  C7_12 
REMARK    2  A    between atoms: C7_12  and  C8_14 
REMARK    3  A    between atoms: C8_14  and  C9_15 
REMARK    4  A    between atoms: C9_15  and  C10_16 
REMARK    5  A    between atoms: C10_16  and  C11_17 
REMARK    6  A    between atoms: C12_18  and  C13_19 
REMARK    7  A    between atoms: C14_20  and  C15_21 
REMARK    8  A    between atoms: C15_21  and  C16_22 
REMARK    9  A    between atoms: C16_22  and  C17_23 
REMARK   10  A    between atoms: C18_24  and  C19_25 
REMARK   11  A    between atoms: C20_26  and  C21_27 
REMARK   12  A    between atoms: C22_28  and  C23_29 
ROOT
HETATM    1  N1  UNL     1      -0.982  17.817 -24.083  1.00  0.00    -0.196 NA
HETATM    2  C1  UNL     1      -0.956  17.386 -25.161  1.00  0.00     0.071 C 
HETATM    3  C2  UNL     1      -0.894  16.829 -26.538  1.00  0.00     0.154 C 
HETATM    4  C3  UNL     1      -1.193  17.951 -27.482  1.00  0.00     0.081 C 
HETATM    5  N2  UNL     1      -0.875  17.716 -28.835  1.00  0.00    -0.381 N 
ATOM      6  H2  UNL     1      -1.427  18.152 -29.573  1.00  0.00     0.164 HD
HETATM    7  C4  UNL     1       0.204  16.878 -29.166  1.00  0.00     0.062 C 
HETATM    8  C5  UNL     1       1.161  16.734 -28.002  1.00  0.00     0.071 C 
HETATM    9  C6  UNL     1       0.487  16.279 -26.754  1.00  0.00     0.111 C 
ENDROOT
BRANCH   9  10
HETATM   10  N3  UNL     1       0.366  14.833 -26.600  1.00  0.00    -0.354 N 
HETATM   11  C7  UNL     1       0.640  14.085 -25.472  1.00  0.00     0.217 C 
HETATM   12  O1  UNL     1       1.130  14.570 -24.379  1.00  0.00    -0.274 OA
ATOM     13  H3  UNL     1       0.044  14.316 -27.418  1.00  0.00     0.162 HD
BRANCH  11  14
HETATM   14  C8  UNL     1       0.376  12.628 -25.374  1.00  0.00     0.103 C 
BRANCH  14  15
HETATM   15  C9  UNL     1       1.444  11.872 -26.255  1.00  0.00     0.013 C 
BRANCH  15  16
HETATM   16  C10 UNL     1       0.856  10.506 -26.408  1.00  0.00     0.027 C 
BRANCH  16  17
HETATM   17  C11 UNL     1      -0.572  10.363 -26.647  1.00  0.00    -0.027 C 
HETATM   18  C12 UNL     1      -1.165   9.254 -26.091  1.00  0.00    -0.003 C 
BRANCH  18  19
HETATM   19  C13 UNL     1      -0.249   8.380 -25.371  1.00  0.00     0.008 C 
HETATM   20  C14 UNL     1      -0.470   8.072 -24.081  1.00  0.00     0.055 C 
BRANCH  20  21
HETATM   21  C15 UNL     1      -1.559   8.596 -23.434  1.00  0.00    -0.128 C 
BRANCH  21  22
HETATM   22  C16 UNL     1      -2.537   9.063 -22.838  1.00  0.00     0.055 C 
BRANCH  22  23
HETATM   23  C17 UNL     1      -2.782  10.474 -22.515  1.00  0.00     0.008 C 
HETATM   24  C18 UNL     1      -3.575  11.149 -23.229  1.00  0.00     0.001 C 
BRANCH  24  25
HETATM   25  C19 UNL     1      -4.083  12.456 -23.318  1.00  0.00     0.000 C 
HETATM   26  C20 UNL     1      -5.376  12.714 -23.055  1.00  0.00    -0.000 C 
BRANCH  26  27
HETATM   27  C21 UNL     1      -6.252  11.663 -22.670  1.00  0.00    -0.004 C 
HETATM   28  C22 UNL     1      -7.491  11.741 -22.222  1.00  0.00    -0.020 C 
BRANCH  28  29
HETATM   29  C23 UNL     1      -8.180  10.412 -21.893  1.00  0.00     0.033 C 
HETATM   30  C24 UNL     1      -9.432  10.463 -22.728  1.00  0.00     0.020 C 
HETATM   31  C25 UNL     1     -10.342  11.520 -22.183  1.00  0.00     0.112 C 
HETATM   32  C26 UNL     1     -10.430  11.437 -20.687  1.00  0.00     0.258 C 
HETATM   33  O2  UNL     1     -11.295  12.108 -20.104  1.00  0.00    -0.265 OA
HETATM   34  O3  UNL     1      -9.586  10.641 -19.964  1.00  0.00    -0.321 OA
HETATM   35  C27 UNL     1      -8.354  10.220 -20.436  1.00  0.00     0.187 C 
ENDBRANCH  28  29
ENDBRANCH  26  27
ENDBRANCH  24  25
ENDBRANCH  22  23
ENDBRANCH  21  22
ENDBRANCH  20  21
ENDBRANCH  18  19
ENDBRANCH  16  17
ENDBRANCH  15  16
ENDBRANCH  14  15
ENDBRANCH  11  14
ENDBRANCH   9  10
TORSDOF 12
ENDMDL
MODEL 3
REMARK VINA RESULT: -9.254600260      4.770     10.792
REMARK  12 active torsions:
REMARK  status: ('A' for Active; 'I' for Inactive)
REMARK    1  A    between atoms: C6_9  and  N3_10 
REMARK       I    between atoms: N3_10  and  C7_12 
REMARK    2  A    between atoms: C7_12  and  C8_14 
REMARK    3  A    between atoms: C8_14  and  C9_15 
REMARK    4  A    between atoms: C9_15  and  C10_16 
REMARK    5  A    between atoms: C10_16  and  C11_17 
REMARK    6  A    between atoms: C12_18  and  C13_19 
REMARK    7  A    between atoms: C14_20  and  C15_21 
REMARK    8  A    between atoms: C15_21  and  C16_22 
REMARK    9  A    between atoms: C16_22  and  C17_23 
REMARK   10  A    between atoms: C18_24  and  C19_25 
REMARK   11  A    between atoms: C20_26  and  C21_27 
REMARK   12  A    between atoms: C22_28  and  C23_29 
ROOT
HETATM    1  N1  UNL     1       0.542  13.567 -24.836  1.00  0.00    -0.196 NA
HETATM    2  C1  UNL     1       0.246  12.934 -25.764  1.00  0.00     0.071 C 
HETATM    3  C2  UNL     1      -0.106  12.110 -26.949  1.00  0.00     0.154 C 
HETATM    4  C3  UNL     1      -0.187  13.035 -28.122  1.00  0.00     0.081 C 
HETATM    5  N2  UNL     1      -0.195  12.420 -29.391  1.00  0.00    -0.381 N 
ATOM      6  H2  UNL     1      -0.696  12.853 -30.166  1.00  0.00     0.164 HD
HETATM    7  C4  UNL     1       0.490  11.207 -29.585  1.00  0.00     0.062 C 
HETATM    8  C5  UNL     1       1.533  10.991 -28.511  1.00  0.00     0.071 C 
HETATM    9  C6  UNL     1       0.971  11.078 -27.134  1.00  0.00     0.111 C 
ENDROOT
BRANCH   9  10
HETATM   10  N3  UNL     1       0.425   9.835 -26.601  1.00  0.00    -0.354 N 
HETATM   11  C7  UNL     1       1.124   8.787 -26.036  1.00  0.00     0.217 C 
HETATM   12  O1  UNL     1       2.413   8.726 -25.967  1.00  0.00    -0.274 OA
ATOM     13  H3  UNL     1      -0.588   9.728 -26.651  1.00  0.00     0.162 HD
BRANCH  11  14
HETATM   14  C8  UNL     1       0.470   7.609 -25.415  1.00  0.00     0.103 C 
BRANCH  14  15
HETATM   15  C9  UNL     1      -1.013   8.003 -25.050  1.00  0.00     0.013 C 
BRANCH  15  16
HETATM   16  C10 UNL     1      -0.879   8.620 -23.694  1.00  0.00     0.027 C 
BRANCH  16  17
HETATM   17  C11 UNL     1      -2.043   8.701 -22.825  1.00  0.00    -0.027 C 
HETATM   18  C12 UNL     1      -2.713   9.902 -22.831  1.00  0.00    -0.003 C 
BRANCH  18  19
HETATM   19  C13 UNL     1      -2.122  10.915 -23.694  1.00  0.00     0.008 C 
HETATM   20  C14 UNL     1      -2.785  12.052 -23.967  1.00  0.00     0.055 C 
BRANCH  20  21
HETATM   21  C15 UNL     1      -4.036  12.253 -23.440  1.00  0.00    -0.128 C 
BRANCH  21  22
HETATM   22  C16 UNL     1      -5.158  12.447 -22.959  1.00  0.00     0.055 C 
BRANCH  22  23
HETATM   23  C17 UNL     1      -5.647  11.992 -21.651  1.00  0.00     0.008 C 
HETATM   24  C18 UNL     1      -6.088  10.816 -21.524  1.00  0.00     0.001 C 
BRANCH  24  25
HETATM   25  C19 UNL     1      -6.643   9.985 -20.537  1.00  0.00     0.000 C 
HETATM   26  C20 UNL     1      -7.966   9.744 -20.500  1.00  0.00    -0.000 C 
BRANCH  26  27
HETATM   27  C21 UNL     1      -8.826  10.322 -21.472  1.00  0.00    -0.004 C 
HETATM   28  C22 UNL     1      -9.796   9.752 -22.162  1.00  0.00    -0.020 C 
BRANCH  28  29
HETATM   29  C23 UNL     1     -10.554  10.654 -23.143  1.00  0.00     0.033 C 
HETATM   30  C24 UNL     1     -10.192  12.040 -22.676  1.00  0.00     0.020 C 
HETATM   31  C25 UNL     1     -10.828  12.290 -21.343  1.00  0.00     0.112 C 
HETATM   32  C26 UNL     1     -12.258  11.835 -21.334  1.00  0.00     0.258 C 
HETATM   33  O2  UNL     1     -12.978  12.155 -20.377  1.00  0.00    -0.265 OA
HETATM   34  O3  UNL     1     -12.777  11.085 -22.353  1.00  0.00    -0.321 OA
HETATM   35  C27 UNL     1     -11.995  10.323 -23.206  1.00  0.00     0.187 C 
ENDBRANCH  28  29
ENDBRANCH  26  27
ENDBRANCH  24  25
ENDBRANCH  22  23
ENDBRANCH  21  22
ENDBRANCH  20  21
ENDBRANCH  18  19
ENDBRANCH  16  17
ENDBRANCH  15  16
ENDBRANCH  14  15
ENDBRANCH  11  14
ENDBRANCH   9  10
TORSDOF 12
ENDMDL
MODEL 4
REMARK VINA RESULT: -9.188933952      1.072      1.476
REMARK  12 active torsions:
REMARK  status: ('A' for Active; 'I' for Inactive)
REMARK    1  A    between atoms: C6_9  and  N3_10 
REMARK       I    between atoms: N3_10  and  C7_12 
REMARK    2  A    between atoms: C7_12  and  C8_14 
REMARK    3  A    between atoms: C8_14  and  C9_15 
REMARK    4  A    between atoms: C9_15  and  C10_16 
REMARK    5  A    between atoms: C10_16  and  C11_17 
REMARK    6  A    between atoms: C12_18  and  C13_19 
REMARK    7  A    between atoms: C14_20  and  C15_21 
REMARK    8  A    between atoms: C15_21  and  C16_22 
REMARK    9  A    between atoms: C16_22  and  C17_23 
REMARK   10  A    between atoms: C18_24  and  C19_25 
REMARK   11  A    between atoms: C20_26  and  C21_27 
REMARK   12  A    between atoms: C22_28  and  C23_29 
ROOT
HETATM    1  N1  UNL     1     -12.595  10.035 -24.017  1.00  0.00    -0.196 NA
HETATM    2  C1  UNL     1     -12.124  10.816 -23.298  1.00  0.00     0.071 C 
HETATM    3  C2  UNL     1     -11.502  11.794 -22.368  1.00  0.00     0.154 C 
HETATM    4  C3  UNL     1     -12.563  12.224 -21.405  1.00  0.00     0.081 C 
HETATM    5  N2  UNL     1     -12.110  12.899 -20.253  1.00  0.00    -0.381 N 
ATOM      6  H2  UNL     1     -12.697  13.608 -19.813  1.00  0.00     0.164 HD
HETATM    7  C4  UNL     1     -10.849  12.595 -19.713  1.00  0.00     0.062 C 
HETATM    8  C5  UNL     1     -10.367  11.239 -20.181  1.00  0.00     0.071 C 
HETATM    9  C6  UNL     1     -10.364  11.109 -21.666  1.00  0.00     0.111 C 
ENDROOT
BRANCH   9  10
HETATM   10  N3  UNL     1      -9.151  11.569 -22.332  1.00  0.00    -0.354 N 
HETATM   11  C7  UNL     1      -7.853  11.172 -22.078  1.00  0.00     0.217 C 
HETATM   12  O1  UNL     1      -7.512  10.364 -21.130  1.00  0.00    -0.274 OA
ATOM     13  H3  UNL     1      -9.275  12.263 -23.069  1.00  0.00     0.162 HD
BRANCH  11  14
HETATM   14  C8  UNL     1      -6.691  11.612 -22.889  1.00  0.00     0.103 C 
BRANCH  14  15
HETATM   15  C9  UNL     1      -5.441  11.736 -21.934  1.00  0.00     0.013 C 
BRANCH  15  16
HETATM   16  C10 UNL     1      -4.321  11.196 -22.765  1.00  0.00     0.027 C 
BRANCH  16  17
HETATM   17  C11 UNL     1      -3.666  12.061 -23.734  1.00  0.00    -0.027 C 
HETATM   18  C12 UNL     1      -2.410  11.671 -24.134  1.00  0.00    -0.003 C 
BRANCH  18  19
HETATM   19  C13 UNL     1      -1.925  10.458 -23.491  1.00  0.00     0.008 C 
HETATM   20  C14 UNL     1      -1.207   9.556 -24.184  1.00  0.00     0.055 C 
BRANCH  20  21
HETATM   21  C15 UNL     1      -0.942   9.774 -25.511  1.00  0.00    -0.128 C 
BRANCH  21  22
HETATM   22  C16 UNL     1      -0.692   9.961 -26.708  1.00  0.00     0.055 C 
BRANCH  22  23
HETATM   23  C17 UNL     1       0.539  10.526 -27.274  1.00  0.00     0.008 C 
HETATM   24  C18 UNL     1       1.071  11.534 -26.732  1.00  0.00     0.001 C 
BRANCH  24  25
HETATM   25  C19 UNL     1       2.174  12.386 -26.910  1.00  0.00     0.000 C 
HETATM   26  C20 UNL     1       2.061  13.712 -26.720  1.00  0.00    -0.000 C 
BRANCH  26  27
HETATM   27  C21 UNL     1       0.819  14.275 -26.323  1.00  0.00    -0.004 C 
HETATM   28  C22 UNL     1       0.550  15.516 -25.961  1.00  0.00    -0.020 C 
BRANCH  28  29
HETATM   29  C23 UNL     1      -0.906  15.816 -25.588  1.00  0.00     0.033 C 
HETATM   30  C24 UNL     1      -1.660  15.429 -26.834  1.00  0.00     0.020 C 
HETATM   31  C25 UNL     1      -1.329  16.397 -27.928  1.00  0.00     0.112 C 
HETATM   32  C26 UNL     1      -1.367  17.811 -27.426  1.00  0.00     0.258 C 
HETATM   33  O2  UNL     1      -1.315  18.736 -28.250  1.00  0.00    -0.265 OA
HETATM   34  O3  UNL     1      -1.458  18.094 -26.091  1.00  0.00    -0.321 OA
HETATM   35  C27 UNL     1      -1.084  17.202 -25.101  1.00  0.00     0.187 C 
ENDBRANCH  28  29
ENDBRANCH  26  27
ENDBRANCH  24  25
ENDBRANCH  22  23
ENDBRANCH  21  22
ENDBRANCH  20  21
ENDBRANCH  18  19
ENDBRANCH  16  17
ENDBRANCH  15  16
ENDBRANCH  14  15
ENDBRANCH  11  14
ENDBRANCH   9  10
TORSDOF 12
ENDMDL
MODEL 5
REMARK VINA RESULT: -9.093872521      3.903      9.771
REMARK  12 active torsions:
REMARK  status: ('A' for Active; 'I' for Inactive)
REMARK    1  A    between atoms: C6_9  and  N3_10 
REMARK       I    between atoms: N3_10  and  C7_12 
REMARK    2  A    between atoms: C7_12  and  C8_14 
REMARK    3  A    between atoms: C8_14  and  C9_15 
REMARK    4  A    between atoms: C9_15  and  C10_16 
REMARK    5  A    between atoms: C10_16  and  C11_17 
REMARK    6  A    between atoms: C12_18  and  C13_19 
REMARK    7  A    between atoms: C14_20  and  C15_21 
REMARK    8  A    between atoms: C15_21  and  C16_22 
REMARK    9  A    between atoms: C16_22  and  C17_23 
REMARK   10  A    between atoms: C18_24  and  C19_25 
REMARK   11  A    between atoms: C20_26  and  C21_27 
REMARK   12  A    between atoms: C22_28  and  C23_29 
ROOT
HETATM    1  N1  UNL     1      -1.551  15.637 -24.796  1.00  0.00    -0.196 NA
HETATM    2  C1  UNL     1      -1.147  15.183 -25.786  1.00  0.00     0.071 C 
HETATM    3  C2  UNL     1      -0.609  14.590 -27.037  1.00  0.00     0.154 C 
HETATM    4  C3  UNL     1      -0.125  15.720 -27.890  1.00  0.00     0.081 C 
HETATM    5  N2  UNL     1       0.705  15.362 -28.972  1.00  0.00    -0.381 N 
ATOM      6  H2  UNL     1       0.696  15.915 -29.828  1.00  0.00     0.164 HD
HETATM    7  C4  UNL     1       1.546  14.240 -28.868  1.00  0.00     0.062 C 
HETATM    8  C5  UNL     1       1.780  13.865 -27.421  1.00  0.00     0.071 C 
HETATM    9  C6  UNL     1       0.512  13.660 -26.666  1.00  0.00     0.111 C 
ENDROOT
BRANCH   9  10
HETATM   10  N3  UNL     1      -0.049  12.315 -26.736  1.00  0.00    -0.354 N 
HETATM   11  C7  UNL     1      -0.554  11.562 -25.695  1.00  0.00     0.217 C 
HETATM   12  O1  UNL     1      -0.531  11.927 -24.456  1.00  0.00    -0.274 OA
ATOM     13  H3  UNL     1      -0.070  11.882 -27.659  1.00  0.00     0.162 HD
BRANCH  11  14
HETATM   14  C8  UNL     1      -1.211  10.244 -25.883  1.00  0.00     0.103 C 
BRANCH  14  15
HETATM   15  C9  UNL     1      -0.571   9.550 -27.146  1.00  0.00     0.013 C 
BRANCH  15  16
HETATM   16  C10 UNL     1      -0.180   8.201 -26.633  1.00  0.00     0.027 C 
BRANCH  16  17
HETATM   17  C11 UNL     1       0.547   8.095 -25.378  1.00  0.00    -0.027 C 
HETATM   18  C12 UNL     1       0.118   7.113 -24.516  1.00  0.00    -0.003 C 
BRANCH  18  19
HETATM   19  C13 UNL     1      -1.027   6.351 -24.996  1.00  0.00     0.008 C 
HETATM   20  C14 UNL     1      -2.245   6.535 -24.457  1.00  0.00     0.055 C 
BRANCH  20  21
HETATM   21  C15 UNL     1      -2.408   7.436 -23.436  1.00  0.00    -0.128 C 
BRANCH  21  22
HETATM   22  C16 UNL     1      -2.560   8.259 -22.525  1.00  0.00     0.055 C 
BRANCH  22  23
HETATM   23  C17 UNL     1      -2.422   9.717 -22.621  1.00  0.00     0.008 C 
HETATM   24  C18 UNL     1      -3.435  10.424 -22.881  1.00  0.00     0.001 C 
BRANCH  24  25
HETATM   25  C19 UNL     1      -3.774  11.773 -23.078  1.00  0.00     0.000 C 
HETATM   26  C20 UNL     1      -5.042  12.195 -22.936  1.00  0.00    -0.000 C 
BRANCH  26  27
HETATM   27  C21 UNL     1      -6.065  11.279 -22.570  1.00  0.00    -0.004 C 
HETATM   28  C22 UNL     1      -7.293  11.531 -22.156  1.00  0.00    -0.020 C 
BRANCH  28  29
HETATM   29  C23 UNL     1      -8.168  10.312 -21.840  1.00  0.00     0.033 C 
HETATM   30  C24 UNL     1      -9.391  10.545 -22.688  1.00  0.00     0.020 C 
HETATM   31  C25 UNL     1     -10.147  11.719 -22.146  1.00  0.00     0.112 C 
HETATM   32  C26 UNL     1     -10.261  11.643 -20.651  1.00  0.00     0.258 C 
HETATM   33  O2  UNL     1     -11.027  12.428 -20.072  1.00  0.00    -0.265 OA
HETATM   34  O3  UNL     1      -9.546  10.732 -19.924  1.00  0.00    -0.321 OA
HETATM   35  C27 UNL     1      -8.382  10.141 -20.386  1.00  0.00     0.187 C 
ENDBRANCH  28  29
ENDBRANCH  26  27
ENDBRANCH  24  25
ENDBRANCH  22  23
ENDBRANCH  21  22
ENDBRANCH  20  21
ENDBRANCH  18  19
ENDBRANCH  16  17
ENDBRANCH  15  16
ENDBRANCH  14  15
ENDBRANCH  11  14
ENDBRANCH   9  10
TORSDOF 12
ENDMDL
