MODEL 1
REMARK VINA RESULT: -7.015988216      0.000      0.000
REMARK  17 active torsions:
REMARK  status: ('A' for Active; 'I' for Inactive)
REMARK    1  A    between atoms: C2_2  and  C3_3 
REMARK    2  A    between atoms: C4_6  and  N2_7 
REMARK    3  A    between atoms: C5_12  and  N4_13 
REMARK    4  A    between atoms: C6_16  and  C7_17 
REMARK    5  A    between atoms: C8_18  and  C9_19 
REMARK    6  A    between atoms: C9_19  and  N5_20 
REMARK    7  A    between atoms: N5_20  and  C10_22 
REMARK    8  A    between atoms: C10_22  and  C11_23 
REMARK    9  A    between atoms: C11_23  and  C12_24 
REMARK   10  A    between atoms: C12_24  and  N6_25 
REMARK   11  A    between atoms: N6_25  and  C13_28 
REMARK   12  A    between atoms: C13_28  and  C14_29 
REMARK   13  A    between atoms: C14_29  and  N7_30 
REMARK   14  A    between atoms: N7_30  and  C15_31 
REMARK   15  A    between atoms: N7_30  and  C17_33 
REMARK   16  A    between atoms: C17_33  and  C18_34 
REMARK   17  A    between atoms: C18_34  and  N8_35 
ROOT
HETATM    1  N5  UNL     1      12.502 -39.499   9.084  1.00  0.00    -0.372 N 
ATOM      2  H5  UNL     1      11.506 -39.513   8.865  1.00  0.00     0.164 HD
ENDROOT
BRANCH   1   3
HETATM    3  C9  UNL     1      13.124 -38.256   9.152  1.00  0.00     0.153 C 
BRANCH   3   4
HETATM    4  C8  UNL     1      13.450 -37.896  10.556  1.00  0.00    -0.056 C 
HETATM    5  C7  UNL     1      13.682 -37.603  11.714  1.00  0.00    -0.055 C 
BRANCH   5   6
HETATM    6  C6  UNL     1      13.917 -37.258  13.086  1.00  0.00     0.085 A 
HETATM    7  C3  UNL     1      14.244 -38.239  14.019  1.00  0.00     0.048 A 
HETATM    8  N1  UNL     1      14.443 -37.881  15.292  1.00  0.00    -0.194 N 
HETATM    9  C4  UNL     1      14.349 -36.618  15.731  1.00  0.00     0.677 A 
ATOM     10  H1  UNL     1      14.680 -38.609  15.966  1.00  0.00     0.184 HD
HETATM   11  N3  UNL     1      14.035 -35.674  14.833  1.00  0.00    -0.176 N 
HETATM   12  C5  UNL     1      13.819 -35.965  13.531  1.00  0.00     0.135 A 
ATOM     13  H3  UNL     1      13.956 -34.704  15.142  1.00  0.00     0.186 HD
BRANCH   7  14
HETATM   14  C2  UNL     1      14.338 -39.622  13.513  1.00  0.00     0.055 C 
HETATM   15  C1  UNL     1      14.036 -40.662  14.553  1.00  0.00     0.011 C 
ENDBRANCH   7  14
BRANCH   9  16
HETATM   16  N2  UNL     1      14.551 -36.296  16.989  1.00  0.00    -0.234 N 
ATOM     17  H22 UNL     1      15.230 -36.811  17.549  1.00  0.00     0.174 HD
ATOM     18  H21 UNL     1      14.047 -35.534  17.444  1.00  0.00     0.174 HD
ENDBRANCH   9  16
BRANCH  12  19
HETATM   19  N4  UNL     1      13.515 -35.042  12.674  1.00  0.00    -0.384 N 
ATOM     20  H42 UNL     1      12.792 -34.367  12.926  1.00  0.00     0.157 HD
ATOM     21  H41 UNL     1      13.981 -34.983  11.769  1.00  0.00     0.157 HD
ENDBRANCH  12  19
ENDBRANCH   5   6
ENDBRANCH   3   4
ENDBRANCH   1   3
BRANCH   1  22
HETATM   22  C10 UNL     1      13.123 -40.716   9.289  1.00  0.00     0.062 C 
BRANCH  22  23
HETATM   23  C11 UNL     1      13.222 -41.734   8.225  1.00  0.00     0.072 C 
BRANCH  23  24
HETATM   24  C12 UNL     1      12.171 -41.768   7.193  1.00  0.00     0.237 C 
BRANCH  24  25
HETATM   25  N6  UNL     1      12.414 -40.881   6.075  1.00  0.00    -0.073 N 
ATOM     26  H62 UNL     1      13.293 -40.371   6.163  1.00  0.00     0.277 HD
ATOM     27  H61 UNL     1      12.631 -41.385   5.215  1.00  0.00     0.277 HD
BRANCH  25  28
HETATM   28  C13 UNL     1      11.273 -40.001   5.932  1.00  0.00     0.251 C 
BRANCH  28  29
HETATM   29  C14 UNL     1      10.109 -40.731   5.268  1.00  0.00     0.144 C 
BRANCH  29  30
HETATM   30  N7  UNL     1       9.663 -40.063   4.102  1.00  0.00    -0.409 N 
BRANCH  30  31
HETATM   31  C15 UNL     1       8.340 -40.327   3.660  1.00  0.00     0.112 C 
HETATM   32  C16 UNL     1       8.320 -41.732   3.042  1.00  0.00     0.026 C 
ENDBRANCH  30  31
BRANCH  30  33
HETATM   33  C17 UNL     1      10.176 -38.753   3.902  1.00  0.00     0.147 C 
BRANCH  33  34
HETATM   34  C18 UNL     1       9.243 -37.936   3.072  1.00  0.00     0.291 C 
BRANCH  34  35
HETATM   35  N8  UNL     1       9.772 -37.455   1.836  1.00  0.00     0.090 N 
HETATM   36  C19 UNL     1       8.679 -37.142   0.930  1.00  0.00     0.272 C 
HETATM   37  C20 UNL     1       8.996 -37.487  -0.506  1.00  0.00     0.030 C 
HETATM   38  C21 UNL     1       9.390 -38.937  -0.678  1.00  0.00     0.003 C 
HETATM   39  C22 UNL     1      10.152 -39.448   0.530  1.00  0.00     0.030 C 
HETATM   40  C23 UNL     1      10.777 -38.250   1.215  1.00  0.00     0.272 C 
ENDBRANCH  34  35
ENDBRANCH  33  34
ENDBRANCH  30  33
ENDBRANCH  29  30
ENDBRANCH  28  29
ENDBRANCH  25  28
ENDBRANCH  24  25
ENDBRANCH  23  24
ENDBRANCH  22  23
ENDBRANCH   1  22
TORSDOF 17
ENDMDL
MODEL 2
REMARK VINA RESULT: -6.983848423      1.259      3.167
REMARK  17 active torsions:
REMARK  status: ('A' for Active; 'I' for Inactive)
REMARK    1  A    between atoms: C2_2  and  C3_3 
REMARK    2  A    between atoms: C4_6  and  N2_7 
REMARK    3  A    between atoms: C5_12  and  N4_13 
REMARK    4  A    between atoms: C6_16  and  C7_17 
REMARK    5  A    between atoms: C8_18  and  C9_19 
REMARK    6  A    between atoms: C9_19  and  N5_20 
REMARK    7  A    between atoms: N5_20  and  C10_22 
REMARK    8  A    between atoms: C10_22  and  C11_23 
REMARK    9  A    between atoms: C11_23  and  C12_24 
REMARK   10  A    between atoms: C12_24  and  N6_25 
REMARK   11  A    between atoms: N6_25  and  C13_28 
REMARK   12  A    between atoms: C13_28  and  C14_29 
REMARK   13  A    between atoms: C14_29  and  N7_30 
REMARK   14  A    between atoms: N7_30  and  C15_31 
REMARK   15  A    between atoms: N7_30  and  C17_33 
REMARK   16  A    between atoms: C17_33  and  C18_34 
REMARK   17  A    between atoms: C18_34  and  N8_35 
ROOT
HETATM    1  N5  UNL     1      12.400 -39.506   8.850  1.00  0.00    -0.372 N 
ATOM      2  H5  UNL     1      11.407 -39.513   9.088  1.00  0.00     0.164 HD
ENDROOT
BRANCH   1   3
HETATM    3  C9  UNL     1      13.066 -38.287   8.925  1.00  0.00     0.153 C 
BRANCH   3   4
HETATM    4  C8  UNL     1      13.331 -37.908  10.337  1.00  0.00    -0.056 C 
HETATM    5  C7  UNL     1      13.571 -37.624  11.495  1.00  0.00    -0.055 C 
BRANCH   5   6
HETATM    6  C6  UNL     1      13.880 -37.322  12.863  1.00  0.00     0.085 A 
HETATM    7  C3  UNL     1      14.221 -38.335  13.755  1.00  0.00     0.048 A 
HETATM    8  N1  UNL     1      14.491 -38.016  15.025  1.00  0.00    -0.194 N 
HETATM    9  C4  UNL     1      14.454 -36.763  15.499  1.00  0.00     0.677 A 
ATOM     10  H1  UNL     1      14.737 -38.767  15.669  1.00  0.00     0.184 HD
HETATM   11  N3  UNL     1      14.125 -35.787  14.641  1.00  0.00    -0.176 N 
HETATM   12  C5  UNL     1      13.840 -36.039  13.344  1.00  0.00     0.135 A 
ATOM     13  H3  UNL     1      14.089 -34.824  14.977  1.00  0.00     0.186 HD
BRANCH   7  14
HETATM   14  C2  UNL     1      14.252 -39.707  13.211  1.00  0.00     0.055 C 
HETATM   15  C1  UNL     1      15.631 -40.296  13.153  1.00  0.00     0.011 C 
ENDBRANCH   7  14
BRANCH   9  16
HETATM   16  N2  UNL     1      14.723 -36.479  16.754  1.00  0.00    -0.234 N 
ATOM     17  H22 UNL     1      15.686 -36.502  17.091  1.00  0.00     0.174 HD
ATOM     18  H21 UNL     1      13.996 -36.229  17.425  1.00  0.00     0.174 HD
ENDBRANCH   9  16
BRANCH  12  19
HETATM   19  N4  UNL     1      13.523 -35.085  12.525  1.00  0.00    -0.384 N 
ATOM     20  H42 UNL     1      13.347 -34.156  12.909  1.00  0.00     0.157 HD
ATOM     21  H41 UNL     1      13.449 -35.249  11.521  1.00  0.00     0.157 HD
ENDBRANCH  12  19
ENDBRANCH   5   6
ENDBRANCH   3   4
ENDBRANCH   1   3
BRANCH   1  22
HETATM   22  C10 UNL     1      12.971 -40.708   8.478  1.00  0.00     0.062 C 
BRANCH  22  23
HETATM   23  C11 UNL     1      12.586 -41.409   7.238  1.00  0.00     0.072 C 
BRANCH  23  24
HETATM   24  C12 UNL     1      11.373 -40.959   6.532  1.00  0.00     0.237 C 
BRANCH  24  25
HETATM   25  N6  UNL     1      11.637 -40.101   5.395  1.00  0.00    -0.073 N 
ATOM     26  H62 UNL     1      12.582 -39.717   5.406  1.00  0.00     0.277 HD
ATOM     27  H61 UNL     1      11.707 -40.621   4.521  1.00  0.00     0.277 HD
BRANCH  25  28
HETATM   28  C13 UNL     1      10.619 -39.073   5.351  1.00  0.00     0.251 C 
BRANCH  28  29
HETATM   29  C14 UNL     1      10.631 -38.359   4.004  1.00  0.00     0.144 C 
BRANCH  29  30
HETATM   30  N7  UNL     1       9.437 -38.582   3.276  1.00  0.00    -0.409 N 
BRANCH  30  31
HETATM   31  C15 UNL     1       9.468 -38.347   1.876  1.00  0.00     0.112 C 
HETATM   32  C16 UNL     1       9.497 -36.830   1.652  1.00  0.00     0.026 C 
ENDBRANCH  30  31
BRANCH  30  33
HETATM   33  C17 UNL     1       8.609 -39.635   3.750  1.00  0.00     0.147 C 
BRANCH  33  34
HETATM   34  C18 UNL     1       8.662 -40.810   2.832  1.00  0.00     0.291 C 
BRANCH  34  35
HETATM   35  N8  UNL     1       8.490 -42.087   3.449  1.00  0.00     0.090 N 
HETATM   36  C19 UNL     1       8.488 -43.122   2.429  1.00  0.00     0.272 C 
HETATM   37  C20 UNL     1       7.514 -44.236   2.732  1.00  0.00     0.030 C 
HETATM   38  C21 UNL     1       6.103 -43.730   2.936  1.00  0.00     0.003 C 
HETATM   39  C22 UNL     1       6.097 -42.364   3.596  1.00  0.00     0.030 C 
HETATM   40  C23 UNL     1       7.399 -42.220   4.356  1.00  0.00     0.272 C 
ENDBRANCH  34  35
ENDBRANCH  33  34
ENDBRANCH  30  33
ENDBRANCH  29  30
ENDBRANCH  28  29
ENDBRANCH  25  28
ENDBRANCH  24  25
ENDBRANCH  23  24
ENDBRANCH  22  23
ENDBRANCH   1  22
TORSDOF 17
ENDMDL
MODEL 3
REMARK VINA RESULT: -6.938202760      1.410      2.391
REMARK  17 active torsions:
REMARK  status: ('A' for Active; 'I' for Inactive)
REMARK    1  A    between atoms: C2_2  and  C3_3 
REMARK    2  A    between atoms: C4_6  and  N2_7 
REMARK    3  A    between atoms: C5_12  and  N4_13 
REMARK    4  A    between atoms: C6_16  and  C7_17 
REMARK    5  A    between atoms: C8_18  and  C9_19 
REMARK    6  A    between atoms: C9_19  and  N5_20 
REMARK    7  A    between atoms: N5_20  and  C10_22 
REMARK    8  A    between atoms: C10_22  and  C11_23 
REMARK    9  A    between atoms: C11_23  and  C12_24 
REMARK   10  A    between atoms: C12_24  and  N6_25 
REMARK   11  A    between atoms: N6_25  and  C13_28 
REMARK   12  A    between atoms: C13_28  and  C14_29 
REMARK   13  A    between atoms: C14_29  and  N7_30 
REMARK   14  A    between atoms: N7_30  and  C15_31 
REMARK   15  A    between atoms: N7_30  and  C17_33 
REMARK   16  A    between atoms: C17_33  and  C18_34 
REMARK   17  A    between atoms: C18_34  and  N8_35 
ROOT
HETATM    1  N5  UNL     1      14.255 -40.205  10.180  1.00  0.00    -0.372 N 
ATOM      2  H5  UNL     1      13.768 -40.835   9.542  1.00  0.00     0.164 HD
ENDROOT
BRANCH   1   3
HETATM    3  C9  UNL     1      14.475 -40.654  11.478  1.00  0.00     0.153 C 
BRANCH   3   4
HETATM    4  C8  UNL     1      14.383 -39.538  12.454  1.00  0.00    -0.056 C 
HETATM    5  C7  UNL     1      14.277 -38.637  13.264  1.00  0.00    -0.055 C 
BRANCH   5   6
HETATM    6  C6  UNL     1      14.115 -37.589  14.230  1.00  0.00     0.085 A 
HETATM    7  C3  UNL     1      13.766 -36.302  13.830  1.00  0.00     0.048 A 
HETATM    8  N1  UNL     1      13.636 -35.348  14.759  1.00  0.00    -0.194 N 
HETATM    9  C4  UNL     1      13.823 -35.558  16.069  1.00  0.00     0.677 A 
ATOM     10  H1  UNL     1      13.382 -34.409  14.453  1.00  0.00     0.184 HD
HETATM   11  N3  UNL     1      14.160 -36.797  16.454  1.00  0.00    -0.176 N 
HETATM   12  C5  UNL     1      14.308 -37.808  15.570  1.00  0.00     0.135 A 
ATOM     13  H3  UNL     1      14.308 -36.983  17.446  1.00  0.00     0.186 HD
BRANCH   7  14
HETATM   14  C2  UNL     1      13.569 -36.094  12.382  1.00  0.00     0.055 C 
HETATM   15  C1  UNL     1      14.766 -35.503  11.695  1.00  0.00     0.011 C 
ENDBRANCH   7  14
BRANCH   9  16
HETATM   16  N2  UNL     1      13.689 -34.600  16.959  1.00  0.00    -0.234 N 
ATOM     17  H22 UNL     1      12.769 -34.377  17.339  1.00  0.00     0.174 HD
ATOM     18  H21 UNL     1      14.483 -34.055  17.297  1.00  0.00     0.174 HD
ENDBRANCH   9  16
BRANCH  12  19
HETATM   19  N4  UNL     1      14.635 -39.001  15.956  1.00  0.00    -0.384 N 
ATOM     20  H42 UNL     1      14.053 -39.458  16.658  1.00  0.00     0.157 HD
ATOM     21  H41 UNL     1      15.452 -39.478  15.574  1.00  0.00     0.157 HD
ENDBRANCH  12  19
ENDBRANCH   5   6
ENDBRANCH   3   4
ENDBRANCH   1   3
BRANCH   1  22
HETATM   22  C10 UNL     1      14.643 -38.975   9.683  1.00  0.00     0.062 C 
BRANCH  22  23
HETATM   23  C11 UNL     1      13.742 -38.143   8.861  1.00  0.00     0.072 C 
BRANCH  23  24
HETATM   24  C12 UNL     1      12.601 -38.798   8.197  1.00  0.00     0.237 C 
BRANCH  24  25
HETATM   25  N6  UNL     1      12.801 -39.039   6.784  1.00  0.00    -0.073 N 
ATOM     26  H62 UNL     1      13.645 -38.592   6.425  1.00  0.00     0.277 HD
ATOM     27  H61 UNL     1      13.059 -40.006   6.584  1.00  0.00     0.277 HD
BRANCH  25  28
HETATM   28  C13 UNL     1      11.609 -38.624   6.075  1.00  0.00     0.251 C 
BRANCH  28  29
HETATM   29  C14 UNL     1      10.804 -39.836   5.617  1.00  0.00     0.144 C 
BRANCH  29  30
HETATM   30  N7  UNL     1      10.225 -39.635   4.340  1.00  0.00    -0.409 N 
BRANCH  30  31
HETATM   31  C15 UNL     1       8.926 -40.161   4.118  1.00  0.00     0.112 C 
HETATM   32  C16 UNL     1       8.942 -41.643   4.517  1.00  0.00     0.026 C 
ENDBRANCH  30  31
BRANCH  30  33
HETATM   33  C17 UNL     1      10.564 -38.418   3.690  1.00  0.00     0.147 C 
BRANCH  33  34
HETATM   34  C18 UNL     1       9.438 -37.937   2.837  1.00  0.00     0.291 C 
BRANCH  34  35
HETATM   35  N8  UNL     1       9.808 -37.404   1.565  1.00  0.00     0.090 N 
HETATM   36  C19 UNL     1       8.612 -37.023   0.833  1.00  0.00     0.272 C 
HETATM   37  C20 UNL     1       8.722 -37.301  -0.648  1.00  0.00     0.030 C 
HETATM   38  C21 UNL     1       9.049 -38.748  -0.941  1.00  0.00     0.003 C 
HETATM   39  C22 UNL     1       9.954 -39.335   0.125  1.00  0.00     0.030 C 
HETATM   40  C23 UNL     1      10.698 -38.188   0.775  1.00  0.00     0.272 C 
ENDBRANCH  34  35
ENDBRANCH  33  34
ENDBRANCH  30  33
ENDBRANCH  29  30
ENDBRANCH  28  29
ENDBRANCH  25  28
ENDBRANCH  24  25
ENDBRANCH  23  24
ENDBRANCH  22  23
ENDBRANCH   1  22
TORSDOF 17
ENDMDL
MODEL 4
REMARK VINA RESULT: -6.839170479      1.631      3.826
REMARK  17 active torsions:
REMARK  status: ('A' for Active; 'I' for Inactive)
REMARK    1  A    between atoms: C2_2  and  C3_3 
REMARK    2  A    between atoms: C4_6  and  N2_7 
REMARK    3  A    between atoms: C5_12  and  N4_13 
REMARK    4  A    between atoms: C6_16  and  C7_17 
REMARK    5  A    between atoms: C8_18  and  C9_19 
REMARK    6  A    between atoms: C9_19  and  N5_20 
REMARK    7  A    between atoms: N5_20  and  C10_22 
REMARK    8  A    between atoms: C10_22  and  C11_23 
REMARK    9  A    between atoms: C11_23  and  C12_24 
REMARK   10  A    between atoms: C12_24  and  N6_25 
REMARK   11  A    between atoms: N6_25  and  C13_28 
REMARK   12  A    between atoms: C13_28  and  C14_29 
REMARK   13  A    between atoms: C14_29  and  N7_30 
REMARK   14  A    between atoms: N7_30  and  C15_31 
REMARK   15  A    between atoms: N7_30  and  C17_33 
REMARK   16  A    between atoms: C17_33  and  C18_34 
REMARK   17  A    between atoms: C18_34  and  N8_35 
ROOT
HETATM    1  N5  UNL     1      13.305 -40.281   9.380  1.00  0.00    -0.372 N 
ATOM      2  H5  UNL     1      12.606 -40.748   8.802  1.00  0.00     0.164 HD
ENDROOT
BRANCH   1   3
HETATM    3  C9  UNL     1      13.669 -40.903  10.570  1.00  0.00     0.153 C 
BRANCH   3   4
HETATM    4  C8  UNL     1      13.898 -39.906  11.648  1.00  0.00    -0.056 C 
HETATM    5  C7  UNL     1      14.060 -39.069  12.515  1.00  0.00    -0.055 C 
BRANCH   5   6
HETATM    6  C6  UNL     1      14.225 -38.058  13.520  1.00  0.00     0.085 A 
HETATM    7  C3  UNL     1      14.131 -36.708  13.191  1.00  0.00     0.048 A 
HETATM    8  N1  UNL     1      14.302 -35.795  14.152  1.00  0.00    -0.194 N 
HETATM    9  C4  UNL     1      14.560 -36.102  15.431  1.00  0.00     0.677 A 
ATOM     10  H1  UNL     1      14.234 -34.809  13.898  1.00  0.00     0.184 HD
HETATM   11  N3  UNL     1      14.649 -37.401  15.748  1.00  0.00    -0.176 N 
HETATM   12  C5  UNL     1      14.488 -38.377  14.827  1.00  0.00     0.135 A 
ATOM     13  H3  UNL     1      14.845 -37.662  16.715  1.00  0.00     0.186 HD
BRANCH   7  14
HETATM   14  C2  UNL     1      13.851 -36.394  11.776  1.00  0.00     0.055 C 
HETATM   15  C1  UNL     1      15.081 -36.052  10.985  1.00  0.00     0.011 C 
ENDBRANCH   7  14
BRANCH   9  16
HETATM   16  N2  UNL     1      14.723 -35.181  16.355  1.00  0.00    -0.234 N 
ATOM     17  H22 UNL     1      15.650 -35.000  16.741  1.00  0.00     0.174 HD
ATOM     18  H21 UNL     1      13.947 -34.625  16.712  1.00  0.00     0.174 HD
ENDBRANCH   9  16
BRANCH  12  19
HETATM   19  N4  UNL     1      14.579 -39.630  15.147  1.00  0.00    -0.384 N 
ATOM     20  H42 UNL     1      13.759 -40.088  15.545  1.00  0.00     0.157 HD
ATOM     21  H41 UNL     1      15.444 -40.153  15.007  1.00  0.00     0.157 HD
ENDBRANCH  12  19
ENDBRANCH   5   6
ENDBRANCH   3   4
ENDBRANCH   1   3
BRANCH   1  22
HETATM   22  C10 UNL     1      13.812 -39.082   8.916  1.00  0.00     0.062 C 
BRANCH  22  23
HETATM   23  C11 UNL     1      13.094 -38.260   7.923  1.00  0.00     0.072 C 
BRANCH  23  24
HETATM   24  C12 UNL     1      12.191 -38.940   6.978  1.00  0.00     0.237 C 
BRANCH  24  25
HETATM   25  N6  UNL     1      12.033 -38.250   5.715  1.00  0.00    -0.073 N 
ATOM     26  H62 UNL     1      12.153 -37.241   5.801  1.00  0.00     0.277 HD
ATOM     27  H61 UNL     1      12.805 -38.428   5.073  1.00  0.00     0.277 HD
BRANCH  25  28
HETATM   28  C13 UNL     1      10.748 -38.611   5.154  1.00  0.00     0.251 C 
BRANCH  28  29
HETATM   29  C14 UNL     1      10.804 -38.605   3.630  1.00  0.00     0.144 C 
BRANCH  29  30
HETATM   30  N7  UNL     1       9.511 -38.622   3.052  1.00  0.00    -0.409 N 
BRANCH  30  31
HETATM   31  C15 UNL     1       9.397 -38.257   1.686  1.00  0.00     0.112 C 
HETATM   32  C16 UNL     1       9.531 -36.732   1.591  1.00  0.00     0.026 C 
ENDBRANCH  30  31
BRANCH  30  33
HETATM   33  C17 UNL     1       8.624 -39.617   3.546  1.00  0.00     0.147 C 
BRANCH  33  34
HETATM   34  C18 UNL     1       8.662 -40.838   2.689  1.00  0.00     0.291 C 
BRANCH  34  35
HETATM   35  N8  UNL     1       8.470 -42.079   3.369  1.00  0.00     0.090 N 
HETATM   36  C19 UNL     1       8.455 -43.164   2.403  1.00  0.00     0.272 C 
HETATM   37  C20 UNL     1       7.464 -44.247   2.759  1.00  0.00     0.030 C 
HETATM   38  C21 UNL     1       6.061 -43.711   2.934  1.00  0.00     0.003 C 
HETATM   39  C22 UNL     1       6.074 -42.314   3.523  1.00  0.00     0.030 C 
HETATM   40  C23 UNL     1       7.376 -42.150   4.279  1.00  0.00     0.272 C 
ENDBRANCH  34  35
ENDBRANCH  33  34
ENDBRANCH  30  33
ENDBRANCH  29  30
ENDBRANCH  28  29
ENDBRANCH  25  28
ENDBRANCH  24  25
ENDBRANCH  23  24
ENDBRANCH  22  23
ENDBRANCH   1  22
TORSDOF 17
ENDMDL
MODEL 5
REMARK VINA RESULT: -6.810296257      1.632      3.586
REMARK  17 active torsions:
REMARK  status: ('A' for Active; 'I' for Inactive)
REMARK    1  A    between atoms: C2_2  and  C3_3 
REMARK    2  A    between atoms: C4_6  and  N2_7 
REMARK    3  A    between atoms: C5_12  and  N4_13 
REMARK    4  A    between atoms: C6_16  and  C7_17 
REMARK    5  A    between atoms: C8_18  and  C9_19 
REMARK    6  A    between atoms: C9_19  and  N5_20 
REMARK    7  A    between atoms: N5_20  and  C10_22 
REMARK    8  A    between atoms: C10_22  and  C11_23 
REMARK    9  A    between atoms: C11_23  and  C12_24 
REMARK   10  A    between atoms: C12_24  and  N6_25 
REMARK   11  A    between atoms: N6_25  and  C13_28 
REMARK   12  A    between atoms: C13_28  and  C14_29 
REMARK   13  A    between atoms: C14_29  and  N7_30 
REMARK   14  A    between atoms: N7_30  and  C15_31 
REMARK   15  A    between atoms: N7_30  and  C17_33 
REMARK   16  A    between atoms: C17_33  and  C18_34 
REMARK   17  A    between atoms: C18_34  and  N8_35 
ROOT
HETATM    1  N5  UNL     1      13.223 -41.797   8.201  1.00  0.00    -0.372 N 
ATOM      2  H5  UNL     1      13.531 -42.230   7.330  1.00  0.00     0.164 HD
ENDROOT
BRANCH   1   3
HETATM    3  C9  UNL     1      13.988 -42.034   9.338  1.00  0.00     0.153 C 
BRANCH   3   4
HETATM    4  C8  UNL     1      13.912 -40.889  10.283  1.00  0.00    -0.056 C 
HETATM    5  C7  UNL     1      13.869 -39.934  11.035  1.00  0.00    -0.055 C 
BRANCH   5   6
HETATM    6  C6  UNL     1      13.841 -38.786  11.895  1.00  0.00     0.085 A 
HETATM    7  C3  UNL     1      14.211 -38.893  13.233  1.00  0.00     0.048 A 
HETATM    8  N1  UNL     1      14.161 -37.804  14.007  1.00  0.00    -0.194 N 
HETATM    9  C4  UNL     1      13.773 -36.598  13.568  1.00  0.00     0.677 A 
ATOM     10  H1  UNL     1      14.432 -37.895  14.986  1.00  0.00     0.184 HD
HETATM   11  N3  UNL     1      13.418 -36.495  12.280  1.00  0.00    -0.176 N 
HETATM   12  C5  UNL     1      13.443 -37.555  11.442  1.00  0.00     0.135 A 
ATOM     13  H3  UNL     1      13.118 -35.589  11.921  1.00  0.00     0.186 HD
BRANCH   7  14
HETATM   14  C2  UNL     1      14.631 -40.231  13.694  1.00  0.00     0.055 C 
HETATM   15  C1  UNL     1      13.836 -40.736  14.864  1.00  0.00     0.011 C 
ENDBRANCH   7  14
BRANCH   9  16
HETATM   16  N2  UNL     1      13.734 -35.545  14.353  1.00  0.00    -0.234 N 
ATOM     17  H22 UNL     1      13.822 -35.653  15.364  1.00  0.00     0.174 HD
ATOM     18  H21 UNL     1      13.618 -34.599  13.989  1.00  0.00     0.174 HD
ENDBRANCH   9  16
BRANCH  12  19
HETATM   19  N4  UNL     1      13.095 -37.441  10.198  1.00  0.00    -0.384 N 
ATOM     20  H42 UNL     1      12.152 -37.727   9.932  1.00  0.00     0.157 HD
ATOM     21  H41 UNL     1      13.740 -37.076   9.497  1.00  0.00     0.157 HD
ENDBRANCH  12  19
ENDBRANCH   5   6
ENDBRANCH   3   4
ENDBRANCH   1   3
BRANCH   1  22
HETATM   22  C10 UNL     1      12.079 -41.022   8.154  1.00  0.00     0.062 C 
BRANCH  22  23
HETATM   23  C11 UNL     1      11.735 -40.204   6.975  1.00  0.00     0.072 C 
BRANCH  23  24
HETATM   24  C12 UNL     1      12.211 -38.811   6.930  1.00  0.00     0.237 C 
BRANCH  24  25
HETATM   25  N6  UNL     1      11.973 -38.147   5.666  1.00  0.00    -0.073 N 
ATOM     26  H62 UNL     1      11.616 -37.198   5.783  1.00  0.00     0.277 HD
ATOM     27  H61 UNL     1      12.837 -37.911   5.178  1.00  0.00     0.277 HD
BRANCH  25  28
HETATM   28  C13 UNL     1      11.094 -38.977   4.870  1.00  0.00     0.251 C 
BRANCH  28  29
HETATM   29  C14 UNL     1       9.785 -38.251   4.577  1.00  0.00     0.144 C 
BRANCH  29  30
HETATM   30  N7  UNL     1       9.364 -38.439   3.238  1.00  0.00    -0.409 N 
BRANCH  30  31
HETATM   31  C15 UNL     1       9.776 -37.478   2.279  1.00  0.00     0.112 C 
HETATM   32  C16 UNL     1      10.118 -38.222   0.981  1.00  0.00     0.026 C 
ENDBRANCH  30  31
BRANCH  30  33
HETATM   33  C17 UNL     1       9.244 -39.789   2.809  1.00  0.00     0.147 C 
BRANCH  33  34
HETATM   34  C18 UNL     1       8.135 -40.480   3.530  1.00  0.00     0.291 C 
BRANCH  34  35
HETATM   35  N8  UNL     1       8.272 -41.896   3.666  1.00  0.00     0.090 N 
HETATM   36  C19 UNL     1       8.244 -42.514   2.351  1.00  0.00     0.272 C 
HETATM   37  C20 UNL     1       7.520 -43.840   2.347  1.00  0.00     0.030 C 
HETATM   38  C21 UNL     1       6.109 -43.729   2.879  1.00  0.00     0.003 C 
HETATM   39  C22 UNL     1       6.015 -42.689   3.979  1.00  0.00     0.030 C 
HETATM   40  C23 UNL     1       7.394 -42.540   4.585  1.00  0.00     0.272 C 
ENDBRANCH  34  35
ENDBRANCH  33  34
ENDBRANCH  30  33
ENDBRANCH  29  30
ENDBRANCH  28  29
ENDBRANCH  25  28
ENDBRANCH  24  25
ENDBRANCH  23  24
ENDBRANCH  22  23
ENDBRANCH   1  22
TORSDOF 17
ENDMDL
