MODEL 1
REMARK VINA RESULT: -7.879318623      0.000      0.000
REMARK  13 active torsions:
REMARK  status: ('A' for Active; 'I' for Inactive)
REMARK    1  A    between atoms: C2_2  and  C3_3 
REMARK    2  A    between atoms: C3_3  and  C4_4 
REMARK    3  A    between atoms: C4_4  and  C5_5 
REMARK    4  A    between atoms: C5_5  and  C6_6 
REMARK    5  A    between atoms: C6_6  and  N1_7 
REMARK       I    between atoms: C7_9  and  N3_11 
REMARK    6  A    between atoms: N3_11  and  C8_13 
REMARK    7  A    between atoms: C8_13  and  C9_14 
REMARK    8  A    between atoms: C9_14  and  C10_15 
REMARK    9  A    between atoms: C10_15  and  C11_16 
REMARK   10  A    between atoms: C11_16  and  N4_17 
REMARK   11  A    between atoms: N4_17  and  C12_19 
REMARK   12  A    between atoms: C13_22  and  N6_23 
REMARK   13  A    between atoms: C14_28  and  C15_29 
ROOT
HETATM    1  C12 UNL     1      13.562  40.253  -9.549  1.00  0.00     0.695 A 
HETATM    2  N5  UNL     1      13.540  41.095 -10.597  1.00  0.00    -0.022 N 
ATOM      3  H5  UNL     1      13.328  42.083 -10.459  1.00  0.00     0.203 HD
HETATM    4  C13 UNL     1      13.799  40.624 -11.823  1.00  0.00     0.691 A 
HETATM    5  N7  UNL     1      14.073  39.322 -11.978  1.00  0.00    -0.179 N 
ATOM      6  H7  UNL     1      14.271  38.959 -12.911  1.00  0.00     0.185 HD
HETATM    7  C14 UNL     1      14.092  38.484 -10.924  1.00  0.00     0.121 A 
HETATM    8  N9  UNL     1      13.842  38.920  -9.699  1.00  0.00    -0.175 N 
HETATM    9  C19 UNL     1      13.871  38.002  -8.600  1.00  0.00     0.177 C 
ENDROOT
BRANCH   1  10
HETATM   10  N4  UNL     1      13.329  40.636  -8.358  1.00  0.00    -0.225 N 
ATOM     11  H4  UNL     1      13.970  40.274  -7.652  1.00  0.00     0.177 HD
BRANCH  10  12
HETATM   12  C11 UNL     1      12.311  41.489  -7.868  1.00  0.00     0.138 C 
BRANCH  12  13
HETATM   13  C10 UNL     1      11.619  40.946  -6.604  1.00  0.00     0.022 C 
BRANCH  13  14
HETATM   14  C9  UNL     1      11.268  39.511  -6.763  1.00  0.00     0.021 C 
BRANCH  14  15
HETATM   15  C8  UNL     1      11.771  38.643  -5.657  1.00  0.00     0.122 C 
BRANCH  15  16
HETATM   16  N3  UNL     1      10.822  37.887  -4.921  1.00  0.00    -0.365 N 
HETATM   17  C7  UNL     1       9.841  38.426  -4.062  1.00  0.00     0.183 C 
HETATM   18  N1  UNL     1      10.149  39.400  -3.243  1.00  0.00    -0.365 N 
HETATM   19  N2  UNL     1       8.526  37.906  -4.078  1.00  0.00    -0.064 NA
ATOM     20  H1  UNL     1      11.103  39.760  -3.247  1.00  0.00     0.162 HD
ATOM     21  H3  UNL     1      10.851  36.872  -5.021  1.00  0.00     0.162 HD
BRANCH  18  22
HETATM   22  C6  UNL     1       9.201  39.980  -2.344  1.00  0.00     0.122 C 
BRANCH  22  23
HETATM   23  C5  UNL     1       9.704  40.085  -0.961  1.00  0.00     0.020 C 
BRANCH  23  24
HETATM   24  C4  UNL     1      10.283  38.883  -0.306  1.00  0.00     0.002 C 
BRANCH  24  25
HETATM   25  C3  UNL     1       9.314  38.006   0.373  1.00  0.00    -0.000 C 
BRANCH  25  26
HETATM   26  C2  UNL     1       8.683  36.988  -0.576  1.00  0.00    -0.005 C 
HETATM   27  C1  UNL     1       9.715  36.064  -1.156  1.00  0.00     0.005 C 
ENDBRANCH  25  26
ENDBRANCH  24  25
ENDBRANCH  23  24
ENDBRANCH  22  23
ENDBRANCH  18  22
ENDBRANCH  15  16
ENDBRANCH  14  15
ENDBRANCH  13  14
ENDBRANCH  12  13
ENDBRANCH  10  12
ENDBRANCH   1  10
BRANCH   4  28
HETATM   28  N6  UNL     1      13.778  41.428 -12.827  1.00  0.00    -0.234 N 
ATOM     29  H62 UNL     1      13.611  42.426 -12.704  1.00  0.00     0.174 HD
ATOM     30  H61 UNL     1      13.932  41.061 -13.766  1.00  0.00     0.174 HD
ENDBRANCH   4  28
BRANCH   7  31
HETATM   31  C15 UNL     1      14.408  37.063 -11.208  1.00  0.00     0.081 C 
HETATM   32  C16 UNL     1      15.312  36.858 -12.373  1.00  0.00     0.135 C 
HETATM   33  N8  UNL     1      14.865  35.571 -12.930  1.00  0.00    -0.360 N 
HETATM   34  C17 UNL     1      13.623  35.201 -12.337  1.00  0.00     0.218 C 
ATOM     35  H8  UNL     1      15.367  35.028 -13.632  1.00  0.00     0.162 HD
HETATM   36  O1  UNL     1      13.035  34.101 -12.293  1.00  0.00    -0.274 OA
HETATM   37  C18 UNL     1      13.099  36.450 -11.728  1.00  0.00     0.116 C 
ENDBRANCH   7  31
TORSDOF 13
ENDMDL
MODEL 2
REMARK VINA RESULT: -7.857005782      1.556      1.831
REMARK  13 active torsions:
REMARK  status: ('A' for Active; 'I' for Inactive)
REMARK    1  A    between atoms: C2_2  and  C3_3 
REMARK    2  A    between atoms: C3_3  and  C4_4 
REMARK    3  A    between atoms: C4_4  and  C5_5 
REMARK    4  A    between atoms: C5_5  and  C6_6 
REMARK    5  A    between atoms: C6_6  and  N1_7 
REMARK       I    between atoms: C7_9  and  N3_11 
REMARK    6  A    between atoms: N3_11  and  C8_13 
REMARK    7  A    between atoms: C8_13  and  C9_14 
REMARK    8  A    between atoms: C9_14  and  C10_15 
REMARK    9  A    between atoms: C10_15  and  C11_16 
REMARK   10  A    between atoms: C11_16  and  N4_17 
REMARK   11  A    between atoms: N4_17  and  C12_19 
REMARK   12  A    between atoms: C13_22  and  N6_23 
REMARK   13  A    between atoms: C14_28  and  C15_29 
ROOT
HETATM    1  C12 UNL     1      14.869  40.169  -9.993  1.00  0.00     0.695 A 
HETATM    2  N5  UNL     1      15.956  40.504 -10.709  1.00  0.00    -0.022 N 
ATOM      3  H5  UNL     1      16.492  41.340 -10.471  1.00  0.00     0.203 HD
HETATM    4  C13 UNL     1      16.329  39.732 -11.736  1.00  0.00     0.691 A 
HETATM    5  N7  UNL     1      15.608  38.642 -12.029  1.00  0.00    -0.179 N 
ATOM      6  H7  UNL     1      15.889  38.050 -12.812  1.00  0.00     0.185 HD
HETATM    7  C14 UNL     1      14.519  38.313 -11.308  1.00  0.00     0.121 A 
HETATM    8  N9  UNL     1      14.126  39.056 -10.285  1.00  0.00    -0.175 N 
HETATM    9  C19 UNL     1      12.964  38.677  -9.539  1.00  0.00     0.177 C 
ENDROOT
BRANCH   1  10
HETATM   10  N4  UNL     1      14.463  40.858  -9.002  1.00  0.00    -0.225 N 
ATOM     11  H4  UNL     1      14.370  40.344  -8.125  1.00  0.00     0.177 HD
BRANCH  10  12
HETATM   12  C11 UNL     1      14.121  42.230  -8.936  1.00  0.00     0.138 C 
BRANCH  12  13
HETATM   13  C10 UNL     1      13.132  42.556  -7.803  1.00  0.00     0.022 C 
BRANCH  13  14
HETATM   14  C9  UNL     1      12.032  41.558  -7.750  1.00  0.00     0.021 C 
BRANCH  14  15
HETATM   15  C8  UNL     1      11.855  40.929  -6.407  1.00  0.00     0.122 C 
BRANCH  15  16
HETATM   16  N3  UNL     1      11.493  39.557  -6.358  1.00  0.00    -0.365 N 
HETATM   17  C7  UNL     1      10.764  38.944  -5.317  1.00  0.00     0.183 C 
HETATM   18  N1  UNL     1      11.038  39.228  -4.069  1.00  0.00    -0.365 N 
HETATM   19  N2  UNL     1       9.744  38.014  -5.623  1.00  0.00    -0.064 NA
ATOM     20  H1  UNL     1      11.778  39.901  -3.870  1.00  0.00     0.162 HD
ATOM     21  H3  UNL     1      11.783  38.968  -7.138  1.00  0.00     0.162 HD
BRANCH  18  22
HETATM   22  C6  UNL     1      10.341  38.631  -2.973  1.00  0.00     0.122 C 
BRANCH  22  23
HETATM   23  C5  UNL     1      10.875  39.035  -1.658  1.00  0.00     0.020 C 
BRANCH  23  24
HETATM   24  C4  UNL     1       9.930  39.285  -0.537  1.00  0.00     0.002 C 
BRANCH  24  25
HETATM   25  C3  UNL     1       9.678  38.131   0.344  1.00  0.00    -0.000 C 
BRANCH  25  26
HETATM   26  C2  UNL     1       8.586  37.210  -0.200  1.00  0.00    -0.005 C 
HETATM   27  C1  UNL     1       9.168  35.964  -0.803  1.00  0.00     0.005 C 
ENDBRANCH  25  26
ENDBRANCH  24  25
ENDBRANCH  23  24
ENDBRANCH  22  23
ENDBRANCH  18  22
ENDBRANCH  15  16
ENDBRANCH  14  15
ENDBRANCH  13  14
ENDBRANCH  12  13
ENDBRANCH  10  12
ENDBRANCH   1  10
BRANCH   4  28
HETATM   28  N6  UNL     1      17.369  40.051 -12.423  1.00  0.00    -0.234 N 
ATOM     29  H62 UNL     1      18.299  40.057 -12.006  1.00  0.00     0.174 HD
ATOM     30  H61 UNL     1      17.262  40.302 -13.405  1.00  0.00     0.174 HD
ENDBRANCH   4  28
BRANCH   7  31
HETATM   31  C15 UNL     1      13.795  37.085 -11.717  1.00  0.00     0.081 C 
HETATM   32  C16 UNL     1      14.533  35.820 -11.448  1.00  0.00     0.135 C 
HETATM   33  N8  UNL     1      14.105  34.934 -12.542  1.00  0.00    -0.360 N 
HETATM   34  C17 UNL     1      13.419  35.697 -13.533  1.00  0.00     0.218 C 
ATOM     35  H8  UNL     1      14.273  33.930 -12.586  1.00  0.00     0.162 HD
HETATM   36  O1  UNL     1      12.663  35.341 -14.459  1.00  0.00    -0.274 OA
HETATM   37  C18 UNL     1      13.787  37.109 -13.254  1.00  0.00     0.116 C 
ENDBRANCH   7  31
TORSDOF 13
ENDMDL
MODEL 3
REMARK VINA RESULT: -7.642652030      2.725      4.119
REMARK  13 active torsions:
REMARK  status: ('A' for Active; 'I' for Inactive)
REMARK    1  A    between atoms: C2_2  and  C3_3 
REMARK    2  A    between atoms: C3_3  and  C4_4 
REMARK    3  A    between atoms: C4_4  and  C5_5 
REMARK    4  A    between atoms: C5_5  and  C6_6 
REMARK    5  A    between atoms: C6_6  and  N1_7 
REMARK       I    between atoms: C7_9  and  N3_11 
REMARK    6  A    between atoms: N3_11  and  C8_13 
REMARK    7  A    between atoms: C8_13  and  C9_14 
REMARK    8  A    between atoms: C9_14  and  C10_15 
REMARK    9  A    between atoms: C10_15  and  C11_16 
REMARK   10  A    between atoms: C11_16  and  N4_17 
REMARK   11  A    between atoms: N4_17  and  C12_19 
REMARK   12  A    between atoms: C13_22  and  N6_23 
REMARK   13  A    between atoms: C14_28  and  C15_29 
ROOT
HETATM    1  C12 UNL     1      15.282  36.462 -11.930  1.00  0.00     0.695 A 
HETATM    2  N5  UNL     1      16.428  37.142 -12.104  1.00  0.00    -0.022 N 
ATOM      3  H5  UNL     1      16.994  37.412 -11.299  1.00  0.00     0.203 HD
HETATM    4  C13 UNL     1      16.820  37.461 -13.344  1.00  0.00     0.691 A 
HETATM    5  N7  UNL     1      16.059  37.096 -14.383  1.00  0.00    -0.179 N 
ATOM      6  H7  UNL     1      16.354  37.337 -15.330  1.00  0.00     0.185 HD
HETATM    7  C14 UNL     1      14.910  36.415 -14.201  1.00  0.00     0.121 A 
HETATM    8  N9  UNL     1      14.498  36.084 -12.987  1.00  0.00    -0.175 N 
HETATM    9  C19 UNL     1      13.272  35.360 -12.829  1.00  0.00     0.177 C 
ENDROOT
BRANCH   1  10
HETATM   10  N4  UNL     1      14.855  36.124 -10.779  1.00  0.00    -0.225 N 
ATOM     11  H4  UNL     1      14.722  35.122 -10.642  1.00  0.00     0.177 HD
BRANCH  10  12
HETATM   12  C11 UNL     1      14.536  36.933  -9.662  1.00  0.00     0.138 C 
BRANCH  12  13
HETATM   13  C10 UNL     1      13.195  37.673  -9.810  1.00  0.00     0.022 C 
BRANCH  13  14
HETATM   14  C9  UNL     1      13.079  38.773  -8.818  1.00  0.00     0.021 C 
BRANCH  14  15
HETATM   15  C8  UNL     1      12.513  38.341  -7.505  1.00  0.00     0.122 C 
BRANCH  15  16
HETATM   16  N3  UNL     1      11.251  38.864  -7.120  1.00  0.00    -0.365 N 
HETATM   17  C7  UNL     1      10.848  39.128  -5.794  1.00  0.00     0.183 C 
HETATM   18  N1  UNL     1      11.122  38.271  -4.842  1.00  0.00    -0.365 N 
HETATM   19  N2  UNL     1      10.141  40.315  -5.494  1.00  0.00    -0.064 NA
ATOM     20  H1  UNL     1      11.633  37.421  -5.080  1.00  0.00     0.162 HD
ATOM     21  H3  UNL     1      10.581  39.065  -7.862  1.00  0.00     0.162 HD
BRANCH  18  22
HETATM   22  C6  UNL     1      10.732  38.479  -3.483  1.00  0.00     0.122 C 
BRANCH  22  23
HETATM   23  C5  UNL     1       9.400  37.925  -3.171  1.00  0.00     0.020 C 
BRANCH  23  24
HETATM   24  C4  UNL     1       9.160  37.326  -1.831  1.00  0.00     0.002 C 
BRANCH  24  25
HETATM   25  C3  UNL     1      10.189  37.617  -0.817  1.00  0.00    -0.000 C 
BRANCH  25  26
HETATM   26  C2  UNL     1       9.740  38.686   0.178  1.00  0.00    -0.005 C 
HETATM   27  C1  UNL     1       8.756  38.135   1.170  1.00  0.00     0.005 C 
ENDBRANCH  25  26
ENDBRANCH  24  25
ENDBRANCH  23  24
ENDBRANCH  22  23
ENDBRANCH  18  22
ENDBRANCH  15  16
ENDBRANCH  14  15
ENDBRANCH  13  14
ENDBRANCH  12  13
ENDBRANCH  10  12
ENDBRANCH   1  10
BRANCH   4  28
HETATM   28  N6  UNL     1      17.916  38.112 -13.513  1.00  0.00    -0.234 N 
ATOM     29  H62 UNL     1      18.823  37.680 -13.335  1.00  0.00     0.174 HD
ATOM     30  H61 UNL     1      17.880  39.080 -13.831  1.00  0.00     0.174 HD
ENDBRANCH   4  28
BRANCH   7  31
HETATM   31  C15 UNL     1      14.146  36.060 -15.421  1.00  0.00     0.081 C 
HETATM   32  C16 UNL     1      14.863  35.143 -16.348  1.00  0.00     0.135 C 
HETATM   33  N8  UNL     1      14.379  35.552 -17.676  1.00  0.00    -0.360 N 
HETATM   34  C17 UNL     1      13.678  36.789 -17.569  1.00  0.00     0.218 C 
ATOM     35  H8  UNL     1      14.523  35.031 -18.541  1.00  0.00     0.162 HD
HETATM   36  O1  UNL     1      12.884  37.348 -18.351  1.00  0.00    -0.274 OA
HETATM   37  C18 UNL     1      14.086  37.349 -16.255  1.00  0.00     0.116 C 
ENDBRANCH   7  31
TORSDOF 13
ENDMDL
MODEL 4
REMARK VINA RESULT: -7.409647325      1.107      1.168
REMARK  13 active torsions:
REMARK  status: ('A' for Active; 'I' for Inactive)
REMARK    1  A    between atoms: C2_2  and  C3_3 
REMARK    2  A    between atoms: C3_3  and  C4_4 
REMARK    3  A    between atoms: C4_4  and  C5_5 
REMARK    4  A    between atoms: C5_5  and  C6_6 
REMARK    5  A    between atoms: C6_6  and  N1_7 
REMARK       I    between atoms: C7_9  and  N3_11 
REMARK    6  A    between atoms: N3_11  and  C8_13 
REMARK    7  A    between atoms: C8_13  and  C9_14 
REMARK    8  A    between atoms: C9_14  and  C10_15 
REMARK    9  A    between atoms: C10_15  and  C11_16 
REMARK   10  A    between atoms: C11_16  and  N4_17 
REMARK   11  A    between atoms: N4_17  and  C12_19 
REMARK   12  A    between atoms: C13_22  and  N6_23 
REMARK   13  A    between atoms: C14_28  and  C15_29 
ROOT
HETATM    1  C12 UNL     1      13.340  39.972 -10.106  1.00  0.00     0.695 A 
HETATM    2  N5  UNL     1      13.757  41.056 -10.783  1.00  0.00    -0.022 N 
ATOM      3  H5  UNL     1      13.644  41.988 -10.385  1.00  0.00     0.203 HD
HETATM    4  C13 UNL     1      14.322  40.900 -11.987  1.00  0.00     0.691 A 
HETATM    5  N7  UNL     1      14.458  39.666 -12.489  1.00  0.00    -0.179 N 
ATOM      6  H7  UNL     1      14.888  39.542 -13.406  1.00  0.00     0.185 HD
HETATM    7  C14 UNL     1      14.037  38.584 -11.805  1.00  0.00     0.121 A 
HETATM    8  N9  UNL     1      13.476  38.707 -10.612  1.00  0.00    -0.175 N 
HETATM    9  C19 UNL     1      13.039  37.537  -9.911  1.00  0.00     0.177 C 
ENDROOT
BRANCH   1  10
HETATM   10  N4  UNL     1      12.799  40.051  -8.956  1.00  0.00    -0.225 N 
ATOM     11  H4  UNL     1      12.464  39.166  -8.573  1.00  0.00     0.177 HD
BRANCH  10  12
HETATM   12  C11 UNL     1      12.592  41.182  -8.131  1.00  0.00     0.138 C 
BRANCH  12  13
HETATM   13  C10 UNL     1      11.827  40.858  -6.835  1.00  0.00     0.022 C 
BRANCH  13  14
HETATM   14  C9  UNL     1      11.375  39.443  -6.822  1.00  0.00     0.021 C 
BRANCH  14  15
HETATM   15  C8  UNL     1      11.870  38.664  -5.647  1.00  0.00     0.122 C 
BRANCH  15  16
HETATM   16  N3  UNL     1      10.928  37.894  -4.915  1.00  0.00    -0.365 N 
HETATM   17  C7  UNL     1       9.957  38.417  -4.034  1.00  0.00     0.183 C 
HETATM   18  N1  UNL     1      10.276  39.374  -3.200  1.00  0.00    -0.365 N 
HETATM   19  N2  UNL     1       8.642  37.898  -4.046  1.00  0.00    -0.064 NA
ATOM     20  H1  UNL     1      11.231  39.734  -3.208  1.00  0.00     0.162 HD
ATOM     21  H3  UNL     1      10.955  36.882  -5.036  1.00  0.00     0.162 HD
BRANCH  18  22
HETATM   22  C6  UNL     1       9.339  39.936  -2.279  1.00  0.00     0.122 C 
BRANCH  22  23
HETATM   23  C5  UNL     1       9.842  39.976  -0.892  1.00  0.00     0.020 C 
BRANCH  23  24
HETATM   24  C4  UNL     1      10.239  38.707  -0.228  1.00  0.00     0.002 C 
BRANCH  24  25
HETATM   25  C3  UNL     1       9.144  37.967   0.423  1.00  0.00    -0.000 C 
BRANCH  25  26
HETATM   26  C2  UNL     1       8.604  36.835  -0.450  1.00  0.00    -0.005 C 
HETATM   27  C1  UNL     1       9.716  36.082  -1.122  1.00  0.00     0.005 C 
ENDBRANCH  25  26
ENDBRANCH  24  25
ENDBRANCH  23  24
ENDBRANCH  22  23
ENDBRANCH  18  22
ENDBRANCH  15  16
ENDBRANCH  14  15
ENDBRANCH  13  14
ENDBRANCH  12  13
ENDBRANCH  10  12
ENDBRANCH   1  10
BRANCH   4  28
HETATM   28  N6  UNL     1      14.722  41.935 -12.637  1.00  0.00    -0.234 N 
ATOM     29  H62 UNL     1      14.065  42.647 -12.956  1.00  0.00     0.174 HD
ATOM     30  H61 UNL     1      15.715  42.048 -12.839  1.00  0.00     0.174 HD
ENDBRANCH   4  28
BRANCH   7  31
HETATM   31  C15 UNL     1      14.237  37.266 -12.453  1.00  0.00     0.081 C 
HETATM   32  C16 UNL     1      15.647  36.789 -12.450  1.00  0.00     0.135 C 
HETATM   33  N8  UNL     1      15.752  36.021 -13.701  1.00  0.00    -0.360 N 
HETATM   34  C17 UNL     1      14.607  36.273 -14.512  1.00  0.00     0.218 C 
ATOM     35  H8  UNL     1      16.524  35.404 -13.949  1.00  0.00     0.162 HD
HETATM   36  O1  UNL     1      14.145  35.649 -15.489  1.00  0.00    -0.274 OA
HETATM   37  C18 UNL     1      14.003  37.509 -13.953  1.00  0.00     0.116 C 
ENDBRANCH   7  31
TORSDOF 13
ENDMDL
MODEL 5
REMARK VINA RESULT: -7.293285162      1.077      2.021
REMARK  13 active torsions:
REMARK  status: ('A' for Active; 'I' for Inactive)
REMARK    1  A    between atoms: C2_2  and  C3_3 
REMARK    2  A    between atoms: C3_3  and  C4_4 
REMARK    3  A    between atoms: C4_4  and  C5_5 
REMARK    4  A    between atoms: C5_5  and  C6_6 
REMARK    5  A    between atoms: C6_6  and  N1_7 
REMARK       I    between atoms: C7_9  and  N3_11 
REMARK    6  A    between atoms: N3_11  and  C8_13 
REMARK    7  A    between atoms: C8_13  and  C9_14 
REMARK    8  A    between atoms: C9_14  and  C10_15 
REMARK    9  A    between atoms: C10_15  and  C11_16 
REMARK   10  A    between atoms: C11_16  and  N4_17 
REMARK   11  A    between atoms: N4_17  and  C12_19 
REMARK   12  A    between atoms: C13_22  and  N6_23 
REMARK   13  A    between atoms: C14_28  and  C15_29 
ROOT
HETATM    1  C12 UNL     1      13.774  40.488  -9.849  1.00  0.00     0.695 A 
HETATM    2  N5  UNL     1      13.701  41.263 -10.945  1.00  0.00    -0.022 N 
ATOM      3  H5  UNL     1      13.515  42.262 -10.859  1.00  0.00     0.203 HD
HETATM    4  C13 UNL     1      13.874  40.710 -12.152  1.00  0.00     0.691 A 
HETATM    5  N7  UNL     1      14.116  39.396 -12.240  1.00  0.00    -0.179 N 
ATOM      6  H7  UNL     1      14.249  38.971 -13.158  1.00  0.00     0.185 HD
HETATM    7  C14 UNL     1      14.187  38.625 -11.137  1.00  0.00     0.121 A 
HETATM    8  N9  UNL     1      14.021  39.143  -9.930  1.00  0.00    -0.175 N 
HETATM    9  C19 UNL     1      14.103  38.296  -8.778  1.00  0.00     0.177 C 
ENDROOT
BRANCH   1  10
HETATM   10  N4  UNL     1      13.622  40.950  -8.673  1.00  0.00    -0.225 N 
ATOM     11  H4  UNL     1      14.270  40.584  -7.975  1.00  0.00     0.177 HD
BRANCH  10  12
HETATM   12  C11 UNL     1      12.688  41.898  -8.189  1.00  0.00     0.138 C 
BRANCH  12  13
HETATM   13  C10 UNL     1      11.289  41.303  -7.949  1.00  0.00     0.022 C 
BRANCH  13  14
HETATM   14  C9  UNL     1      11.087  40.976  -6.513  1.00  0.00     0.021 C 
BRANCH  14  15
HETATM   15  C8  UNL     1      11.673  39.664  -6.107  1.00  0.00     0.122 C 
BRANCH  15  16
HETATM   16  N3  UNL     1      10.780  38.614  -5.767  1.00  0.00    -0.365 N 
HETATM   17  C7  UNL     1      10.175  38.436  -4.504  1.00  0.00     0.183 C 
HETATM   18  N1  UNL     1      10.877  38.601  -3.411  1.00  0.00    -0.365 N 
HETATM   19  N2  UNL     1       8.812  38.071  -4.420  1.00  0.00    -0.064 NA
ATOM     20  H1  UNL     1      11.860  38.864  -3.495  1.00  0.00     0.162 HD
ATOM     21  H3  UNL     1      10.558  37.933  -6.493  1.00  0.00     0.162 HD
BRANCH  18  22
HETATM   22  C6  UNL     1      10.322  38.426  -2.106  1.00  0.00     0.122 C 
BRANCH  22  23
HETATM   23  C5  UNL     1      10.760  39.458  -1.147  1.00  0.00     0.020 C 
BRANCH  23  24
HETATM   24  C4  UNL     1       9.771  40.449  -0.647  1.00  0.00     0.002 C 
BRANCH  24  25
HETATM   25  C3  UNL     1       8.955  41.104  -1.684  1.00  0.00    -0.000 C 
BRANCH  25  26
HETATM   26  C2  UNL     1       8.606  42.548  -1.326  1.00  0.00    -0.005 C 
HETATM   27  C1  UNL     1       7.372  43.010  -2.046  1.00  0.00     0.005 C 
ENDBRANCH  25  26
ENDBRANCH  24  25
ENDBRANCH  23  24
ENDBRANCH  22  23
ENDBRANCH  18  22
ENDBRANCH  15  16
ENDBRANCH  14  15
ENDBRANCH  13  14
ENDBRANCH  12  13
ENDBRANCH  10  12
ENDBRANCH   1  10
BRANCH   4  28
HETATM   28  N6  UNL     1      13.804  41.449 -13.202  1.00  0.00    -0.234 N 
ATOM     29  H62 UNL     1      13.001  42.055 -13.373  1.00  0.00     0.174 HD
ATOM     30  H61 UNL     1      14.567  41.432 -13.879  1.00  0.00     0.174 HD
ENDBRANCH   4  28
BRANCH   7  31
HETATM   31  C15 UNL     1      14.460  37.183 -11.348  1.00  0.00     0.081 C 
HETATM   32  C16 UNL     1      15.359  36.892 -12.498  1.00  0.00     0.135 C 
HETATM   33  N8  UNL     1      14.874  35.593 -12.991  1.00  0.00    -0.360 N 
HETATM   34  C17 UNL     1      13.620  35.291 -12.385  1.00  0.00     0.218 C 
ATOM     35  H8  UNL     1      15.361  35.000 -13.664  1.00  0.00     0.162 HD
HETATM   36  O1  UNL     1      12.999  34.213 -12.287  1.00  0.00    -0.274 OA
HETATM   37  C18 UNL     1      13.134  36.584 -11.841  1.00  0.00     0.116 C 
ENDBRANCH   7  31
TORSDOF 13
ENDMDL
