MODEL 1
REMARK VINA RESULT: -7.012956009      0.000      0.000
REMARK  12 active torsions:
REMARK  status: ('A' for Active; 'I' for Inactive)
REMARK    1  A    between atoms: O1_2  and  C2_3 
REMARK    2  A    between atoms: C2_3  and  C3_4 
REMARK    3  A    between atoms: N2_9  and  C5_10 
REMARK    4  A    between atoms: C5_10  and  C6_11 
REMARK    5  A    between atoms: C6_11  and  N3_12 
REMARK    6  A    between atoms: N3_12  and  C7_15 
REMARK    7  A    between atoms: C7_15  and  C8_16 
REMARK    8  A    between atoms: C8_16  and  C9_17 
REMARK    9  A    between atoms: C9_17  and  C10_18 
REMARK   10  A    between atoms: C10_18  and  N4_19 
REMARK   11  A    between atoms: C16_27  and  N6_28 
REMARK   12  A    between atoms: C17_33  and  N8_34 
ROOT
HETATM    1  C3  UNL     1      13.864  41.841  -9.755  1.00  0.00     0.150 C 
HETATM    2  N1  UNL     1      13.849  41.928  -8.285  1.00  0.00    -0.332 N 
ATOM      3  H1  UNL     1      14.503  42.555  -7.816  1.00  0.00     0.165 HD
HETATM    4  C4  UNL     1      12.952  41.166  -7.510  1.00  0.00     0.324 C 
HETATM    5  O2  UNL     1      12.547  41.522  -6.399  1.00  0.00    -0.247 OA
HETATM    6  N2  UNL     1      12.485  39.911  -8.035  1.00  0.00    -0.283 N 
HETATM    7  C15 UNL     1      12.987  39.569  -9.337  1.00  0.00     0.139 A 
HETATM    8  N5  UNL     1      12.815  38.278  -9.763  1.00  0.00    -0.176 N 
ATOM      9  H5  UNL     1      12.192  37.656  -9.248  1.00  0.00     0.186 HD
HETATM   10  C16 UNL     1      13.461  37.818 -10.855  1.00  0.00     0.679 A 
HETATM   11  N7  UNL     1      14.284  38.619 -11.546  1.00  0.00    -0.177 N 
ATOM     12  H7  UNL     1      14.761  38.244 -12.365  1.00  0.00     0.186 HD
HETATM   13  C17 UNL     1      14.506  39.919 -11.192  1.00  0.00     0.127 A 
HETATM   14  C18 UNL     1      13.829  40.369 -10.073  1.00  0.00     0.056 A 
ENDROOT
BRANCH   6  15
HETATM   15  C5  UNL     1      11.585  39.062  -7.328  1.00  0.00     0.163 C 
BRANCH  15  16
HETATM   16  C6  UNL     1      12.286  38.101  -6.393  1.00  0.00     0.252 C 
BRANCH  16  17
HETATM   17  N3  UNL     1      11.658  38.079  -5.089  1.00  0.00    -0.074 N 
ATOM     18  H32 UNL     1      11.379  37.133  -4.828  1.00  0.00     0.277 HD
ATOM     19  H31 UNL     1      12.334  38.256  -4.347  1.00  0.00     0.277 HD
BRANCH  17  20
HETATM   20  C7  UNL     1      10.553  38.988  -5.015  1.00  0.00     0.232 C 
BRANCH  20  21
HETATM   21  C8  UNL     1       9.363  38.388  -4.344  1.00  0.00     0.029 C 
BRANCH  21  22
HETATM   22  C9  UNL     1       9.484  38.438  -2.861  1.00  0.00     0.032 C 
BRANCH  22  23
HETATM   23  C10 UNL     1       9.686  37.058  -2.262  1.00  0.00     0.272 C 
BRANCH  23  24
HETATM   24  N4  UNL     1       9.693  37.117  -0.808  1.00  0.00     0.088 N 
HETATM   25  C11 UNL     1       8.333  37.178  -0.284  1.00  0.00     0.272 C 
HETATM   26  C12 UNL     1       8.595  37.609   1.143  1.00  0.00     0.032 C 
HETATM   27  C13 UNL     1       9.549  38.775   0.902  1.00  0.00     0.032 C 
HETATM   28  C14 UNL     1      10.270  38.373  -0.345  1.00  0.00     0.272 C 
ENDBRANCH  23  24
ENDBRANCH  22  23
ENDBRANCH  21  22
ENDBRANCH  20  21
ENDBRANCH  17  20
ENDBRANCH  16  17
ENDBRANCH  15  16
ENDBRANCH   6  15
BRANCH   1  29
HETATM   29  C2  UNL     1      12.553  42.542 -10.106  1.00  0.00     0.197 C 
BRANCH  29  30
HETATM   30  O1  UNL     1      12.072  42.640 -11.305  1.00  0.00    -0.394 OA
HETATM   31  C1  UNL     1      12.635  43.072 -12.424  1.00  0.00     0.201 C 
ENDBRANCH  29  30
ENDBRANCH   1  29
BRANCH  10  32
HETATM   32  N6  UNL     1      13.269  36.591 -11.220  1.00  0.00    -0.234 N 
ATOM     33  H62 UNL     1      12.368  36.136 -11.069  1.00  0.00     0.174 HD
ATOM     34  H61 UNL     1      14.037  36.086 -11.662  1.00  0.00     0.174 HD
ENDBRANCH  10  32
BRANCH  13  35
HETATM   35  N8  UNL     1      15.322  40.640 -11.872  1.00  0.00    -0.384 N 
ATOM     36  H82 UNL     1      15.044  41.212 -12.670  1.00  0.00     0.157 HD
ATOM     37  H81 UNL     1      16.307  40.680 -11.611  1.00  0.00     0.157 HD
ENDBRANCH  13  35
TORSDOF 12
ENDMDL
MODEL 2
REMARK VINA RESULT: -6.766911804      2.227      3.144
REMARK  12 active torsions:
REMARK  status: ('A' for Active; 'I' for Inactive)
REMARK    1  A    between atoms: O1_2  and  C2_3 
REMARK    2  A    between atoms: C2_3  and  C3_4 
REMARK    3  A    between atoms: N2_9  and  C5_10 
REMARK    4  A    between atoms: C5_10  and  C6_11 
REMARK    5  A    between atoms: C6_11  and  N3_12 
REMARK    6  A    between atoms: N3_12  and  C7_15 
REMARK    7  A    between atoms: C7_15  and  C8_16 
REMARK    8  A    between atoms: C8_16  and  C9_17 
REMARK    9  A    between atoms: C9_17  and  C10_18 
REMARK   10  A    between atoms: C10_18  and  N4_19 
REMARK   11  A    between atoms: C16_27  and  N6_28 
REMARK   12  A    between atoms: C17_33  and  N8_34 
ROOT
HETATM    1  C3  UNL     1      15.277  39.505 -12.815  1.00  0.00     0.150 C 
HETATM    2  N1  UNL     1      15.511  40.060 -11.471  1.00  0.00    -0.332 N 
ATOM      3  H1  UNL     1      16.329  40.648 -11.311  1.00  0.00     0.165 HD
HETATM    4  C4  UNL     1      14.633  39.798 -10.401  1.00  0.00     0.324 C 
HETATM    5  O2  UNL     1      14.476  40.571  -9.450  1.00  0.00    -0.247 OA
HETATM    6  N2  UNL     1      13.880  38.573 -10.414  1.00  0.00    -0.283 N 
HETATM    7  C15 UNL     1      14.102  37.732 -11.558  1.00  0.00     0.139 A 
HETATM    8  N5  UNL     1      13.647  36.441 -11.492  1.00  0.00    -0.176 N 
ATOM      9  H5  UNL     1      13.017  36.167 -10.738  1.00  0.00     0.186 HD
HETATM   10  C16 UNL     1      14.022  35.528 -12.412  1.00  0.00     0.679 A 
HETATM   11  N7  UNL     1      14.849  35.867 -13.410  1.00  0.00    -0.177 N 
ATOM     12  H7  UNL     1      15.119  35.156 -14.088  1.00  0.00     0.186 HD
HETATM   13  C17 UNL     1      15.344  37.133 -13.550  1.00  0.00     0.127 A 
HETATM   14  C18 UNL     1      14.941  38.053 -12.599  1.00  0.00     0.056 A 
ENDROOT
BRANCH   6  15
HETATM   15  C5  UNL     1      12.972  38.211  -9.378  1.00  0.00     0.163 C 
BRANCH  15  16
HETATM   16  C6  UNL     1      13.666  37.699  -8.134  1.00  0.00     0.252 C 
BRANCH  16  17
HETATM   17  N3  UNL     1      12.941  38.068  -6.935  1.00  0.00    -0.074 N 
ATOM     18  H32 UNL     1      12.649  37.244  -6.410  1.00  0.00     0.277 HD
ATOM     19  H31 UNL     1      13.560  38.488  -6.242  1.00  0.00     0.277 HD
BRANCH  17  20
HETATM   20  C7  UNL     1      11.829  38.922  -7.227  1.00  0.00     0.232 C 
BRANCH  20  21
HETATM   21  C8  UNL     1      11.213  39.498  -5.997  1.00  0.00     0.029 C 
BRANCH  21  22
HETATM   22  C9  UNL     1      10.784  38.436  -5.046  1.00  0.00     0.032 C 
BRANCH  22  23
HETATM   23  C10 UNL     1      10.059  39.012  -3.843  1.00  0.00     0.272 C 
BRANCH  23  24
HETATM   24  N4  UNL     1      10.357  38.248  -2.641  1.00  0.00     0.088 N 
HETATM   25  C11 UNL     1       9.335  37.234  -2.403  1.00  0.00     0.272 C 
HETATM   26  C12 UNL     1       9.634  36.858  -0.967  1.00  0.00     0.032 C 
HETATM   27  C13 UNL     1       9.728  38.245  -0.339  1.00  0.00     0.032 C 
HETATM   28  C14 UNL     1      10.252  39.090  -1.455  1.00  0.00     0.272 C 
ENDBRANCH  23  24
ENDBRANCH  22  23
ENDBRANCH  21  22
ENDBRANCH  20  21
ENDBRANCH  17  20
ENDBRANCH  16  17
ENDBRANCH  15  16
ENDBRANCH   6  15
BRANCH   1  29
HETATM   29  C2  UNL     1      14.067  40.320 -13.265  1.00  0.00     0.197 C 
BRANCH  29  30
HETATM   30  O1  UNL     1      13.856  40.708 -14.484  1.00  0.00    -0.394 OA
HETATM   31  C1  UNL     1      14.018  40.066 -15.630  1.00  0.00     0.201 C 
ENDBRANCH  29  30
ENDBRANCH   1  29
BRANCH  10  32
HETATM   32  N6  UNL     1      13.567  34.320 -12.310  1.00  0.00    -0.234 N 
ATOM     33  H62 UNL     1      12.566  34.132 -12.368  1.00  0.00     0.174 HD
ATOM     34  H61 UNL     1      14.230  33.557 -12.169  1.00  0.00     0.174 HD
ENDBRANCH  10  32
BRANCH  13  35
HETATM   35  N8  UNL     1      16.152  37.404 -14.509  1.00  0.00    -0.384 N 
ATOM     36  H82 UNL     1      16.008  38.164 -15.175  1.00  0.00     0.157 HD
ATOM     37  H81 UNL     1      17.007  36.860 -14.627  1.00  0.00     0.157 HD
ENDBRANCH  13  35
TORSDOF 12
ENDMDL
MODEL 3
REMARK VINA RESULT: -6.674830330      3.472      9.460
REMARK  12 active torsions:
REMARK  status: ('A' for Active; 'I' for Inactive)
REMARK    1  A    between atoms: O1_2  and  C2_3 
REMARK    2  A    between atoms: C2_3  and  C3_4 
REMARK    3  A    between atoms: N2_9  and  C5_10 
REMARK    4  A    between atoms: C5_10  and  C6_11 
REMARK    5  A    between atoms: C6_11  and  N3_12 
REMARK    6  A    between atoms: N3_12  and  C7_15 
REMARK    7  A    between atoms: C7_15  and  C8_16 
REMARK    8  A    between atoms: C8_16  and  C9_17 
REMARK    9  A    between atoms: C9_17  and  C10_18 
REMARK   10  A    between atoms: C10_18  and  N4_19 
REMARK   11  A    between atoms: C16_27  and  N6_28 
REMARK   12  A    between atoms: C17_33  and  N8_34 
ROOT
HETATM    1  C3  UNL     1      12.598  41.801  -8.699  1.00  0.00     0.150 C 
HETATM    2  N1  UNL     1      12.801  41.114  -9.986  1.00  0.00    -0.332 N 
ATOM      3  H1  UNL     1      12.410  41.522 -10.835  1.00  0.00     0.165 HD
HETATM    4  C4  UNL     1      13.524  39.908 -10.073  1.00  0.00     0.324 C 
HETATM    5  O2  UNL     1      14.136  39.558 -11.088  1.00  0.00    -0.247 OA
HETATM    6  N2  UNL     1      13.552  39.039  -8.927  1.00  0.00    -0.283 N 
HETATM    7  C15 UNL     1      12.831  39.518  -7.780  1.00  0.00     0.139 A 
HETATM    8  N5  UNL     1      12.578  38.625  -6.772  1.00  0.00    -0.176 N 
ATOM      9  H5  UNL     1      13.052  37.721  -6.770  1.00  0.00     0.186 HD
HETATM   10  C16 UNL     1      11.711  38.925  -5.784  1.00  0.00     0.679 A 
HETATM   11  N7  UNL     1      11.079  40.106  -5.768  1.00  0.00    -0.177 N 
ATOM     12  H7  UNL     1      10.425  40.304  -5.011  1.00  0.00     0.186 HD
HETATM   13  C17 UNL     1      11.278  41.054  -6.732  1.00  0.00     0.127 A 
HETATM   14  C18 UNL     1      12.176  40.726  -7.732  1.00  0.00     0.056 A 
ENDROOT
BRANCH   6  15
HETATM   15  C5  UNL     1      14.245  37.795  -8.915  1.00  0.00     0.163 C 
BRANCH  15  16
HETATM   16  C6  UNL     1      13.911  36.918 -10.101  1.00  0.00     0.252 C 
BRANCH  16  17
HETATM   17  N3  UNL     1      15.106  36.510 -10.811  1.00  0.00    -0.074 N 
ATOM     18  H32 UNL     1      15.643  37.316 -11.128  1.00  0.00     0.277 HD
ATOM     19  H31 UNL     1      15.792  36.099 -10.178  1.00  0.00     0.277 HD
BRANCH  17  20
HETATM   20  C7  UNL     1      14.804  35.625 -11.896  1.00  0.00     0.232 C 
BRANCH  20  21
HETATM   21  C8  UNL     1      13.414  35.803 -12.409  1.00  0.00     0.029 C 
BRANCH  21  22
HETATM   22  C9  UNL     1      13.383  35.904 -13.894  1.00  0.00     0.032 C 
BRANCH  22  23
HETATM   23  C10 UNL     1      14.742  36.267 -14.465  1.00  0.00     0.272 C 
BRANCH  23  24
HETATM   24  N4  UNL     1      14.710  36.278 -15.920  1.00  0.00     0.088 N 
HETATM   25  C11 UNL     1      13.389  35.903 -16.413  1.00  0.00     0.272 C 
HETATM   26  C12 UNL     1      13.696  35.617 -17.867  1.00  0.00     0.032 C 
HETATM   27  C13 UNL     1      14.919  34.716 -17.712  1.00  0.00     0.032 C 
HETATM   28  C14 UNL     1      15.563  35.228 -16.463  1.00  0.00     0.272 C 
ENDBRANCH  23  24
ENDBRANCH  22  23
ENDBRANCH  21  22
ENDBRANCH  20  21
ENDBRANCH  17  20
ENDBRANCH  16  17
ENDBRANCH  15  16
ENDBRANCH   6  15
BRANCH   1  29
HETATM   29  C2  UNL     1      14.007  42.318  -8.413  1.00  0.00     0.197 C 
BRANCH  29  30
HETATM   30  O1  UNL     1      14.284  43.267  -7.576  1.00  0.00    -0.394 OA
HETATM   31  C1  UNL     1      13.706  44.445  -7.391  1.00  0.00     0.201 C 
ENDBRANCH  29  30
ENDBRANCH   1  29
BRANCH  10  32
HETATM   32  N6  UNL     1      11.502  38.049  -4.853  1.00  0.00    -0.234 N 
ATOM     33  H62 UNL     1      10.777  37.340  -4.956  1.00  0.00     0.174 HD
ATOM     34  H61 UNL     1      12.079  38.082  -4.011  1.00  0.00     0.174 HD
ENDBRANCH  10  32
BRANCH  13  35
HETATM   35  N8  UNL     1      10.631  42.162  -6.687  1.00  0.00    -0.384 N 
ATOM     36  H82 UNL     1      11.029  43.063  -6.953  1.00  0.00     0.157 HD
ATOM     37  H81 UNL     1       9.655  42.172  -6.391  1.00  0.00     0.157 HD
ENDBRANCH  13  35
TORSDOF 12
ENDMDL
MODEL 4
REMARK VINA RESULT: -6.671235977      2.528      4.209
REMARK  12 active torsions:
REMARK  status: ('A' for Active; 'I' for Inactive)
REMARK    1  A    between atoms: O1_2  and  C2_3 
REMARK    2  A    between atoms: C2_3  and  C3_4 
REMARK    3  A    between atoms: N2_9  and  C5_10 
REMARK    4  A    between atoms: C5_10  and  C6_11 
REMARK    5  A    between atoms: C6_11  and  N3_12 
REMARK    6  A    between atoms: N3_12  and  C7_15 
REMARK    7  A    between atoms: C7_15  and  C8_16 
REMARK    8  A    between atoms: C8_16  and  C9_17 
REMARK    9  A    between atoms: C9_17  and  C10_18 
REMARK   10  A    between atoms: C10_18  and  N4_19 
REMARK   11  A    between atoms: C16_27  and  N6_28 
REMARK   12  A    between atoms: C17_33  and  N8_34 
ROOT
HETATM    1  C3  UNL     1      14.016  37.068 -12.379  1.00  0.00     0.150 C 
HETATM    2  N1  UNL     1      13.079  36.943 -11.250  1.00  0.00    -0.332 N 
ATOM      3  H1  UNL     1      12.384  36.196 -11.260  1.00  0.00     0.165 HD
HETATM    4  C4  UNL     1      13.119  37.830 -10.155  1.00  0.00     0.324 C 
HETATM    5  O2  UNL     1      12.748  37.519  -9.019  1.00  0.00    -0.247 OA
HETATM    6  N2  UNL     1      13.616  39.163 -10.369  1.00  0.00    -0.283 N 
HETATM    7  C15 UNL     1      14.043  39.447 -11.711  1.00  0.00     0.139 A 
HETATM    8  N5  UNL     1      14.250  40.760 -12.044  1.00  0.00    -0.176 N 
ATOM      9  H5  UNL     1      14.280  41.468 -11.310  1.00  0.00     0.186 HD
HETATM   10  C16 UNL     1      14.416  41.129 -13.331  1.00  0.00     0.679 A 
HETATM   11  N7  UNL     1      14.381  40.215 -14.311  1.00  0.00    -0.177 N 
ATOM     12  H7  UNL     1      14.506  40.523 -15.275  1.00  0.00     0.186 HD
HETATM   13  C17 UNL     1      14.185  38.887 -14.063  1.00  0.00     0.127 A 
HETATM   14  C18 UNL     1      14.023  38.532 -12.736  1.00  0.00     0.056 A 
ENDROOT
BRANCH   6  15
HETATM   15  C5  UNL     1      13.690  40.137  -9.332  1.00  0.00     0.163 C 
BRANCH  15  16
HETATM   16  C6  UNL     1      12.411  40.927  -9.169  1.00  0.00     0.252 C 
BRANCH  16  17
HETATM   17  N3  UNL     1      11.504  40.281  -8.242  1.00  0.00    -0.074 N 
ATOM     18  H32 UNL     1      10.597  40.746  -8.226  1.00  0.00     0.277 HD
ATOM     19  H31 UNL     1      11.210  39.367  -8.586  1.00  0.00     0.277 HD
BRANCH  17  20
HETATM   20  C7  UNL     1      12.065  40.188  -6.927  1.00  0.00     0.232 C 
BRANCH  20  21
HETATM   21  C8  UNL     1      11.025  40.209  -5.859  1.00  0.00     0.029 C 
BRANCH  21  22
HETATM   22  C9  UNL     1      10.806  38.856  -5.276  1.00  0.00     0.032 C 
BRANCH  22  23
HETATM   23  C10 UNL     1       9.813  38.888  -4.127  1.00  0.00     0.272 C 
BRANCH  23  24
HETATM   24  N4  UNL     1      10.290  38.094  -3.005  1.00  0.00     0.088 N 
HETATM   25  C11 UNL     1       9.216  37.271  -2.458  1.00  0.00     0.272 C 
HETATM   26  C12 UNL     1       9.818  36.861  -1.131  1.00  0.00     0.032 C 
HETATM   27  C13 UNL     1      10.300  38.216  -0.622  1.00  0.00     0.032 C 
HETATM   28  C14 UNL     1      10.641  38.950  -1.879  1.00  0.00     0.272 C 
ENDBRANCH  23  24
ENDBRANCH  22  23
ENDBRANCH  21  22
ENDBRANCH  20  21
ENDBRANCH  17  20
ENDBRANCH  16  17
ENDBRANCH  15  16
ENDBRANCH   6  15
BRANCH   1  29
HETATM   29  C2  UNL     1      15.324  36.623 -11.729  1.00  0.00     0.197 C 
BRANCH  29  30
HETATM   30  O1  UNL     1      16.417  36.371 -12.378  1.00  0.00    -0.394 OA
HETATM   31  C1  UNL     1      17.224  37.180 -13.049  1.00  0.00     0.201 C 
ENDBRANCH  29  30
ENDBRANCH   1  29
BRANCH  10  32
HETATM   32  N6  UNL     1      14.608  42.381 -13.599  1.00  0.00    -0.234 N 
ATOM     33  H62 UNL     1      13.839  43.049 -13.552  1.00  0.00     0.174 HD
ATOM     34  H61 UNL     1      15.546  42.688 -13.860  1.00  0.00     0.174 HD
ENDBRANCH  10  32
BRANCH  13  35
HETATM   35  N8  UNL     1      14.136  38.052 -15.037  1.00  0.00    -0.384 N 
ATOM     36  H82 UNL     1      14.042  38.325 -16.016  1.00  0.00     0.157 HD
ATOM     37  H81 UNL     1      14.212  37.051 -14.856  1.00  0.00     0.157 HD
ENDBRANCH  13  35
TORSDOF 12
ENDMDL
MODEL 5
REMARK VINA RESULT: -6.664440196      4.050      9.987
REMARK  12 active torsions:
REMARK  status: ('A' for Active; 'I' for Inactive)
REMARK    1  A    between atoms: O1_2  and  C2_3 
REMARK    2  A    between atoms: C2_3  and  C3_4 
REMARK    3  A    between atoms: N2_9  and  C5_10 
REMARK    4  A    between atoms: C5_10  and  C6_11 
REMARK    5  A    between atoms: C6_11  and  N3_12 
REMARK    6  A    between atoms: N3_12  and  C7_15 
REMARK    7  A    between atoms: C7_15  and  C8_16 
REMARK    8  A    between atoms: C8_16  and  C9_17 
REMARK    9  A    between atoms: C9_17  and  C10_18 
REMARK   10  A    between atoms: C10_18  and  N4_19 
REMARK   11  A    between atoms: C16_27  and  N6_28 
REMARK   12  A    between atoms: C17_33  and  N8_34 
ROOT
HETATM    1  C3  UNL     1      14.169  41.264  -9.788  1.00  0.00     0.150 C 
HETATM    2  N1  UNL     1      13.772  40.758 -11.113  1.00  0.00    -0.332 N 
ATOM      3  H1  UNL     1      13.510  41.421 -11.841  1.00  0.00     0.165 HD
HETATM    4  C4  UNL     1      13.746  39.378 -11.397  1.00  0.00     0.324 C 
HETATM    5  O2  UNL     1      13.911  38.918 -12.532  1.00  0.00    -0.247 OA
HETATM    6  N2  UNL     1      13.515  38.457 -10.317  1.00  0.00    -0.283 N 
HETATM    7  C15 UNL     1      13.347  39.063  -9.024  1.00  0.00     0.139 A 
HETATM    8  N5  UNL     1      12.844  38.279  -8.019  1.00  0.00    -0.176 N 
ATOM      9  H5  UNL     1      12.778  37.270  -8.151  1.00  0.00     0.186 HD
HETATM   10  C16 UNL     1      12.434  38.826  -6.856  1.00  0.00     0.679 A 
HETATM   11  N7  UNL     1      12.511  40.150  -6.661  1.00  0.00    -0.177 N 
ATOM     12  H7  UNL     1      12.190  40.536  -5.774  1.00  0.00     0.186 HD
HETATM   13  C17 UNL     1      13.004  40.999  -7.610  1.00  0.00     0.127 A 
HETATM   14  C18 UNL     1      13.424  40.416  -8.792  1.00  0.00     0.056 A 
ENDROOT
BRANCH   6  15
HETATM   15  C5  UNL     1      13.461  37.046 -10.500  1.00  0.00     0.163 C 
BRANCH  15  16
HETATM   16  C6  UNL     1      14.818  36.430 -10.763  1.00  0.00     0.252 C 
BRANCH  16  17
HETATM   17  N3  UNL     1      14.870  35.803 -12.067  1.00  0.00    -0.074 N 
ATOM     18  H32 UNL     1      15.353  36.394 -12.744  1.00  0.00     0.277 HD
ATOM     19  H31 UNL     1      15.504  35.004 -12.071  1.00  0.00     0.277 HD
BRANCH  17  20
HETATM   20  C7  UNL     1      13.566  35.435 -12.533  1.00  0.00     0.232 C 
BRANCH  20  21
HETATM   21  C8  UNL     1      13.342  35.809 -13.960  1.00  0.00     0.029 C 
BRANCH  21  22
HETATM   22  C9  UNL     1      14.589  36.312 -14.599  1.00  0.00     0.032 C 
BRANCH  22  23
HETATM   23  C10 UNL     1      14.486  36.319 -16.114  1.00  0.00     0.272 C 
BRANCH  23  24
HETATM   24  N4  UNL     1      14.623  34.974 -16.652  1.00  0.00     0.088 N 
HETATM   25  C11 UNL     1      16.020  34.671 -16.944  1.00  0.00     0.272 C 
HETATM   26  C12 UNL     1      15.872  33.441 -17.812  1.00  0.00     0.032 C 
HETATM   27  C13 UNL     1      14.805  33.927 -18.789  1.00  0.00     0.032 C 
HETATM   28  C14 UNL     1      13.996  34.876 -17.964  1.00  0.00     0.272 C 
ENDBRANCH  23  24
ENDBRANCH  22  23
ENDBRANCH  21  22
ENDBRANCH  20  21
ENDBRANCH  17  20
ENDBRANCH  16  17
ENDBRANCH  15  16
ENDBRANCH   6  15
BRANCH   1  29
HETATM   29  C2  UNL     1      15.668  40.970  -9.796  1.00  0.00     0.197 C 
BRANCH  29  30
HETATM   30  O1  UNL     1      16.511  41.479 -10.637  1.00  0.00    -0.394 OA
HETATM   31  C1  UNL     1      17.696  41.043 -11.038  1.00  0.00     0.201 C 
ENDBRANCH  29  30
ENDBRANCH   1  29
BRANCH  10  32
HETATM   32  N6  UNL     1      11.965  38.047  -5.934  1.00  0.00    -0.234 N 
ATOM     33  H62 UNL     1      11.776  37.064  -6.128  1.00  0.00     0.174 HD
ATOM     34  H61 UNL     1      11.787  38.436  -5.008  1.00  0.00     0.174 HD
ENDBRANCH  10  32
BRANCH  13  35
HETATM   35  N8  UNL     1      13.037  42.263  -7.387  1.00  0.00    -0.384 N 
ATOM     36  H82 UNL     1      12.226  42.809  -7.093  1.00  0.00     0.157 HD
ATOM     37  H81 UNL     1      13.914  42.776  -7.481  1.00  0.00     0.157 HD
ENDBRANCH  13  35
TORSDOF 12
ENDMDL
