MODEL 1
REMARK VINA RESULT: -7.867149815      0.000      0.000
REMARK  13 active torsions:
REMARK  status: ('A' for Active; 'I' for Inactive)
REMARK    1  A    between atoms: N1_5  and  C5_6 
REMARK    2  A    between atoms: C5_6  and  C6_7 
REMARK    3  A    between atoms: C6_7  and  C7_8 
REMARK    4  A    between atoms: N2_9  and  C8_11 
REMARK    5  A    between atoms: C10_13  and  N3_14 
REMARK    6  A    between atoms: N3_14  and  C11_15 
REMARK    7  A    between atoms: N3_14  and  C14_18 
REMARK    8  A    between atoms: C11_15  and  C12_16 
REMARK    9  A    between atoms: C14_18  and  C15_19 
REMARK   10  A    between atoms: C15_19  and  C16_20 
REMARK   11  A    between atoms: C16_20  and  O1_21 
REMARK   12  A    between atoms: C17_25  and  N5_26 
REMARK   13  A    between atoms: C20_33  and  N7_34 
ROOT
HETATM    1  C1  UNL     1       9.259  41.736  -0.900  1.00  0.00     0.012 C 
HETATM    2  C2  UNL     1       9.708  40.626  -0.729  1.00  0.00    -0.109 C 
HETATM    3  C3  UNL     1      10.252  39.256  -0.544  1.00  0.00     0.112 C 
HETATM    4  C4  UNL     1      10.768  38.856  -1.948  1.00  0.00     0.141 C 
HETATM    5  N1  UNL     1       9.701  38.160  -2.547  1.00  0.00    -0.392 N 
HETATM    6  C18 UNL     1       9.620  36.833  -1.987  1.00  0.00     0.124 C 
HETATM    7  C19 UNL     1       9.199  36.977  -0.545  1.00  0.00     0.054 C 
HETATM    8  C20 UNL     1       9.093  38.414  -0.113  1.00  0.00     0.202 C 
ENDROOT
BRANCH   8   9
HETATM    9  N7  UNL     1       9.034  38.435   1.336  1.00  0.00    -0.074 N 
ATOM     10  H73 UNL     1       8.373  39.125   1.693  1.00  0.00     0.274 HD
ATOM     11  H72 UNL     1       8.588  37.604   1.723  1.00  0.00     0.274 HD
ATOM     12  H71 UNL     1       9.979  38.577   1.690  1.00  0.00     0.274 HD
ENDBRANCH   8   9
BRANCH   5  13
HETATM   13  C5  UNL     1       9.382  38.280  -3.888  1.00  0.00     0.063 C 
BRANCH  13  14
HETATM   14  C6  UNL     1      10.284  38.867  -4.876  1.00  0.00     0.088 C 
BRANCH  14  15
HETATM   15  C7  UNL     1      11.457  38.027  -5.280  1.00  0.00     0.067 C 
HETATM   16  N2  UNL     1      12.316  38.447  -6.237  1.00  0.00    -0.355 N 
ATOM     17  H2  UNL     1      13.194  38.000  -5.973  1.00  0.00     0.166 HD
BRANCH  16  18
HETATM   18  C8  UNL     1      12.614  39.073  -7.249  1.00  0.00     0.124 A 
HETATM   19  C9  UNL     1      12.981  38.369  -8.426  1.00  0.00     0.098 A 
HETATM   20  C10 UNL     1      13.326  39.012  -9.575  1.00  0.00     0.122 A 
HETATM   21  N4  UNL     1      13.309  40.353  -9.561  1.00  0.00    -0.177 N 
HETATM   22  C17 UNL     1      12.960  41.035  -8.442  1.00  0.00     0.679 A 
ATOM     23  H4  UNL     1      13.563  40.868 -10.405  1.00  0.00     0.185 HD
HETATM   24  N6  UNL     1      12.617  40.415  -7.302  1.00  0.00    -0.177 N 
ATOM     25  H6  UNL     1      12.359  40.959  -6.478  1.00  0.00     0.185 HD
BRANCH  20  26
HETATM   26  N3  UNL     1      13.690  38.307 -10.791  1.00  0.00    -0.367 N 
BRANCH  26  27
HETATM   27  C11 UNL     1      14.652  38.919 -11.643  1.00  0.00     0.124 C 
BRANCH  27  28
HETATM   28  C12 UNL     1      14.100  39.476 -12.907  1.00  0.00     0.015 C 
HETATM   29  C13 UNL     1      14.456  38.770 -14.170  1.00  0.00     0.006 C 
ENDBRANCH  27  28
ENDBRANCH  26  27
BRANCH  26  30
HETATM   30  C14 UNL     1      13.066  37.038 -11.077  1.00  0.00     0.126 C 
BRANCH  30  31
HETATM   31  C15 UNL     1      14.151  36.065 -11.580  1.00  0.00     0.046 C 
BRANCH  31  32
HETATM   32  C16 UNL     1      13.660  35.347 -12.827  1.00  0.00     0.165 C 
BRANCH  32  33
HETATM   33  O1  UNL     1      12.970  34.224 -12.381  1.00  0.00    -0.401 OA
ATOM     34  H1  UNL     1      12.082  34.512 -12.205  1.00  0.00     0.209 HD
ENDBRANCH  32  33
ENDBRANCH  31  32
ENDBRANCH  30  31
ENDBRANCH  26  30
ENDBRANCH  20  26
BRANCH  22  35
HETATM   35  N5  UNL     1      12.959  42.340  -8.480  1.00  0.00    -0.234 N 
ATOM     36  H52 UNL     1      13.635  42.854  -7.916  1.00  0.00     0.174 HD
ATOM     37  H51 UNL     1      12.278  42.811  -9.075  1.00  0.00     0.174 HD
ENDBRANCH  22  35
ENDBRANCH  16  18
ENDBRANCH  14  15
ENDBRANCH  13  14
ENDBRANCH   5  13
TORSDOF 13
ENDMDL
MODEL 2
REMARK VINA RESULT: -7.428884441      1.225      1.871
REMARK  13 active torsions:
REMARK  status: ('A' for Active; 'I' for Inactive)
REMARK    1  A    between atoms: N1_5  and  C5_6 
REMARK    2  A    between atoms: C5_6  and  C6_7 
REMARK    3  A    between atoms: C6_7  and  C7_8 
REMARK    4  A    between atoms: N2_9  and  C8_11 
REMARK    5  A    between atoms: C10_13  and  N3_14 
REMARK    6  A    between atoms: N3_14  and  C11_15 
REMARK    7  A    between atoms: N3_14  and  C14_18 
REMARK    8  A    between atoms: C11_15  and  C12_16 
REMARK    9  A    between atoms: C14_18  and  C15_19 
REMARK   10  A    between atoms: C15_19  and  C16_20 
REMARK   11  A    between atoms: C16_20  and  O1_21 
REMARK   12  A    between atoms: C17_25  and  N5_26 
REMARK   13  A    between atoms: C20_33  and  N7_34 
ROOT
HETATM    1  C1  UNL     1       9.260  41.684  -0.877  1.00  0.00     0.012 C 
HETATM    2  C2  UNL     1       9.707  40.571  -0.717  1.00  0.00    -0.109 C 
HETATM    3  C3  UNL     1      10.248  39.198  -0.547  1.00  0.00     0.112 C 
HETATM    4  C4  UNL     1      10.813  38.834  -1.943  1.00  0.00     0.141 C 
HETATM    5  N1  UNL     1       9.770  38.151  -2.594  1.00  0.00    -0.392 N 
HETATM    6  C18 UNL     1       9.674  36.810  -2.069  1.00  0.00     0.124 C 
HETATM    7  C19 UNL     1       9.203  36.918  -0.640  1.00  0.00     0.054 C 
HETATM    8  C20 UNL     1       9.077  38.344  -0.176  1.00  0.00     0.202 C 
ENDROOT
BRANCH   8   9
HETATM    9  N7  UNL     1       8.969  38.330   1.269  1.00  0.00    -0.074 N 
ATOM     10  H73 UNL     1       8.175  37.781   1.599  1.00  0.00     0.274 HD
ATOM     11  H72 UNL     1       9.707  37.784   1.714  1.00  0.00     0.274 HD
ATOM     12  H71 UNL     1       8.942  39.295   1.595  1.00  0.00     0.274 HD
ENDBRANCH   8   9
BRANCH   5  13
HETATM   13  C5  UNL     1       9.496  38.302  -3.942  1.00  0.00     0.063 C 
BRANCH  13  14
HETATM   14  C6  UNL     1      10.439  38.892  -4.888  1.00  0.00     0.088 C 
BRANCH  14  15
HETATM   15  C7  UNL     1      11.496  37.975  -5.425  1.00  0.00     0.067 C 
HETATM   16  N2  UNL     1      12.325  38.374  -6.417  1.00  0.00    -0.355 N 
ATOM     17  H2  UNL     1      13.171  37.831  -6.245  1.00  0.00     0.166 HD
BRANCH  16  18
HETATM   18  C8  UNL     1      12.613  39.034  -7.411  1.00  0.00     0.124 A 
HETATM   19  C9  UNL     1      13.098  38.376  -8.572  1.00  0.00     0.098 A 
HETATM   20  C10 UNL     1      13.438  39.059  -9.699  1.00  0.00     0.122 A 
HETATM   21  N4  UNL     1      13.299  40.393  -9.680  1.00  0.00    -0.177 N 
HETATM   22  C17 UNL     1      12.836  41.030  -8.575  1.00  0.00     0.679 A 
ATOM     23  H4  UNL     1      13.545  40.936 -10.507  1.00  0.00     0.185 HD
HETATM   24  N6  UNL     1      12.497  40.371  -7.456  1.00  0.00    -0.177 N 
ATOM     25  H6  UNL     1      12.152  40.882  -6.644  1.00  0.00     0.185 HD
BRANCH  20  26
HETATM   26  N3  UNL     1      13.921  38.400 -10.900  1.00  0.00    -0.367 N 
BRANCH  26  27
HETATM   27  C11 UNL     1      13.983  36.978 -10.889  1.00  0.00     0.124 C 
BRANCH  27  28
HETATM   28  C12 UNL     1      13.087  36.307 -11.868  1.00  0.00     0.015 C 
HETATM   29  C13 UNL     1      13.725  35.726 -13.083  1.00  0.00     0.006 C 
ENDBRANCH  27  28
ENDBRANCH  26  27
BRANCH  26  30
HETATM   30  C14 UNL     1      14.316  39.206 -12.030  1.00  0.00     0.126 C 
BRANCH  30  31
HETATM   31  C15 UNL     1      15.855  39.299 -12.046  1.00  0.00     0.046 C 
BRANCH  31  32
HETATM   32  C16 UNL     1      16.415  38.369 -13.110  1.00  0.00     0.165 C 
BRANCH  32  33
HETATM   33  O1  UNL     1      17.458  37.674 -12.507  1.00  0.00    -0.401 OA
ATOM     34  H1  UNL     1      18.260  38.072 -12.825  1.00  0.00     0.209 HD
ENDBRANCH  32  33
ENDBRANCH  31  32
ENDBRANCH  30  31
ENDBRANCH  26  30
ENDBRANCH  20  26
BRANCH  22  35
HETATM   35  N5  UNL     1      12.719  42.330  -8.607  1.00  0.00    -0.234 N 
ATOM     36  H52 UNL     1      12.046  42.752  -9.246  1.00  0.00     0.174 HD
ATOM     37  H51 UNL     1      13.307  42.888  -7.989  1.00  0.00     0.174 HD
ENDBRANCH  22  35
ENDBRANCH  16  18
ENDBRANCH  14  15
ENDBRANCH  13  14
ENDBRANCH   5  13
TORSDOF 13
ENDMDL
MODEL 3
REMARK VINA RESULT: -7.283820409      2.628      4.116
REMARK  13 active torsions:
REMARK  status: ('A' for Active; 'I' for Inactive)
REMARK    1  A    between atoms: N1_5  and  C5_6 
REMARK    2  A    between atoms: C5_6  and  C6_7 
REMARK    3  A    between atoms: C6_7  and  C7_8 
REMARK    4  A    between atoms: N2_9  and  C8_11 
REMARK    5  A    between atoms: C10_13  and  N3_14 
REMARK    6  A    between atoms: N3_14  and  C11_15 
REMARK    7  A    between atoms: N3_14  and  C14_18 
REMARK    8  A    between atoms: C11_15  and  C12_16 
REMARK    9  A    between atoms: C14_18  and  C15_19 
REMARK   10  A    between atoms: C15_19  and  C16_20 
REMARK   11  A    between atoms: C16_20  and  O1_21 
REMARK   12  A    between atoms: C17_25  and  N5_26 
REMARK   13  A    between atoms: C20_33  and  N7_34 
ROOT
HETATM    1  C1  UNL     1       9.289  41.754  -0.897  1.00  0.00     0.012 C 
HETATM    2  C2  UNL     1       9.741  40.640  -0.761  1.00  0.00    -0.109 C 
HETATM    3  C3  UNL     1      10.289  39.267  -0.619  1.00  0.00     0.112 C 
HETATM    4  C4  UNL     1      10.791  38.907  -2.040  1.00  0.00     0.141 C 
HETATM    5  N1  UNL     1       9.720  38.226  -2.647  1.00  0.00    -0.392 N 
HETATM    6  C18 UNL     1       9.647  36.884  -2.122  1.00  0.00     0.124 C 
HETATM    7  C19 UNL     1       9.240  36.987  -0.673  1.00  0.00     0.054 C 
HETATM    8  C20 UNL     1       9.136  38.412  -0.200  1.00  0.00     0.202 C 
ENDROOT
BRANCH   8   9
HETATM    9  N7  UNL     1       9.092  38.393   1.249  1.00  0.00    -0.074 N 
ATOM     10  H73 UNL     1       9.766  39.031   1.672  1.00  0.00     0.274 HD
ATOM     11  H72 UNL     1       8.244  38.820   1.622  1.00  0.00     0.274 HD
ATOM     12  H71 UNL     1       9.215  37.429   1.558  1.00  0.00     0.274 HD
ENDBRANCH   8   9
BRANCH   5  13
HETATM   13  C5  UNL     1       9.386  38.382  -3.981  1.00  0.00     0.063 C 
BRANCH  13  14
HETATM   14  C6  UNL     1      10.344  38.802  -5.000  1.00  0.00     0.088 C 
BRANCH  14  15
HETATM   15  C7  UNL     1      11.440  37.831  -5.317  1.00  0.00     0.067 C 
HETATM   16  N2  UNL     1      12.380  38.122  -6.245  1.00  0.00    -0.355 N 
ATOM     17  H2  UNL     1      13.194  37.599  -5.923  1.00  0.00     0.166 HD
BRANCH  16  18
HETATM   18  C8  UNL     1      12.787  38.673  -7.264  1.00  0.00     0.124 A 
HETATM   19  C9  UNL     1      12.459  40.033  -7.504  1.00  0.00     0.098 A 
HETATM   20  C10 UNL     1      12.879  40.690  -8.619  1.00  0.00     0.122 A 
HETATM   21  N4  UNL     1      13.624  40.004  -9.499  1.00  0.00    -0.177 N 
HETATM   22  C17 UNL     1      13.943  38.704  -9.277  1.00  0.00     0.679 A 
ATOM     23  H4  UNL     1      13.955  40.466 -10.345  1.00  0.00     0.185 HD
HETATM   24  N6  UNL     1      13.536  38.042  -8.182  1.00  0.00    -0.177 N 
ATOM     25  H6  UNL     1      13.794  37.064  -8.048  1.00  0.00     0.185 HD
BRANCH  20  26
HETATM   26  N3  UNL     1      12.565  42.085  -8.873  1.00  0.00    -0.367 N 
BRANCH  26  27
HETATM   27  C11 UNL     1      13.651  42.966  -9.142  1.00  0.00     0.124 C 
BRANCH  27  28
HETATM   28  C12 UNL     1      14.670  43.048  -8.062  1.00  0.00     0.015 C 
HETATM   29  C13 UNL     1      16.018  43.556  -8.441  1.00  0.00     0.006 C 
ENDBRANCH  27  28
ENDBRANCH  26  27
BRANCH  26  30
HETATM   30  C14 UNL     1      11.186  42.510  -8.836  1.00  0.00     0.126 C 
BRANCH  30  31
HETATM   31  C15 UNL     1      10.789  42.996 -10.244  1.00  0.00     0.046 C 
BRANCH  31  32
HETATM   32  C16 UNL     1       9.427  43.668 -10.191  1.00  0.00     0.165 C 
BRANCH  32  33
HETATM   33  O1  UNL     1       8.576  42.881 -10.961  1.00  0.00    -0.401 OA
ATOM     34  H1  UNL     1       8.165  42.270 -10.360  1.00  0.00     0.209 HD
ENDBRANCH  32  33
ENDBRANCH  31  32
ENDBRANCH  30  31
ENDBRANCH  26  30
ENDBRANCH  20  26
BRANCH  22  35
HETATM   35  N5  UNL     1      14.670  38.079 -10.164  1.00  0.00    -0.234 N 
ATOM     36  H52 UNL     1      14.860  38.531 -11.058  1.00  0.00     0.174 HD
ATOM     37  H51 UNL     1      15.029  37.153  -9.935  1.00  0.00     0.174 HD
ENDBRANCH  22  35
ENDBRANCH  16  18
ENDBRANCH  14  15
ENDBRANCH  13  14
ENDBRANCH   5  13
TORSDOF 13
ENDMDL
MODEL 4
REMARK VINA RESULT: -7.189879062      4.229     10.045
REMARK  13 active torsions:
REMARK  status: ('A' for Active; 'I' for Inactive)
REMARK    1  A    between atoms: N1_5  and  C5_6 
REMARK    2  A    between atoms: C5_6  and  C6_7 
REMARK    3  A    between atoms: C6_7  and  C7_8 
REMARK    4  A    between atoms: N2_9  and  C8_11 
REMARK    5  A    between atoms: C10_13  and  N3_14 
REMARK    6  A    between atoms: N3_14  and  C11_15 
REMARK    7  A    between atoms: N3_14  and  C14_18 
REMARK    8  A    between atoms: C11_15  and  C12_16 
REMARK    9  A    between atoms: C14_18  and  C15_19 
REMARK   10  A    between atoms: C15_19  and  C16_20 
REMARK   11  A    between atoms: C16_20  and  O1_21 
REMARK   12  A    between atoms: C17_25  and  N5_26 
REMARK   13  A    between atoms: C20_33  and  N7_34 
ROOT
HETATM    1  C1  UNL     1      17.478  38.106 -13.190  1.00  0.00     0.012 C 
HETATM    2  C2  UNL     1      16.548  37.982 -13.954  1.00  0.00    -0.109 C 
HETATM    3  C3  UNL     1      15.393  37.814 -14.874  1.00  0.00     0.112 C 
HETATM    4  C4  UNL     1      14.167  37.709 -13.933  1.00  0.00     0.141 C 
HETATM    5  N1  UNL     1      13.978  36.330 -13.729  1.00  0.00    -0.392 N 
HETATM    6  C18 UNL     1      13.371  35.751 -14.903  1.00  0.00     0.124 C 
HETATM    7  C19 UNL     1      14.386  35.819 -16.017  1.00  0.00     0.054 C 
HETATM    8  C20 UNL     1      15.645  36.537 -15.611  1.00  0.00     0.202 C 
ENDROOT
BRANCH   8   9
HETATM    9  N7  UNL     1      16.382  36.851 -16.819  1.00  0.00    -0.074 N 
ATOM     10  H73 UNL     1      15.909  37.543 -17.400  1.00  0.00     0.274 HD
ATOM     11  H72 UNL     1      17.232  37.383 -16.634  1.00  0.00     0.274 HD
ATOM     12  H71 UNL     1      16.564  35.979 -17.315  1.00  0.00     0.274 HD
ENDBRANCH   8   9
BRANCH   5  13
HETATM   13  C5  UNL     1      13.594  35.794 -12.512  1.00  0.00     0.063 C 
BRANCH  13  14
HETATM   14  C6  UNL     1      13.270  36.610 -11.346  1.00  0.00     0.088 C 
BRANCH  14  15
HETATM   15  C7  UNL     1      14.363  36.783 -10.335  1.00  0.00     0.067 C 
HETATM   16  N2  UNL     1      14.118  37.364  -9.138  1.00  0.00    -0.355 N 
ATOM     17  H2  UNL     1      14.809  36.930  -8.525  1.00  0.00     0.166 HD
BRANCH  16  18
HETATM   18  C8  UNL     1      13.518  38.127  -8.388  1.00  0.00     0.124 A 
HETATM   19  C9  UNL     1      13.332  39.482  -8.769  1.00  0.00     0.098 A 
HETATM   20  C10 UNL     1      12.679  40.372  -7.973  1.00  0.00     0.122 A 
HETATM   21  N4  UNL     1      12.210  39.925  -6.799  1.00  0.00    -0.177 N 
HETATM   22  C17 UNL     1      12.382  38.631  -6.427  1.00  0.00     0.679 A 
ATOM     23  H4  UNL     1      11.716  40.565  -6.178  1.00  0.00     0.185 HD
HETATM   24  N6  UNL     1      13.024  37.741  -7.201  1.00  0.00    -0.177 N 
ATOM     25  H6  UNL     1      13.136  36.777  -6.889  1.00  0.00     0.185 HD
BRANCH  20  26
HETATM   26  N3  UNL     1      12.468  41.758  -8.355  1.00  0.00    -0.367 N 
BRANCH  26  27
HETATM   27  C11 UNL     1      13.612  42.517  -8.733  1.00  0.00     0.124 C 
BRANCH  27  28
HETATM   28  C12 UNL     1      14.442  43.002  -7.598  1.00  0.00     0.015 C 
HETATM   29  C13 UNL     1      15.688  43.743  -7.938  1.00  0.00     0.006 C 
ENDBRANCH  27  28
ENDBRANCH  26  27
BRANCH  26  30
HETATM   30  C14 UNL     1      11.129  42.295  -8.329  1.00  0.00     0.126 C 
BRANCH  30  31
HETATM   31  C15 UNL     1      10.702  42.605  -9.777  1.00  0.00     0.046 C 
BRANCH  31  32
HETATM   32  C16 UNL     1       9.512  43.551  -9.771  1.00  0.00     0.165 C 
BRANCH  32  33
HETATM   33  O1  UNL     1       8.676  43.129 -10.800  1.00  0.00    -0.401 OA
ATOM     34  H1  UNL     1       8.192  43.898 -11.079  1.00  0.00     0.209 HD
ENDBRANCH  32  33
ENDBRANCH  31  32
ENDBRANCH  30  31
ENDBRANCH  26  30
ENDBRANCH  20  26
BRANCH  22  35
HETATM   35  N5  UNL     1      11.906  38.244  -5.274  1.00  0.00    -0.234 N 
ATOM     36  H52 UNL     1      12.379  38.535  -4.419  1.00  0.00     0.174 HD
ATOM     37  H51 UNL     1      11.071  37.660  -5.263  1.00  0.00     0.174 HD
ENDBRANCH  22  35
ENDBRANCH  16  18
ENDBRANCH  14  15
ENDBRANCH  13  14
ENDBRANCH   5  13
TORSDOF 13
ENDMDL
MODEL 5
REMARK VINA RESULT: -7.178992720      4.247      9.348
REMARK  13 active torsions:
REMARK  status: ('A' for Active; 'I' for Inactive)
REMARK    1  A    between atoms: N1_5  and  C5_6 
REMARK    2  A    between atoms: C5_6  and  C6_7 
REMARK    3  A    between atoms: C6_7  and  C7_8 
REMARK    4  A    between atoms: N2_9  and  C8_11 
REMARK    5  A    between atoms: C10_13  and  N3_14 
REMARK    6  A    between atoms: N3_14  and  C11_15 
REMARK    7  A    between atoms: N3_14  and  C14_18 
REMARK    8  A    between atoms: C11_15  and  C12_16 
REMARK    9  A    between atoms: C14_18  and  C15_19 
REMARK   10  A    between atoms: C15_19  and  C16_20 
REMARK   11  A    between atoms: C16_20  and  O1_21 
REMARK   12  A    between atoms: C17_25  and  N5_26 
REMARK   13  A    between atoms: C20_33  and  N7_34 
ROOT
HETATM    1  C1  UNL     1      13.762  41.143 -12.108  1.00  0.00     0.012 C 
HETATM    2  C2  UNL     1      14.481  40.535 -12.868  1.00  0.00    -0.109 C 
HETATM    3  C3  UNL     1      15.354  39.765 -13.791  1.00  0.00     0.112 C 
HETATM    4  C4  UNL     1      14.483  38.561 -14.226  1.00  0.00     0.141 C 
HETATM    5  N1  UNL     1      14.815  37.526 -13.333  1.00  0.00    -0.392 N 
HETATM    6  C18 UNL     1      16.099  36.975 -13.695  1.00  0.00     0.124 C 
HETATM    7  C19 UNL     1      17.137  38.037 -13.427  1.00  0.00     0.054 C 
HETATM    8  C20 UNL     1      16.532  39.339 -12.975  1.00  0.00     0.202 C 
ENDROOT
BRANCH   8   9
HETATM    9  N7  UNL     1      17.553  40.361 -13.086  1.00  0.00    -0.074 N 
ATOM     10  H73 UNL     1      17.248  41.264 -12.721  1.00  0.00     0.274 HD
ATOM     11  H72 UNL     1      18.333  40.210 -12.447  1.00  0.00     0.274 HD
ATOM     12  H71 UNL     1      17.848  40.411 -14.061  1.00  0.00     0.274 HD
ENDBRANCH   8   9
BRANCH   5  13
HETATM   13  C5  UNL     1      13.884  36.632 -12.835  1.00  0.00     0.063 C 
BRANCH  13  14
HETATM   14  C6  UNL     1      13.432  36.639 -11.446  1.00  0.00     0.088 C 
BRANCH  14  15
HETATM   15  C7  UNL     1      14.500  36.782 -10.405  1.00  0.00     0.067 C 
HETATM   16  N2  UNL     1      14.230  37.345  -9.205  1.00  0.00    -0.355 N 
ATOM     17  H2  UNL     1      14.900  36.894  -8.581  1.00  0.00     0.166 HD
BRANCH  16  18
HETATM   18  C8  UNL     1      13.619  38.102  -8.457  1.00  0.00     0.124 A 
HETATM   19  C9  UNL     1      13.415  39.453  -8.842  1.00  0.00     0.098 A 
HETATM   20  C10 UNL     1      12.748  40.336  -8.049  1.00  0.00     0.122 A 
HETATM   21  N4  UNL     1      12.283  39.885  -6.875  1.00  0.00    -0.177 N 
HETATM   22  C17 UNL     1      12.473  38.595  -6.498  1.00  0.00     0.679 A 
ATOM     23  H4  UNL     1      11.780  40.520  -6.256  1.00  0.00     0.185 HD
HETATM   24  N6  UNL     1      13.128  37.712  -7.270  1.00  0.00    -0.177 N 
ATOM     25  H6  UNL     1      13.253  36.750  -6.955  1.00  0.00     0.185 HD
BRANCH  20  26
HETATM   26  N3  UNL     1      12.519  41.717  -8.434  1.00  0.00    -0.367 N 
BRANCH  26  27
HETATM   27  C11 UNL     1      13.656  42.500  -8.783  1.00  0.00     0.124 C 
BRANCH  27  28
HETATM   28  C12 UNL     1      14.453  42.992  -7.629  1.00  0.00     0.015 C 
HETATM   29  C13 UNL     1      15.686  43.771  -7.939  1.00  0.00     0.006 C 
ENDBRANCH  27  28
ENDBRANCH  26  27
BRANCH  26  30
HETATM   30  C14 UNL     1      11.170  42.228  -8.439  1.00  0.00     0.126 C 
BRANCH  30  31
HETATM   31  C15 UNL     1      10.822  42.666  -9.876  1.00  0.00     0.046 C 
BRANCH  31  32
HETATM   32  C16 UNL     1       9.560  43.515  -9.863  1.00  0.00     0.165 C 
BRANCH  32  33
HETATM   33  O1  UNL     1       8.720  42.976 -10.832  1.00  0.00    -0.401 OA
ATOM     34  H1  UNL     1       7.833  43.144 -10.536  1.00  0.00     0.209 HD
ENDBRANCH  32  33
ENDBRANCH  31  32
ENDBRANCH  30  31
ENDBRANCH  26  30
ENDBRANCH  20  26
BRANCH  22  35
HETATM   35  N5  UNL     1      12.001  38.204  -5.346  1.00  0.00    -0.234 N 
ATOM     36  H52 UNL     1      12.468  37.446  -4.849  1.00  0.00     0.174 HD
ATOM     37  H51 UNL     1      11.175  38.671  -4.973  1.00  0.00     0.174 HD
ENDBRANCH  22  35
ENDBRANCH  16  18
ENDBRANCH  14  15
ENDBRANCH  13  14
ENDBRANCH   5  13
TORSDOF 13
ENDMDL
