MODEL 1
REMARK VINA RESULT: -7.862511410      0.000      0.000
REMARK  14 active torsions:
REMARK  status: ('A' for Active; 'I' for Inactive)
REMARK    1  A    between atoms: N1_1  and  C1_4 
REMARK    2  A    between atoms: C3_8  and  C4_9 
REMARK    3  A    between atoms: C4_9  and  C5_10 
REMARK    4  A    between atoms: C5_10  and  O1_11 
REMARK    5  A    between atoms: O1_11  and  C6_12 
REMARK       I    between atoms: N3_15  and  C9_16 
REMARK       I    between atoms: C9_16  and  N4_18 
REMARK    6  A    between atoms: N4_18  and  C10_20 
REMARK    7  A    between atoms: C10_20  and  C11_21 
REMARK    8  A    between atoms: C11_21  and  C12_22 
REMARK    9  A    between atoms: C12_22  and  O3_23 
REMARK   10  A    between atoms: O3_23  and  C13_24 
REMARK   11  A    between atoms: C13_24  and  C14_25 
REMARK   12  A    between atoms: C14_25  and  C15_26 
REMARK   13  A    between atoms: C15_26  and  O4_27 
REMARK   14  A    between atoms: C18_31  and  N5_32 
ROOT
HETATM    1  C6  UNL     1      13.946  39.112  -8.710  1.00  0.00     0.124 C 
HETATM    2  C7  UNL     1      12.996  40.214  -9.196  1.00  0.00     0.052 C 
HETATM    3  C8  UNL     1      12.692  41.044  -7.986  1.00  0.00     0.130 C 
HETATM    4  N3  UNL     1      12.057  40.216  -6.991  1.00  0.00    -0.334 N 
HETATM    5  C9  UNL     1      11.019  40.827  -6.198  1.00  0.00     0.318 C 
HETATM    6  O2  UNL     1      10.746  42.022  -6.444  1.00  0.00    -0.247 OA
HETATM    7  N4  UNL     1      10.341  40.123  -5.192  1.00  0.00    -0.343 N 
ATOM      8  H4  UNL     1      10.597  39.151  -5.021  1.00  0.00     0.164 HD
HETATM    9  C16 UNL     1      12.388  38.839  -6.742  1.00  0.00     0.130 C 
HETATM   10  C17 UNL     1      13.198  38.163  -7.796  1.00  0.00     0.052 C 
ENDROOT
BRANCH   1  11
HETATM   11  O1  UNL     1      14.396  38.464  -9.831  1.00  0.00    -0.385 OA
BRANCH  11  12
HETATM   12  C5  UNL     1      13.936  37.184  -9.973  1.00  0.00     0.173 C 
BRANCH  12  13
HETATM   13  C4  UNL     1      12.968  36.989 -11.111  1.00  0.00     0.070 C 
BRANCH  13  14
HETATM   14  C3  UNL     1      13.682  36.941 -12.413  1.00  0.00     0.004 A 
HETATM   15  C2  UNL     1      14.004  38.096 -13.112  1.00  0.00     0.117 A 
HETATM   16  N2  UNL     1      14.655  38.049 -14.293  1.00  0.00    -0.202 N 
HETATM   17  C1  UNL     1      15.021  36.883 -14.848  1.00  0.00     0.677 A 
ATOM     18  H2  UNL     1      14.874  38.921 -14.775  1.00  0.00     0.183 HD
HETATM   19  N6  UNL     1      14.714  35.760 -14.180  1.00  0.00    -0.177 N 
HETATM   20  C18 UNL     1      14.066  35.752 -12.998  1.00  0.00     0.122 A 
ATOM     21  H6  UNL     1      14.985  34.865 -14.588  1.00  0.00     0.185 HD
BRANCH  17  22
HETATM   22  N1  UNL     1      15.649  36.834 -15.990  1.00  0.00    -0.234 N 
ATOM     23  H12 UNL     1      16.460  37.426 -16.168  1.00  0.00     0.174 HD
ATOM     24  H11 UNL     1      15.353  36.207 -16.739  1.00  0.00     0.174 HD
ENDBRANCH  17  22
BRANCH  20  25
HETATM   25  N5  UNL     1      13.788  34.647 -12.388  1.00  0.00    -0.385 N 
ATOM     26  H52 UNL     1      14.522  34.061 -11.989  1.00  0.00     0.157 HD
ATOM     27  H51 UNL     1      12.811  34.366 -12.311  1.00  0.00     0.157 HD
ENDBRANCH  20  25
ENDBRANCH  13  14
ENDBRANCH  12  13
ENDBRANCH  11  12
ENDBRANCH   1  11
BRANCH   7  28
HETATM   28  C10 UNL     1       9.308  40.704  -4.398  1.00  0.00     0.126 C 
BRANCH  28  29
HETATM   29  C11 UNL     1       8.407  39.667  -3.706  1.00  0.00     0.046 C 
BRANCH  29  30
HETATM   30  C12 UNL     1       8.916  38.341  -4.078  1.00  0.00     0.169 C 
BRANCH  30  31
HETATM   31  O3  UNL     1       9.494  37.506  -3.250  1.00  0.00    -0.391 OA
BRANCH  31  32
HETATM   32  C13 UNL     1       9.356  37.374  -1.945  1.00  0.00     0.169 C 
BRANCH  32  33
HETATM   33  C14 UNL     1      10.545  37.662  -1.057  1.00  0.00     0.052 C 
BRANCH  33  34
HETATM   34  C15 UNL     1      11.035  39.076  -1.165  1.00  0.00     0.166 C 
BRANCH  34  35
HETATM   35  O4  UNL     1      11.760  39.159  -2.366  1.00  0.00    -0.401 OA
ATOM     36  H4  UNL     1      12.660  38.943  -2.154  1.00  0.00     0.209 HD
ENDBRANCH  34  35
ENDBRANCH  33  34
ENDBRANCH  32  33
ENDBRANCH  31  32
ENDBRANCH  30  31
ENDBRANCH  29  30
ENDBRANCH  28  29
ENDBRANCH   7  28
TORSDOF 14
ENDMDL
MODEL 2
REMARK VINA RESULT: -7.860426518      0.894      1.214
REMARK  14 active torsions:
REMARK  status: ('A' for Active; 'I' for Inactive)
REMARK    1  A    between atoms: N1_1  and  C1_4 
REMARK    2  A    between atoms: C3_8  and  C4_9 
REMARK    3  A    between atoms: C4_9  and  C5_10 
REMARK    4  A    between atoms: C5_10  and  O1_11 
REMARK    5  A    between atoms: O1_11  and  C6_12 
REMARK       I    between atoms: N3_15  and  C9_16 
REMARK       I    between atoms: C9_16  and  N4_18 
REMARK    6  A    between atoms: N4_18  and  C10_20 
REMARK    7  A    between atoms: C10_20  and  C11_21 
REMARK    8  A    between atoms: C11_21  and  C12_22 
REMARK    9  A    between atoms: C12_22  and  O3_23 
REMARK   10  A    between atoms: O3_23  and  C13_24 
REMARK   11  A    between atoms: C13_24  and  C14_25 
REMARK   12  A    between atoms: C14_25  and  C15_26 
REMARK   13  A    between atoms: C15_26  and  O4_27 
REMARK   14  A    between atoms: C18_31  and  N5_32 
ROOT
HETATM    1  C6  UNL     1      13.729  39.186  -8.966  1.00  0.00     0.124 C 
HETATM    2  C7  UNL     1      12.762  40.312  -9.354  1.00  0.00     0.052 C 
HETATM    3  C8  UNL     1      12.547  41.105  -8.099  1.00  0.00     0.130 C 
HETATM    4  N3  UNL     1      11.969  40.251  -7.093  1.00  0.00    -0.334 N 
HETATM    5  C9  UNL     1      10.992  40.845  -6.213  1.00  0.00     0.318 C 
HETATM    6  O2  UNL     1      10.718  42.050  -6.402  1.00  0.00    -0.247 OA
HETATM    7  N4  UNL     1      10.372  40.114  -5.188  1.00  0.00    -0.343 N 
ATOM      8  H4  UNL     1      10.629  39.135  -5.066  1.00  0.00     0.164 HD
HETATM    9  C16 UNL     1      12.299  38.863  -6.910  1.00  0.00     0.130 C 
HETATM   10  C17 UNL     1      13.031  38.214  -8.037  1.00  0.00     0.052 C 
ENDROOT
BRANCH   1  11
HETATM   11  O1  UNL     1      14.096  38.571 -10.135  1.00  0.00    -0.385 OA
BRANCH  11  12
HETATM   12  C5  UNL     1      13.571  37.321 -10.312  1.00  0.00     0.173 C 
BRANCH  12  13
HETATM   13  C4  UNL     1      14.568  36.276 -10.737  1.00  0.00     0.070 C 
BRANCH  13  14
HETATM   14  C3  UNL     1      14.611  36.154 -12.218  1.00  0.00     0.004 A 
HETATM   15  C2  UNL     1      13.532  35.666 -12.942  1.00  0.00     0.117 A 
HETATM   16  N2  UNL     1      13.574  35.560 -14.286  1.00  0.00    -0.202 N 
HETATM   17  C1  UNL     1      14.661  35.921 -14.987  1.00  0.00     0.677 A 
ATOM     18  H2  UNL     1      12.759  35.197 -14.782  1.00  0.00     0.183 HD
HETATM   19  N6  UNL     1      15.709  36.394 -14.296  1.00  0.00    -0.177 N 
HETATM   20  C18 UNL     1      15.719  36.520 -12.954  1.00  0.00     0.122 A 
ATOM     21  H6  UNL     1      16.543  36.673 -14.814  1.00  0.00     0.185 HD
BRANCH  17  22
HETATM   22  N1  UNL     1      14.704  35.818 -16.287  1.00  0.00    -0.234 N 
ATOM     23  H12 UNL     1      14.413  36.592 -16.884  1.00  0.00     0.174 HD
ATOM     24  H11 UNL     1      15.027  34.967 -16.747  1.00  0.00     0.174 HD
ENDBRANCH  17  22
BRANCH  20  25
HETATM   25  N5  UNL     1      16.751  36.980 -12.327  1.00  0.00    -0.385 N 
ATOM     26  H52 UNL     1      17.222  36.435 -11.605  1.00  0.00     0.157 HD
ATOM     27  H51 UNL     1      17.092  37.911 -12.568  1.00  0.00     0.157 HD
ENDBRANCH  20  25
ENDBRANCH  13  14
ENDBRANCH  12  13
ENDBRANCH  11  12
ENDBRANCH   1  11
BRANCH   7  28
HETATM   28  C10 UNL     1       9.401  40.679  -4.309  1.00  0.00     0.126 C 
BRANCH  28  29
HETATM   29  C11 UNL     1       8.403  39.649  -3.754  1.00  0.00     0.046 C 
BRANCH  29  30
HETATM   30  C12 UNL     1       8.912  38.320  -4.115  1.00  0.00     0.169 C 
BRANCH  30  31
HETATM   31  O3  UNL     1       9.604  37.545  -3.317  1.00  0.00    -0.391 OA
BRANCH  31  32
HETATM   32  C13 UNL     1       9.419  37.259  -2.043  1.00  0.00     0.169 C 
BRANCH  32  33
HETATM   33  C14 UNL     1      10.503  37.622  -1.053  1.00  0.00     0.052 C 
BRANCH  33  34
HETATM   34  C15 UNL     1      10.934  39.056  -1.147  1.00  0.00     0.166 C 
BRANCH  34  35
HETATM   35  O4  UNL     1      11.763  39.152  -2.279  1.00  0.00    -0.401 OA
ATOM     36  H4  UNL     1      12.657  39.165  -1.958  1.00  0.00     0.209 HD
ENDBRANCH  34  35
ENDBRANCH  33  34
ENDBRANCH  32  33
ENDBRANCH  31  32
ENDBRANCH  30  31
ENDBRANCH  29  30
ENDBRANCH  28  29
ENDBRANCH   7  28
TORSDOF 14
ENDMDL
MODEL 3
REMARK VINA RESULT: -7.553723065      0.910      1.606
REMARK  14 active torsions:
REMARK  status: ('A' for Active; 'I' for Inactive)
REMARK    1  A    between atoms: N1_1  and  C1_4 
REMARK    2  A    between atoms: C3_8  and  C4_9 
REMARK    3  A    between atoms: C4_9  and  C5_10 
REMARK    4  A    between atoms: C5_10  and  O1_11 
REMARK    5  A    between atoms: O1_11  and  C6_12 
REMARK       I    between atoms: N3_15  and  C9_16 
REMARK       I    between atoms: C9_16  and  N4_18 
REMARK    6  A    between atoms: N4_18  and  C10_20 
REMARK    7  A    between atoms: C10_20  and  C11_21 
REMARK    8  A    between atoms: C11_21  and  C12_22 
REMARK    9  A    between atoms: C12_22  and  O3_23 
REMARK   10  A    between atoms: O3_23  and  C13_24 
REMARK   11  A    between atoms: C13_24  and  C14_25 
REMARK   12  A    between atoms: C14_25  and  C15_26 
REMARK   13  A    between atoms: C15_26  and  O4_27 
REMARK   14  A    between atoms: C18_31  and  N5_32 
ROOT
HETATM    1  C6  UNL     1      13.825  38.894  -8.653  1.00  0.00     0.124 C 
HETATM    2  C7  UNL     1      12.871  39.978  -9.172  1.00  0.00     0.052 C 
HETATM    3  C8  UNL     1      12.599  40.869  -7.997  1.00  0.00     0.130 C 
HETATM    4  N3  UNL     1      11.981  40.096  -6.950  1.00  0.00    -0.334 N 
HETATM    5  C9  UNL     1      10.965  40.752  -6.165  1.00  0.00     0.318 C 
HETATM    6  O2  UNL     1      10.694  41.935  -6.464  1.00  0.00    -0.247 OA
HETATM    7  N4  UNL     1      10.304  40.103  -5.111  1.00  0.00    -0.343 N 
ATOM      8  H4  UNL     1      10.559  39.139  -4.898  1.00  0.00     0.164 HD
HETATM    9  C16 UNL     1      12.309  38.730  -6.640  1.00  0.00     0.130 C 
HETATM   10  C17 UNL     1      13.091  37.997  -7.677  1.00  0.00     0.052 C 
ENDROOT
BRANCH   1  11
HETATM   11  O1  UNL     1      14.245  38.188  -9.750  1.00  0.00    -0.385 OA
BRANCH  11  12
HETATM   12  C5  UNL     1      13.543  38.443 -10.895  1.00  0.00     0.173 C 
BRANCH  12  13
HETATM   13  C4  UNL     1      14.395  38.693 -12.112  1.00  0.00     0.070 C 
BRANCH  13  14
HETATM   14  C3  UNL     1      14.140  37.668 -13.158  1.00  0.00     0.004 A 
HETATM   15  C2  UNL     1      13.682  36.398 -12.839  1.00  0.00     0.117 A 
HETATM   16  N2  UNL     1      13.449  35.471 -13.792  1.00  0.00    -0.202 N 
HETATM   17  C1  UNL     1      13.651  35.734 -15.093  1.00  0.00     0.677 A 
ATOM     18  H2  UNL     1      13.111  34.549 -13.516  1.00  0.00     0.183 HD
HETATM   19  N6  UNL     1      14.095  36.960 -15.412  1.00  0.00    -0.177 N 
HETATM   20  C18 UNL     1      14.342  37.921 -14.499  1.00  0.00     0.122 A 
ATOM     21  H6  UNL     1      14.253  37.176 -16.396  1.00  0.00     0.185 HD
BRANCH  17  22
HETATM   22  N1  UNL     1      13.428  34.840 -16.016  1.00  0.00    -0.234 N 
ATOM     23  H12 UNL     1      14.074  34.065 -16.163  1.00  0.00     0.174 HD
ATOM     24  H11 UNL     1      12.605  34.884 -16.617  1.00  0.00     0.174 HD
ENDBRANCH  17  22
BRANCH  20  25
HETATM   25  N5  UNL     1      14.770  39.089 -14.848  1.00  0.00    -0.385 N 
ATOM     26  H52 UNL     1      15.689  39.427 -14.562  1.00  0.00     0.157 HD
ATOM     27  H51 UNL     1      14.166  39.677 -15.423  1.00  0.00     0.157 HD
ENDBRANCH  20  25
ENDBRANCH  13  14
ENDBRANCH  12  13
ENDBRANCH  11  12
ENDBRANCH   1  11
BRANCH   7  28
HETATM   28  C10 UNL     1       9.294  40.730  -4.324  1.00  0.00     0.126 C 
BRANCH  28  29
HETATM   29  C11 UNL     1       8.375  39.734  -3.595  1.00  0.00     0.046 C 
BRANCH  29  30
HETATM   30  C12 UNL     1       8.782  38.388  -4.018  1.00  0.00     0.169 C 
BRANCH  30  31
HETATM   31  O3  UNL     1       9.688  37.659  -3.415  1.00  0.00    -0.391 OA
BRANCH  31  32
HETATM   32  C13 UNL     1       9.741  37.235  -2.167  1.00  0.00     0.169 C 
BRANCH  32  33
HETATM   33  C14 UNL     1       9.973  38.246  -1.067  1.00  0.00     0.052 C 
BRANCH  33  34
HETATM   34  C15 UNL     1      11.390  38.737  -1.006  1.00  0.00     0.166 C 
BRANCH  34  35
HETATM   35  O4  UNL     1      11.711  39.194  -2.296  1.00  0.00    -0.401 OA
ATOM     36  H4  UNL     1      11.916  40.118  -2.212  1.00  0.00     0.209 HD
ENDBRANCH  34  35
ENDBRANCH  33  34
ENDBRANCH  32  33
ENDBRANCH  31  32
ENDBRANCH  30  31
ENDBRANCH  29  30
ENDBRANCH  28  29
ENDBRANCH   7  28
TORSDOF 14
ENDMDL
MODEL 4
REMARK VINA RESULT: -7.528212685      1.866      2.764
REMARK  14 active torsions:
REMARK  status: ('A' for Active; 'I' for Inactive)
REMARK    1  A    between atoms: N1_1  and  C1_4 
REMARK    2  A    between atoms: C3_8  and  C4_9 
REMARK    3  A    between atoms: C4_9  and  C5_10 
REMARK    4  A    between atoms: C5_10  and  O1_11 
REMARK    5  A    between atoms: O1_11  and  C6_12 
REMARK       I    between atoms: N3_15  and  C9_16 
REMARK       I    between atoms: C9_16  and  N4_18 
REMARK    6  A    between atoms: N4_18  and  C10_20 
REMARK    7  A    between atoms: C10_20  and  C11_21 
REMARK    8  A    between atoms: C11_21  and  C12_22 
REMARK    9  A    between atoms: C12_22  and  O3_23 
REMARK   10  A    between atoms: O3_23  and  C13_24 
REMARK   11  A    between atoms: C13_24  and  C14_25 
REMARK   12  A    between atoms: C14_25  and  C15_26 
REMARK   13  A    between atoms: C15_26  and  O4_27 
REMARK   14  A    between atoms: C18_31  and  N5_32 
ROOT
HETATM    1  C6  UNL     1      13.476  40.268  -9.453  1.00  0.00     0.124 C 
HETATM    2  C7  UNL     1      13.887  38.914  -8.858  1.00  0.00     0.052 C 
HETATM    3  C8  UNL     1      12.638  38.345  -8.256  1.00  0.00     0.130 C 
HETATM    4  N3  UNL     1      12.157  39.235  -7.231  1.00  0.00    -0.334 N 
HETATM    5  C9  UNL     1      11.569  38.630  -6.061  1.00  0.00     0.318 C 
HETATM    6  O2  UNL     1      11.534  37.381  -6.028  1.00  0.00    -0.247 OA
HETATM    7  N4  UNL     1      11.056  39.397  -5.005  1.00  0.00    -0.343 N 
ATOM      8  H4  UNL     1      11.101  40.413  -5.075  1.00  0.00     0.164 HD
HETATM    9  C16 UNL     1      12.225  40.671  -7.297  1.00  0.00     0.130 C 
HETATM   10  C17 UNL     1      13.137  41.233  -8.335  1.00  0.00     0.052 C 
ENDROOT
BRANCH   1  11
HETATM   11  O1  UNL     1      14.549  40.714 -10.180  1.00  0.00    -0.385 OA
BRANCH  11  12
HETATM   12  C5  UNL     1      14.394  40.630 -11.536  1.00  0.00     0.173 C 
BRANCH  12  13
HETATM   13  C4  UNL     1      15.411  39.764 -12.231  1.00  0.00     0.070 C 
BRANCH  13  14
HETATM   14  C3  UNL     1      14.962  38.347 -12.273  1.00  0.00     0.004 A 
HETATM   15  C2  UNL     1      13.620  38.004 -12.193  1.00  0.00     0.117 A 
HETATM   16  N2  UNL     1      13.217  36.718 -12.233  1.00  0.00    -0.202 N 
HETATM   17  C1  UNL     1      14.095  35.709 -12.351  1.00  0.00     0.677 A 
ATOM     18  H2  UNL     1      12.220  36.507 -12.173  1.00  0.00     0.183 HD
HETATM   19  N6  UNL     1      15.396  36.030 -12.428  1.00  0.00    -0.177 N 
HETATM   20  C18 UNL     1      15.850  37.299 -12.393  1.00  0.00     0.122 A 
ATOM     21  H6  UNL     1      16.076  35.275 -12.519  1.00  0.00     0.185 HD
BRANCH  17  22
HETATM   22  N1  UNL     1      13.707  34.464 -12.389  1.00  0.00    -0.234 N 
ATOM     23  H12 UNL     1      13.720  33.936 -13.262  1.00  0.00     0.174 HD
ATOM     24  H11 UNL     1      13.381  33.978 -11.553  1.00  0.00     0.174 HD
ENDBRANCH  17  22
BRANCH  20  25
HETATM   25  N5  UNL     1      17.113  37.565 -12.470  1.00  0.00    -0.385 N 
ATOM     26  H52 UNL     1      17.460  38.333 -13.044  1.00  0.00     0.157 HD
ATOM     27  H51 UNL     1      17.765  36.988 -11.939  1.00  0.00     0.157 HD
ENDBRANCH  20  25
ENDBRANCH  13  14
ENDBRANCH  12  13
ENDBRANCH  11  12
ENDBRANCH   1  11
BRANCH   7  28
HETATM   28  C10 UNL     1      10.473  38.821  -3.838  1.00  0.00     0.126 C 
BRANCH  28  29
HETATM   29  C11 UNL     1       9.190  39.531  -3.376  1.00  0.00     0.046 C 
BRANCH  29  30
HETATM   30  C12 UNL     1       9.324  39.762  -1.932  1.00  0.00     0.169 C 
BRANCH  30  31
HETATM   31  O3  UNL     1      10.205  39.175  -1.162  1.00  0.00    -0.391 OA
BRANCH  31  32
HETATM   32  C13 UNL     1      10.037  38.265  -0.221  1.00  0.00     0.169 C 
BRANCH  32  33
HETATM   33  C14 UNL     1       8.876  37.304  -0.341  1.00  0.00     0.052 C 
BRANCH  33  34
HETATM   34  C15 UNL     1       9.218  36.056  -1.101  1.00  0.00     0.166 C 
BRANCH  34  35
HETATM   35  O4  UNL     1      10.556  36.190  -1.510  1.00  0.00    -0.401 OA
ATOM     36  H4  UNL     1      11.074  35.654  -0.922  1.00  0.00     0.209 HD
ENDBRANCH  34  35
ENDBRANCH  33  34
ENDBRANCH  32  33
ENDBRANCH  31  32
ENDBRANCH  30  31
ENDBRANCH  29  30
ENDBRANCH  28  29
ENDBRANCH   7  28
TORSDOF 14
ENDMDL
MODEL 5
REMARK VINA RESULT: -7.502050887      1.486      1.632
REMARK  14 active torsions:
REMARK  status: ('A' for Active; 'I' for Inactive)
REMARK    1  A    between atoms: N1_1  and  C1_4 
REMARK    2  A    between atoms: C3_8  and  C4_9 
REMARK    3  A    between atoms: C4_9  and  C5_10 
REMARK    4  A    between atoms: C5_10  and  O1_11 
REMARK    5  A    between atoms: O1_11  and  C6_12 
REMARK       I    between atoms: N3_15  and  C9_16 
REMARK       I    between atoms: C9_16  and  N4_18 
REMARK    6  A    between atoms: N4_18  and  C10_20 
REMARK    7  A    between atoms: C10_20  and  C11_21 
REMARK    8  A    between atoms: C11_21  and  C12_22 
REMARK    9  A    between atoms: C12_22  and  O3_23 
REMARK   10  A    between atoms: O3_23  and  C13_24 
REMARK   11  A    between atoms: C13_24  and  C14_25 
REMARK   12  A    between atoms: C14_25  and  C15_26 
REMARK   13  A    between atoms: C15_26  and  O4_27 
REMARK   14  A    between atoms: C18_31  and  N5_32 
ROOT
HETATM    1  C6  UNL     1      13.803  38.679  -8.621  1.00  0.00     0.124 C 
HETATM    2  C7  UNL     1      12.876  39.784  -9.145  1.00  0.00     0.052 C 
HETATM    3  C8  UNL     1      12.640  40.696  -7.979  1.00  0.00     0.130 C 
HETATM    4  N3  UNL     1      12.011  39.954  -6.917  1.00  0.00    -0.334 N 
HETATM    5  C9  UNL     1      11.021  40.649  -6.131  1.00  0.00     0.318 C 
HETATM    6  O2  UNL     1      10.781  41.836  -6.442  1.00  0.00    -0.247 OA
HETATM    7  N4  UNL     1      10.352  40.032  -5.063  1.00  0.00    -0.343 N 
ATOM      8  H4  UNL     1      10.581  39.064  -4.840  1.00  0.00     0.164 HD
HETATM    9  C16 UNL     1      12.302  38.583  -6.593  1.00  0.00     0.130 C 
HETATM   10  C17 UNL     1      13.053  37.815  -7.628  1.00  0.00     0.052 C 
ENDROOT
BRANCH   1  11
HETATM   11  O1  UNL     1      14.192  37.948  -9.714  1.00  0.00    -0.385 OA
BRANCH  11  12
HETATM   12  C5  UNL     1      13.164  37.438 -10.455  1.00  0.00     0.173 C 
BRANCH  12  13
HETATM   13  C4  UNL     1      13.453  37.312 -11.928  1.00  0.00     0.070 C 
BRANCH  13  14
HETATM   14  C3  UNL     1      14.783  37.888 -12.258  1.00  0.00     0.004 A 
HETATM   15  C2  UNL     1      14.965  39.254 -12.425  1.00  0.00     0.117 A 
HETATM   16  N2  UNL     1      16.174  39.774 -12.723  1.00  0.00    -0.202 N 
HETATM   17  C1  UNL     1      17.257  38.995 -12.872  1.00  0.00     0.677 A 
ATOM     18  H2  UNL     1      16.267  40.783 -12.837  1.00  0.00     0.183 HD
HETATM   19  N6  UNL     1      17.091  37.672 -12.713  1.00  0.00    -0.177 N 
HETATM   20  C18 UNL     1      15.906  37.103 -12.415  1.00  0.00     0.122 A 
ATOM     21  H6  UNL     1      17.904  37.066 -12.823  1.00  0.00     0.185 HD
BRANCH  17  22
HETATM   22  N1  UNL     1      18.427  39.495 -13.161  1.00  0.00    -0.234 N 
ATOM     23  H12 UNL     1      19.092  39.732 -12.425  1.00  0.00     0.174 HD
ATOM     24  H11 UNL     1      18.714  39.664 -14.125  1.00  0.00     0.174 HD
ENDBRANCH  17  22
BRANCH  20  25
HETATM   25  N5  UNL     1      15.789  35.824 -12.271  1.00  0.00    -0.385 N 
ATOM     26  H52 UNL     1      16.393  35.175 -12.774  1.00  0.00     0.157 HD
ATOM     27  H51 UNL     1      15.073  35.469 -11.638  1.00  0.00     0.157 HD
ENDBRANCH  20  25
ENDBRANCH  13  14
ENDBRANCH  12  13
ENDBRANCH  11  12
ENDBRANCH   1  11
BRANCH   7  28
HETATM   28  C10 UNL     1       9.367  40.698  -4.274  1.00  0.00     0.126 C 
BRANCH  28  29
HETATM   29  C11 UNL     1       8.296  39.754  -3.703  1.00  0.00     0.046 C 
BRANCH  29  30
HETATM   30  C12 UNL     1       8.697  38.386  -4.057  1.00  0.00     0.169 C 
BRANCH  30  31
HETATM   31  O3  UNL     1       9.345  37.570  -3.263  1.00  0.00    -0.391 OA
BRANCH  31  32
HETATM   32  C13 UNL     1       9.222  37.376  -1.964  1.00  0.00     0.169 C 
BRANCH  32  33
HETATM   33  C14 UNL     1      10.419  37.626  -1.076  1.00  0.00     0.052 C 
BRANCH  33  34
HETATM   34  C15 UNL     1      10.954  39.024  -1.184  1.00  0.00     0.166 C 
BRANCH  34  35
HETATM   35  O4  UNL     1      11.757  39.057  -2.337  1.00  0.00    -0.401 OA
ATOM     36  H4  UNL     1      12.357  39.786  -2.227  1.00  0.00     0.209 HD
ENDBRANCH  34  35
ENDBRANCH  33  34
ENDBRANCH  32  33
ENDBRANCH  31  32
ENDBRANCH  30  31
ENDBRANCH  29  30
ENDBRANCH  28  29
ENDBRANCH   7  28
TORSDOF 14
ENDMDL
