MODEL 1
REMARK VINA RESULT: -7.532879495      0.000      0.000
REMARK  15 active torsions:
REMARK  status: ('A' for Active; 'I' for Inactive)
REMARK    1  A    between atoms: C2_2  and  C3_3 
REMARK    2  A    between atoms: C3_3  and  C4_4 
REMARK    3  A    between atoms: C4_4  and  C5_5 
REMARK    4  A    between atoms: C5_5  and  C6_6 
REMARK    5  A    between atoms: C6_6  and  C7_7 
REMARK    6  A    between atoms: C7_7  and  C8_8 
REMARK    7  A    between atoms: C8_8  and  C9_9 
REMARK    8  A    between atoms: C9_9  and  C10_10 
REMARK    9  A    between atoms: C10_10  and  C11_11 
REMARK   10  A    between atoms: C11_11  and  C12_12 
REMARK   11  A    between atoms: C12_12  and  C13_13 
REMARK       I    between atoms: C13_13  and  N1_15 
REMARK   12  A    between atoms: N1_15  and  C14_17 
REMARK   13  A    between atoms: C15_18  and  O2_19 
REMARK   14  A    between atoms: C18_24  and  O4_25 
REMARK   15  A    between atoms: C22_32  and  O5_33 
ROOT
HETATM    1  C14 UNL     1      14.050  36.862 -11.128  1.00  0.00     0.144 C 
HETATM    2  C15 UNL     1      15.366  36.196 -11.344  1.00  0.00     0.167 C 
HETATM    3  C16 UNL     1      16.325  36.899 -12.234  1.00  0.00     0.205 C 
HETATM    4  O3  UNL     1      15.656  37.840 -12.977  1.00  0.00    -0.347 OA
HETATM    5  C17 UNL     1      14.855  37.327 -13.935  1.00  0.00     0.304 A 
HETATM    6  C18 UNL     1      15.047  37.987 -15.280  1.00  0.00     0.236 A 
HETATM    7  C19 UNL     1      15.369  36.589 -15.766  1.00  0.00     0.370 A 
HETATM    8  N2  UNL     1      14.317  36.105 -16.638  1.00  0.00    -0.107 NA
HETATM    9  N3  UNL     1      13.213  35.889 -15.808  1.00  0.00    -0.109 NA
HETATM   10  C20 UNL     1      13.683  35.789 -14.463  1.00  0.00     0.348 C 
HETATM   11  C21 UNL     1      13.465  37.039 -13.601  1.00  0.00     0.137 C 
HETATM   12  C22 UNL     1      13.070  36.704 -12.247  1.00  0.00     0.155 C 
HETATM   13  N4  UNL     1      15.114  36.034 -14.471  1.00  0.00     0.172 N 
ENDROOT
BRANCH   1  14
HETATM   14  N1  UNL     1      14.141  38.218 -10.623  1.00  0.00    -0.351 N 
HETATM   15  C13 UNL     1      13.259  38.691  -9.578  1.00  0.00     0.218 C 
HETATM   16  O1  UNL     1      12.416  37.883  -9.128  1.00  0.00    -0.274 OA
ATOM     17  H1  UNL     1      14.840  38.851 -11.011  1.00  0.00     0.163 HD
BRANCH  15  18
HETATM   18  C12 UNL     1      13.331  40.048  -9.054  1.00  0.00     0.103 C 
BRANCH  18  19
HETATM   19  C11 UNL     1      12.156  40.545  -8.298  1.00  0.00     0.009 C 
BRANCH  19  20
HETATM   20  C10 UNL     1      12.320  40.708  -6.832  1.00  0.00     0.000 C 
BRANCH  20  21
HETATM   21  C9  UNL     1      11.116  40.225  -6.048  1.00  0.00     0.000 C 
BRANCH  21  22
HETATM   22  C8  UNL     1      11.126  38.739  -5.852  1.00  0.00     0.000 C 
BRANCH  22  23
HETATM   23  C7  UNL     1      10.677  38.358  -4.484  1.00  0.00     0.000 C 
BRANCH  23  24
HETATM   24  C6  UNL     1       9.344  38.899  -4.091  1.00  0.00     0.000 C 
BRANCH  24  25
HETATM   25  C5  UNL     1       9.267  39.288  -2.635  1.00  0.00     0.000 C 
BRANCH  25  26
HETATM   26  C4  UNL     1      10.520  38.950  -1.905  1.00  0.00     0.000 C 
BRANCH  26  27
HETATM   27  C3  UNL     1      10.221  38.262  -0.593  1.00  0.00    -0.000 C 
BRANCH  27  28
HETATM   28  C2  UNL     1       9.007  37.399  -0.712  1.00  0.00    -0.005 C 
HETATM   29  C1  UNL     1       9.462  36.030  -1.202  1.00  0.00     0.005 C 
ENDBRANCH  27  28
ENDBRANCH  26  27
ENDBRANCH  25  26
ENDBRANCH  24  25
ENDBRANCH  23  24
ENDBRANCH  22  23
ENDBRANCH  21  22
ENDBRANCH  20  21
ENDBRANCH  19  20
ENDBRANCH  18  19
ENDBRANCH  15  18
ENDBRANCH   1  14
BRANCH   2  30
HETATM   30  O2  UNL     1      15.125  34.873 -11.691  1.00  0.00    -0.391 OA
ATOM     31  H2  UNL     1      15.828  34.344 -11.333  1.00  0.00     0.210 HD
ENDBRANCH   2  30
BRANCH  12  32
HETATM   32  O5  UNL     1      12.589  35.374 -12.204  1.00  0.00    -0.393 OA
ATOM     33  H5  UNL     1      12.196  35.187 -13.048  1.00  0.00     0.210 HD
ENDBRANCH  12  32
BRANCH   6  34
HETATM   34  O4  UNL     1      16.143  38.846 -15.340  1.00  0.00    -0.387 OA
ATOM     35  H4  UNL     1      16.518  38.936 -16.208  1.00  0.00     0.210 HD
ENDBRANCH   6  34
TORSDOF 15
ENDMDL
MODEL 2
REMARK VINA RESULT: -7.131587980      3.693      5.672
REMARK  15 active torsions:
REMARK  status: ('A' for Active; 'I' for Inactive)
REMARK    1  A    between atoms: C2_2  and  C3_3 
REMARK    2  A    between atoms: C3_3  and  C4_4 
REMARK    3  A    between atoms: C4_4  and  C5_5 
REMARK    4  A    between atoms: C5_5  and  C6_6 
REMARK    5  A    between atoms: C6_6  and  C7_7 
REMARK    6  A    between atoms: C7_7  and  C8_8 
REMARK    7  A    between atoms: C8_8  and  C9_9 
REMARK    8  A    between atoms: C9_9  and  C10_10 
REMARK    9  A    between atoms: C10_10  and  C11_11 
REMARK   10  A    between atoms: C11_11  and  C12_12 
REMARK   11  A    between atoms: C12_12  and  C13_13 
REMARK       I    between atoms: C13_13  and  N1_15 
REMARK   12  A    between atoms: N1_15  and  C14_17 
REMARK   13  A    between atoms: C15_18  and  O2_19 
REMARK   14  A    between atoms: C18_24  and  O4_25 
REMARK   15  A    between atoms: C22_32  and  O5_33 
ROOT
HETATM    1  C14 UNL     1      13.760  36.538 -11.148  1.00  0.00     0.144 C 
HETATM    2  C15 UNL     1      15.241  36.468 -11.300  1.00  0.00     0.167 C 
HETATM    3  C16 UNL     1      15.878  37.569 -12.067  1.00  0.00     0.205 C 
HETATM    4  O3  UNL     1      14.925  38.230 -12.799  1.00  0.00    -0.347 OA
HETATM    5  C17 UNL     1      14.442  37.530 -13.848  1.00  0.00     0.304 A 
HETATM    6  C18 UNL     1      14.417  38.329 -15.130  1.00  0.00     0.236 A 
HETATM    7  C19 UNL     1      15.294  37.221 -15.675  1.00  0.00     0.370 A 
HETATM    8  N2  UNL     1      14.566  36.440 -16.656  1.00  0.00    -0.107 NA
HETATM    9  N3  UNL     1      13.603  35.732 -15.930  1.00  0.00    -0.109 NA
HETATM   10  C20 UNL     1      14.010  35.707 -14.562  1.00  0.00     0.348 C 
HETATM   11  C21 UNL     1      13.270  36.687 -13.643  1.00  0.00     0.137 C 
HETATM   12  C22 UNL     1      12.978  36.105 -12.348  1.00  0.00     0.155 C 
HETATM   13  N4  UNL     1      15.222  36.498 -14.442  1.00  0.00     0.172 N 
ENDROOT
BRANCH   1  14
HETATM   14  N1  UNL     1      13.276  37.768 -10.553  1.00  0.00    -0.351 N 
HETATM   15  C13 UNL     1      13.585  38.111  -9.182  1.00  0.00     0.218 C 
HETATM   16  O1  UNL     1      14.286  37.305  -8.531  1.00  0.00    -0.274 OA
ATOM     17  H1  UNL     1      12.707  38.404 -11.111  1.00  0.00     0.163 HD
BRANCH  15  18
HETATM   18  C12 UNL     1      13.111  39.341  -8.562  1.00  0.00     0.103 C 
BRANCH  18  19
HETATM   19  C11 UNL     1      12.724  40.450  -9.467  1.00  0.00     0.009 C 
BRANCH  19  20
HETATM   20  C10 UNL     1      13.070  41.825  -9.032  1.00  0.00     0.000 C 
BRANCH  20  21
HETATM   21  C9  UNL     1      13.212  41.949  -7.528  1.00  0.00     0.000 C 
BRANCH  21  22
HETATM   22  C8  UNL     1      14.131  43.066  -7.136  1.00  0.00     0.000 C 
BRANCH  22  23
HETATM   23  C7  UNL     1      15.034  43.457  -8.253  1.00  0.00     0.000 C 
BRANCH  23  24
HETATM   24  C6  UNL     1      16.269  44.182  -7.835  1.00  0.00     0.000 C 
BRANCH  24  25
HETATM   25  C5  UNL     1      17.377  44.105  -8.855  1.00  0.00     0.000 C 
BRANCH  25  26
HETATM   26  C4  UNL     1      17.011  43.233 -10.005  1.00  0.00     0.000 C 
BRANCH  26  27
HETATM   27  C3  UNL     1      18.213  42.474 -10.521  1.00  0.00    -0.000 C 
BRANCH  27  28
HETATM   28  C2  UNL     1      17.831  41.087 -10.925  1.00  0.00    -0.005 C 
HETATM   29  C1  UNL     1      16.379  40.872 -10.515  1.00  0.00     0.005 C 
ENDBRANCH  27  28
ENDBRANCH  26  27
ENDBRANCH  25  26
ENDBRANCH  24  25
ENDBRANCH  23  24
ENDBRANCH  22  23
ENDBRANCH  21  22
ENDBRANCH  20  21
ENDBRANCH  19  20
ENDBRANCH  18  19
ENDBRANCH  15  18
ENDBRANCH   1  14
BRANCH   2  30
HETATM   30  O2  UNL     1      15.566  35.194 -11.748  1.00  0.00    -0.391 OA
ATOM     31  H2  UNL     1      16.110  35.285 -12.521  1.00  0.00     0.210 HD
ENDBRANCH   2  30
BRANCH  12  32
HETATM   32  O5  UNL     1      13.069  34.695 -12.426  1.00  0.00    -0.393 OA
ATOM     33  H5  UNL     1      12.226  34.342 -12.167  1.00  0.00     0.210 HD
ENDBRANCH  12  32
BRANCH   6  34
HETATM   34  O4  UNL     1      15.079  39.553 -15.049  1.00  0.00    -0.387 OA
ATOM     35  H4  UNL     1      15.939  39.556 -15.454  1.00  0.00     0.210 HD
ENDBRANCH   6  34
TORSDOF 15
ENDMDL
MODEL 3
REMARK VINA RESULT: -7.126126771      3.667      5.531
REMARK  15 active torsions:
REMARK  status: ('A' for Active; 'I' for Inactive)
REMARK    1  A    between atoms: C2_2  and  C3_3 
REMARK    2  A    between atoms: C3_3  and  C4_4 
REMARK    3  A    between atoms: C4_4  and  C5_5 
REMARK    4  A    between atoms: C5_5  and  C6_6 
REMARK    5  A    between atoms: C6_6  and  C7_7 
REMARK    6  A    between atoms: C7_7  and  C8_8 
REMARK    7  A    between atoms: C8_8  and  C9_9 
REMARK    8  A    between atoms: C9_9  and  C10_10 
REMARK    9  A    between atoms: C10_10  and  C11_11 
REMARK   10  A    between atoms: C11_11  and  C12_12 
REMARK   11  A    between atoms: C12_12  and  C13_13 
REMARK       I    between atoms: C13_13  and  N1_15 
REMARK   12  A    between atoms: N1_15  and  C14_17 
REMARK   13  A    between atoms: C15_18  and  O2_19 
REMARK   14  A    between atoms: C18_24  and  O4_25 
REMARK   15  A    between atoms: C22_32  and  O5_33 
ROOT
HETATM    1  C14 UNL     1      13.729  36.531 -11.125  1.00  0.00     0.144 C 
HETATM    2  C15 UNL     1      15.201  36.377 -11.300  1.00  0.00     0.167 C 
HETATM    3  C16 UNL     1      15.887  37.435 -12.083  1.00  0.00     0.205 C 
HETATM    4  O3  UNL     1      14.962  38.146 -12.805  1.00  0.00    -0.347 OA
HETATM    5  C17 UNL     1      14.423  37.468 -13.842  1.00  0.00     0.304 A 
HETATM    6  C18 UNL     1      14.424  38.260 -15.128  1.00  0.00     0.236 A 
HETATM    7  C19 UNL     1      15.229  37.101 -15.680  1.00  0.00     0.370 A 
HETATM    8  N2  UNL     1      14.442  36.357 -16.644  1.00  0.00    -0.107 NA
HETATM    9  N3  UNL     1      13.453  35.709 -15.900  1.00  0.00    -0.109 NA
HETATM   10  C20 UNL     1      13.879  35.668 -14.538  1.00  0.00     0.348 C 
HETATM   11  C21 UNL     1      13.209  36.694 -13.614  1.00  0.00     0.137 C 
HETATM   12  C22 UNL     1      12.905  36.136 -12.310  1.00  0.00     0.155 C 
HETATM   13  N4  UNL     1      15.135  36.390 -14.441  1.00  0.00     0.172 N 
ENDROOT
BRANCH   1  14
HETATM   14  N1  UNL     1      13.324  37.790 -10.531  1.00  0.00    -0.351 N 
HETATM   15  C13 UNL     1      13.672  38.122  -9.166  1.00  0.00     0.218 C 
HETATM   16  O1  UNL     1      14.336  37.280  -8.521  1.00  0.00    -0.274 OA
ATOM     17  H1  UNL     1      12.784  38.454 -11.085  1.00  0.00     0.163 HD
BRANCH  15  18
HETATM   18  C12 UNL     1      13.278  39.380  -8.547  1.00  0.00     0.103 C 
BRANCH  18  19
HETATM   19  C11 UNL     1      12.700  40.419  -9.434  1.00  0.00     0.009 C 
BRANCH  19  20
HETATM   20  C10 UNL     1      12.718  41.816  -8.934  1.00  0.00     0.000 C 
BRANCH  20  21
HETATM   21  C9  UNL     1      13.064  41.909  -7.460  1.00  0.00     0.000 C 
BRANCH  21  22
HETATM   22  C8  UNL     1      14.139  42.919  -7.193  1.00  0.00     0.000 C 
BRANCH  22  23
HETATM   23  C7  UNL     1      14.681  43.495  -8.454  1.00  0.00     0.000 C 
BRANCH  23  24
HETATM   24  C6  UNL     1      16.170  43.521  -8.540  1.00  0.00     0.000 C 
BRANCH  24  25
HETATM   25  C5  UNL     1      16.704  42.871  -9.792  1.00  0.00     0.000 C 
BRANCH  25  26
HETATM   26  C4  UNL     1      16.266  41.452  -9.909  1.00  0.00     0.000 C 
BRANCH  26  27
HETATM   27  C3  UNL     1      15.850  41.123 -11.324  1.00  0.00    -0.000 C 
BRANCH  27  28
HETATM   28  C2  UNL     1      15.082  42.253 -11.928  1.00  0.00    -0.005 C 
HETATM   29  C1  UNL     1      13.875  41.659 -12.643  1.00  0.00     0.005 C 
ENDBRANCH  27  28
ENDBRANCH  26  27
ENDBRANCH  25  26
ENDBRANCH  24  25
ENDBRANCH  23  24
ENDBRANCH  22  23
ENDBRANCH  21  22
ENDBRANCH  20  21
ENDBRANCH  19  20
ENDBRANCH  18  19
ENDBRANCH  15  18
ENDBRANCH   1  14
BRANCH   2  30
HETATM   30  O2  UNL     1      15.446  35.084 -11.744  1.00  0.00    -0.391 OA
ATOM     31  H2  UNL     1      16.370  35.017 -11.954  1.00  0.00     0.210 HD
ENDBRANCH   2  30
BRANCH  12  32
HETATM   32  O5  UNL     1      12.915  34.723 -12.381  1.00  0.00    -0.393 OA
ATOM     33  H5  UNL     1      12.969  34.485 -13.299  1.00  0.00     0.210 HD
ENDBRANCH  12  32
BRANCH   6  34
HETATM   34  O4  UNL     1      15.155  39.445 -15.066  1.00  0.00    -0.387 OA
ATOM     35  H4  UNL     1      14.993  40.038 -15.790  1.00  0.00     0.210 HD
ENDBRANCH   6  34
TORSDOF 15
ENDMDL
MODEL 4
REMARK VINA RESULT: -7.120408955      4.845      9.257
REMARK  15 active torsions:
REMARK  status: ('A' for Active; 'I' for Inactive)
REMARK    1  A    between atoms: C2_2  and  C3_3 
REMARK    2  A    between atoms: C3_3  and  C4_4 
REMARK    3  A    between atoms: C4_4  and  C5_5 
REMARK    4  A    between atoms: C5_5  and  C6_6 
REMARK    5  A    between atoms: C6_6  and  C7_7 
REMARK    6  A    between atoms: C7_7  and  C8_8 
REMARK    7  A    between atoms: C8_8  and  C9_9 
REMARK    8  A    between atoms: C9_9  and  C10_10 
REMARK    9  A    between atoms: C10_10  and  C11_11 
REMARK   10  A    between atoms: C11_11  and  C12_12 
REMARK   11  A    between atoms: C12_12  and  C13_13 
REMARK       I    between atoms: C13_13  and  N1_15 
REMARK   12  A    between atoms: N1_15  and  C14_17 
REMARK   13  A    between atoms: C15_18  and  O2_19 
REMARK   14  A    between atoms: C18_24  and  O4_25 
REMARK   15  A    between atoms: C22_32  and  O5_33 
ROOT
HETATM    1  C14 UNL     1      12.676  40.939  -8.956  1.00  0.00     0.144 C 
HETATM    2  C15 UNL     1      12.639  41.839 -10.144  1.00  0.00     0.167 C 
HETATM    3  C16 UNL     1      13.939  42.406 -10.583  1.00  0.00     0.205 C 
HETATM    4  O3  UNL     1      14.860  42.281  -9.573  1.00  0.00    -0.347 OA
HETATM    5  C17 UNL     1      14.647  43.099  -8.520  1.00  0.00     0.304 A 
HETATM    6  C18 UNL     1      15.892  43.838  -8.086  1.00  0.00     0.236 A 
HETATM    7  C19 UNL     1      15.073  45.086  -8.344  1.00  0.00     0.370 A 
HETATM    8  N2  UNL     1      14.765  45.752  -7.093  1.00  0.00    -0.107 NA
HETATM    9  N3  UNL     1      13.849  44.921  -6.442  1.00  0.00    -0.109 NA
HETATM   10  C20 UNL     1      13.271  44.051  -7.416  1.00  0.00     0.348 C 
HETATM   11  C21 UNL     1      13.819  42.619  -7.419  1.00  0.00     0.137 C 
HETATM   12  C22 UNL     1      12.775  41.636  -7.636  1.00  0.00     0.155 C 
HETATM   13  N4  UNL     1      13.919  44.311  -8.688  1.00  0.00     0.172 N 
ENDROOT
BRANCH   1  14
HETATM   14  N1  UNL     1      13.577  39.811  -9.086  1.00  0.00    -0.351 N 
HETATM   15  C13 UNL     1      13.144  38.464  -8.784  1.00  0.00     0.218 C 
HETATM   16  O1  UNL     1      11.961  38.312  -8.407  1.00  0.00    -0.274 OA
ATOM     17  H1  UNL     1      14.536  39.970  -9.397  1.00  0.00     0.163 HD
BRANCH  15  18
HETATM   18  C12 UNL     1      14.031  37.316  -8.908  1.00  0.00     0.103 C 
BRANCH  18  19
HETATM   19  C11 UNL     1      14.386  36.879 -10.280  1.00  0.00     0.009 C 
BRANCH  19  20
HETATM   20  C10 UNL     1      13.275  36.764 -11.257  1.00  0.00     0.000 C 
BRANCH  20  21
HETATM   21  C9  UNL     1      13.501  35.668 -12.280  1.00  0.00     0.000 C 
BRANCH  21  22
HETATM   22  C8  UNL     1      13.289  36.150 -13.683  1.00  0.00     0.000 C 
BRANCH  22  23
HETATM   23  C7  UNL     1      14.577  36.331 -14.407  1.00  0.00     0.000 C 
BRANCH  23  24
HETATM   24  C6  UNL     1      15.234  37.653 -14.194  1.00  0.00     0.000 C 
BRANCH  24  25
HETATM   25  C5  UNL     1      14.271  38.813 -14.262  1.00  0.00     0.000 C 
BRANCH  25  26
HETATM   26  C4  UNL     1      14.407  39.714 -13.085  1.00  0.00     0.000 C 
BRANCH  26  27
HETATM   27  C3  UNL     1      15.738  39.517 -12.395  1.00  0.00    -0.000 C 
BRANCH  27  28
HETATM   28  C2  UNL     1      16.614  40.713 -12.583  1.00  0.00    -0.005 C 
HETATM   29  C1  UNL     1      17.503  40.831 -11.352  1.00  0.00     0.005 C 
ENDBRANCH  27  28
ENDBRANCH  26  27
ENDBRANCH  25  26
ENDBRANCH  24  25
ENDBRANCH  23  24
ENDBRANCH  22  23
ENDBRANCH  21  22
ENDBRANCH  20  21
ENDBRANCH  19  20
ENDBRANCH  18  19
ENDBRANCH  15  18
ENDBRANCH   1  14
BRANCH   2  30
HETATM   30  O2  UNL     1      11.642  42.783  -9.934  1.00  0.00    -0.391 OA
ATOM     31  H2  UNL     1      11.958  43.404  -9.289  1.00  0.00     0.210 HD
ENDBRANCH   2  30
BRANCH  12  32
HETATM   32  O5  UNL     1      11.512  42.213  -7.365  1.00  0.00    -0.393 OA
ATOM     33  H5  UNL     1      11.424  42.977  -7.922  1.00  0.00     0.210 HD
ENDBRANCH  12  32
BRANCH   6  34
HETATM   34  O4  UNL     1      16.966  43.704  -8.963  1.00  0.00    -0.387 OA
ATOM     35  H4  UNL     1      17.221  44.515  -9.390  1.00  0.00     0.210 HD
ENDBRANCH   6  34
TORSDOF 15
ENDMDL
MODEL 5
REMARK VINA RESULT: -7.049021847      3.715      5.360
REMARK  15 active torsions:
REMARK  status: ('A' for Active; 'I' for Inactive)
REMARK    1  A    between atoms: C2_2  and  C3_3 
REMARK    2  A    between atoms: C3_3  and  C4_4 
REMARK    3  A    between atoms: C4_4  and  C5_5 
REMARK    4  A    between atoms: C5_5  and  C6_6 
REMARK    5  A    between atoms: C6_6  and  C7_7 
REMARK    6  A    between atoms: C7_7  and  C8_8 
REMARK    7  A    between atoms: C8_8  and  C9_9 
REMARK    8  A    between atoms: C9_9  and  C10_10 
REMARK    9  A    between atoms: C10_10  and  C11_11 
REMARK   10  A    between atoms: C11_11  and  C12_12 
REMARK   11  A    between atoms: C12_12  and  C13_13 
REMARK       I    between atoms: C13_13  and  N1_15 
REMARK   12  A    between atoms: N1_15  and  C14_17 
REMARK   13  A    between atoms: C15_18  and  O2_19 
REMARK   14  A    between atoms: C18_24  and  O4_25 
REMARK   15  A    between atoms: C22_32  and  O5_33 
ROOT
HETATM    1  C14 UNL     1      13.714  36.431 -11.213  1.00  0.00     0.144 C 
HETATM    2  C15 UNL     1      15.196  36.527 -11.342  1.00  0.00     0.167 C 
HETATM    3  C16 UNL     1      15.720  37.706 -12.077  1.00  0.00     0.205 C 
HETATM    4  O3  UNL     1      14.711  38.275 -12.812  1.00  0.00    -0.347 OA
HETATM    5  C17 UNL     1      14.322  37.548 -13.882  1.00  0.00     0.304 A 
HETATM    6  C18 UNL     1      14.229  38.366 -15.149  1.00  0.00     0.236 A 
HETATM    7  C19 UNL     1      15.229  37.371 -15.700  1.00  0.00     0.370 A 
HETATM    8  N2  UNL     1      14.605  36.536 -16.708  1.00  0.00    -0.107 NA
HETATM    9  N3  UNL     1      13.715  35.712 -16.012  1.00  0.00    -0.109 NA
HETATM   10  C20 UNL     1      14.103  35.704 -14.638  1.00  0.00     0.348 C 
HETATM   11  C21 UNL     1      13.246  36.578 -13.713  1.00  0.00     0.137 C 
HETATM   12  C22 UNL     1      13.002  35.940 -12.433  1.00  0.00     0.155 C 
HETATM   13  N4  UNL     1      15.219  36.619 -14.482  1.00  0.00     0.172 N 
ENDROOT
BRANCH   1  14
HETATM   14  N1  UNL     1      13.090  37.589 -10.603  1.00  0.00    -0.351 N 
HETATM   15  C13 UNL     1      13.425  38.001  -9.257  1.00  0.00     0.218 C 
HETATM   16  O1  UNL     1      14.275  37.319  -8.641  1.00  0.00    -0.274 OA
ATOM     17  H1  UNL     1      12.401  38.123 -11.132  1.00  0.00     0.163 HD
BRANCH  15  18
HETATM   18  C12 UNL     1      12.812  39.160  -8.622  1.00  0.00     0.103 C 
BRANCH  18  19
HETATM   19  C11 UNL     1      13.451  40.478  -8.859  1.00  0.00     0.009 C 
BRANCH  19  20
HETATM   20  C10 UNL     1      13.242  41.096 -10.192  1.00  0.00     0.000 C 
BRANCH  20  21
HETATM   21  C9  UNL     1      14.536  41.297 -10.956  1.00  0.00     0.000 C 
BRANCH  21  22
HETATM   22  C8  UNL     1      15.731  40.835 -10.179  1.00  0.00     0.000 C 
BRANCH  22  23
HETATM   23  C7  UNL     1      16.886  41.760 -10.338  1.00  0.00     0.000 C 
BRANCH  23  24
HETATM   24  C6  UNL     1      16.560  43.204 -10.158  1.00  0.00     0.000 C 
BRANCH  24  25
HETATM   25  C5  UNL     1      17.162  43.798  -8.909  1.00  0.00     0.000 C 
BRANCH  25  26
HETATM   26  C4  UNL     1      16.127  44.426  -8.041  1.00  0.00     0.000 C 
BRANCH  26  27
HETATM   27  C3  UNL     1      15.066  43.424  -7.643  1.00  0.00    -0.000 C 
BRANCH  27  28
HETATM   28  C2  UNL     1      13.720  44.071  -7.594  1.00  0.00    -0.005 C 
HETATM   29  C1  UNL     1      13.422  44.622  -8.983  1.00  0.00     0.005 C 
ENDBRANCH  27  28
ENDBRANCH  26  27
ENDBRANCH  25  26
ENDBRANCH  24  25
ENDBRANCH  23  24
ENDBRANCH  22  23
ENDBRANCH  21  22
ENDBRANCH  20  21
ENDBRANCH  19  20
ENDBRANCH  18  19
ENDBRANCH  15  18
ENDBRANCH   1  14
BRANCH   2  30
HETATM   30  O2  UNL     1      15.664  35.305 -11.808  1.00  0.00    -0.391 OA
ATOM     31  H2  UNL     1      16.142  35.463 -12.614  1.00  0.00     0.210 HD
ENDBRANCH   2  30
BRANCH  12  32
HETATM   32  O5  UNL     1      13.247  34.551 -12.537  1.00  0.00    -0.393 OA
ATOM     33  H5  UNL     1      12.612  34.195 -13.147  1.00  0.00     0.210 HD
ENDBRANCH  12  32
BRANCH   6  34
HETATM   34  O4  UNL     1      14.751  39.652 -15.034  1.00  0.00    -0.387 OA
ATOM     35  H4  UNL     1      14.092  40.335 -14.986  1.00  0.00     0.210 HD
ENDBRANCH   6  34
TORSDOF 15
ENDMDL
