MODEL 1
REMARK VINA RESULT: -7.971968826      0.000      0.000
REMARK  13 active torsions:
REMARK  status: ('A' for Active; 'I' for Inactive)
REMARK    1  A    between atoms: N3_4  and  C2_6 
REMARK    2  A    between atoms: C2_6  and  C3_7 
REMARK    3  A    between atoms: C3_7  and  C4_8 
REMARK    4  A    between atoms: C4_8  and  N4_9 
REMARK    5  A    between atoms: N4_9  and  C5_12 
REMARK    6  A    between atoms: C5_12  and  C6_13 
REMARK    7  A    between atoms: C6_13  and  C7_14 
REMARK    8  A    between atoms: C7_14  and  N5_15 
REMARK    9  A    between atoms: N5_15  and  C8_18 
REMARK   10  A    between atoms: C8_18  and  C9_19 
REMARK   11  A    between atoms: C9_19  and  C10_20 
REMARK   12  A    between atoms: C10_20  and  N6_21 
REMARK   13  A    between atoms: N6_21  and  C11_23 
ROOT
HETATM    1  C10 UNL     1      12.639  39.659  -8.410  1.00  0.00     0.139 C 
ENDROOT
BRANCH   1   2
HETATM    2  C9  UNL     1      11.745  39.547  -7.167  1.00  0.00     0.048 C 
BRANCH   2   3
HETATM    3  C8  UNL     1      12.145  38.273  -6.493  1.00  0.00     0.234 C 
BRANCH   3   4
HETATM    4  N5  UNL     1      11.584  38.205  -5.173  1.00  0.00    -0.075 N 
ATOM      5  H52 UNL     1      12.311  38.280  -4.462  1.00  0.00     0.277 HD
ATOM      6  H51 UNL     1      11.246  37.265  -4.967  1.00  0.00     0.277 HD
BRANCH   4   7
HETATM    7  C7  UNL     1      10.549  39.185  -4.959  1.00  0.00     0.233 C 
BRANCH   7   8
HETATM    8  C6  UNL     1       9.363  38.516  -4.331  1.00  0.00     0.055 C 
BRANCH   8   9
HETATM    9  C5  UNL     1       8.558  39.404  -3.454  1.00  0.00     0.233 C 
BRANCH   9  10
HETATM   10  N4  UNL     1       9.287  40.438  -2.787  1.00  0.00    -0.075 N 
ATOM     11  H42 UNL     1       8.809  41.338  -2.837  1.00  0.00     0.277 HD
ATOM     12  H41 UNL     1      10.136  40.694  -3.290  1.00  0.00     0.277 HD
BRANCH  10  13
HETATM   13  C4  UNL     1       9.558  40.048  -1.439  1.00  0.00     0.234 C 
BRANCH  13  14
HETATM   14  C3  UNL     1      10.941  39.499  -1.205  1.00  0.00     0.047 C 
BRANCH  14  15
HETATM   15  C2  UNL     1      10.756  38.198  -0.450  1.00  0.00     0.123 C 
BRANCH  15  16
HETATM   16  N3  UNL     1      10.154  37.154  -1.235  1.00  0.00    -0.367 N 
HETATM   17  C1  UNL     1       9.039  36.658  -0.872  1.00  0.00     0.196 C 
HETATM   18  N1  UNL     1       8.395  37.124   0.291  1.00  0.00    -0.067 NA
HETATM   19  N2  UNL     1       8.438  35.635  -1.636  1.00  0.00    -0.067 NA
ATOM     20  H3  UNL     1      10.617  36.813  -2.078  1.00  0.00     0.161 HD
ENDBRANCH  15  16
ENDBRANCH  14  15
ENDBRANCH  13  14
ENDBRANCH  10  13
ENDBRANCH   9  10
ENDBRANCH   8   9
ENDBRANCH   7   8
ENDBRANCH   4   7
ENDBRANCH   3   4
ENDBRANCH   2   3
ENDBRANCH   1   2
BRANCH   1  21
HETATM   21  N6  UNL     1      13.076  38.353  -8.827  1.00  0.00    -0.226 N 
ATOM     22  H6  UNL     1      13.227  37.630  -8.124  1.00  0.00     0.177 HD
BRANCH  21  23
HETATM   23  C11 UNL     1      13.278  38.080 -10.054  1.00  0.00     0.681 A 
HETATM   24  N7  UNL     1      12.990  36.903 -10.614  1.00  0.00    -0.155 N 
HETATM   25  C12 UNL     1      13.186  36.592 -11.896  1.00  0.00     0.273 A 
ATOM     26  H7  UNL     1      12.588  36.185 -10.014  1.00  0.00     0.187 HD
HETATM   27  O1  UNL     1      12.856  35.438 -12.252  1.00  0.00    -0.267 OA
HETATM   28  C13 UNL     1      13.740  37.540 -12.779  1.00  0.00     0.074 A 
HETATM   29  C14 UNL     1      14.009  37.409 -14.099  1.00  0.00    -0.025 A 
HETATM   30  C16 UNL     1      14.034  38.746 -12.203  1.00  0.00     0.107 A 
HETATM   31  C15 UNL     1      14.548  38.495 -14.737  1.00  0.00    -0.006 A 
HETATM   32  C20 UNL     1      13.749  36.120 -14.862  1.00  0.00     0.060 C 
HETATM   33  S1  UNL     1      14.665  39.653 -13.496  1.00  0.00    -0.075 SA
HETATM   34  C17 UNL     1      14.952  38.709 -16.162  1.00  0.00     0.066 C 
HETATM   35  C18 UNL     1      13.879  38.123 -17.016  1.00  0.00     0.118 C 
HETATM   36  N9  UNL     1      14.189  36.738 -17.229  1.00  0.00    -0.421 N 
HETATM   37  C19 UNL     1      14.613  36.023 -16.090  1.00  0.00     0.118 C 
ATOM     38  H9  UNL     1      14.107  36.298 -18.146  1.00  0.00     0.153 HD
HETATM   39  N8  UNL     1      13.816  39.018 -10.893  1.00  0.00    -0.184 N 
ATOM     40  H8  UNL     1      14.058  39.939 -10.527  1.00  0.00     0.185 HD
ENDBRANCH  21  23
ENDBRANCH   1  21
TORSDOF 13
ENDMDL
MODEL 2
REMARK VINA RESULT: -7.719559645      2.713      4.126
REMARK  13 active torsions:
REMARK  status: ('A' for Active; 'I' for Inactive)
REMARK    1  A    between atoms: N3_4  and  C2_6 
REMARK    2  A    between atoms: C2_6  and  C3_7 
REMARK    3  A    between atoms: C3_7  and  C4_8 
REMARK    4  A    between atoms: C4_8  and  N4_9 
REMARK    5  A    between atoms: N4_9  and  C5_12 
REMARK    6  A    between atoms: C5_12  and  C6_13 
REMARK    7  A    between atoms: C6_13  and  C7_14 
REMARK    8  A    between atoms: C7_14  and  N5_15 
REMARK    9  A    between atoms: N5_15  and  C8_18 
REMARK   10  A    between atoms: C8_18  and  C9_19 
REMARK   11  A    between atoms: C9_19  and  C10_20 
REMARK   12  A    between atoms: C10_20  and  N6_21 
REMARK   13  A    between atoms: N6_21  and  C11_23 
ROOT
HETATM    1  C10 UNL     1      11.884  43.432  -9.190  1.00  0.00     0.139 C 
ENDROOT
BRANCH   1   2
HETATM    2  C9  UNL     1      10.440  43.099  -8.789  1.00  0.00     0.048 C 
BRANCH   2   3
HETATM    3  C8  UNL     1      10.175  43.881  -7.541  1.00  0.00     0.234 C 
BRANCH   3   4
HETATM    4  N5  UNL     1       8.762  43.996  -7.312  1.00  0.00    -0.075 N 
ATOM      5  H52 UNL     1       8.248  43.284  -7.830  1.00  0.00     0.277 HD
ATOM      6  H51 UNL     1       8.385  44.832  -7.760  1.00  0.00     0.277 HD
BRANCH   4   7
HETATM    7  C7  UNL     1       8.422  43.962  -5.911  1.00  0.00     0.233 C 
BRANCH   7   8
HETATM    8  C6  UNL     1       8.750  42.607  -5.359  1.00  0.00     0.055 C 
BRANCH   8   9
HETATM    9  C5  UNL     1       8.198  42.353  -4.005  1.00  0.00     0.233 C 
BRANCH   9  10
HETATM   10  N4  UNL     1       7.689  41.034  -3.784  1.00  0.00    -0.075 N 
ATOM     11  H42 UNL     1       7.330  40.613  -4.640  1.00  0.00     0.277 HD
ATOM     12  H41 UNL     1       6.821  41.044  -3.249  1.00  0.00     0.277 HD
BRANCH  10  13
HETATM   13  C4  UNL     1       8.691  40.224  -3.166  1.00  0.00     0.234 C 
BRANCH  13  14
HETATM   14  C3  UNL     1       8.675  38.775  -3.578  1.00  0.00     0.047 C 
BRANCH  14  15
HETATM   15  C2  UNL     1      10.078  38.457  -4.054  1.00  0.00     0.123 C 
BRANCH  15  16
HETATM   16  N3  UNL     1      10.805  39.608  -4.521  1.00  0.00    -0.367 N 
HETATM   17  C1  UNL     1      11.032  39.746  -5.766  1.00  0.00     0.196 C 
HETATM   18  N1  UNL     1      10.577  38.781  -6.686  1.00  0.00    -0.067 NA
HETATM   19  N2  UNL     1      11.741  40.872  -6.235  1.00  0.00    -0.067 NA
ATOM     20  H3  UNL     1      11.137  40.310  -3.858  1.00  0.00     0.161 HD
ENDBRANCH  15  16
ENDBRANCH  14  15
ENDBRANCH  13  14
ENDBRANCH  10  13
ENDBRANCH   9  10
ENDBRANCH   8   9
ENDBRANCH   7   8
ENDBRANCH   4   7
ENDBRANCH   3   4
ENDBRANCH   2   3
ENDBRANCH   1   2
BRANCH   1  21
HETATM   21  N6  UNL     1      12.780  42.411  -8.715  1.00  0.00    -0.226 N 
ATOM     22  H6  UNL     1      13.260  42.545  -7.825  1.00  0.00     0.177 HD
BRANCH  21  23
HETATM   23  C11 UNL     1      12.986  41.346  -9.379  1.00  0.00     0.681 A 
HETATM   24  N7  UNL     1      12.683  40.122  -8.942  1.00  0.00    -0.155 N 
HETATM   25  C12 UNL     1      12.883  38.990  -9.618  1.00  0.00     0.273 A 
ATOM     26  H7  UNL     1      12.264  40.046  -8.015  1.00  0.00     0.187 HD
HETATM   27  O1  UNL     1      12.535  37.928  -9.054  1.00  0.00    -0.267 OA
HETATM   28  C13 UNL     1      13.459  39.025 -10.903  1.00  0.00     0.074 A 
HETATM   29  C14 UNL     1      13.736  37.993 -11.733  1.00  0.00    -0.025 A 
HETATM   30  C16 UNL     1      13.770  40.280 -11.350  1.00  0.00     0.107 A 
HETATM   31  C15 UNL     1      14.298  38.299 -12.945  1.00  0.00    -0.006 A 
HETATM   32  C20 UNL     1      13.460  36.546 -11.358  1.00  0.00     0.060 C 
HETATM   33  S1  UNL     1      14.426  39.995 -12.894  1.00  0.00    -0.075 SA
HETATM   34  C17 UNL     1      14.716  37.434 -14.092  1.00  0.00     0.066 C 
HETATM   35  C18 UNL     1      13.640  36.421 -14.294  1.00  0.00     0.118 C 
HETATM   36  N9  UNL     1      13.928  35.294 -13.454  1.00  0.00    -0.421 N 
HETATM   37  C19 UNL     1      14.331  35.598 -12.137  1.00  0.00     0.118 C 
ATOM     38  H9  UNL     1      13.846  34.333 -13.787  1.00  0.00     0.153 HD
HETATM   39  N8  UNL     1      13.547  41.405 -10.627  1.00  0.00    -0.184 N 
ATOM     40  H8  UNL     1      13.802  42.311 -11.019  1.00  0.00     0.185 HD
ENDBRANCH  21  23
ENDBRANCH   1  21
TORSDOF 13
ENDMDL
MODEL 3
REMARK VINA RESULT: -7.702461403      4.103      7.189
REMARK  13 active torsions:
REMARK  status: ('A' for Active; 'I' for Inactive)
REMARK    1  A    between atoms: N3_4  and  C2_6 
REMARK    2  A    between atoms: C2_6  and  C3_7 
REMARK    3  A    between atoms: C3_7  and  C4_8 
REMARK    4  A    between atoms: C4_8  and  N4_9 
REMARK    5  A    between atoms: N4_9  and  C5_12 
REMARK    6  A    between atoms: C5_12  and  C6_13 
REMARK    7  A    between atoms: C6_13  and  C7_14 
REMARK    8  A    between atoms: C7_14  and  N5_15 
REMARK    9  A    between atoms: N5_15  and  C8_18 
REMARK   10  A    between atoms: C8_18  and  C9_19 
REMARK   11  A    between atoms: C9_19  and  C10_20 
REMARK   12  A    between atoms: C10_20  and  N6_21 
REMARK   13  A    between atoms: N6_21  and  C11_23 
ROOT
HETATM    1  C10 UNL     1       9.575  38.713  -2.941  1.00  0.00     0.139 C 
ENDROOT
BRANCH   1   2
HETATM    2  C9  UNL     1       9.968  38.642  -1.458  1.00  0.00     0.048 C 
BRANCH   2   3
HETATM    3  C8  UNL     1       9.726  40.013  -0.910  1.00  0.00     0.234 C 
BRANCH   3   4
HETATM    4  N5  UNL     1       9.353  40.915  -1.962  1.00  0.00    -0.075 N 
ATOM      5  H52 UNL     1       8.815  40.435  -2.683  1.00  0.00     0.277 HD
ATOM      6  H51 UNL     1      10.165  41.187  -2.517  1.00  0.00     0.277 HD
BRANCH   4   7
HETATM    7  C7  UNL     1       8.647  42.074  -1.477  1.00  0.00     0.233 C 
BRANCH   7   8
HETATM    8  C6  UNL     1       7.831  42.655  -2.593  1.00  0.00     0.055 C 
BRANCH   8   9
HETATM    9  C5  UNL     1       8.397  42.422  -3.945  1.00  0.00     0.233 C 
BRANCH   9  10
HETATM   10  N4  UNL     1       7.451  42.416  -5.018  1.00  0.00    -0.075 N 
ATOM     11  H42 UNL     1       7.064  41.487  -5.183  1.00  0.00     0.277 HD
ATOM     12  H41 UNL     1       7.898  42.554  -5.924  1.00  0.00     0.277 HD
BRANCH  10  13
HETATM   13  C4  UNL     1       6.430  43.385  -4.770  1.00  0.00     0.234 C 
BRANCH  13  14
HETATM   14  C3  UNL     1       5.796  43.966  -6.006  1.00  0.00     0.047 C 
BRANCH  14  15
HETATM   15  C2  UNL     1       6.781  44.983  -6.547  1.00  0.00     0.123 C 
BRANCH  15  16
HETATM   16  N3  UNL     1       7.506  44.527  -7.704  1.00  0.00    -0.367 N 
HETATM   17  C1  UNL     1       8.773  44.415  -7.647  1.00  0.00     0.196 C 
HETATM   18  N1  UNL     1       9.466  44.736  -6.463  1.00  0.00    -0.067 NA
HETATM   19  N2  UNL     1       9.494  43.967  -8.774  1.00  0.00    -0.067 NA
ATOM     20  H3  UNL     1       7.008  44.295  -8.564  1.00  0.00     0.161 HD
ENDBRANCH  15  16
ENDBRANCH  14  15
ENDBRANCH  13  14
ENDBRANCH  10  13
ENDBRANCH   9  10
ENDBRANCH   8   9
ENDBRANCH   7   8
ENDBRANCH   4   7
ENDBRANCH   3   4
ENDBRANCH   2   3
ENDBRANCH   1   2
BRANCH   1  21
HETATM   21  N6  UNL     1      10.586  38.090  -3.754  1.00  0.00    -0.226 N 
ATOM     22  H6  UNL     1      10.948  37.176  -3.484  1.00  0.00     0.177 HD
BRANCH  21  23
HETATM   23  C11 UNL     1      11.038  38.655  -4.801  1.00  0.00     0.681 A 
HETATM   24  N7  UNL     1      10.783  39.921  -5.137  1.00  0.00    -0.155 N 
HETATM   25  C12 UNL     1      11.247  40.539  -6.223  1.00  0.00     0.273 A 
ATOM     26  H7  UNL     1      10.185  40.460  -4.511  1.00  0.00     0.187 HD
HETATM   27  O1  UNL     1      10.907  41.734  -6.380  1.00  0.00    -0.267 OA
HETATM   28  C13 UNL     1      12.077  39.850  -7.130  1.00  0.00     0.074 A 
HETATM   29  C14 UNL     1      12.638  40.305  -8.274  1.00  0.00    -0.025 A 
HETATM   30  C16 UNL     1      12.337  38.552  -6.785  1.00  0.00     0.107 A 
HETATM   31  C15 UNL     1      13.417  39.425  -8.980  1.00  0.00    -0.006 A 
HETATM   32  C20 UNL     1      12.419  41.719  -8.786  1.00  0.00     0.060 C 
HETATM   33  S1  UNL     1      13.344  38.007  -8.043  1.00  0.00    -0.075 SA
HETATM   34  C17 UNL     1      14.186  39.583 -10.254  1.00  0.00     0.066 C 
HETATM   35  C18 UNL     1      14.875  40.904 -10.191  1.00  0.00     0.118 C 
HETATM   36  N9  UNL     1      13.979  41.897 -10.713  1.00  0.00    -0.421 N 
HETATM   37  C19 UNL     1      12.643  41.809 -10.272  1.00  0.00     0.118 C 
ATOM     38  H9  UNL     1      14.290  42.620 -11.363  1.00  0.00     0.153 HD
HETATM   39  N8  UNL     1      11.843  37.965  -5.668  1.00  0.00    -0.184 N 
ATOM     40  H8  UNL     1      12.076  36.992  -5.468  1.00  0.00     0.185 HD
ENDBRANCH  21  23
ENDBRANCH   1  21
TORSDOF 13
ENDMDL
MODEL 4
REMARK VINA RESULT: -7.696778436      4.145      6.818
REMARK  13 active torsions:
REMARK  status: ('A' for Active; 'I' for Inactive)
REMARK    1  A    between atoms: N3_4  and  C2_6 
REMARK    2  A    between atoms: C2_6  and  C3_7 
REMARK    3  A    between atoms: C3_7  and  C4_8 
REMARK    4  A    between atoms: C4_8  and  N4_9 
REMARK    5  A    between atoms: N4_9  and  C5_12 
REMARK    6  A    between atoms: C5_12  and  C6_13 
REMARK    7  A    between atoms: C6_13  and  C7_14 
REMARK    8  A    between atoms: C7_14  and  N5_15 
REMARK    9  A    between atoms: N5_15  and  C8_18 
REMARK   10  A    between atoms: C8_18  and  C9_19 
REMARK   11  A    between atoms: C9_19  and  C10_20 
REMARK   12  A    between atoms: C10_20  and  N6_21 
REMARK   13  A    between atoms: N6_21  and  C11_23 
ROOT
HETATM    1  C10 UNL     1       9.566  38.501  -2.888  1.00  0.00     0.139 C 
ENDROOT
BRANCH   1   2
HETATM    2  C9  UNL     1       9.889  38.339  -1.395  1.00  0.00     0.048 C 
BRANCH   2   3
HETATM    3  C8  UNL     1       9.841  39.719  -0.819  1.00  0.00     0.234 C 
BRANCH   3   4
HETATM    4  N5  UNL     1       9.378  40.657  -1.802  1.00  0.00    -0.075 N 
ATOM      5  H52 UNL     1       8.566  40.294  -2.301  1.00  0.00     0.277 HD
ATOM      6  H51 UNL     1      10.033  40.726  -2.581  1.00  0.00     0.277 HD
BRANCH   4   7
HETATM    7  C7  UNL     1       9.102  41.957  -1.243  1.00  0.00     0.233 C 
BRANCH   7   8
HETATM    8  C6  UNL     1       8.002  42.606  -2.030  1.00  0.00     0.055 C 
BRANCH   8   9
HETATM    9  C5  UNL     1       8.478  43.521  -3.098  1.00  0.00     0.233 C 
BRANCH   9  10
HETATM   10  N4  UNL     1       8.506  42.967  -4.418  1.00  0.00    -0.075 N 
ATOM     11  H42 UNL     1       9.229  42.255  -4.519  1.00  0.00     0.277 HD
ATOM     12  H41 UNL     1       8.857  43.633  -5.105  1.00  0.00     0.277 HD
BRANCH  10  13
HETATM   13  C4  UNL     1       7.211  42.471  -4.763  1.00  0.00     0.234 C 
BRANCH  13  14
HETATM   14  C3  UNL     1       6.344  43.441  -5.521  1.00  0.00     0.047 C 
BRANCH  14  15
HETATM   15  C2  UNL     1       5.159  43.738  -4.623  1.00  0.00     0.123 C 
BRANCH  15  16
HETATM   16  N3  UNL     1       4.741  42.613  -3.829  1.00  0.00    -0.367 N 
HETATM   17  C1  UNL     1       3.553  42.170  -3.944  1.00  0.00     0.196 C 
HETATM   18  N1  UNL     1       2.649  42.773  -4.841  1.00  0.00    -0.067 NA
HETATM   19  N2  UNL     1       3.132  41.067  -3.171  1.00  0.00    -0.067 NA
ATOM     20  H3  UNL     1       5.391  42.174  -3.177  1.00  0.00     0.161 HD
ENDBRANCH  15  16
ENDBRANCH  14  15
ENDBRANCH  13  14
ENDBRANCH  10  13
ENDBRANCH   9  10
ENDBRANCH   8   9
ENDBRANCH   7   8
ENDBRANCH   4   7
ENDBRANCH   3   4
ENDBRANCH   2   3
ENDBRANCH   1   2
BRANCH   1  21
HETATM   21  N6  UNL     1      10.663  38.026  -3.688  1.00  0.00    -0.226 N 
ATOM     22  H6  UNL     1      11.157  37.181  -3.404  1.00  0.00     0.177 HD
BRANCH  21  23
HETATM   23  C11 UNL     1      11.029  38.636  -4.743  1.00  0.00     0.681 A 
HETATM   24  N7  UNL     1      10.686  39.892  -5.038  1.00  0.00    -0.155 N 
HETATM   25  C12 UNL     1      11.060  40.556  -6.132  1.00  0.00     0.273 A 
ATOM     26  H7  UNL     1      10.090  40.382  -4.372  1.00  0.00     0.187 HD
HETATM   27  O1  UNL     1      10.645  41.732  -6.246  1.00  0.00    -0.267 OA
HETATM   28  C13 UNL     1      11.883  39.935  -7.092  1.00  0.00     0.074 A 
HETATM   29  C14 UNL     1      12.360  40.444  -8.251  1.00  0.00    -0.025 A 
HETATM   30  C16 UNL     1      12.233  38.648  -6.789  1.00  0.00     0.107 A 
HETATM   31  C15 UNL     1      13.153  39.625  -9.013  1.00  0.00    -0.006 A 
HETATM   32  C20 UNL     1      12.035  41.853  -8.721  1.00  0.00     0.060 C 
HETATM   33  S1  UNL     1      13.208  38.187  -8.105  1.00  0.00    -0.075 SA
HETATM   34  C17 UNL     1      13.848  39.852 -10.318  1.00  0.00     0.066 C 
HETATM   35  C18 UNL     1      14.462  41.210 -10.259  1.00  0.00     0.118 C 
HETATM   36  N9  UNL     1      13.487  42.158 -10.716  1.00  0.00    -0.421 N 
HETATM   37  C19 UNL     1      12.181  41.984 -10.213  1.00  0.00     0.118 C 
ATOM     38  H9  UNL     1      13.722  42.911 -11.363  1.00  0.00     0.153 HD
HETATM   39  N8  UNL     1      11.830  38.011  -5.662  1.00  0.00    -0.184 N 
ATOM     40  H8  UNL     1      12.128  37.050  -5.496  1.00  0.00     0.185 HD
ENDBRANCH  21  23
ENDBRANCH   1  21
TORSDOF 13
ENDMDL
MODEL 5
REMARK VINA RESULT: -7.673187015      3.034      5.218
REMARK  13 active torsions:
REMARK  status: ('A' for Active; 'I' for Inactive)
REMARK    1  A    between atoms: N3_4  and  C2_6 
REMARK    2  A    between atoms: C2_6  and  C3_7 
REMARK    3  A    between atoms: C3_7  and  C4_8 
REMARK    4  A    between atoms: C4_8  and  N4_9 
REMARK    5  A    between atoms: N4_9  and  C5_12 
REMARK    6  A    between atoms: C5_12  and  C6_13 
REMARK    7  A    between atoms: C6_13  and  C7_14 
REMARK    8  A    between atoms: C7_14  and  N5_15 
REMARK    9  A    between atoms: N5_15  and  C8_18 
REMARK   10  A    between atoms: C8_18  and  C9_19 
REMARK   11  A    between atoms: C9_19  and  C10_20 
REMARK   12  A    between atoms: C10_20  and  N6_21 
REMARK   13  A    between atoms: N6_21  and  C11_23 
ROOT
HETATM    1  C10 UNL     1      10.716  38.918  -4.291  1.00  0.00     0.139 C 
ENDROOT
BRANCH   1   2
HETATM    2  C9  UNL     1       9.322  38.292  -4.445  1.00  0.00     0.048 C 
BRANCH   2   3
HETATM    3  C8  UNL     1       8.908  37.883  -3.067  1.00  0.00     0.234 C 
BRANCH   3   4
HETATM    4  N5  UNL     1      10.046  37.436  -2.314  1.00  0.00    -0.075 N 
ATOM      5  H52 UNL     1      10.831  38.076  -2.422  1.00  0.00     0.277 HD
ATOM      6  H51 UNL     1      10.455  36.600  -2.731  1.00  0.00     0.277 HD
BRANCH   4   7
HETATM    7  C7  UNL     1       9.741  37.221  -0.921  1.00  0.00     0.233 C 
BRANCH   7   8
HETATM    8  C6  UNL     1       9.775  38.537  -0.203  1.00  0.00     0.055 C 
BRANCH   8   9
HETATM    9  C5  UNL     1      10.811  39.475  -0.701  1.00  0.00     0.233 C 
BRANCH   9  10
HETATM   10  N4  UNL     1      10.402  40.840  -0.823  1.00  0.00    -0.075 N 
ATOM     11  H42 UNL     1      10.993  41.362  -1.469  1.00  0.00     0.277 HD
ATOM     12  H41 UNL     1      10.597  41.376   0.023  1.00  0.00     0.277 HD
BRANCH  10  13
HETATM   13  C4  UNL     1       9.021  40.902  -1.189  1.00  0.00     0.234 C 
BRANCH  13  14
HETATM   14  C3  UNL     1       8.493  42.291  -1.433  1.00  0.00     0.047 C 
BRANCH  14  15
HETATM   15  C2  UNL     1       7.931  42.287  -2.841  1.00  0.00     0.123 C 
BRANCH  15  16
HETATM   16  N3  UNL     1       8.900  41.948  -3.849  1.00  0.00    -0.367 N 
HETATM   17  C1  UNL     1       8.731  42.352  -5.044  1.00  0.00     0.196 C 
HETATM   18  N1  UNL     1       7.602  43.125  -5.384  1.00  0.00    -0.067 NA
HETATM   19  N2  UNL     1       9.676  42.028  -6.041  1.00  0.00    -0.067 NA
ATOM     20  H3  UNL     1       9.718  41.388  -3.608  1.00  0.00     0.161 HD
ENDBRANCH  15  16
ENDBRANCH  14  15
ENDBRANCH  13  14
ENDBRANCH  10  13
ENDBRANCH   9  10
ENDBRANCH   8   9
ENDBRANCH   7   8
ENDBRANCH   4   7
ENDBRANCH   3   4
ENDBRANCH   2   3
ENDBRANCH   1   2
BRANCH   1  21
HETATM   21  N6  UNL     1      11.665  38.231  -5.126  1.00  0.00    -0.226 N 
ATOM     22  H6  UNL     1      12.033  37.329  -4.825  1.00  0.00     0.177 HD
BRANCH  21  23
HETATM   23  C11 UNL     1      12.056  38.723  -6.233  1.00  0.00     0.681 A 
HETATM   24  N7  UNL     1      12.198  40.031  -6.460  1.00  0.00    -0.155 N 
HETATM   25  C12 UNL     1      12.610  40.574  -7.606  1.00  0.00     0.273 A 
ATOM     26  H7  UNL     1      11.972  40.666  -5.696  1.00  0.00     0.187 HD
HETATM   27  O1  UNL     1      12.687  41.823  -7.643  1.00  0.00    -0.267 OA
HETATM   28  C13 UNL     1      12.937  39.751  -8.703  1.00  0.00     0.074 A 
HETATM   29  C14 UNL     1      13.369  40.115  -9.932  1.00  0.00    -0.025 A 
HETATM   30  C16 UNL     1      12.791  38.411  -8.468  1.00  0.00     0.107 A 
HETATM   31  C15 UNL     1      13.625  39.109 -10.828  1.00  0.00    -0.006 A 
HETATM   32  C20 UNL     1      13.558  41.569 -10.335  1.00  0.00     0.060 C 
HETATM   33  S1  UNL     1      13.257  37.703  -9.943  1.00  0.00    -0.075 SA
HETATM   34  C17 UNL     1      14.116  39.140 -12.240  1.00  0.00     0.066 C 
HETATM   35  C18 UNL     1      15.221  40.139 -12.300  1.00  0.00     0.118 C 
HETATM   36  N9  UNL     1      14.642  41.425 -12.568  1.00  0.00    -0.421 N 
HETATM   37  C19 UNL     1      13.484  41.741 -11.829  1.00  0.00     0.118 C 
ATOM     38  H9  UNL     1      15.043  42.070 -13.249  1.00  0.00     0.153 HD
HETATM   39  N8  UNL     1      12.369  37.904  -7.284  1.00  0.00    -0.184 N 
ATOM     40  H8  UNL     1      12.282  36.894  -7.175  1.00  0.00     0.185 HD
ENDBRANCH  21  23
ENDBRANCH   1  21
TORSDOF 13
ENDMDL
