MODEL 1
REMARK VINA RESULT: -8.799917446      0.000      0.000
REMARK  8 active torsions:
REMARK  status: ('A' for Active; 'I' for Inactive)
REMARK    1  A    between atoms: N1_1  and  C1_4 
REMARK    2  A    between atoms: C2_7  and  N3_8 
REMARK    3  A    between atoms: N4_11  and  S1_12 
REMARK    4  A    between atoms: S1_12  and  C3_15 
REMARK    5  A    between atoms: C6_18  and  O3_19 
REMARK    6  A    between atoms: O3_19  and  C7_20 
REMARK    7  A    between atoms: C8_23  and  N6_24 
REMARK    8  A    between atoms: C9_27  and  N7_28 
ROOT
HETATM    1  C3  UNL     1       0.606  -0.942  53.013  1.00  0.00     0.081 A 
HETATM    2  C4  UNL     1       0.555   0.105  52.148  1.00  0.00     0.028 A 
HETATM    3  C5  UNL     1       1.606   0.427  51.291  1.00  0.00     0.039 A 
HETATM    4  C6  UNL     1       2.769  -0.314  51.282  1.00  0.00     0.079 A 
HETATM    5  C10 UNL     1       2.840  -1.381  52.151  1.00  0.00     0.039 A 
HETATM    6  C11 UNL     1       1.793  -1.689  52.993  1.00  0.00     0.028 A 
ENDROOT
BRANCH   1   7
HETATM    7  S1  UNL     1      -0.702  -1.345  54.079  1.00  0.00     0.287 S 
HETATM    8  O1  UNL     1      -0.288  -2.637  54.776  1.00  0.00    -0.199 OA
HETATM    9  O2  UNL     1      -1.920  -1.732  53.247  1.00  0.00    -0.199 OA
BRANCH   7  10
HETATM   10  N4  UNL     1      -1.132  -0.159  55.212  1.00  0.00    -0.012 N 
HETATM   11  C2  UNL     1      -0.665  -0.051  56.458  1.00  0.00     0.711 A 
HETATM   12  N2  UNL     1      -1.047   0.993  57.271  1.00  0.00    -0.021 N 
HETATM   13  C1  UNL     1      -1.893   1.939  56.861  1.00  0.00     0.694 A 
ATOM     14  H2  UNL     1      -0.669   1.045  58.217  1.00  0.00     0.203 HD
HETATM   15  N10 UNL     1      -2.368   1.839  55.618  1.00  0.00    -0.140 N 
HETATM   16  C12 UNL     1      -2.003   0.831  54.818  1.00  0.00     0.369 A 
ATOM     17  H10 UNL     1      -3.019   2.544  55.272  1.00  0.00     0.189 HD
HETATM   18  O6  UNL     1      -2.483   0.784  53.647  1.00  0.00    -0.244 OA
BRANCH  11  19
HETATM   19  N3  UNL     1       0.111  -0.915  56.949  1.00  0.00    -0.233 N 
ATOM     20  H32 UNL     1       1.004  -1.138  56.511  1.00  0.00     0.174 HD
ATOM     21  H31 UNL     1      -0.201  -1.405  57.787  1.00  0.00     0.174 HD
ENDBRANCH  11  19
BRANCH  13  22
HETATM   22  N1  UNL     1      -2.252   2.917  57.618  1.00  0.00    -0.234 N 
ATOM     23  H12 UNL     1      -3.212   3.261  57.595  1.00  0.00     0.174 HD
ATOM     24  H11 UNL     1      -1.605   3.376  58.258  1.00  0.00     0.174 HD
ENDBRANCH  13  22
ENDBRANCH   7  10
ENDBRANCH   1   7
BRANCH   4  25
HETATM   25  O3  UNL     1       3.839  -0.030  50.446  1.00  0.00    -0.278 OA
BRANCH  25  26
HETATM   26  C7  UNL     1       3.815  -0.273  49.085  1.00  0.00     0.245 A 
HETATM   27  N5  UNL     1       3.402  -1.472  48.611  1.00  0.00    -0.304 N 
HETATM   28  C8  UNL     1       3.375  -1.719  47.285  1.00  0.00     0.154 A 
ATOM     29  H5  UNL     1       3.109  -2.198  49.265  1.00  0.00     0.171 HD
HETATM   30  C9  UNL     1       3.781  -0.705  46.445  1.00  0.00     0.232 A 
HETATM   31  N8  UNL     1       4.182   0.472  46.951  1.00  0.00    -0.274 N 
HETATM   32  N9  UNL     1       4.208   0.707  48.256  1.00  0.00    -0.263 N 
ATOM     33  H8  UNL     1       4.478   1.208  46.311  1.00  0.00     0.189 HD
ATOM     34  H9  UNL     1       4.517   1.608  48.620  1.00  0.00     0.190 HD
BRANCH  28  35
HETATM   35  N6  UNL     1       2.996  -2.833  46.761  1.00  0.00    -0.382 N 
ATOM     36  H62 UNL     1       3.683  -3.388  46.251  1.00  0.00     0.157 HD
ATOM     37  H61 UNL     1       2.047  -3.203  46.820  1.00  0.00     0.157 HD
ENDBRANCH  28  35
BRANCH  30  38
HETATM   38  N7  UNL     1       3.778  -0.887  45.050  1.00  0.00    -0.093 N 
HETATM   39  O4  UNL     1       3.358   0.040  44.322  1.00  0.00    -0.530 OA
HETATM   40  O5  UNL     1       4.217  -2.036  44.431  1.00  0.00    -0.530 OA
ENDBRANCH  30  38
ENDBRANCH  25  26
ENDBRANCH   4  25
TORSDOF 8
ENDMDL
MODEL 2
REMARK VINA RESULT: -8.682927705      2.658      3.351
REMARK  8 active torsions:
REMARK  status: ('A' for Active; 'I' for Inactive)
REMARK    1  A    between atoms: N1_1  and  C1_4 
REMARK    2  A    between atoms: C2_7  and  N3_8 
REMARK    3  A    between atoms: N4_11  and  S1_12 
REMARK    4  A    between atoms: S1_12  and  C3_15 
REMARK    5  A    between atoms: C6_18  and  O3_19 
REMARK    6  A    between atoms: O3_19  and  C7_20 
REMARK    7  A    between atoms: C8_23  and  N6_24 
REMARK    8  A    between atoms: C9_27  and  N7_28 
ROOT
HETATM    1  C3  UNL     1       3.712   0.347  52.671  1.00  0.00     0.081 A 
HETATM    2  C4  UNL     1       2.605   0.032  51.948  1.00  0.00     0.028 A 
HETATM    3  C5  UNL     1       2.533   0.204  50.567  1.00  0.00     0.039 A 
HETATM    4  C6  UNL     1       3.600   0.713  49.856  1.00  0.00     0.079 A 
HETATM    5  C10 UNL     1       4.732   1.037  50.570  1.00  0.00     0.039 A 
HETATM    6  C11 UNL     1       4.791   0.862  51.937  1.00  0.00     0.028 A 
ENDROOT
BRANCH   1   7
HETATM    7  S1  UNL     1       3.805   0.132  54.389  1.00  0.00     0.287 S 
HETATM    8  O1  UNL     1       4.858   1.121  54.877  1.00  0.00    -0.199 OA
HETATM    9  O2  UNL     1       4.401  -1.240  54.687  1.00  0.00    -0.199 OA
BRANCH   7  10
HETATM   10  N4  UNL     1       2.354   0.327  55.244  1.00  0.00    -0.012 N 
HETATM   11  C2  UNL     1       1.592  -0.651  55.740  1.00  0.00     0.711 A 
HETATM   12  N2  UNL     1       0.459  -0.367  56.469  1.00  0.00    -0.021 N 
HETATM   13  C1  UNL     1       0.067   0.885  56.715  1.00  0.00     0.694 A 
ATOM     14  H2  UNL     1      -0.099  -1.139  56.835  1.00  0.00     0.203 HD
HETATM   15  N10 UNL     1       0.820   1.869  56.221  1.00  0.00    -0.140 N 
HETATM   16  C12 UNL     1       1.924   1.607  55.512  1.00  0.00     0.369 A 
ATOM     17  H10 UNL     1       0.549   2.838  56.387  1.00  0.00     0.189 HD
HETATM   18  O6  UNL     1       2.603   2.578  55.068  1.00  0.00    -0.244 OA
BRANCH  11  19
HETATM   19  N3  UNL     1       1.859  -1.865  55.532  1.00  0.00    -0.233 N 
ATOM     20  H32 UNL     1       2.717  -2.148  55.061  1.00  0.00     0.174 HD
ATOM     21  H31 UNL     1       1.169  -2.555  55.828  1.00  0.00     0.174 HD
ENDBRANCH  11  19
BRANCH  13  22
HETATM   22  N1  UNL     1      -0.991   1.154  57.396  1.00  0.00    -0.234 N 
ATOM     23  H12 UNL     1      -0.917   1.615  58.303  1.00  0.00     0.174 HD
ATOM     24  H11 UNL     1      -1.927   0.923  57.064  1.00  0.00     0.174 HD
ENDBRANCH  13  22
ENDBRANCH   7  10
ENDBRANCH   1   7
BRANCH   4  25
HETATM   25  O3  UNL     1       3.571   0.900  48.481  1.00  0.00    -0.278 OA
BRANCH  25  26
HETATM   26  C7  UNL     1       3.629  -0.146  47.579  1.00  0.00     0.245 A 
HETATM   27  N5  UNL     1       3.852   0.095  46.266  1.00  0.00    -0.304 N 
HETATM   28  C8  UNL     1       3.910  -0.920  45.378  1.00  0.00     0.154 A 
ATOM     29  H5  UNL     1       3.977   1.054  45.944  1.00  0.00     0.171 HD
HETATM   30  C9  UNL     1       3.735  -2.196  45.864  1.00  0.00     0.232 A 
HETATM   31  N8  UNL     1       3.517  -2.397  47.174  1.00  0.00    -0.274 N 
HETATM   32  N9  UNL     1       3.460  -1.394  48.041  1.00  0.00    -0.263 N 
ATOM     33  H8  UNL     1       3.390  -3.350  47.512  1.00  0.00     0.189 HD
ATOM     34  H9  UNL     1       3.293  -1.569  49.032  1.00  0.00     0.190 HD
BRANCH  28  35
HETATM   35  N6  UNL     1       4.117  -0.769  44.115  1.00  0.00    -0.382 N 
ATOM     36  H62 UNL     1       5.028  -0.422  43.811  1.00  0.00     0.157 HD
ATOM     37  H61 UNL     1       3.429  -0.972  43.390  1.00  0.00     0.157 HD
ENDBRANCH  28  35
BRANCH  30  38
HETATM   38  N7  UNL     1       3.783  -3.305  44.999  1.00  0.00    -0.093 N 
HETATM   39  O4  UNL     1       2.707  -3.807  44.602  1.00  0.00    -0.530 OA
HETATM   40  O5  UNL     1       4.955  -3.876  44.557  1.00  0.00    -0.530 OA
ENDBRANCH  30  38
ENDBRANCH  25  26
ENDBRANCH   4  25
TORSDOF 8
ENDMDL
MODEL 3
REMARK VINA RESULT: -8.666816621      1.698      2.169
REMARK  8 active torsions:
REMARK  status: ('A' for Active; 'I' for Inactive)
REMARK    1  A    between atoms: N1_1  and  C1_4 
REMARK    2  A    between atoms: C2_7  and  N3_8 
REMARK    3  A    between atoms: N4_11  and  S1_12 
REMARK    4  A    between atoms: S1_12  and  C3_15 
REMARK    5  A    between atoms: C6_18  and  O3_19 
REMARK    6  A    between atoms: O3_19  and  C7_20 
REMARK    7  A    between atoms: C8_23  and  N6_24 
REMARK    8  A    between atoms: C9_27  and  N7_28 
ROOT
HETATM    1  C3  UNL     1       2.156  -1.157  53.023  1.00  0.00     0.081 A 
HETATM    2  C4  UNL     1       3.460  -1.207  52.642  1.00  0.00     0.028 A 
HETATM    3  C5  UNL     1       3.932  -0.592  51.484  1.00  0.00     0.039 A 
HETATM    4  C6  UNL     1       3.082   0.107  50.653  1.00  0.00     0.079 A 
HETATM    5  C10 UNL     1       1.756   0.171  51.021  1.00  0.00     0.039 A 
HETATM    6  C11 UNL     1       1.302  -0.442  52.170  1.00  0.00     0.028 A 
ENDROOT
BRANCH   1   7
HETATM    7  S1  UNL     1       1.567  -1.920  54.464  1.00  0.00     0.287 S 
HETATM    8  O1  UNL     1       2.801  -2.237  55.302  1.00  0.00    -0.199 OA
HETATM    9  O2  UNL     1       0.987  -3.284  54.103  1.00  0.00    -0.199 OA
BRANCH   7  10
HETATM   10  N4  UNL     1       0.437  -1.035  55.367  1.00  0.00    -0.012 N 
HETATM   11  C2  UNL     1      -0.877  -1.265  55.432  1.00  0.00     0.711 A 
HETATM   12  N2  UNL     1      -1.690  -0.511  56.248  1.00  0.00    -0.021 N 
HETATM   13  C1  UNL     1      -1.214   0.477  57.007  1.00  0.00     0.694 A 
ATOM     14  H2  UNL     1      -2.689  -0.716  56.274  1.00  0.00     0.203 HD
HETATM   15  N10 UNL     1       0.097   0.718  56.948  1.00  0.00    -0.140 N 
HETATM   16  C12 UNL     1       0.898  -0.009  56.160  1.00  0.00     0.369 A 
ATOM     17  H10 UNL     1       0.494   1.468  57.513  1.00  0.00     0.189 HD
HETATM   18  O6  UNL     1       2.134   0.261  56.142  1.00  0.00    -0.244 OA
BRANCH  11  19
HETATM   19  N3  UNL     1      -1.426  -2.153  54.726  1.00  0.00    -0.233 N 
ATOM     20  H32 UNL     1      -0.946  -3.023  54.495  1.00  0.00     0.174 HD
ATOM     21  H31 UNL     1      -2.362  -1.958  54.369  1.00  0.00     0.174 HD
ENDBRANCH  11  19
BRANCH  13  22
HETATM   22  N1  UNL     1      -1.972   1.184  57.771  1.00  0.00    -0.234 N 
ATOM     23  H12 UNL     1      -2.788   0.766  58.217  1.00  0.00     0.174 HD
ATOM     24  H11 UNL     1      -1.789   2.170  57.959  1.00  0.00     0.174 HD
ENDBRANCH  13  22
ENDBRANCH   7  10
ENDBRANCH   1   7
BRANCH   4  25
HETATM   25  O3  UNL     1       3.509   0.734  49.491  1.00  0.00    -0.278 OA
BRANCH  25  26
HETATM   26  C7  UNL     1       3.668   0.065  48.292  1.00  0.00     0.245 A 
HETATM   27  N5  UNL     1       3.301  -1.233  48.179  1.00  0.00    -0.304 N 
HETATM   28  C8  UNL     1       3.452  -1.895  47.013  1.00  0.00     0.154 A 
ATOM     29  H5  UNL     1       2.905  -1.717  48.985  1.00  0.00     0.171 HD
HETATM   30  C9  UNL     1       3.991  -1.196  45.955  1.00  0.00     0.232 A 
HETATM   31  N8  UNL     1       4.342   0.090  46.104  1.00  0.00    -0.274 N 
HETATM   32  N9  UNL     1       4.191   0.735  47.254  1.00  0.00    -0.263 N 
ATOM     33  H8  UNL     1       4.738   0.589  45.308  1.00  0.00     0.189 HD
ATOM     34  H9  UNL     1       4.465   1.713  47.346  1.00  0.00     0.190 HD
BRANCH  28  35
HETATM   35  N6  UNL     1       3.127  -3.129  46.830  1.00  0.00    -0.382 N 
ATOM     36  H62 UNL     1       3.017  -3.727  47.649  1.00  0.00     0.157 HD
ATOM     37  H61 UNL     1       2.971  -3.553  45.916  1.00  0.00     0.157 HD
ENDBRANCH  28  35
BRANCH  30  38
HETATM   38  N7  UNL     1       4.178  -1.819  44.707  1.00  0.00    -0.093 N 
HETATM   39  O4  UNL     1       4.003  -1.147  43.666  1.00  0.00    -0.530 OA
HETATM   40  O5  UNL     1       4.547  -3.137  44.561  1.00  0.00    -0.530 OA
ENDBRANCH  30  38
ENDBRANCH  25  26
ENDBRANCH   4  25
TORSDOF 8
ENDMDL
MODEL 4
REMARK VINA RESULT: -8.626202096      0.667      1.708
REMARK  8 active torsions:
REMARK  status: ('A' for Active; 'I' for Inactive)
REMARK    1  A    between atoms: N1_1  and  C1_4 
REMARK    2  A    between atoms: C2_7  and  N3_8 
REMARK    3  A    between atoms: N4_11  and  S1_12 
REMARK    4  A    between atoms: S1_12  and  C3_15 
REMARK    5  A    between atoms: C6_18  and  O3_19 
REMARK    6  A    between atoms: O3_19  and  C7_20 
REMARK    7  A    between atoms: C8_23  and  N6_24 
REMARK    8  A    between atoms: C9_27  and  N7_28 
ROOT
HETATM    1  C3  UNL     1       0.694  -0.899  53.102  1.00  0.00     0.081 A 
HETATM    2  C4  UNL     1       1.832  -1.643  53.119  1.00  0.00     0.028 A 
HETATM    3  C5  UNL     1       2.911  -1.389  52.275  1.00  0.00     0.039 A 
HETATM    4  C6  UNL     1       2.875  -0.352  51.366  1.00  0.00     0.079 A 
HETATM    5  C10 UNL     1       1.731   0.414  51.333  1.00  0.00     0.039 A 
HETATM    6  C11 UNL     1       0.670   0.152  52.173  1.00  0.00     0.028 A 
ENDROOT
BRANCH   1   7
HETATM    7  S1  UNL     1      -0.650  -1.213  54.152  1.00  0.00     0.287 S 
HETATM    8  O1  UNL     1      -0.243  -2.412  55.003  1.00  0.00    -0.199 OA
HETATM    9  O2  UNL     1      -1.825  -1.715  53.319  1.00  0.00    -0.199 OA
BRANCH   7  10
HETATM   10  N4  UNL     1      -1.149   0.079  55.130  1.00  0.00    -0.012 N 
HETATM   11  C2  UNL     1      -2.002   1.047  54.787  1.00  0.00     0.711 A 
HETATM   12  N2  UNL     1      -2.377   2.016  55.690  1.00  0.00    -0.021 N 
HETATM   13  C1  UNL     1      -1.912   2.039  56.941  1.00  0.00     0.694 A 
ATOM     14  H2  UNL     1      -3.032   2.739  55.394  1.00  0.00     0.203 HD
HETATM   15  N10 UNL     1      -1.057   1.078  57.294  1.00  0.00    -0.140 N 
HETATM   16  C12 UNL     1      -0.686   0.130  56.426  1.00  0.00     0.369 A 
ATOM     17  H10 UNL     1      -0.680   1.066  58.241  1.00  0.00     0.189 HD
HETATM   18  O6  UNL     1       0.127  -0.759  56.813  1.00  0.00    -0.244 OA
BRANCH  11  19
HETATM   19  N3  UNL     1      -2.467   1.131  53.618  1.00  0.00    -0.233 N 
ATOM     20  H32 UNL     1      -2.028   0.649  52.834  1.00  0.00     0.174 HD
ATOM     21  H31 UNL     1      -3.286   1.723  53.480  1.00  0.00     0.174 HD
ENDBRANCH  11  19
BRANCH  13  22
HETATM   22  N1  UNL     1      -2.261   2.944  57.788  1.00  0.00    -0.234 N 
ATOM     23  H12 UNL     1      -1.956   2.885  58.759  1.00  0.00     0.174 HD
ATOM     24  H11 UNL     1      -2.844   3.739  57.528  1.00  0.00     0.174 HD
ENDBRANCH  13  22
ENDBRANCH   7  10
ENDBRANCH   1   7
BRANCH   4  25
HETATM   25  O3  UNL     1       3.926  -0.064  50.507  1.00  0.00    -0.278 OA
BRANCH  25  26
HETATM   26  C7  UNL     1       3.868  -0.293  49.145  1.00  0.00     0.245 A 
HETATM   27  N5  UNL     1       3.436  -1.484  48.669  1.00  0.00    -0.304 N 
HETATM   28  C8  UNL     1       3.376  -1.718  47.342  1.00  0.00     0.154 A 
ATOM     29  H5  UNL     1       3.154  -2.215  49.322  1.00  0.00     0.171 HD
HETATM   30  C9  UNL     1       3.768  -0.698  46.502  1.00  0.00     0.232 A 
HETATM   31  N8  UNL     1       4.190   0.471  47.010  1.00  0.00    -0.274 N 
HETATM   32  N9  UNL     1       4.247   0.693  48.317  1.00  0.00    -0.263 N 
ATOM     33  H8  UNL     1       4.475   1.212  46.371  1.00  0.00     0.189 HD
ATOM     34  H9  UNL     1       4.571   1.588  48.682  1.00  0.00     0.190 HD
BRANCH  28  35
HETATM   35  N6  UNL     1       2.977  -2.824  46.816  1.00  0.00    -0.382 N 
ATOM     36  H62 UNL     1       3.376  -3.697  47.162  1.00  0.00     0.157 HD
ATOM     37  H61 UNL     1       2.285  -2.890  46.070  1.00  0.00     0.157 HD
ENDBRANCH  28  35
BRANCH  30  38
HETATM   38  N7  UNL     1       3.732  -0.866  45.106  1.00  0.00    -0.093 N 
HETATM   39  O4  UNL     1       3.273   0.059  44.400  1.00  0.00    -0.530 OA
HETATM   40  O5  UNL     1       4.178  -1.999  44.463  1.00  0.00    -0.530 OA
ENDBRANCH  30  38
ENDBRANCH  25  26
ENDBRANCH   4  25
TORSDOF 8
ENDMDL
MODEL 5
REMARK VINA RESULT: -8.471416083      4.926      6.591
REMARK  8 active torsions:
REMARK  status: ('A' for Active; 'I' for Inactive)
REMARK    1  A    between atoms: N1_1  and  C1_4 
REMARK    2  A    between atoms: C2_7  and  N3_8 
REMARK    3  A    between atoms: N4_11  and  S1_12 
REMARK    4  A    between atoms: S1_12  and  C3_15 
REMARK    5  A    between atoms: C6_18  and  O3_19 
REMARK    6  A    between atoms: O3_19  and  C7_20 
REMARK    7  A    between atoms: C8_23  and  N6_24 
REMARK    8  A    between atoms: C9_27  and  N7_28 
ROOT
HETATM    1  C3  UNL     1      -2.865   2.027  55.604  1.00  0.00     0.081 A 
HETATM    2  C4  UNL     1      -2.571   0.910  56.321  1.00  0.00     0.028 A 
HETATM    3  C5  UNL     1      -1.877  -0.171  55.782  1.00  0.00     0.039 A 
HETATM    4  C6  UNL     1      -1.449  -0.160  54.471  1.00  0.00     0.079 A 
HETATM    5  C10 UNL     1      -1.736   0.964  53.727  1.00  0.00     0.039 A 
HETATM    6  C11 UNL     1      -2.423   2.027  54.272  1.00  0.00     0.028 A 
ENDROOT
BRANCH   1   7
HETATM    7  S1  UNL     1      -3.727   3.374  56.274  1.00  0.00     0.287 S 
HETATM    8  O1  UNL     1      -2.932   4.615  55.880  1.00  0.00    -0.199 OA
HETATM    9  O2  UNL     1      -3.628   3.321  57.795  1.00  0.00    -0.199 OA
BRANCH   7  10
HETATM   10  N4  UNL     1      -5.350   3.526  55.808  1.00  0.00    -0.012 N 
HETATM   11  C2  UNL     1      -6.408   3.037  56.459  1.00  0.00     0.711 A 
HETATM   12  N2  UNL     1      -7.689   3.274  56.013  1.00  0.00    -0.021 N 
HETATM   13  C1  UNL     1      -7.937   3.995  54.917  1.00  0.00     0.694 A 
ATOM     14  H2  UNL     1      -8.474   2.887  56.536  1.00  0.00     0.203 HD
HETATM   15  N10 UNL     1      -6.887   4.485  54.256  1.00  0.00    -0.140 N 
HETATM   16  C12 UNL     1      -5.637   4.263  54.682  1.00  0.00     0.369 A 
ATOM     17  H10 UNL     1      -7.039   5.038  53.413  1.00  0.00     0.189 HD
HETATM   18  O6  UNL     1      -4.677   4.753  54.017  1.00  0.00    -0.244 OA
BRANCH  11  19
HETATM   19  N3  UNL     1      -6.276   2.315  57.484  1.00  0.00    -0.233 N 
ATOM     20  H32 UNL     1      -6.892   1.523  57.661  1.00  0.00     0.174 HD
ATOM     21  H31 UNL     1      -5.543   2.570  58.147  1.00  0.00     0.174 HD
ENDBRANCH  11  19
BRANCH  13  22
HETATM   22  N1  UNL     1      -9.133   4.218  54.496  1.00  0.00    -0.234 N 
ATOM     23  H12 UNL     1      -9.676   4.994  54.876  1.00  0.00     0.174 HD
ATOM     24  H11 UNL     1      -9.576   3.642  53.781  1.00  0.00     0.174 HD
ENDBRANCH  13  22
ENDBRANCH   7  10
ENDBRANCH   1   7
BRANCH   4  25
HETATM   25  O3  UNL     1      -0.755  -1.214  53.894  1.00  0.00    -0.278 OA
BRANCH  25  26
HETATM   26  C7  UNL     1      -1.151  -1.817  52.714  1.00  0.00     0.245 A 
HETATM   27  N5  UNL     1      -2.447  -1.771  52.324  1.00  0.00    -0.304 N 
HETATM   28  C8  UNL     1      -2.843  -2.357  51.174  1.00  0.00     0.154 A 
ATOM     29  H5  UNL     1      -3.131  -1.288  52.905  1.00  0.00     0.171 HD
HETATM   30  C9  UNL     1      -1.879  -2.995  50.425  1.00  0.00     0.232 A 
HETATM   31  N8  UNL     1      -0.604  -3.019  50.844  1.00  0.00    -0.274 N 
HETATM   32  N9  UNL     1      -0.222  -2.442  51.975  1.00  0.00    -0.263 N 
ATOM     33  H8  UNL     1       0.093  -3.497  50.274  1.00  0.00     0.189 HD
ATOM     34  H9  UNL     1       0.752  -2.473  52.276  1.00  0.00     0.190 HD
BRANCH  28  35
HETATM   35  N6  UNL     1      -4.056  -2.355  50.739  1.00  0.00    -0.382 N 
ATOM     36  H62 UNL     1      -4.813  -2.244  51.413  1.00  0.00     0.157 HD
ATOM     37  H61 UNL     1      -4.315  -2.458  49.757  1.00  0.00     0.157 HD
ENDBRANCH  28  35
BRANCH  30  38
HETATM   38  N7  UNL     1      -2.216  -3.628  49.215  1.00  0.00    -0.093 N 
HETATM   39  O4  UNL     1      -2.452  -2.920  48.210  1.00  0.00    -0.530 OA
HETATM   40  O5  UNL     1      -2.302  -4.994  49.067  1.00  0.00    -0.530 OA
ENDBRANCH  30  38
ENDBRANCH  25  26
ENDBRANCH   4  25
TORSDOF 8
ENDMDL
