MODEL 1
REMARK VINA RESULT: -6.704556744      0.000      0.000
REMARK  6 active torsions:
REMARK  status: ('A' for Active; 'I' for Inactive)
REMARK    1  A    between atoms: C5_7  and  C6_8 
REMARK    2  A    between atoms: C6_8  and  C7_9 
REMARK    3  A    between atoms: C7_9  and  C8_10 
REMARK    4  A    between atoms: C8_10  and  C9_11 
REMARK    5  A    between atoms: C9_11  and  S1_12 
REMARK    6  A    between atoms: S1_12  and  C10_13 
ROOT
HETATM    1  C1  UNL     1      35.438  44.878  41.542  1.00  0.00     0.025 A 
HETATM    2  C2  UNL     1      36.172  43.817  41.060  1.00  0.00     0.013 A 
HETATM    3  C3  UNL     1      36.336  43.733  39.684  1.00  0.00    -0.004 A 
HETATM    4  C4  UNL     1      35.787  44.671  38.868  1.00  0.00     0.108 A 
HETATM    5  N1  UNL     1      35.078  45.690  39.397  1.00  0.00    -0.346 N 
ATOM      6  H1  UNL     1      34.677  46.379  38.760  1.00  0.00     0.167 HD
HETATM    7  C5  UNL     1      34.870  45.846  40.711  1.00  0.00     0.011 A 
HETATM    8  N3  UNL     1      36.094  44.368  37.526  1.00  0.00    -0.375 N 
ATOM      9  H3  UNL     1      35.763  44.884  36.710  1.00  0.00     0.161 HD
HETATM   10  C14 UNL     1      36.945  43.221  37.492  1.00  0.00     0.136 A 
HETATM   11  C15 UNL     1      37.074  42.694  38.905  1.00  0.00     0.010 A 
HETATM   12  C16 UNL     1      38.494  42.624  39.290  1.00  0.00     0.042 C 
HETATM   13  C17 UNL     1      39.079  41.306  39.576  1.00  0.00     0.168 C 
HETATM   14  O1  UNL     1      38.247  40.217  39.439  1.00  0.00    -0.391 OA
HETATM   15  C18 UNL     1      36.991  40.438  39.975  1.00  0.00     0.168 C 
HETATM   16  C19 UNL     1      36.299  41.416  39.050  1.00  0.00     0.042 C 
ENDROOT
BRANCH   7  17
HETATM   17  C6  UNL     1      34.084  46.970  41.302  1.00  0.00     0.057 C 
BRANCH  17  18
HETATM   18  C7  UNL     1      35.020  48.134  41.556  1.00  0.00     0.007 C 
BRANCH  18  19
HETATM   19  C8  UNL     1      34.542  49.060  42.633  1.00  0.00     0.010 C 
BRANCH  19  20
HETATM   20  C9  UNL     1      34.627  48.441  43.988  1.00  0.00     0.074 C 
BRANCH  20  21
HETATM   21  S1  UNL     1      32.906  48.240  44.599  1.00  0.00    -0.163 SA
BRANCH  21  22
HETATM   22  C10 UNL     1      32.769  46.478  45.087  1.00  0.00     0.074 C 
HETATM   23  C11 UNL     1      34.063  45.750  44.938  1.00  0.00     0.044 C 
HETATM   24  C12 UNL     1      34.393  45.374  46.369  1.00  0.00     0.233 C 
HETATM   25  N2  UNL     1      33.132  45.333  47.074  1.00  0.00    -0.074 N 
HETATM   26  C13 UNL     1      32.448  46.491  46.585  1.00  0.00     0.247 C 
ATOM     27  H22 UNL     1      32.615  44.459  46.970  1.00  0.00     0.277 HD
ATOM     28  H21 UNL     1      33.214  45.285  48.090  1.00  0.00     0.277 HD
ENDBRANCH  21  22
ENDBRANCH  20  21
ENDBRANCH  19  20
ENDBRANCH  18  19
ENDBRANCH  17  18
ENDBRANCH   7  17
TORSDOF 6
ENDMDL
MODEL 2
REMARK VINA RESULT: -6.663505860      1.848      3.187
REMARK  6 active torsions:
REMARK  status: ('A' for Active; 'I' for Inactive)
REMARK    1  A    between atoms: C5_7  and  C6_8 
REMARK    2  A    between atoms: C6_8  and  C7_9 
REMARK    3  A    between atoms: C7_9  and  C8_10 
REMARK    4  A    between atoms: C8_10  and  C9_11 
REMARK    5  A    between atoms: C9_11  and  S1_12 
REMARK    6  A    between atoms: S1_12  and  C10_13 
ROOT
HETATM    1  C1  UNL     1      35.288  43.185  42.698  1.00  0.00     0.025 A 
HETATM    2  C2  UNL     1      35.990  42.779  41.585  1.00  0.00     0.013 A 
HETATM    3  C3  UNL     1      35.967  43.620  40.480  1.00  0.00    -0.004 A 
HETATM    4  C4  UNL     1      35.276  44.789  40.521  1.00  0.00     0.108 A 
HETATM    5  N1  UNL     1      34.607  45.136  41.640  1.00  0.00    -0.346 N 
ATOM      6  H1  UNL     1      34.097  46.020  41.642  1.00  0.00     0.167 HD
HETATM    7  C5  UNL     1      34.576  44.385  42.749  1.00  0.00     0.011 A 
HETATM    8  N3  UNL     1      35.408  45.459  39.287  1.00  0.00    -0.375 N 
ATOM      9  H3  UNL     1      34.948  46.335  39.036  1.00  0.00     0.161 HD
HETATM   10  C14 UNL     1      36.289  44.713  38.446  1.00  0.00     0.136 A 
HETATM   11  C15 UNL     1      36.630  43.422  39.157  1.00  0.00     0.010 A 
HETATM   12  C16 UNL     1      38.092  43.289  39.289  1.00  0.00     0.042 C 
HETATM   13  C17 UNL     1      38.761  42.177  38.598  1.00  0.00     0.168 C 
HETATM   14  O1  UNL     1      37.959  41.343  37.850  1.00  0.00    -0.391 OA
HETATM   15  C18 UNL     1      36.781  41.017  38.497  1.00  0.00     0.168 C 
HETATM   16  C19 UNL     1      35.932  42.270  38.493  1.00  0.00     0.042 C 
ENDROOT
BRANCH   7  17
HETATM   17  C6  UNL     1      33.835  44.762  43.989  1.00  0.00     0.057 C 
BRANCH  17  18
HETATM   18  C7  UNL     1      33.509  46.241  43.926  1.00  0.00     0.007 C 
BRANCH  18  19
HETATM   19  C8  UNL     1      34.294  47.067  44.900  1.00  0.00     0.010 C 
BRANCH  19  20
HETATM   20  C9  UNL     1      33.753  48.451  45.031  1.00  0.00     0.074 C 
BRANCH  20  21
HETATM   21  S1  UNL     1      35.129  49.608  44.658  1.00  0.00    -0.163 SA
BRANCH  21  22
HETATM   22  C10 UNL     1      34.890  50.096  42.906  1.00  0.00     0.074 C 
HETATM   23  C11 UNL     1      35.710  49.267  41.975  1.00  0.00     0.044 C 
HETATM   24  C12 UNL     1      34.651  48.542  41.166  1.00  0.00     0.233 C 
HETATM   25  N2  UNL     1      33.467  49.369  41.221  1.00  0.00    -0.074 N 
HETATM   26  C13 UNL     1      33.424  49.783  42.590  1.00  0.00     0.247 C 
ATOM     27  H22 UNL     1      33.451  50.134  40.545  1.00  0.00     0.277 HD
ATOM     28  H21 UNL     1      32.616  48.916  40.886  1.00  0.00     0.277 HD
ENDBRANCH  21  22
ENDBRANCH  20  21
ENDBRANCH  19  20
ENDBRANCH  18  19
ENDBRANCH  17  18
ENDBRANCH   7  17
TORSDOF 6
ENDMDL
MODEL 3
REMARK VINA RESULT: -6.636272707      1.388      2.027
REMARK  6 active torsions:
REMARK  status: ('A' for Active; 'I' for Inactive)
REMARK    1  A    between atoms: C5_7  and  C6_8 
REMARK    2  A    between atoms: C6_8  and  C7_9 
REMARK    3  A    between atoms: C7_9  and  C8_10 
REMARK    4  A    between atoms: C8_10  and  C9_11 
REMARK    5  A    between atoms: C9_11  and  S1_12 
REMARK    6  A    between atoms: S1_12  and  C10_13 
ROOT
HETATM    1  C1  UNL     1      35.286  45.765  39.820  1.00  0.00     0.025 A 
HETATM    2  C2  UNL     1      35.965  44.643  39.401  1.00  0.00     0.013 A 
HETATM    3  C3  UNL     1      35.976  43.551  40.259  1.00  0.00    -0.004 A 
HETATM    4  C4  UNL     1      35.336  43.612  41.456  1.00  0.00     0.108 A 
HETATM    5  N1  UNL     1      34.687  44.739  41.814  1.00  0.00    -0.346 N 
ATOM      6  H1  UNL     1      34.215  44.756  42.719  1.00  0.00     0.167 HD
HETATM    7  C5  UNL     1      34.626  45.837  41.049  1.00  0.00     0.011 A 
HETATM    8  N3  UNL     1      35.490  42.387  42.137  1.00  0.00    -0.375 N 
ATOM      9  H3  UNL     1      35.150  42.185  43.078  1.00  0.00     0.161 HD
HETATM   10  C14 UNL     1      36.201  41.475  41.297  1.00  0.00     0.136 A 
HETATM   11  C15 UNL     1      36.632  42.225  40.056  1.00  0.00     0.010 A 
HETATM   12  C16 UNL     1      36.128  41.541  38.852  1.00  0.00     0.042 C 
HETATM   13  C17 UNL     1      37.102  40.977  37.906  1.00  0.00     0.168 C 
HETATM   14  O1  UNL     1      38.433  41.116  38.232  1.00  0.00    -0.391 OA
HETATM   15  C18 UNL     1      38.734  42.378  38.712  1.00  0.00     0.168 C 
HETATM   16  C19 UNL     1      38.114  42.468  40.091  1.00  0.00     0.042 C 
ENDROOT
BRANCH   7  17
HETATM   17  C6  UNL     1      33.912  47.088  41.442  1.00  0.00     0.057 C 
BRANCH  17  18
HETATM   18  C7  UNL     1      34.942  48.140  41.800  1.00  0.00     0.007 C 
BRANCH  18  19
HETATM   19  C8  UNL     1      34.450  49.138  42.804  1.00  0.00     0.010 C 
BRANCH  19  20
HETATM   20  C9  UNL     1      34.495  48.606  44.197  1.00  0.00     0.074 C 
BRANCH  20  21
HETATM   21  S1  UNL     1      32.760  48.308  44.719  1.00  0.00    -0.163 SA
BRANCH  21  22
HETATM   22  C10 UNL     1      32.696  46.538  45.197  1.00  0.00     0.074 C 
HETATM   23  C11 UNL     1      34.025  45.873  45.068  1.00  0.00     0.044 C 
HETATM   24  C12 UNL     1      34.347  45.505  46.503  1.00  0.00     0.233 C 
HETATM   25  N2  UNL     1      33.077  45.402  47.185  1.00  0.00    -0.074 N 
HETATM   26  C13 UNL     1      32.349  46.529  46.689  1.00  0.00     0.247 C 
ATOM     27  H22 UNL     1      32.603  44.505  47.069  1.00  0.00     0.277 HD
ATOM     28  H21 UNL     1      33.143  45.353  48.203  1.00  0.00     0.277 HD
ENDBRANCH  21  22
ENDBRANCH  20  21
ENDBRANCH  19  20
ENDBRANCH  18  19
ENDBRANCH  17  18
ENDBRANCH   7  17
TORSDOF 6
ENDMDL
MODEL 4
REMARK VINA RESULT: -6.591882644      1.216      1.501
REMARK  6 active torsions:
REMARK  status: ('A' for Active; 'I' for Inactive)
REMARK    1  A    between atoms: C5_7  and  C6_8 
REMARK    2  A    between atoms: C6_8  and  C7_9 
REMARK    3  A    between atoms: C7_9  and  C8_10 
REMARK    4  A    between atoms: C8_10  and  C9_11 
REMARK    5  A    between atoms: C9_11  and  S1_12 
REMARK    6  A    between atoms: S1_12  and  C10_13 
ROOT
HETATM    1  C1  UNL     1      34.596  45.442  42.296  1.00  0.00     0.025 A 
HETATM    2  C2  UNL     1      35.358  44.377  41.867  1.00  0.00     0.013 A 
HETATM    3  C3  UNL     1      35.822  44.416  40.559  1.00  0.00    -0.004 A 
HETATM    4  C4  UNL     1      35.524  45.470  39.756  1.00  0.00     0.108 A 
HETATM    5  N1  UNL     1      34.774  46.486  40.229  1.00  0.00    -0.346 N 
ATOM      6  H1  UNL     1      34.566  47.265  39.604  1.00  0.00     0.167 HD
HETATM    7  C5  UNL     1      34.286  46.529  41.477  1.00  0.00     0.011 A 
HETATM    8  N3  UNL     1      36.107  45.277  38.486  1.00  0.00    -0.375 N 
ATOM      9  H3  UNL     1      35.997  45.895  37.682  1.00  0.00     0.161 HD
HETATM   10  C14 UNL     1      36.878  44.073  38.508  1.00  0.00     0.136 A 
HETATM   11  C15 UNL     1      36.656  43.402  39.846  1.00  0.00     0.010 A 
HETATM   12  C16 UNL     1      37.947  43.180  40.520  1.00  0.00     0.042 C 
HETATM   13  C17 UNL     1      38.377  41.797  40.774  1.00  0.00     0.168 C 
HETATM   14  O1  UNL     1      37.535  40.798  40.337  1.00  0.00    -0.391 OA
HETATM   15  C18 UNL     1      36.206  41.066  40.610  1.00  0.00     0.168 C 
HETATM   16  C19 UNL     1      35.796  42.183  39.674  1.00  0.00     0.042 C 
ENDROOT
BRANCH   7  17
HETATM   17  C6  UNL     1      33.452  47.649  42.006  1.00  0.00     0.057 C 
BRANCH  17  18
HETATM   18  C7  UNL     1      34.244  48.936  41.893  1.00  0.00     0.007 C 
BRANCH  18  19
HETATM   19  C8  UNL     1      35.210  49.144  43.020  1.00  0.00     0.010 C 
BRANCH  19  20
HETATM   20  C9  UNL     1      34.519  49.473  44.301  1.00  0.00     0.074 C 
BRANCH  20  21
HETATM   21  S1  UNL     1      35.304  48.460  45.616  1.00  0.00    -0.163 SA
BRANCH  21  22
HETATM   22  C10 UNL     1      33.913  47.666  46.511  1.00  0.00     0.074 C 
HETATM   23  C11 UNL     1      32.660  47.650  45.700  1.00  0.00     0.044 C 
HETATM   24  C12 UNL     1      32.426  46.166  45.492  1.00  0.00     0.233 C 
HETATM   25  N2  UNL     1      33.089  45.497  46.588  1.00  0.00    -0.074 N 
HETATM   26  C13 UNL     1      34.329  46.203  46.698  1.00  0.00     0.247 C 
ATOM     27  H22 UNL     1      32.546  45.455  47.451  1.00  0.00     0.277 HD
ATOM     28  H21 UNL     1      33.184  44.487  46.475  1.00  0.00     0.277 HD
ENDBRANCH  21  22
ENDBRANCH  20  21
ENDBRANCH  19  20
ENDBRANCH  18  19
ENDBRANCH  17  18
ENDBRANCH   7  17
TORSDOF 6
ENDMDL
MODEL 5
REMARK VINA RESULT: -6.559226159      6.824     10.952
REMARK  6 active torsions:
REMARK  status: ('A' for Active; 'I' for Inactive)
REMARK    1  A    between atoms: C5_7  and  C6_8 
REMARK    2  A    between atoms: C6_8  and  C7_9 
REMARK    3  A    between atoms: C7_9  and  C8_10 
REMARK    4  A    between atoms: C8_10  and  C9_11 
REMARK    5  A    between atoms: C9_11  and  S1_12 
REMARK    6  A    between atoms: S1_12  and  C10_13 
ROOT
HETATM    1  C1  UNL     1      39.911  39.886  39.424  1.00  0.00     0.025 A 
HETATM    2  C2  UNL     1      39.068  40.943  39.165  1.00  0.00     0.013 A 
HETATM    3  C3  UNL     1      37.914  41.037  39.932  1.00  0.00    -0.004 A 
HETATM    4  C4  UNL     1      37.651  40.112  40.892  1.00  0.00     0.108 A 
HETATM    5  N1  UNL     1      38.513  39.097  41.103  1.00  0.00    -0.346 N 
ATOM      6  H1  UNL     1      38.290  38.417  41.830  1.00  0.00     0.167 HD
HETATM    7  C5  UNL     1      39.648  38.931  40.409  1.00  0.00     0.011 A 
HETATM    8  N3  UNL     1      36.431  40.425  41.528  1.00  0.00    -0.375 N 
ATOM      9  H3  UNL     1      35.979  39.865  42.251  1.00  0.00     0.161 HD
HETATM   10  C14 UNL     1      35.932  41.654  40.995  1.00  0.00     0.136 A 
HETATM   11  C15 UNL     1      36.838  42.070  39.857  1.00  0.00     0.010 A 
HETATM   12  C16 UNL     1      37.361  43.426  40.099  1.00  0.00     0.042 C 
HETATM   13  C17 UNL     1      36.988  44.499  39.164  1.00  0.00     0.168 C 
HETATM   14  O1  UNL     1      36.148  44.152  38.129  1.00  0.00    -0.391 OA
HETATM   15  C18 UNL     1      36.495  42.948  37.543  1.00  0.00     0.168 C 
HETATM   16  C19 UNL     1      36.139  41.869  38.543  1.00  0.00     0.042 C 
ENDROOT
BRANCH   7  17
HETATM   17  C6  UNL     1      40.605  37.807  40.635  1.00  0.00     0.057 C 
BRANCH  17  18
HETATM   18  C7  UNL     1      41.748  38.312  41.493  1.00  0.00     0.007 C 
BRANCH  18  19
HETATM   19  C8  UNL     1      42.315  37.267  42.406  1.00  0.00     0.010 C 
BRANCH  19  20
HETATM   20  C9  UNL     1      43.563  36.658  41.861  1.00  0.00     0.074 C 
BRANCH  20  21
HETATM   21  S1  UNL     1      43.189  34.899  41.488  1.00  0.00    -0.163 SA
BRANCH  21  22
HETATM   22  C10 UNL     1      44.817  34.114  41.178  1.00  0.00     0.074 C 
HETATM   23  C11 UNL     1      45.320  34.386  39.800  1.00  0.00     0.044 C 
HETATM   24  C12 UNL     1      46.572  35.200  40.064  1.00  0.00     0.233 C 
HETATM   25  N2  UNL     1      47.013  34.840  41.393  1.00  0.00    -0.074 N 
HETATM   26  C13 UNL     1      45.793  34.801  42.140  1.00  0.00     0.247 C 
ATOM     27  H22 UNL     1      47.567  33.985  41.439  1.00  0.00     0.277 HD
ATOM     28  H21 UNL     1      47.731  35.451  41.782  1.00  0.00     0.277 HD
ENDBRANCH  21  22
ENDBRANCH  20  21
ENDBRANCH  19  20
ENDBRANCH  18  19
ENDBRANCH  17  18
ENDBRANCH   7  17
TORSDOF 6
ENDMDL
