MODEL 1
REMARK VINA RESULT: -5.897441686      0.000      0.000
REMARK  10 active torsions:
REMARK  status: ('A' for Active; 'I' for Inactive)
REMARK    1  A    between atoms: C5_5  and  C6_6 
REMARK    2  A    between atoms: C6_6  and  C8_8 
REMARK    3  A    between atoms: C8_8  and  C9_9 
REMARK    4  A    between atoms: C9_9  and  C10_10 
REMARK    5  A    between atoms: C11_11  and  C12_12 
REMARK    6  A    between atoms: C13_13  and  C14_14 
REMARK    7  A    between atoms: C19_20  and  C20_21 
REMARK    8  A    between atoms: C20_21  and  O2_22 
REMARK    9  A    between atoms: C29_33  and  C30_34 
REMARK   10  A    between atoms: C30_34  and  O4_35 
ROOT
HETATM    1  C1  UNL     1       4.027   5.768  27.101  1.00  0.00     0.102 C 
HETATM    2  C2  UNL     1       5.151   6.230  26.947  1.00  0.00    -0.154 C 
HETATM    3  C3  UNL     1       6.456   6.787  26.750  1.00  0.00    -0.025 C 
HETATM    4  C4  UNL     1       6.586   7.930  25.800  1.00  0.00     0.057 C 
HETATM    5  C5  UNL     1       7.491   6.288  27.398  1.00  0.00    -0.008 C 
ENDROOT
BRANCH   5   6
HETATM    6  C6  UNL     1       7.278   5.160  28.318  1.00  0.00     0.005 C 
HETATM    7  C7  UNL     1       7.155   5.727  29.719  1.00  0.00     0.014 C 
BRANCH   6   8
HETATM    8  C8  UNL     1       8.475   4.178  28.248  1.00  0.00     0.009 C 
BRANCH   8   9
HETATM    9  C9  UNL     1       8.022   3.032  27.450  1.00  0.00     0.009 C 
BRANCH   9  10
HETATM   10  C10 UNL     1       6.623   2.707  27.267  1.00  0.00     0.031 C 
HETATM   11  C11 UNL     1       5.961   2.821  25.938  1.00  0.00     0.015 C 
HETATM   12  C22 UNL     1       4.545   2.262  26.263  1.00  0.00     0.017 C 
HETATM   13  C23 UNL     1       4.744   1.249  27.339  1.00  0.00     0.031 C 
HETATM   14  C24 UNL     1       4.484  -0.128  26.779  1.00  0.00     0.037 C 
HETATM   15  C31 UNL     1       6.180   1.363  27.801  1.00  0.00     0.101 C 
HETATM   16  C25 UNL     1       3.046  -0.536  26.926  1.00  0.00     0.013 C 
HETATM   17  C29 UNL     1       5.252  -1.208  27.459  1.00  0.00     0.144 C 
HETATM   18  C26 UNL     1       2.965  -1.361  28.174  1.00  0.00     0.037 C 
HETATM   19  C27 UNL     1       4.363  -1.714  28.542  1.00  0.00    -0.050 C 
HETATM   20  C28 UNL     1       4.696  -2.360  29.643  1.00  0.00     0.017 C 
HETATM   21  O5  UNL     1       6.479  -0.779  27.961  1.00  0.00    -0.222 OA
HETATM   22  O6  UNL     1       6.872   0.293  27.309  1.00  0.00    -0.228 OA
HETATM   23  C32 UNL     1       6.148   1.406  29.319  1.00  0.00     0.050 C 
BRANCH  11  24
HETATM   24  C12 UNL     1       6.530   2.102  24.818  1.00  0.00    -0.024 C 
HETATM   25  C13 UNL     1       7.139   2.626  23.808  1.00  0.00    -0.013 C 
BRANCH  25  26
HETATM   26  C14 UNL     1       7.444   4.023  23.465  1.00  0.00     0.035 C 
HETATM   27  C15 UNL     1       8.546   4.661  24.251  1.00  0.00     0.028 C 
HETATM   28  C16 UNL     1       6.191   4.857  23.596  1.00  0.00     0.028 C 
HETATM   29  C17 UNL     1       5.122   4.265  22.691  1.00  0.00     0.080 C 
HETATM   30  C18 UNL     1       5.536   4.580  21.298  1.00  0.00     0.140 C 
HETATM   31  O1  UNL     1       4.724   5.006  20.503  1.00  0.00    -0.297 OA
HETATM   32  C19 UNL     1       6.936   4.368  20.907  1.00  0.00     0.149 C 
HETATM   33  C21 UNL     1       7.859   4.134  22.018  1.00  0.00     0.152 C 
HETATM   34  O3  UNL     1       9.044   4.018  21.773  1.00  0.00    -0.296 OA
BRANCH  32  35
HETATM   35  C20 UNL     1       7.425   5.468  19.958  1.00  0.00     0.184 C 
BRANCH  35  36
HETATM   36  O2  UNL     1       8.300   4.998  19.013  1.00  0.00    -0.400 OA
ATOM     37  H2  UNL     1       9.188   4.922  19.343  1.00  0.00     0.209 HD
ENDBRANCH  35  36
ENDBRANCH  32  35
ENDBRANCH  25  26
ENDBRANCH  11  24
BRANCH  17  38
HETATM   38  C30 UNL     1       5.510  -2.345  26.510  1.00  0.00     0.210 C 
BRANCH  38  39
HETATM   39  O4  UNL     1       6.856  -2.704  26.602  1.00  0.00    -0.397 OA
ATOM     40  H4  UNL     1       6.909  -3.610  26.886  1.00  0.00     0.209 HD
ENDBRANCH  38  39
ENDBRANCH  17  38
ENDBRANCH   9  10
ENDBRANCH   8   9
ENDBRANCH   6   8
ENDBRANCH   5   6
TORSDOF 10
ENDMDL
MODEL 2
REMARK VINA RESULT: -5.802459028      3.473      8.872
REMARK  10 active torsions:
REMARK  status: ('A' for Active; 'I' for Inactive)
REMARK    1  A    between atoms: C5_5  and  C6_6 
REMARK    2  A    between atoms: C6_6  and  C8_8 
REMARK    3  A    between atoms: C8_8  and  C9_9 
REMARK    4  A    between atoms: C9_9  and  C10_10 
REMARK    5  A    between atoms: C11_11  and  C12_12 
REMARK    6  A    between atoms: C13_13  and  C14_14 
REMARK    7  A    between atoms: C19_20  and  C20_21 
REMARK    8  A    between atoms: C20_21  and  O2_22 
REMARK    9  A    between atoms: C29_33  and  C30_34 
REMARK   10  A    between atoms: C30_34  and  O4_35 
ROOT
HETATM    1  C1  UNL     1       0.270   8.136  20.761  1.00  0.00     0.102 C 
HETATM    2  C2  UNL     1      -0.539   7.218  20.700  1.00  0.00    -0.154 C 
HETATM    3  C3  UNL     1      -1.503   6.160  20.629  1.00  0.00    -0.025 C 
HETATM    4  C4  UNL     1      -2.944   6.538  20.574  1.00  0.00     0.057 C 
HETATM    5  C5  UNL     1      -1.103   4.903  20.615  1.00  0.00    -0.008 C 
ENDROOT
BRANCH   5   6
HETATM    6  C6  UNL     1       0.338   4.613  20.672  1.00  0.00     0.005 C 
HETATM    7  C7  UNL     1       0.536   3.178  20.225  1.00  0.00     0.014 C 
BRANCH   6   8
HETATM    8  C8  UNL     1       0.865   4.794  22.118  1.00  0.00     0.009 C 
BRANCH   8   9
HETATM    9  C9  UNL     1       2.298   4.484  22.077  1.00  0.00     0.009 C 
BRANCH   9  10
HETATM   10  C10 UNL     1       3.322   5.461  22.380  1.00  0.00     0.031 C 
HETATM   11  C11 UNL     1       4.292   5.259  23.493  1.00  0.00     0.015 C 
HETATM   12  C22 UNL     1       5.211   6.502  23.315  1.00  0.00     0.017 C 
HETATM   13  C23 UNL     1       5.220   6.797  21.852  1.00  0.00     0.031 C 
HETATM   14  C24 UNL     1       6.584   6.477  21.290  1.00  0.00     0.037 C 
HETATM   15  C31 UNL     1       4.170   5.915  21.212  1.00  0.00     0.101 C 
HETATM   16  C25 UNL     1       7.507   7.661  21.339  1.00  0.00     0.013 C 
HETATM   17  C29 UNL     1       6.563   6.077  19.855  1.00  0.00     0.144 C 
HETATM   18  C26 UNL     1       7.438   8.308  19.990  1.00  0.00     0.037 C 
HETATM   19  C27 UNL     1       6.774   7.333  19.083  1.00  0.00    -0.050 C 
HETATM   20  C28 UNL     1       6.453   7.589  17.829  1.00  0.00     0.017 C 
HETATM   21  O5  UNL     1       5.384   5.435  19.480  1.00  0.00    -0.222 OA
HETATM   22  O6  UNL     1       4.809   4.912  20.541  1.00  0.00    -0.228 OA
HETATM   23  C32 UNL     1       3.345   6.810  20.305  1.00  0.00     0.050 C 
BRANCH  11  24
HETATM   24  C12 UNL     1       5.091   4.053  23.503  1.00  0.00    -0.024 C 
HETATM   25  C13 UNL     1       5.577   3.471  24.548  1.00  0.00    -0.013 C 
BRANCH  25  26
HETATM   26  C14 UNL     1       5.498   3.801  25.979  1.00  0.00     0.035 C 
HETATM   27  C15 UNL     1       4.119   3.979  26.531  1.00  0.00     0.028 C 
HETATM   28  C16 UNL     1       6.309   5.047  26.251  1.00  0.00     0.028 C 
HETATM   29  C17 UNL     1       7.739   4.799  25.798  1.00  0.00     0.080 C 
HETATM   30  C18 UNL     1       8.327   3.850  26.780  1.00  0.00     0.140 C 
HETATM   31  O1  UNL     1       9.437   4.047  27.229  1.00  0.00    -0.297 OA
HETATM   32  C19 UNL     1       7.544   2.678  27.193  1.00  0.00     0.149 C 
HETATM   33  C21 UNL     1       6.131   2.712  26.809  1.00  0.00     0.152 C 
HETATM   34  O3  UNL     1       5.409   1.807  27.177  1.00  0.00    -0.296 OA
BRANCH  32  35
HETATM   35  C20 UNL     1       7.742   2.368  28.681  1.00  0.00     0.184 C 
BRANCH  35  36
HETATM   36  O2  UNL     1       8.836   1.575  28.913  1.00  0.00    -0.400 OA
ATOM     37  H2  UNL     1       8.713   0.990  29.652  1.00  0.00     0.209 HD
ENDBRANCH  35  36
ENDBRANCH  32  35
ENDBRANCH  25  26
ENDBRANCH  11  24
BRANCH  17  38
HETATM   38  C30 UNL     1       7.710   5.154  19.553  1.00  0.00     0.210 C 
BRANCH  38  39
HETATM   39  O4  UNL     1       7.609   4.032  20.378  1.00  0.00    -0.397 OA
ATOM     40  H4  UNL     1       7.721   3.253  19.846  1.00  0.00     0.209 HD
ENDBRANCH  38  39
ENDBRANCH  17  38
ENDBRANCH   9  10
ENDBRANCH   8   9
ENDBRANCH   6   8
ENDBRANCH   5   6
TORSDOF 10
ENDMDL
MODEL 3
REMARK VINA RESULT: -5.753166615      2.553      7.761
REMARK  10 active torsions:
REMARK  status: ('A' for Active; 'I' for Inactive)
REMARK    1  A    between atoms: C5_5  and  C6_6 
REMARK    2  A    between atoms: C6_6  and  C8_8 
REMARK    3  A    between atoms: C8_8  and  C9_9 
REMARK    4  A    between atoms: C9_9  and  C10_10 
REMARK    5  A    between atoms: C11_11  and  C12_12 
REMARK    6  A    between atoms: C13_13  and  C14_14 
REMARK    7  A    between atoms: C19_20  and  C20_21 
REMARK    8  A    between atoms: C20_21  and  O2_22 
REMARK    9  A    between atoms: C29_33  and  C30_34 
REMARK   10  A    between atoms: C30_34  and  O4_35 
ROOT
HETATM    1  C1  UNL     1       8.979  -0.840  27.740  1.00  0.00     0.102 C 
HETATM    2  C2  UNL     1       8.454  -0.732  28.842  1.00  0.00    -0.154 C 
HETATM    3  C3  UNL     1       7.837  -0.630  30.131  1.00  0.00    -0.025 C 
HETATM    4  C4  UNL     1       7.466  -1.898  30.824  1.00  0.00     0.057 C 
HETATM    5  C5  UNL     1       7.616   0.555  30.665  1.00  0.00    -0.008 C 
ENDROOT
BRANCH   5   6
HETATM    6  C6  UNL     1       8.012   1.758  29.916  1.00  0.00     0.005 C 
HETATM    7  C7  UNL     1       9.349   2.219  30.462  1.00  0.00     0.014 C 
BRANCH   6   8
HETATM    8  C8  UNL     1       6.953   2.875  30.098  1.00  0.00     0.009 C 
BRANCH   8   9
HETATM    9  C9  UNL     1       6.255   2.994  28.812  1.00  0.00     0.009 C 
BRANCH   9  10
HETATM   10  C10 UNL     1       6.752   2.397  27.591  1.00  0.00     0.031 C 
HETATM   11  C11 UNL     1       6.092   1.215  26.971  1.00  0.00     0.015 C 
HETATM   12  C22 UNL     1       6.926   1.058  25.667  1.00  0.00     0.017 C 
HETATM   13  C23 UNL     1       7.354   2.436  25.289  1.00  0.00     0.031 C 
HETATM   14  C24 UNL     1       6.622   2.856  24.037  1.00  0.00     0.037 C 
HETATM   15  C31 UNL     1       6.991   3.349  26.439  1.00  0.00     0.101 C 
HETATM   16  C25 UNL     1       7.375   2.487  22.791  1.00  0.00     0.013 C 
HETATM   17  C29 UNL     1       6.415   4.327  23.928  1.00  0.00     0.144 C 
HETATM   18  C26 UNL     1       8.145   3.706  22.384  1.00  0.00     0.037 C 
HETATM   19  C27 UNL     1       7.584   4.843  23.162  1.00  0.00    -0.050 C 
HETATM   20  C28 UNL     1       8.074   6.068  23.139  1.00  0.00     0.017 C 
HETATM   21  O5  UNL     1       6.292   4.959  25.164  1.00  0.00    -0.222 OA
HETATM   22  O6  UNL     1       5.903   4.087  26.068  1.00  0.00    -0.228 OA
HETATM   23  C32 UNL     1       8.218   4.196  26.726  1.00  0.00     0.050 C 
BRANCH  11  24
HETATM   24  C12 UNL     1       4.684   1.300  26.649  1.00  0.00    -0.024 C 
HETATM   25  C13 UNL     1       3.734   0.619  27.198  1.00  0.00    -0.013 C 
BRANCH  25  26
HETATM   26  C14 UNL     1       3.747  -0.401  28.258  1.00  0.00     0.035 C 
HETATM   27  C15 UNL     1       4.193   0.068  29.607  1.00  0.00     0.028 C 
HETATM   28  C16 UNL     1       4.610  -1.564  27.824  1.00  0.00     0.028 C 
HETATM   29  C17 UNL     1       4.063  -2.106  26.513  1.00  0.00     0.080 C 
HETATM   30  C18 UNL     1       2.790  -2.798  26.849  1.00  0.00     0.140 C 
HETATM   31  O1  UNL     1       2.550  -3.893  26.384  1.00  0.00    -0.297 OA
HETATM   32  C19 UNL     1       1.837  -2.136  27.749  1.00  0.00     0.149 C 
HETATM   33  C21 UNL     1       2.365  -0.971  28.461  1.00  0.00     0.152 C 
HETATM   34  O3  UNL     1       1.652  -0.415  29.272  1.00  0.00    -0.296 OA
BRANCH  32  35
HETATM   35  C20 UNL     1       1.160  -3.142  28.687  1.00  0.00     0.184 C 
BRANCH  35  36
HETATM   36  O2  UNL     1       2.051  -4.015  29.255  1.00  0.00    -0.400 OA
ATOM     37  H2  UNL     1       1.809  -4.924  29.118  1.00  0.00     0.209 HD
ENDBRANCH  35  36
ENDBRANCH  32  35
ENDBRANCH  25  26
ENDBRANCH  11  24
BRANCH  17  38
HETATM   38  C30 UNL     1       5.177   4.624  23.130  1.00  0.00     0.210 C 
BRANCH  38  39
HETATM   39  O4  UNL     1       4.086   4.022  23.760  1.00  0.00    -0.397 OA
ATOM     40  H4  UNL     1       3.375   4.651  23.803  1.00  0.00     0.209 HD
ENDBRANCH  38  39
ENDBRANCH  17  38
ENDBRANCH   9  10
ENDBRANCH   8   9
ENDBRANCH   6   8
ENDBRANCH   5   6
TORSDOF 10
ENDMDL
MODEL 4
REMARK VINA RESULT: -5.681161303      4.429      7.947
REMARK  10 active torsions:
REMARK  status: ('A' for Active; 'I' for Inactive)
REMARK    1  A    between atoms: C5_5  and  C6_6 
REMARK    2  A    between atoms: C6_6  and  C8_8 
REMARK    3  A    between atoms: C8_8  and  C9_9 
REMARK    4  A    between atoms: C9_9  and  C10_10 
REMARK    5  A    between atoms: C11_11  and  C12_12 
REMARK    6  A    between atoms: C13_13  and  C14_14 
REMARK    7  A    between atoms: C19_20  and  C20_21 
REMARK    8  A    between atoms: C20_21  and  O2_22 
REMARK    9  A    between atoms: C29_33  and  C30_34 
REMARK   10  A    between atoms: C30_34  and  O4_35 
ROOT
HETATM    1  C1  UNL     1       4.276   3.761  25.715  1.00  0.00     0.102 C 
HETATM    2  C2  UNL     1       3.586   4.724  26.027  1.00  0.00    -0.154 C 
HETATM    3  C3  UNL     1       2.761   5.835  26.399  1.00  0.00    -0.025 C 
HETATM    4  C4  UNL     1       1.441   5.539  27.027  1.00  0.00     0.057 C 
HETATM    5  C5  UNL     1       3.178   7.068  26.184  1.00  0.00    -0.008 C 
ENDROOT
BRANCH   5   6
HETATM    6  C6  UNL     1       4.494   7.276  25.560  1.00  0.00     0.005 C 
HETATM    7  C7  UNL     1       5.466   7.662  26.657  1.00  0.00     0.014 C 
BRANCH   6   8
HETATM    8  C8  UNL     1       4.413   8.405  24.502  1.00  0.00     0.009 C 
BRANCH   8   9
HETATM    9  C9  UNL     1       4.554   7.755  23.194  1.00  0.00     0.009 C 
BRANCH   9  10
HETATM   10  C10 UNL     1       5.134   6.440  23.029  1.00  0.00     0.031 C 
HETATM   11  C11 UNL     1       4.374   5.320  22.407  1.00  0.00     0.015 C 
HETATM   12  C22 UNL     1       5.460   4.207  22.370  1.00  0.00     0.017 C 
HETATM   13  C23 UNL     1       6.763   4.915  22.200  1.00  0.00     0.031 C 
HETATM   14  C24 UNL     1       7.305   4.632  20.820  1.00  0.00     0.037 C 
HETATM   15  C31 UNL     1       6.493   6.394  22.364  1.00  0.00     0.101 C 
HETATM   16  C25 UNL     1       8.183   3.414  20.797  1.00  0.00     0.013 C 
HETATM   17  C29 UNL     1       8.162   5.723  20.278  1.00  0.00     0.144 C 
HETATM   18  C26 UNL     1       9.593   3.905  20.918  1.00  0.00     0.037 C 
HETATM   19  C27 UNL     1       9.557   5.371  20.666  1.00  0.00    -0.050 C 
HETATM   20  C28 UNL     1      10.603   6.167  20.779  1.00  0.00     0.017 C 
HETATM   21  O5  UNL     1       7.804   6.987  20.741  1.00  0.00    -0.222 OA
HETATM   22  O6  UNL     1       6.548   6.976  21.129  1.00  0.00    -0.228 OA
HETATM   23  C32 UNL     1       7.544   6.926  23.322  1.00  0.00     0.050 C 
BRANCH  11  24
HETATM   24  C12 UNL     1       3.818   5.512  21.085  1.00  0.00    -0.024 C 
HETATM   25  C13 UNL     1       2.569   5.666  20.799  1.00  0.00    -0.013 C 
BRANCH  25  26
HETATM   26  C14 UNL     1       1.367   5.698  21.646  1.00  0.00     0.035 C 
HETATM   27  C15 UNL     1       1.476   6.504  22.902  1.00  0.00     0.028 C 
HETATM   28  C16 UNL     1       0.962   4.285  21.994  1.00  0.00     0.028 C 
HETATM   29  C17 UNL     1       0.732   3.517  20.701  1.00  0.00     0.080 C 
HETATM   30  C18 UNL     1      -0.531   4.048  20.123  1.00  0.00     0.140 C 
HETATM   31  O1  UNL     1      -1.371   3.285  19.692  1.00  0.00    -0.297 OA
HETATM   32  C19 UNL     1      -0.740   5.500  20.084  1.00  0.00     0.149 C 
HETATM   33  C21 UNL     1       0.201   6.283  20.887  1.00  0.00     0.152 C 
HETATM   34  O3  UNL     1       0.044   7.486  20.955  1.00  0.00    -0.296 OA
BRANCH  32  35
HETATM   35  C20 UNL     1      -2.202   5.863  20.371  1.00  0.00     0.184 C 
BRANCH  35  36
HETATM   36  O2  UNL     1      -3.040   5.534  19.337  1.00  0.00    -0.400 OA
ATOM     37  H2  UNL     1      -3.918   5.877  19.456  1.00  0.00     0.209 HD
ENDBRANCH  35  36
ENDBRANCH  32  35
ENDBRANCH  25  26
ENDBRANCH  11  24
BRANCH  17  38
HETATM   38  C30 UNL     1       8.095   5.744  18.776  1.00  0.00     0.210 C 
BRANCH  38  39
HETATM   39  O4  UNL     1       7.720   7.024  18.364  1.00  0.00    -0.397 OA
ATOM     40  H4  UNL     1       7.536   7.548  19.135  1.00  0.00     0.209 HD
ENDBRANCH  38  39
ENDBRANCH  17  38
ENDBRANCH   9  10
ENDBRANCH   8   9
ENDBRANCH   6   8
ENDBRANCH   5   6
TORSDOF 10
ENDMDL
MODEL 5
REMARK VINA RESULT: -5.589923676      2.961      5.454
REMARK  10 active torsions:
REMARK  status: ('A' for Active; 'I' for Inactive)
REMARK    1  A    between atoms: C5_5  and  C6_6 
REMARK    2  A    between atoms: C6_6  and  C8_8 
REMARK    3  A    between atoms: C8_8  and  C9_9 
REMARK    4  A    between atoms: C9_9  and  C10_10 
REMARK    5  A    between atoms: C11_11  and  C12_12 
REMARK    6  A    between atoms: C13_13  and  C14_14 
REMARK    7  A    between atoms: C19_20  and  C20_21 
REMARK    8  A    between atoms: C20_21  and  O2_22 
REMARK    9  A    between atoms: C29_33  and  C30_34 
REMARK   10  A    between atoms: C30_34  and  O4_35 
ROOT
HETATM    1  C1  UNL     1      -0.776   6.722  20.798  1.00  0.00     0.102 C 
HETATM    2  C2  UNL     1      -0.030   5.783  21.049  1.00  0.00    -0.154 C 
HETATM    3  C3  UNL     1       0.830   4.671  21.325  1.00  0.00    -0.025 C 
HETATM    4  C4  UNL     1       0.640   3.430  20.520  1.00  0.00     0.057 C 
HETATM    5  C5  UNL     1       1.751   4.767  22.265  1.00  0.00    -0.008 C 
ENDROOT
BRANCH   5   6
HETATM    6  C6  UNL     1       1.875   6.026  23.015  1.00  0.00     0.005 C 
HETATM    7  C7  UNL     1       3.013   6.816  22.401  1.00  0.00     0.014 C 
BRANCH   6   8
HETATM    8  C8  UNL     1       2.178   5.733  24.507  1.00  0.00     0.009 C 
BRANCH   8   9
HETATM    9  C9  UNL     1       3.640   5.705  24.632  1.00  0.00     0.009 C 
BRANCH   9  10
HETATM   10  C10 UNL     1       4.415   4.489  24.512  1.00  0.00     0.031 C 
HETATM   11  C11 UNL     1       5.438   4.314  23.444  1.00  0.00     0.015 C 
HETATM   12  C22 UNL     1       6.034   2.929  23.826  1.00  0.00     0.017 C 
HETATM   13  C23 UNL     1       5.930   2.836  25.312  1.00  0.00     0.031 C 
HETATM   14  C24 UNL     1       7.313   2.907  25.911  1.00  0.00     0.037 C 
HETATM   15  C31 UNL     1       5.097   4.011  25.775  1.00  0.00     0.101 C 
HETATM   16  C25 UNL     1       7.934   1.548  26.062  1.00  0.00     0.013 C 
HETATM   17  C29 UNL     1       7.343   3.488  27.283  1.00  0.00     0.144 C 
HETATM   18  C26 UNL     1       7.675   1.118  27.474  1.00  0.00     0.037 C 
HETATM   19  C27 UNL     1       7.230   2.331  28.214  1.00  0.00    -0.050 C 
HETATM   20  C28 UNL     1       6.821   2.323  29.468  1.00  0.00     0.017 C 
HETATM   21  O5  UNL     1       6.337   4.426  27.506  1.00  0.00    -0.222 OA
HETATM   22  O6  UNL     1       5.933   4.921  26.357  1.00  0.00    -0.228 OA
HETATM   23  C32 UNL     1       4.058   3.457  26.734  1.00  0.00     0.050 C 
BRANCH  11  24
HETATM   24  C12 UNL     1       6.498   5.294  23.334  1.00  0.00    -0.024 C 
HETATM   25  C13 UNL     1       7.136   5.607  22.257  1.00  0.00    -0.013 C 
BRANCH  25  26
HETATM   26  C14 UNL     1       7.023   5.120  20.874  1.00  0.00     0.035 C 
HETATM   27  C15 UNL     1       5.648   5.146  20.285  1.00  0.00     0.028 C 
HETATM   28  C16 UNL     1       7.575   3.715  20.791  1.00  0.00     0.028 C 
HETATM   29  C17 UNL     1       9.016   3.735  21.276  1.00  0.00     0.080 C 
HETATM   30  C18 UNL     1       9.801   4.419  20.215  1.00  0.00     0.140 C 
HETATM   31  O1  UNL     1      10.859   3.953  19.844  1.00  0.00    -0.297 OA
HETATM   32  C19 UNL     1       9.276   5.658  19.629  1.00  0.00     0.149 C 
HETATM   33  C21 UNL     1       7.878   5.950  19.949  1.00  0.00     0.152 C 
HETATM   34  O3  UNL     1       7.358   6.925  19.442  1.00  0.00    -0.296 OA
BRANCH  32  35
HETATM   35  C20 UNL     1       9.563   5.733  18.125  1.00  0.00     0.184 C 
BRANCH  35  36
HETATM   36  O2  UNL     1       9.295   4.554  17.478  1.00  0.00    -0.400 OA
ATOM     37  H2  UNL     1       8.719   4.670  16.731  1.00  0.00     0.209 HD
ENDBRANCH  35  36
ENDBRANCH  32  35
ENDBRANCH  25  26
ENDBRANCH  11  24
BRANCH  17  38
HETATM   38  C30 UNL     1       8.665   4.156  27.539  1.00  0.00     0.210 C 
BRANCH  38  39
HETATM   39  O4  UNL     1       9.123   4.712  26.343  1.00  0.00    -0.397 OA
ATOM     40  H4  UNL     1       8.674   5.537  26.201  1.00  0.00     0.209 HD
ENDBRANCH  38  39
ENDBRANCH  17  38
ENDBRANCH   9  10
ENDBRANCH   8   9
ENDBRANCH   6   8
ENDBRANCH   5   6
TORSDOF 10
ENDMDL
