MODEL 1
REMARK VINA RESULT: -9.022670626      0.000      0.000
REMARK  8 active torsions:
REMARK  status: ('A' for Active; 'I' for Inactive)
REMARK    1  A    between atoms: C2_2  and  C3_3 
REMARK    2  A    between atoms: C3_3  and  C4_4 
REMARK    3  A    between atoms: C9_9  and  C11_11 
REMARK       I    between atoms: C11_11  and  N1_13 
REMARK    4  A    between atoms: N1_13  and  C12_15 
REMARK    5  A    between atoms: C12_15  and  C13_16 
REMARK    6  A    between atoms: C13_16  and  N2_17 
REMARK    7  A    between atoms: N3_22  and  C18_23 
REMARK    8  A    between atoms: C18_23  and  N4_25 
ROOT
HETATM    1  C4  UNL     1     172.383  30.870 180.442  1.00  0.00     0.089 C 
HETATM    2  C5  UNL     1     172.044  29.388 180.586  1.00  0.00     0.037 C 
HETATM    3  C6  UNL     1     170.700  29.324 181.302  1.00  0.00    -0.012 C 
HETATM    4  C7  UNL     1     169.599  29.050 180.298  1.00  0.00     0.018 C 
HETATM    5  C8  UNL     1     170.689  28.210 182.311  1.00  0.00     0.018 C 
HETATM    6  C9  UNL     1     170.664  30.684 181.878  1.00  0.00     0.119 C 
HETATM    7  C10 UNL     1     171.957  30.720 182.837  1.00  0.00     0.050 C 
HETATM    8  N3  UNL     1     171.079  31.524 180.755  1.00  0.00    -0.335 N 
ENDROOT
BRANCH   6   9
HETATM    9  C11 UNL     1     169.605  31.069 182.756  1.00  0.00     0.246 C 
HETATM   10  O1  UNL     1     169.697  32.189 183.395  1.00  0.00    -0.271 OA
HETATM   11  N1  UNL     1     168.447  30.328 183.000  1.00  0.00    -0.357 N 
ATOM     12  H1  UNL     1     168.330  29.435 182.523  1.00  0.00     0.162 HD
BRANCH  11  13
HETATM   13  C12 UNL     1     167.391  30.777 183.914  1.00  0.00     0.152 C 
BRANCH  13  14
HETATM   14  C13 UNL     1     166.880  29.671 184.782  1.00  0.00     0.292 C 
BRANCH  14  15
HETATM   15  N2  UNL     1     166.747  28.500 183.919  1.00  0.00     0.090 N 
HETATM   16  C14 UNL     1     165.379  28.339 183.466  1.00  0.00     0.272 C 
HETATM   17  C15 UNL     1     165.169  26.852 183.267  1.00  0.00     0.032 C 
HETATM   18  C16 UNL     1     166.472  26.234 183.676  1.00  0.00     0.032 C 
HETATM   19  C17 UNL     1     167.023  27.275 184.650  1.00  0.00     0.272 C 
ENDBRANCH  14  15
ENDBRANCH  13  14
ENDBRANCH  11  13
ENDBRANCH   6   9
BRANCH   8  20
HETATM   20  C18 UNL     1     170.610  32.717 180.190  1.00  0.00     0.172 C 
HETATM   21  S1  UNL     1     169.883  32.416 178.643  1.00  0.00    -0.041 SA
BRANCH  20  22
HETATM   22  N4  UNL     1     170.692  34.076 180.419  1.00  0.00    -0.367 N 
HETATM   23  C19 UNL     1     170.081  35.228 179.816  1.00  0.00     0.151 C 
HETATM   24  C20 UNL     1     171.624  34.526 181.543  1.00  0.00     0.151 C 
ENDBRANCH  20  22
ENDBRANCH   8  20
BRANCH   1  25
HETATM   25  C3  UNL     1     172.878  31.084 179.038  1.00  0.00     0.025 C 
BRANCH  25  26
HETATM   26  C2  UNL     1     172.914  29.920 178.130  1.00  0.00    -0.002 C 
HETATM   27  C1  UNL     1     174.376  29.817 177.630  1.00  0.00     0.005 C 
ENDBRANCH  25  26
ENDBRANCH   1  25
TORSDOF 8
ENDMDL
MODEL 2
REMARK VINA RESULT: -8.858016362      1.417      2.086
REMARK  8 active torsions:
REMARK  status: ('A' for Active; 'I' for Inactive)
REMARK    1  A    between atoms: C2_2  and  C3_3 
REMARK    2  A    between atoms: C3_3  and  C4_4 
REMARK    3  A    between atoms: C9_9  and  C11_11 
REMARK       I    between atoms: C11_11  and  N1_13 
REMARK    4  A    between atoms: N1_13  and  C12_15 
REMARK    5  A    between atoms: C12_15  and  C13_16 
REMARK    6  A    between atoms: C13_16  and  N2_17 
REMARK    7  A    between atoms: N3_22  and  C18_23 
REMARK    8  A    between atoms: C18_23  and  N4_25 
ROOT
HETATM    1  C4  UNL     1     172.415  30.962 180.469  1.00  0.00     0.089 C 
HETATM    2  C5  UNL     1     172.071  29.489 180.677  1.00  0.00     0.037 C 
HETATM    3  C6  UNL     1     170.741  29.461 181.421  1.00  0.00    -0.012 C 
HETATM    4  C7  UNL     1     169.619  29.155 180.451  1.00  0.00     0.018 C 
HETATM    5  C8  UNL     1     170.743  28.389 182.474  1.00  0.00     0.018 C 
HETATM    6  C9  UNL     1     170.723  30.844 181.943  1.00  0.00     0.119 C 
HETATM    7  C10 UNL     1     172.035  30.910 182.875  1.00  0.00     0.050 C 
HETATM    8  N3  UNL     1     171.121  31.635 180.780  1.00  0.00    -0.335 N 
ENDROOT
BRANCH   6   9
HETATM    9  C11 UNL     1     169.683  31.270 182.825  1.00  0.00     0.246 C 
HETATM   10  O1  UNL     1     169.792  32.415 183.414  1.00  0.00    -0.271 OA
HETATM   11  N1  UNL     1     168.528  30.545 183.125  1.00  0.00    -0.357 N 
ATOM     12  H1  UNL     1     168.399  29.632 182.688  1.00  0.00     0.162 HD
BRANCH  11  13
HETATM   13  C12 UNL     1     167.493  31.037 184.040  1.00  0.00     0.152 C 
BRANCH  13  14
HETATM   14  C13 UNL     1     166.853  29.934 184.822  1.00  0.00     0.292 C 
BRANCH  14  15
HETATM   15  N2  UNL     1     165.928  30.575 185.753  1.00  0.00     0.090 N 
HETATM   16  C14 UNL     1     164.731  29.776 185.933  1.00  0.00     0.272 C 
HETATM   17  C15 UNL     1     163.609  30.749 186.233  1.00  0.00     0.032 C 
HETATM   18  C16 UNL     1     164.259  32.099 186.161  1.00  0.00     0.032 C 
HETATM   19  C17 UNL     1     165.434  31.833 185.220  1.00  0.00     0.272 C 
ENDBRANCH  14  15
ENDBRANCH  13  14
ENDBRANCH  11  13
ENDBRANCH   6   9
BRANCH   8  20
HETATM   20  C18 UNL     1     170.648  32.808 180.177  1.00  0.00     0.172 C 
HETATM   21  S1  UNL     1     169.989  32.466 178.608  1.00  0.00    -0.041 SA
BRANCH  20  22
HETATM   22  N4  UNL     1     170.690  34.173 180.386  1.00  0.00    -0.367 N 
HETATM   23  C19 UNL     1     170.045  35.296 179.767  1.00  0.00     0.151 C 
HETATM   24  C20 UNL     1     171.608  34.666 181.502  1.00  0.00     0.151 C 
ENDBRANCH  20  22
ENDBRANCH   8  20
BRANCH   1  25
HETATM   25  C3  UNL     1     172.884  31.117 179.047  1.00  0.00     0.025 C 
BRANCH  25  26
HETATM   26  C2  UNL     1     172.917  29.913 178.192  1.00  0.00    -0.002 C 
HETATM   27  C1  UNL     1     174.369  29.806 177.667  1.00  0.00     0.005 C 
ENDBRANCH  25  26
ENDBRANCH   1  25
TORSDOF 8
ENDMDL
MODEL 3
REMARK VINA RESULT: -8.769761531      2.246      2.903
REMARK  8 active torsions:
REMARK  status: ('A' for Active; 'I' for Inactive)
REMARK    1  A    between atoms: C2_2  and  C3_3 
REMARK    2  A    between atoms: C3_3  and  C4_4 
REMARK    3  A    between atoms: C9_9  and  C11_11 
REMARK       I    between atoms: C11_11  and  N1_13 
REMARK    4  A    between atoms: N1_13  and  C12_15 
REMARK    5  A    between atoms: C12_15  and  C13_16 
REMARK    6  A    between atoms: C13_16  and  N2_17 
REMARK    7  A    between atoms: N3_22  and  C18_23 
REMARK    8  A    between atoms: C18_23  and  N4_25 
ROOT
HETATM    1  C4  UNL     1     171.861  31.291 178.047  1.00  0.00     0.089 C 
HETATM    2  C5  UNL     1     170.958  30.374 177.226  1.00  0.00     0.037 C 
HETATM    3  C6  UNL     1     170.097  29.612 178.227  1.00  0.00    -0.012 C 
HETATM    4  C7  UNL     1     168.715  30.229 178.286  1.00  0.00     0.018 C 
HETATM    5  C8  UNL     1     169.942  28.177 177.811  1.00  0.00     0.018 C 
HETATM    6  C9  UNL     1     170.901  29.821 179.450  1.00  0.00     0.119 C 
HETATM    7  C10 UNL     1     172.314  29.136 179.091  1.00  0.00     0.050 C 
HETATM    8  N3  UNL     1     171.216  31.248 179.391  1.00  0.00    -0.335 N 
ENDROOT
BRANCH   6   9
HETATM    9  C11 UNL     1     170.536  29.179 180.672  1.00  0.00     0.246 C 
HETATM   10  O1  UNL     1     171.254  28.193 181.101  1.00  0.00    -0.271 OA
HETATM   11  N1  UNL     1     169.443  29.520 181.471  1.00  0.00    -0.357 N 
ATOM     12  H1  UNL     1     168.842  30.289 181.173  1.00  0.00     0.162 HD
BRANCH  11  13
HETATM   13  C12 UNL     1     169.119  28.822 182.720  1.00  0.00     0.152 C 
BRANCH  13  14
HETATM   14  C13 UNL     1     168.246  29.639 183.620  1.00  0.00     0.292 C 
BRANCH  14  15
HETATM   15  N2  UNL     1     167.105  28.794 183.962  1.00  0.00     0.090 N 
HETATM   16  C14 UNL     1     167.436  27.389 183.824  1.00  0.00     0.272 C 
HETATM   17  C15 UNL     1     166.147  26.683 183.455  1.00  0.00     0.032 C 
HETATM   18  C16 UNL     1     165.133  27.783 183.362  1.00  0.00     0.032 C 
HETATM   19  C17 UNL     1     166.008  28.991 183.030  1.00  0.00     0.272 C 
ENDBRANCH  14  15
ENDBRANCH  13  14
ENDBRANCH  11  13
ENDBRANCH   6   9
BRANCH   8  20
HETATM   20  C18 UNL     1     171.180  32.304 180.311  1.00  0.00     0.172 C 
HETATM   21  S1  UNL     1     172.539  32.224 181.387  1.00  0.00    -0.041 SA
BRANCH  20  22
HETATM   22  N4  UNL     1     170.309  33.294 180.720  1.00  0.00    -0.367 N 
HETATM   23  C19 UNL     1     169.610  34.350 180.043  1.00  0.00     0.151 C 
HETATM   24  C20 UNL     1     169.974  33.338 182.210  1.00  0.00     0.151 C 
ENDBRANCH  20  22
ENDBRANCH   8  20
BRANCH   1  25
HETATM   25  C3  UNL     1     171.852  32.641 177.383  1.00  0.00     0.025 C 
BRANCH  25  26
HETATM   26  C2  UNL     1     171.824  32.690 175.908  1.00  0.00    -0.002 C 
HETATM   27  C1  UNL     1     171.746  34.189 175.534  1.00  0.00     0.005 C 
ENDBRANCH  25  26
ENDBRANCH   1  25
TORSDOF 8
ENDMDL
MODEL 4
REMARK VINA RESULT: -8.671843446      2.207      2.769
REMARK  8 active torsions:
REMARK  status: ('A' for Active; 'I' for Inactive)
REMARK    1  A    between atoms: C2_2  and  C3_3 
REMARK    2  A    between atoms: C3_3  and  C4_4 
REMARK    3  A    between atoms: C9_9  and  C11_11 
REMARK       I    between atoms: C11_11  and  N1_13 
REMARK    4  A    between atoms: N1_13  and  C12_15 
REMARK    5  A    between atoms: C12_15  and  C13_16 
REMARK    6  A    between atoms: C13_16  and  N2_17 
REMARK    7  A    between atoms: N3_22  and  C18_23 
REMARK    8  A    between atoms: C18_23  and  N4_25 
ROOT
HETATM    1  C4  UNL     1     171.968  30.960 178.289  1.00  0.00     0.089 C 
HETATM    2  C5  UNL     1     171.029  30.147 177.401  1.00  0.00     0.037 C 
HETATM    3  C6  UNL     1     170.015  29.496 178.334  1.00  0.00    -0.012 C 
HETATM    4  C7  UNL     1     168.712  30.267 178.292  1.00  0.00     0.018 C 
HETATM    5  C8  UNL     1     169.727  28.085 177.904  1.00  0.00     0.018 C 
HETATM    6  C9  UNL     1     170.744  29.619 179.614  1.00  0.00     0.119 C 
HETATM    7  C10 UNL     1     172.092  28.774 179.359  1.00  0.00     0.050 C 
HETATM    8  N3  UNL     1     171.225  30.999 179.581  1.00  0.00    -0.335 N 
ENDROOT
BRANCH   6   9
HETATM    9  C11 UNL     1     170.219  29.030 180.804  1.00  0.00     0.246 C 
HETATM   10  O1  UNL     1     170.950  28.195 181.465  1.00  0.00    -0.271 OA
HETATM   11  N1  UNL     1     168.951  29.275 181.337  1.00  0.00    -0.357 N 
ATOM     12  H1  UNL     1     168.335  29.924 180.849  1.00  0.00     0.162 HD
BRANCH  11  13
HETATM   13  C12 UNL     1     168.468  28.639 182.567  1.00  0.00     0.152 C 
BRANCH  13  14
HETATM   14  C13 UNL     1     166.974  28.620 182.649  1.00  0.00     0.292 C 
BRANCH  14  15
HETATM   15  N2  UNL     1     166.604  27.270 183.067  1.00  0.00     0.090 N 
HETATM   16  C14 UNL     1     165.228  27.223 183.522  1.00  0.00     0.272 C 
HETATM   17  C15 UNL     1     165.161  26.126 184.565  1.00  0.00     0.032 C 
HETATM   18  C16 UNL     1     166.571  25.626 184.670  1.00  0.00     0.032 C 
HETATM   19  C17 UNL     1     167.373  26.849 184.226  1.00  0.00     0.272 C 
ENDBRANCH  14  15
ENDBRANCH  13  14
ENDBRANCH  11  13
ENDBRANCH   6   9
BRANCH   8  20
HETATM   20  C18 UNL     1     171.242  32.058 180.498  1.00  0.00     0.172 C 
HETATM   21  S1  UNL     1     172.621  31.938 181.545  1.00  0.00    -0.041 SA
BRANCH  20  22
HETATM   22  N4  UNL     1     170.412  33.077 180.923  1.00  0.00    -0.367 N 
HETATM   23  C19 UNL     1     169.796  34.199 180.271  1.00  0.00     0.151 C 
HETATM   24  C20 UNL     1     170.028  33.075 182.401  1.00  0.00     0.151 C 
ENDBRANCH  20  22
ENDBRANCH   8  20
BRANCH   1  25
HETATM   25  C3  UNL     1     172.163  32.298 177.629  1.00  0.00     0.025 C 
BRANCH  25  26
HETATM   26  C2  UNL     1     171.795  32.431 176.206  1.00  0.00    -0.002 C 
HETATM   27  C1  UNL     1     171.459  33.926 175.992  1.00  0.00     0.005 C 
ENDBRANCH  25  26
ENDBRANCH   1  25
TORSDOF 8
ENDMDL
MODEL 5
REMARK VINA RESULT: -8.493290672      2.150      2.953
REMARK  8 active torsions:
REMARK  status: ('A' for Active; 'I' for Inactive)
REMARK    1  A    between atoms: C2_2  and  C3_3 
REMARK    2  A    between atoms: C3_3  and  C4_4 
REMARK    3  A    between atoms: C9_9  and  C11_11 
REMARK       I    between atoms: C11_11  and  N1_13 
REMARK    4  A    between atoms: N1_13  and  C12_15 
REMARK    5  A    between atoms: C12_15  and  C13_16 
REMARK    6  A    between atoms: C13_16  and  N2_17 
REMARK    7  A    between atoms: N3_22  and  C18_23 
REMARK    8  A    between atoms: C18_23  and  N4_25 
ROOT
HETATM    1  C4  UNL     1     171.937  31.314 178.013  1.00  0.00     0.089 C 
HETATM    2  C5  UNL     1     171.035  30.382 177.207  1.00  0.00     0.037 C 
HETATM    3  C6  UNL     1     170.165  29.646 178.220  1.00  0.00    -0.012 C 
HETATM    4  C7  UNL     1     168.785  30.270 178.257  1.00  0.00     0.018 C 
HETATM    5  C8  UNL     1     170.007  28.202 177.836  1.00  0.00     0.018 C 
HETATM    6  C9  UNL     1     170.962  29.880 179.443  1.00  0.00     0.119 C 
HETATM    7  C10 UNL     1     172.375  29.182 179.109  1.00  0.00     0.050 C 
HETATM    8  N3  UNL     1     171.284  31.304 179.354  1.00  0.00    -0.335 N 
ENDROOT
BRANCH   6   9
HETATM    9  C11 UNL     1     170.587  29.267 180.677  1.00  0.00     0.246 C 
HETATM   10  O1  UNL     1     171.273  28.260 181.110  1.00  0.00    -0.271 OA
HETATM   11  N1  UNL     1     169.517  29.659 181.484  1.00  0.00    -0.357 N 
ATOM     12  H1  UNL     1     168.943  30.446 181.183  1.00  0.00     0.162 HD
BRANCH  11  13
HETATM   13  C12 UNL     1     169.182  28.989 182.745  1.00  0.00     0.152 C 
BRANCH  13  14
HETATM   14  C13 UNL     1     168.256  29.802 183.594  1.00  0.00     0.292 C 
BRANCH  14  15
HETATM   15  N2  UNL     1     167.141  28.923 183.941  1.00  0.00     0.090 N 
HETATM   16  C14 UNL     1     167.499  27.530 183.759  1.00  0.00     0.272 C 
HETATM   17  C15 UNL     1     166.217  26.805 183.402  1.00  0.00     0.032 C 
HETATM   18  C16 UNL     1     165.177  27.884 183.363  1.00  0.00     0.032 C 
HETATM   19  C17 UNL     1     166.018  29.119 183.041  1.00  0.00     0.272 C 
ENDBRANCH  14  15
ENDBRANCH  13  14
ENDBRANCH  11  13
ENDBRANCH   6   9
BRANCH   8  20
HETATM   20  C18 UNL     1     171.245  32.380 180.249  1.00  0.00     0.172 C 
HETATM   21  S1  UNL     1     169.999  33.503 179.802  1.00  0.00    -0.041 SA
BRANCH  20  22
HETATM   22  N4  UNL     1     171.999  32.897 181.284  1.00  0.00    -0.367 N 
HETATM   23  C19 UNL     1     172.968  32.341 182.187  1.00  0.00     0.151 C 
HETATM   24  C20 UNL     1     171.807  34.379 181.597  1.00  0.00     0.151 C 
ENDBRANCH  20  22
ENDBRANCH   8  20
BRANCH   1  25
HETATM   25  C3  UNL     1     171.937  32.649 177.319  1.00  0.00     0.025 C 
BRANCH  25  26
HETATM   26  C2  UNL     1     171.804  32.667 175.848  1.00  0.00    -0.002 C 
HETATM   27  C1  UNL     1     171.683  34.158 175.452  1.00  0.00     0.005 C 
ENDBRANCH  25  26
ENDBRANCH   1  25
TORSDOF 8
ENDMDL
