MODEL 1
REMARK VINA RESULT: -10.086058781      0.000      0.000
REMARK  4 active torsions:
REMARK  status: ('A' for Active; 'I' for Inactive)
REMARK    1  A    between atoms: C7_7  and  C9_9 
REMARK    2  A    between atoms: C9_9  and  N1_10 
REMARK    3  A    between atoms: N1_10  and  S1_12 
REMARK    4  A    between atoms: S1_12  and  N2_15 
ROOT
HETATM    1  C1  UNL     1     114.921 125.420 178.437  1.00  0.00     0.015 C 
HETATM    2  C2  UNL     1     115.561 126.512 178.282  1.00  0.00    -0.076 C 
HETATM    3  C3  UNL     1     115.225 127.492 177.222  1.00  0.00     0.019 C 
HETATM    4  C4  UNL     1     114.849 128.762 177.896  1.00  0.00     0.014 C 
HETATM    5  C5  UNL     1     115.401 128.934 179.299  1.00  0.00    -0.012 C 
HETATM    6  C6  UNL     1     114.709 128.220 180.384  1.00  0.00     0.015 C 
HETATM    7  C7  UNL     1     115.512 127.229 181.170  1.00  0.00    -0.026 C 
HETATM    8  C8  UNL     1     116.220 127.967 182.326  1.00  0.00     0.017 C 
HETATM    9  C12 UNL     1     116.545 126.453 180.441  1.00  0.00     0.024 C 
HETATM   10  C13 UNL     1     116.714 126.955 179.083  1.00  0.00    -0.016 C 
HETATM   11  C14 UNL     1     116.813 128.464 179.220  1.00  0.00     0.019 C 
HETATM   12  C15 UNL     1     117.882 126.565 178.246  1.00  0.00     0.018 C 
HETATM   13  C16 UNL     1     117.753 127.240 176.909  1.00  0.00    -0.013 C 
HETATM   14  C17 UNL     1     118.553 126.330 175.948  1.00  0.00     0.010 C 
HETATM   15  C18 UNL     1     116.423 127.475 176.333  1.00  0.00    -0.007 C 
HETATM   16  C19 UNL     1     116.493 128.670 175.383  1.00  0.00     0.011 C 
ENDROOT
BRANCH   7  17
HETATM   17  C9  UNL     1     114.507 126.325 181.852  1.00  0.00     0.142 C 
BRANCH  17  18
HETATM   18  N1  UNL     1     114.130 126.732 183.173  1.00  0.00    -0.306 N 
ATOM     19  H1  UNL     1     114.755 126.966 183.944  1.00  0.00     0.173 HD
BRANCH  18  20
HETATM   20  S1  UNL     1     112.384 126.743 183.196  1.00  0.00     0.298 S 
HETATM   21  O1  UNL     1     111.875 125.953 184.368  1.00  0.00    -0.188 OA
HETATM   22  O2  UNL     1     111.936 126.034 181.953  1.00  0.00    -0.188 OA
BRANCH  20  23
HETATM   23  N2  UNL     1     111.893 128.381 183.252  1.00  0.00    -0.202 NA
HETATM   24  C10 UNL     1     112.897 129.278 183.726  1.00  0.00     0.130 C 
HETATM   25  C11 UNL     1     110.632 128.479 183.921  1.00  0.00     0.130 C 
ENDBRANCH  20  23
ENDBRANCH  18  20
ENDBRANCH  17  18
ENDBRANCH   7  17
TORSDOF 4
ENDMDL
MODEL 2
REMARK VINA RESULT: -10.057442410      0.933      1.038
REMARK  4 active torsions:
REMARK  status: ('A' for Active; 'I' for Inactive)
REMARK    1  A    between atoms: C7_7  and  C9_9 
REMARK    2  A    between atoms: C9_9  and  N1_10 
REMARK    3  A    between atoms: N1_10  and  S1_12 
REMARK    4  A    between atoms: S1_12  and  N2_15 
ROOT
HETATM    1  C1  UNL     1     114.976 125.411 178.503  1.00  0.00     0.015 C 
HETATM    2  C2  UNL     1     115.584 126.518 178.323  1.00  0.00    -0.076 C 
HETATM    3  C3  UNL     1     115.199 127.477 177.260  1.00  0.00     0.019 C 
HETATM    4  C4  UNL     1     114.806 128.744 177.930  1.00  0.00     0.014 C 
HETATM    5  C5  UNL     1     115.386 128.945 179.318  1.00  0.00    -0.012 C 
HETATM    6  C6  UNL     1     114.738 128.225 180.426  1.00  0.00     0.015 C 
HETATM    7  C7  UNL     1     115.584 127.263 181.203  1.00  0.00    -0.026 C 
HETATM    8  C8  UNL     1     116.300 128.031 182.335  1.00  0.00     0.017 C 
HETATM    9  C12 UNL     1     116.619 126.506 180.458  1.00  0.00     0.024 C 
HETATM   10  C13 UNL     1     116.744 126.997 179.091  1.00  0.00    -0.016 C 
HETATM   11  C14 UNL     1     116.807 128.510 179.210  1.00  0.00     0.019 C 
HETATM   12  C15 UNL     1     117.901 126.628 178.231  1.00  0.00     0.018 C 
HETATM   13  C16 UNL     1     117.724 127.285 176.890  1.00  0.00    -0.013 C 
HETATM   14  C17 UNL     1     118.524 126.386 175.920  1.00  0.00     0.010 C 
HETATM   15  C18 UNL     1     116.376 127.481 176.344  1.00  0.00    -0.007 C 
HETATM   16  C19 UNL     1     116.392 128.667 175.380  1.00  0.00     0.011 C 
ENDROOT
BRANCH   7  17
HETATM   17  C9  UNL     1     114.619 126.342 181.918  1.00  0.00     0.142 C 
BRANCH  17  18
HETATM   18  N1  UNL     1     113.486 126.993 182.504  1.00  0.00    -0.306 N 
ATOM     19  H1  UNL     1     113.456 127.932 182.902  1.00  0.00     0.173 HD
BRANCH  18  20
HETATM   20  S1  UNL     1     112.166 125.855 182.402  1.00  0.00     0.298 S 
HETATM   21  O1  UNL     1     112.493 124.610 183.178  1.00  0.00    -0.188 OA
HETATM   22  O2  UNL     1     112.051 125.461 180.959  1.00  0.00    -0.188 OA
BRANCH  20  23
HETATM   23  N2  UNL     1     110.772 126.646 182.998  1.00  0.00    -0.202 NA
HETATM   24  C10 UNL     1     111.047 127.787 183.810  1.00  0.00     0.130 C 
HETATM   25  C11 UNL     1     109.892 125.684 183.589  1.00  0.00     0.130 C 
ENDBRANCH  20  23
ENDBRANCH  18  20
ENDBRANCH  17  18
ENDBRANCH   7  17
TORSDOF 4
ENDMDL
MODEL 3
REMARK VINA RESULT: -10.042258128      1.454      1.694
REMARK  4 active torsions:
REMARK  status: ('A' for Active; 'I' for Inactive)
REMARK    1  A    between atoms: C7_7  and  C9_9 
REMARK    2  A    between atoms: C9_9  and  N1_10 
REMARK    3  A    between atoms: N1_10  and  S1_12 
REMARK    4  A    between atoms: S1_12  and  N2_15 
ROOT
HETATM    1  C1  UNL     1     116.098 125.336 179.792  1.00  0.00     0.015 C 
HETATM    2  C2  UNL     1     116.182 126.306 178.968  1.00  0.00    -0.076 C 
HETATM    3  C3  UNL     1     115.429 126.338 177.692  1.00  0.00     0.019 C 
HETATM    4  C4  UNL     1     114.537 127.525 177.734  1.00  0.00     0.014 C 
HETATM    5  C5  UNL     1     114.976 128.627 178.681  1.00  0.00    -0.012 C 
HETATM    6  C6  UNL     1     114.691 128.433 180.113  1.00  0.00     0.015 C 
HETATM    7  C7  UNL     1     115.863 128.413 181.046  1.00  0.00    -0.026 C 
HETATM    8  C8  UNL     1     116.186 129.860 181.472  1.00  0.00     0.017 C 
HETATM    9  C12 UNL     1     117.122 127.806 180.549  1.00  0.00     0.024 C 
HETATM   10  C13 UNL     1     117.029 127.498 179.127  1.00  0.00    -0.016 C 
HETATM   11  C14 UNL     1     116.448 128.744 178.482  1.00  0.00     0.019 C 
HETATM   12  C15 UNL     1     118.236 127.172 178.318  1.00  0.00     0.018 C 
HETATM   13  C16 UNL     1     117.800 126.898 176.905  1.00  0.00    -0.013 C 
HETATM   14  C17 UNL     1     118.906 125.978 176.340  1.00  0.00     0.010 C 
HETATM   15  C18 UNL     1     116.495 126.274 176.651  1.00  0.00    -0.007 C 
HETATM   16  C19 UNL     1     116.011 126.676 175.258  1.00  0.00     0.011 C 
ENDROOT
BRANCH   7  17
HETATM   17  C9  UNL     1     115.377 127.741 182.312  1.00  0.00     0.142 C 
BRANCH  17  18
HETATM   18  N1  UNL     1     113.962 127.815 182.528  1.00  0.00    -0.306 N 
ATOM     19  H1  UNL     1     113.391 128.659 182.566  1.00  0.00     0.173 HD
BRANCH  18  20
HETATM   20  S1  UNL     1     113.414 126.168 182.715  1.00  0.00     0.298 S 
HETATM   21  O1  UNL     1     114.576 125.266 183.023  1.00  0.00    -0.188 OA
HETATM   22  O2  UNL     1     112.865 125.746 181.384  1.00  0.00    -0.188 OA
BRANCH  20  23
HETATM   23  N2  UNL     1     112.241 126.166 183.960  1.00  0.00    -0.202 NA
HETATM   24  C10 UNL     1     111.314 125.083 183.889  1.00  0.00     0.130 C 
HETATM   25  C11 UNL     1     111.646 127.464 184.058  1.00  0.00     0.130 C 
ENDBRANCH  20  23
ENDBRANCH  18  20
ENDBRANCH  17  18
ENDBRANCH   7  17
TORSDOF 4
ENDMDL
MODEL 4
REMARK VINA RESULT: -9.663655851      1.889      2.759
REMARK  4 active torsions:
REMARK  status: ('A' for Active; 'I' for Inactive)
REMARK    1  A    between atoms: C7_7  and  C9_9 
REMARK    2  A    between atoms: C9_9  and  N1_10 
REMARK    3  A    between atoms: N1_10  and  S1_12 
REMARK    4  A    between atoms: S1_12  and  N2_15 
ROOT
HETATM    1  C1  UNL     1     114.404 128.991 178.492  1.00  0.00     0.015 C 
HETATM    2  C2  UNL     1     115.185 127.985 178.446  1.00  0.00    -0.076 C 
HETATM    3  C3  UNL     1     116.384 127.945 177.575  1.00  0.00     0.019 C 
HETATM    4  C4  UNL     1     117.568 127.787 178.459  1.00  0.00     0.014 C 
HETATM    5  C5  UNL     1     117.280 127.178 179.818  1.00  0.00    -0.012 C 
HETATM    6  C6  UNL     1     116.704 128.064 180.843  1.00  0.00     0.015 C 
HETATM    7  C7  UNL     1     115.366 127.685 181.401  1.00  0.00    -0.026 C 
HETATM    8  C8  UNL     1     115.577 126.720 182.586  1.00  0.00     0.017 C 
HETATM    9  C12 UNL     1     114.396 127.047 180.477  1.00  0.00     0.024 C 
HETATM   10  C13 UNL     1     115.020 126.732 179.198  1.00  0.00    -0.016 C 
HETATM   11  C14 UNL     1     116.335 126.057 179.547  1.00  0.00     0.019 C 
HETATM   12  C15 UNL     1     114.369 125.824 178.214  1.00  0.00     0.018 C 
HETATM   13  C16 UNL     1     115.259 125.716 177.007  1.00  0.00    -0.013 C 
HETATM   14  C17 UNL     1     114.294 125.351 175.856  1.00  0.00     0.010 C 
HETATM   15  C18 UNL     1     116.070 126.867 176.592  1.00  0.00    -0.007 C 
HETATM   16  C19 UNL     1     117.295 126.367 175.826  1.00  0.00     0.011 C 
ENDROOT
BRANCH   7  17
HETATM   17  C9  UNL     1     114.803 128.942 182.027  1.00  0.00     0.142 C 
BRANCH  17  18
HETATM   18  N1  UNL     1     114.382 128.801 183.389  1.00  0.00    -0.306 N 
ATOM     19  H1  UNL     1     114.911 128.382 184.154  1.00  0.00     0.173 HD
BRANCH  18  20
HETATM   20  S1  UNL     1     112.781 129.491 183.475  1.00  0.00     0.298 S 
HETATM   21  O1  UNL     1     112.619 130.559 182.430  1.00  0.00    -0.188 OA
HETATM   22  O2  UNL     1     112.675 130.161 184.814  1.00  0.00    -0.188 OA
BRANCH  20  23
HETATM   23  N2  UNL     1     111.668 128.208 183.274  1.00  0.00    -0.202 NA
HETATM   24  C10 UNL     1     110.338 128.516 183.689  1.00  0.00     0.130 C 
HETATM   25  C11 UNL     1     112.213 127.010 183.835  1.00  0.00     0.130 C 
ENDBRANCH  20  23
ENDBRANCH  18  20
ENDBRANCH  17  18
ENDBRANCH   7  17
TORSDOF 4
ENDMDL
MODEL 5
REMARK VINA RESULT: -9.388146310      1.763      2.643
REMARK  4 active torsions:
REMARK  status: ('A' for Active; 'I' for Inactive)
REMARK    1  A    between atoms: C7_7  and  C9_9 
REMARK    2  A    between atoms: C9_9  and  N1_10 
REMARK    3  A    between atoms: N1_10  and  S1_12 
REMARK    4  A    between atoms: S1_12  and  N2_15 
ROOT
HETATM    1  C1  UNL     1     114.083 128.333 178.720  1.00  0.00     0.015 C 
HETATM    2  C2  UNL     1     115.062 127.532 178.560  1.00  0.00    -0.076 C 
HETATM    3  C3  UNL     1     116.386 127.979 178.066  1.00  0.00     0.019 C 
HETATM    4  C4  UNL     1     117.379 127.680 179.130  1.00  0.00     0.014 C 
HETATM    5  C5  UNL     1     116.974 126.586 180.100  1.00  0.00    -0.012 C 
HETATM    6  C6  UNL     1     116.027 126.951 181.166  1.00  0.00     0.015 C 
HETATM    7  C7  UNL     1     114.725 126.210 181.205  1.00  0.00    -0.026 C 
HETATM    8  C8  UNL     1     114.909 124.921 182.033  1.00  0.00     0.017 C 
HETATM    9  C12 UNL     1     114.120 125.821 179.908  1.00  0.00     0.024 C 
HETATM   10  C13 UNL     1     115.036 126.081 178.804  1.00  0.00    -0.016 C 
HETATM   11  C14 UNL     1     116.374 125.519 179.250  1.00  0.00     0.019 C 
HETATM   12  C15 UNL     1     114.809 125.510 177.448  1.00  0.00     0.018 C 
HETATM   13  C16 UNL     1     115.919 125.973 176.546  1.00  0.00    -0.013 C 
HETATM   14  C17 UNL     1     115.303 125.918 175.130  1.00  0.00     0.010 C 
HETATM   15  C18 UNL     1     116.518 127.298 176.745  1.00  0.00    -0.007 C 
HETATM   16  C19 UNL     1     117.949 127.287 176.207  1.00  0.00     0.011 C 
ENDROOT
BRANCH   7  17
HETATM   17  C9  UNL     1     113.785 127.063 182.030  1.00  0.00     0.142 C 
BRANCH  17  18
HETATM   18  N1  UNL     1     113.358 126.471 183.262  1.00  0.00    -0.306 N 
ATOM     19  H1  UNL     1     113.948 126.198 184.048  1.00  0.00     0.173 HD
BRANCH  18  20
HETATM   20  S1  UNL     1     111.623 126.310 183.147  1.00  0.00     0.298 S 
HETATM   21  O1  UNL     1     111.237 125.820 181.780  1.00  0.00    -0.188 OA
HETATM   22  O2  UNL     1     111.055 127.690 183.301  1.00  0.00    -0.188 OA
BRANCH  20  23
HETATM   23  N2  UNL     1     111.134 125.237 184.386  1.00  0.00    -0.202 NA
HETATM   24  C10 UNL     1     111.540 123.884 184.183  1.00  0.00     0.130 C 
HETATM   25  C11 UNL     1     109.738 125.416 184.649  1.00  0.00     0.130 C 
ENDBRANCH  20  23
ENDBRANCH  18  20
ENDBRANCH  17  18
ENDBRANCH   7  17
TORSDOF 4
ENDMDL
