MODEL 1
REMARK VINA RESULT: -10.155772571      0.000      0.000
REMARK  5 active torsions:
REMARK  status: ('A' for Active; 'I' for Inactive)
REMARK    1  A    between atoms: C2_2  and  C3_3 
REMARK    2  A    between atoms: C3_3  and  N1_4 
REMARK       I    between atoms: N1_4  and  C4_6 
REMARK    3  A    between atoms: C4_6  and  C5_8 
REMARK    4  A    between atoms: C5_8  and  C6_9 
REMARK    5  A    between atoms: C6_9  and  C7_10 
REMARK       I    between atoms: C7_10  and  N2_12 
ROOT
HETATM    1  C7  UNL     1     114.029 125.708 180.568  1.00  0.00     0.220 C 
HETATM    2  O2  UNL     1     113.354 126.106 179.587  1.00  0.00    -0.273 OA
HETATM    3  N2  UNL     1     113.430 125.475 181.829  1.00  0.00    -0.351 N 
HETATM    4  C8  UNL     1     114.127 125.022 182.993  1.00  0.00     0.126 C 
HETATM    5  C9  UNL     1     113.085 124.261 183.725  1.00  0.00     0.032 C 
HETATM    6  C10 UNL     1     111.727 124.680 183.294  1.00  0.00    -0.015 C 
HETATM    7  C11 UNL     1     111.003 123.544 182.657  1.00  0.00     0.016 C 
HETATM    8  C12 UNL     1     110.055 122.760 183.442  1.00  0.00    -0.013 C 
HETATM    9  C13 UNL     1     110.387 122.504 184.868  1.00  0.00     0.009 C 
HETATM   10  C14 UNL     1     109.958 123.577 185.782  1.00  0.00    -0.013 C 
HETATM   11  C15 UNL     1     108.553 124.088 185.540  1.00  0.00     0.009 C 
HETATM   12  C16 UNL     1     108.537 124.584 184.106  1.00  0.00    -0.013 C 
HETATM   13  C17 UNL     1     108.658 123.346 183.245  1.00  0.00     0.009 C 
HETATM   14  C18 UNL     1     109.541 125.628 183.814  1.00  0.00     0.014 C 
HETATM   15  C19 UNL     1     110.924 125.413 184.337  1.00  0.00    -0.034 C 
HETATM   16  C20 UNL     1     111.518 126.787 184.607  1.00  0.00     0.016 C 
HETATM   17  C21 UNL     1     110.860 124.773 185.672  1.00  0.00     0.014 C 
HETATM   18  C22 UNL     1     112.027 125.655 182.151  1.00  0.00     0.136 C 
ENDROOT
BRANCH   1  19
HETATM   19  C6  UNL     1     115.479 125.471 180.412  1.00  0.00     0.112 C 
BRANCH  19  20
HETATM   20  C5  UNL     1     116.343 126.674 180.531  1.00  0.00     0.112 C 
BRANCH  20  21
HETATM   21  C4  UNL     1     116.905 127.168 179.263  1.00  0.00     0.218 C 
HETATM   22  N1  UNL     1     116.132 127.122 178.078  1.00  0.00    -0.358 N 
ATOM     23  H1  UNL     1     115.185 126.748 178.145  1.00  0.00     0.162 HD
HETATM   24  O1  UNL     1     118.073 127.626 179.248  1.00  0.00    -0.274 OA
BRANCH  22  25
HETATM   25  C3  UNL     1     116.588 127.564 176.789  1.00  0.00     0.149 C 
BRANCH  25  26
HETATM   26  C2  UNL     1     117.241 126.506 176.010  1.00  0.00    -0.018 C 
HETATM   27  C1  UNL     1     118.524 126.301 175.949  1.00  0.00     0.008 C 
ENDBRANCH  25  26
ENDBRANCH  22  25
ENDBRANCH  20  21
ENDBRANCH  19  20
ENDBRANCH   1  19
TORSDOF 5
ENDMDL
MODEL 2
REMARK VINA RESULT: -10.124799738      0.713      1.090
REMARK  5 active torsions:
REMARK  status: ('A' for Active; 'I' for Inactive)
REMARK    1  A    between atoms: C2_2  and  C3_3 
REMARK    2  A    between atoms: C3_3  and  N1_4 
REMARK       I    between atoms: N1_4  and  C4_6 
REMARK    3  A    between atoms: C4_6  and  C5_8 
REMARK    4  A    between atoms: C5_8  and  C6_9 
REMARK    5  A    between atoms: C6_9  and  C7_10 
REMARK       I    between atoms: C7_10  and  N2_12 
ROOT
HETATM    1  C7  UNL     1     114.017 125.705 180.577  1.00  0.00     0.220 C 
HETATM    2  O2  UNL     1     113.343 126.109 179.599  1.00  0.00    -0.273 OA
HETATM    3  N2  UNL     1     113.420 125.471 181.839  1.00  0.00    -0.351 N 
HETATM    4  C8  UNL     1     114.118 125.012 183.000  1.00  0.00     0.126 C 
HETATM    5  C9  UNL     1     113.074 124.255 183.732  1.00  0.00     0.032 C 
HETATM    6  C10 UNL     1     111.717 124.680 183.306  1.00  0.00    -0.015 C 
HETATM    7  C11 UNL     1     110.987 123.550 182.666  1.00  0.00     0.016 C 
HETATM    8  C12 UNL     1     110.037 122.767 183.452  1.00  0.00    -0.013 C 
HETATM    9  C13 UNL     1     110.371 122.506 184.876  1.00  0.00     0.009 C 
HETATM   10  C14 UNL     1     109.949 123.578 185.794  1.00  0.00    -0.013 C 
HETATM   11  C15 UNL     1     108.545 124.097 185.556  1.00  0.00     0.009 C 
HETATM   12  C16 UNL     1     108.529 124.596 184.124  1.00  0.00    -0.013 C 
HETATM   13  C17 UNL     1     108.641 123.360 183.259  1.00  0.00     0.009 C 
HETATM   14  C18 UNL     1     109.537 125.637 183.833  1.00  0.00     0.014 C 
HETATM   15  C19 UNL     1     110.919 125.414 184.352  1.00  0.00    -0.034 C 
HETATM   16  C20 UNL     1     111.521 126.784 184.625  1.00  0.00     0.016 C 
HETATM   17  C21 UNL     1     110.856 124.771 185.685  1.00  0.00     0.014 C 
HETATM   18  C22 UNL     1     112.018 125.657 182.164  1.00  0.00     0.136 C 
ENDROOT
BRANCH   1  19
HETATM   19  C6  UNL     1     115.466 125.463 180.417  1.00  0.00     0.112 C 
BRANCH  19  20
HETATM   20  C5  UNL     1     116.331 126.670 180.479  1.00  0.00     0.112 C 
BRANCH  20  21
HETATM   21  C4  UNL     1     116.774 127.189 179.174  1.00  0.00     0.218 C 
HETATM   22  N1  UNL     1     115.833 127.399 178.138  1.00  0.00    -0.358 N 
ATOM     23  H1  UNL     1     114.855 127.189 178.336  1.00  0.00     0.162 HD
HETATM   24  O1  UNL     1     117.990 127.439 178.996  1.00  0.00    -0.274 OA
BRANCH  22  25
HETATM   25  C3  UNL     1     116.161 127.888 176.826  1.00  0.00     0.149 C 
BRANCH  25  26
HETATM   26  C2  UNL     1     115.992 129.339 176.689  1.00  0.00    -0.018 C 
HETATM   27  C1  UNL     1     115.975 129.990 175.562  1.00  0.00     0.008 C 
ENDBRANCH  25  26
ENDBRANCH  22  25
ENDBRANCH  20  21
ENDBRANCH  19  20
ENDBRANCH   1  19
TORSDOF 5
ENDMDL
MODEL 3
REMARK VINA RESULT: -10.040633804      1.514      2.597
REMARK  5 active torsions:
REMARK  status: ('A' for Active; 'I' for Inactive)
REMARK    1  A    between atoms: C2_2  and  C3_3 
REMARK    2  A    between atoms: C3_3  and  N1_4 
REMARK       I    between atoms: N1_4  and  C4_6 
REMARK    3  A    between atoms: C4_6  and  C5_8 
REMARK    4  A    between atoms: C5_8  and  C6_9 
REMARK    5  A    between atoms: C6_9  and  C7_10 
REMARK       I    between atoms: C7_10  and  N2_12 
ROOT
HETATM    1  C7  UNL     1     113.878 125.599 180.602  1.00  0.00     0.220 C 
HETATM    2  O2  UNL     1     113.188 125.980 179.625  1.00  0.00    -0.273 OA
HETATM    3  N2  UNL     1     113.299 125.392 181.878  1.00  0.00    -0.351 N 
HETATM    4  C8  UNL     1     114.014 124.960 183.039  1.00  0.00     0.126 C 
HETATM    5  C9  UNL     1     112.983 124.215 183.802  1.00  0.00     0.032 C 
HETATM    6  C10 UNL     1     111.618 124.628 183.385  1.00  0.00    -0.015 C 
HETATM    7  C11 UNL     1     110.883 123.482 182.781  1.00  0.00     0.016 C 
HETATM    8  C12 UNL     1     109.946 122.714 183.596  1.00  0.00    -0.013 C 
HETATM    9  C13 UNL     1     110.301 122.485 185.021  1.00  0.00     0.009 C 
HETATM   10  C14 UNL     1     109.889 123.576 185.921  1.00  0.00    -0.013 C 
HETATM   11  C15 UNL     1     108.480 124.086 185.692  1.00  0.00     0.009 C 
HETATM   12  C16 UNL     1     108.442 124.553 184.250  1.00  0.00    -0.013 C 
HETATM   13  C17 UNL     1     108.547 123.299 183.410  1.00  0.00     0.009 C 
HETATM   14  C18 UNL     1     109.443 125.590 183.922  1.00  0.00     0.014 C 
HETATM   15  C19 UNL     1     110.834 125.383 184.426  1.00  0.00    -0.034 C 
HETATM   16  C20 UNL     1     111.435 126.760 184.661  1.00  0.00     0.016 C 
HETATM   17  C21 UNL     1     110.790 124.768 185.774  1.00  0.00     0.014 C 
HETATM   18  C22 UNL     1     111.901 125.581 182.218  1.00  0.00     0.136 C 
ENDROOT
BRANCH   1  19
HETATM   19  C6  UNL     1     115.325 125.357 180.428  1.00  0.00     0.112 C 
BRANCH  19  20
HETATM   20  C5  UNL     1     116.065 126.401 179.672  1.00  0.00     0.112 C 
BRANCH  20  21
HETATM   21  C4  UNL     1     116.087 127.732 180.304  1.00  0.00     0.218 C 
HETATM   22  N1  UNL     1     114.921 128.534 180.310  1.00  0.00    -0.358 N 
ATOM     23  H1  UNL     1     114.081 128.152 179.875  1.00  0.00     0.162 HD
HETATM   24  O1  UNL     1     117.149 128.141 180.833  1.00  0.00    -0.274 OA
BRANCH  22  25
HETATM   25  C3  UNL     1     114.839 129.848 180.886  1.00  0.00     0.149 C 
BRANCH  25  26
HETATM   26  C2  UNL     1     114.204 129.863 182.209  1.00  0.00    -0.018 C 
HETATM   27  C1  UNL     1     114.068 128.830 182.989  1.00  0.00     0.008 C 
ENDBRANCH  25  26
ENDBRANCH  22  25
ENDBRANCH  20  21
ENDBRANCH  19  20
ENDBRANCH   1  19
TORSDOF 5
ENDMDL
MODEL 4
REMARK VINA RESULT: -9.943702150      1.452      2.756
REMARK  5 active torsions:
REMARK  status: ('A' for Active; 'I' for Inactive)
REMARK    1  A    between atoms: C2_2  and  C3_3 
REMARK    2  A    between atoms: C3_3  and  N1_4 
REMARK       I    between atoms: N1_4  and  C4_6 
REMARK    3  A    between atoms: C4_6  and  C5_8 
REMARK    4  A    between atoms: C5_8  and  C6_9 
REMARK    5  A    between atoms: C6_9  and  C7_10 
REMARK       I    between atoms: C7_10  and  N2_12 
ROOT
HETATM    1  C7  UNL     1     114.233 125.237 182.057  1.00  0.00     0.220 C 
HETATM    2  O2  UNL     1     115.174 124.988 182.850  1.00  0.00    -0.273 OA
HETATM    3  N2  UNL     1     112.880 125.098 182.452  1.00  0.00    -0.351 N 
HETATM    4  C8  UNL     1     111.753 125.361 181.611  1.00  0.00     0.126 C 
HETATM    5  C9  UNL     1     110.716 125.795 182.578  1.00  0.00     0.032 C 
HETATM    6  C10 UNL     1     111.037 125.315 183.946  1.00  0.00    -0.015 C 
HETATM    7  C11 UNL     1     111.267 126.463 184.867  1.00  0.00     0.016 C 
HETATM    8  C12 UNL     1     110.186 126.921 185.735  1.00  0.00    -0.013 C 
HETATM    9  C13 UNL     1     108.804 126.887 185.190  1.00  0.00     0.009 C 
HETATM   10  C14 UNL     1     108.128 125.589 185.359  1.00  0.00    -0.013 C 
HETATM   11  C15 UNL     1     108.284 124.970 186.734  1.00  0.00     0.009 C 
HETATM   12  C16 UNL     1     109.777 124.815 186.947  1.00  0.00    -0.013 C 
HETATM   13  C17 UNL     1     110.318 126.221 187.087  1.00  0.00     0.009 C 
HETATM   14  C18 UNL     1     110.457 124.002 185.917  1.00  0.00     0.014 C 
HETATM   15  C19 UNL     1     110.102 124.268 184.491  1.00  0.00    -0.034 C 
HETATM   16  C20 UNL     1     110.263 122.956 183.738  1.00  0.00     0.016 C 
HETATM   17  C21 UNL     1     108.655 124.574 184.385  1.00  0.00     0.014 C 
HETATM   18  C22 UNL     1     112.415 124.672 183.758  1.00  0.00     0.136 C 
ENDROOT
BRANCH   1  19
HETATM   19  C6  UNL     1     114.533 125.686 180.682  1.00  0.00     0.112 C 
BRANCH  19  20
HETATM   20  C5  UNL     1     115.746 125.093 180.062  1.00  0.00     0.112 C 
BRANCH  20  21
HETATM   21  C4  UNL     1     116.739 126.067 179.577  1.00  0.00     0.218 C 
HETATM   22  N1  UNL     1     117.471 125.805 178.394  1.00  0.00    -0.358 N 
ATOM     23  H1  UNL     1     117.277 124.934 177.899  1.00  0.00     0.162 HD
HETATM   24  O1  UNL     1     116.925 127.125 180.224  1.00  0.00    -0.274 OA
BRANCH  22  25
HETATM   25  C3  UNL     1     118.469 126.680 177.843  1.00  0.00     0.149 C 
BRANCH  25  26
HETATM   26  C2  UNL     1     118.544 126.626 176.378  1.00  0.00    -0.018 C 
HETATM   27  C1  UNL     1     117.613 127.032 175.564  1.00  0.00     0.008 C 
ENDBRANCH  25  26
ENDBRANCH  22  25
ENDBRANCH  20  21
ENDBRANCH  19  20
ENDBRANCH   1  19
TORSDOF 5
ENDMDL
MODEL 5
REMARK VINA RESULT: -9.789834779      1.932      3.456
REMARK  5 active torsions:
REMARK  status: ('A' for Active; 'I' for Inactive)
REMARK    1  A    between atoms: C2_2  and  C3_3 
REMARK    2  A    between atoms: C3_3  and  N1_4 
REMARK       I    between atoms: N1_4  and  C4_6 
REMARK    3  A    between atoms: C4_6  and  C5_8 
REMARK    4  A    between atoms: C5_8  and  C6_9 
REMARK    5  A    between atoms: C6_9  and  C7_10 
REMARK       I    between atoms: C7_10  and  N2_12 
ROOT
HETATM    1  C7  UNL     1     114.262 125.307 181.913  1.00  0.00     0.220 C 
HETATM    2  O2  UNL     1     115.219 125.082 182.693  1.00  0.00    -0.273 OA
HETATM    3  N2  UNL     1     112.918 125.141 182.326  1.00  0.00    -0.351 N 
HETATM    4  C8  UNL     1     111.775 125.376 181.500  1.00  0.00     0.126 C 
HETATM    5  C9  UNL     1     110.742 125.792 182.480  1.00  0.00     0.032 C 
HETATM    6  C10 UNL     1     111.091 125.323 183.845  1.00  0.00    -0.015 C 
HETATM    7  C11 UNL     1     111.309 126.479 184.760  1.00  0.00     0.016 C 
HETATM    8  C12 UNL     1     110.230 126.917 185.641  1.00  0.00    -0.013 C 
HETATM    9  C13 UNL     1     108.842 126.851 185.115  1.00  0.00     0.009 C 
HETATM   10  C14 UNL     1     108.197 125.539 185.297  1.00  0.00    -0.013 C 
HETATM   11  C15 UNL     1     108.384 124.928 186.671  1.00  0.00     0.009 C 
HETATM   12  C16 UNL     1     109.884 124.806 186.864  1.00  0.00    -0.013 C 
HETATM   13  C17 UNL     1     110.396 126.224 186.993  1.00  0.00     0.009 C 
HETATM   14  C18 UNL     1     110.566 124.004 185.828  1.00  0.00     0.014 C 
HETATM   15  C19 UNL     1     110.186 124.258 184.406  1.00  0.00    -0.034 C 
HETATM   16  C20 UNL     1     110.365 122.947 183.654  1.00  0.00     0.016 C 
HETATM   17  C21 UNL     1     108.732 124.533 184.319  1.00  0.00     0.014 C 
HETATM   18  C22 UNL     1     112.480 124.709 183.640  1.00  0.00     0.136 C 
ENDROOT
BRANCH   1  19
HETATM   19  C6  UNL     1     114.534 125.758 180.532  1.00  0.00     0.112 C 
BRANCH  19  20
HETATM   20  C5  UNL     1     115.958 125.718 180.111  1.00  0.00     0.112 C 
BRANCH  20  21
HETATM   21  C4  UNL     1     116.691 126.987 180.265  1.00  0.00     0.218 C 
HETATM   22  N1  UNL     1     116.430 127.826 181.374  1.00  0.00    -0.358 N 
ATOM     23  H1  UNL     1     115.735 127.515 182.052  1.00  0.00     0.162 HD
HETATM   24  O1  UNL     1     117.543 127.310 179.403  1.00  0.00    -0.274 OA
BRANCH  22  25
HETATM   25  C3  UNL     1     117.078 129.088 181.611  1.00  0.00     0.149 C 
BRANCH  25  26
HETATM   26  C2  UNL     1     116.203 130.242 181.377  1.00  0.00    -0.018 C 
HETATM   27  C1  UNL     1     114.951 130.177 181.029  1.00  0.00     0.008 C 
ENDBRANCH  25  26
ENDBRANCH  22  25
ENDBRANCH  20  21
ENDBRANCH  19  20
ENDBRANCH   1  19
TORSDOF 5
ENDMDL
