MODEL 1
REMARK VINA RESULT: -6.028236392      0.000      0.000
REMARK  0 active torsions:
REMARK  status: ('A' for Active; 'I' for Inactive)
ROOT
HETATM    1  C1  UNL     1      11.727 -35.497   5.903  1.00  0.00     0.015 C 
HETATM    2  C2  UNL     1      11.229 -34.345   6.827  1.00  0.00    -0.047 C 
HETATM    3  C3  UNL     1       9.818 -34.173   6.387  1.00  0.00     0.015 C 
HETATM    4  C4  UNL     1      11.405 -34.897   8.205  1.00  0.00     0.009 C 
HETATM    5  C5  UNL     1      10.362 -34.528   9.188  1.00  0.00     0.002 C 
HETATM    6  C6  UNL     1      10.361 -33.090   9.627  1.00  0.00     0.015 C 
HETATM    7  C7  UNL     1      11.622 -32.369   9.497  1.00  0.00     0.053 C 
HETATM    8  S1  UNL     1      11.604 -31.028  10.793  1.00  0.00    -0.154 SA
HETATM    9  C8  UNL     1      11.355 -29.602   9.637  1.00  0.00     0.005 C 
HETATM   10  C9  UNL     1      12.597 -28.802   9.497  1.00  0.00     0.027 C 
HETATM   11  C10 UNL     1      10.252 -28.706  10.176  1.00  0.00     0.027 C 
HETATM   12  C11 UNL     1      10.916 -30.360   8.463  1.00  0.00     0.009 C 
HETATM   13  C12 UNL     1      10.994 -29.789   7.120  1.00  0.00     0.007 C 
HETATM   14  C13 UNL     1      10.903 -31.094   6.301  1.00  0.00     0.010 C 
HETATM   15  C14 UNL     1      12.018 -31.895   7.003  1.00  0.00    -0.038 C 
HETATM   16  C15 UNL     1      13.267 -31.222   6.352  1.00  0.00     0.015 C 
HETATM   17  C16 UNL     1      12.157 -33.256   6.525  1.00  0.00     0.018 C 
HETATM   18  C17 UNL     1      11.936 -31.512   8.369  1.00  0.00     0.013 C 
ENDROOT
TORSDOF 0
ENDMDL
MODEL 2
REMARK VINA RESULT: -6.025742445      7.071      9.659
REMARK  0 active torsions:
REMARK  status: ('A' for Active; 'I' for Inactive)
ROOT
HETATM    1  C1  UNL     1      12.315 -42.853   2.704  1.00  0.00     0.015 C 
HETATM    2  C2  UNL     1      13.058 -41.512   2.424  1.00  0.00    -0.047 C 
HETATM    3  C3  UNL     1      14.461 -41.845   2.794  1.00  0.00     0.015 C 
HETATM    4  C4  UNL     1      12.822 -41.276   0.968  1.00  0.00     0.009 C 
HETATM    5  C5  UNL     1      13.947 -40.673   0.218  1.00  0.00     0.002 C 
HETATM    6  C6  UNL     1      14.244 -39.234   0.535  1.00  0.00     0.015 C 
HETATM    7  C7  UNL     1      13.145 -38.448   1.086  1.00  0.00     0.053 C 
HETATM    8  S1  UNL     1      13.467 -36.674   0.607  1.00  0.00    -0.154 SA
HETATM    9  C8  UNL     1      13.953 -36.073   2.290  1.00  0.00     0.005 C 
HETATM   10  C9  UNL     1      12.889 -35.229   2.887  1.00  0.00     0.027 C 
HETATM   11  C10 UNL     1      15.227 -35.251   2.180  1.00  0.00     0.027 C 
HETATM   12  C11 UNL     1      14.198 -37.376   2.914  1.00  0.00     0.009 C 
HETATM   13  C12 UNL     1      14.191 -37.533   4.367  1.00  0.00     0.007 C 
HETATM   14  C13 UNL     1      13.998 -39.063   4.440  1.00  0.00     0.010 C 
HETATM   15  C14 UNL     1      12.770 -39.193   3.516  1.00  0.00    -0.038 C 
HETATM   16  C15 UNL     1      11.657 -38.706   4.497  1.00  0.00     0.015 C 
HETATM   17  C16 UNL     1      12.352 -40.561   3.281  1.00  0.00     0.018 C 
HETATM   18  C17 UNL     1      12.970 -38.213   2.507  1.00  0.00     0.013 C 
ENDROOT
TORSDOF 0
ENDMDL
MODEL 3
REMARK VINA RESULT: -5.874968890      2.292      5.755
REMARK  0 active torsions:
REMARK  status: ('A' for Active; 'I' for Inactive)
ROOT
HETATM    1  C1  UNL     1      11.742 -30.524   8.971  1.00  0.00     0.015 C 
HETATM    2  C2  UNL     1      11.702 -31.304   7.623  1.00  0.00    -0.047 C 
HETATM    3  C3  UNL     1      10.543 -30.679   6.930  1.00  0.00     0.015 C 
HETATM    4  C4  UNL     1      13.037 -31.022   7.013  1.00  0.00     0.009 C 
HETATM    5  C5  UNL     1      13.055 -30.857   5.542  1.00  0.00     0.002 C 
HETATM    6  C6  UNL     1      12.811 -32.107   4.743  1.00  0.00     0.015 C 
HETATM    7  C7  UNL     1      13.113 -33.372   5.405  1.00  0.00     0.053 C 
HETATM    8  S1  UNL     1      13.534 -34.590   4.056  1.00  0.00    -0.154 SA
HETATM    9  C8  UNL     1      11.978 -35.589   4.163  1.00  0.00     0.005 C 
HETATM   10  C9  UNL     1      12.230 -36.910   4.791  1.00  0.00     0.027 C 
HETATM   11  C10 UNL     1      11.425 -35.808   2.765  1.00  0.00     0.027 C 
HETATM   12  C11 UNL     1      11.169 -34.634   4.925  1.00  0.00     0.009 C 
HETATM   13  C12 UNL     1       9.990 -35.066   5.672  1.00  0.00     0.007 C 
HETATM   14  C13 UNL     1       9.849 -33.855   6.617  1.00  0.00     0.010 C 
HETATM   15  C14 UNL     1      11.292 -33.809   7.163  1.00  0.00    -0.038 C 
HETATM   16  C15 UNL     1      11.219 -34.990   8.181  1.00  0.00     0.015 C 
HETATM   17  C16 UNL     1      11.550 -32.694   8.051  1.00  0.00     0.018 C 
HETATM   18  C17 UNL     1      12.107 -34.185   6.063  1.00  0.00     0.013 C 
ENDROOT
TORSDOF 0
ENDMDL
MODEL 4
REMARK VINA RESULT: -5.699864398      6.625      9.126
REMARK  0 active torsions:
REMARK  status: ('A' for Active; 'I' for Inactive)
ROOT
HETATM    1  C1  UNL     1      17.091 -33.520   1.634  1.00  0.00     0.015 C 
HETATM    2  C2  UNL     1      16.492 -34.952   1.775  1.00  0.00    -0.047 C 
HETATM    3  C3  UNL     1      16.481 -35.431   0.366  1.00  0.00     0.015 C 
HETATM    4  C4  UNL     1      17.457 -35.650   2.678  1.00  0.00     0.009 C 
HETATM    5  C5  UNL     1      17.707 -37.078   2.379  1.00  0.00     0.002 C 
HETATM    6  C6  UNL     1      16.565 -38.013   2.666  1.00  0.00     0.015 C 
HETATM    7  C7  UNL     1      15.592 -37.567   3.657  1.00  0.00     0.053 C 
HETATM    8  S1  UNL     1      14.854 -39.106   4.408  1.00  0.00    -0.154 SA
HETATM    9  C8  UNL     1      13.194 -38.980   3.595  1.00  0.00     0.005 C 
HETATM   10  C9  UNL     1      12.150 -38.569   4.566  1.00  0.00     0.027 C 
HETATM   11  C10 UNL     1      12.818 -40.332   3.011  1.00  0.00     0.027 C 
HETATM   12  C11 UNL     1      13.548 -38.015   2.550  1.00  0.00     0.009 C 
HETATM   13  C12 UNL     1      12.524 -37.219   1.877  1.00  0.00     0.007 C 
HETATM   14  C13 UNL     1      13.427 -36.106   1.303  1.00  0.00     0.010 C 
HETATM   15  C14 UNL     1      14.168 -35.709   2.597  1.00  0.00    -0.038 C 
HETATM   16  C15 UNL     1      13.050 -34.862   3.283  1.00  0.00     0.015 C 
HETATM   17  C16 UNL     1      15.195 -34.706   2.404  1.00  0.00     0.018 C 
HETATM   18  C17 UNL     1      14.336 -36.928   3.307  1.00  0.00     0.013 C 
ENDROOT
TORSDOF 0
ENDMDL
MODEL 5
REMARK VINA RESULT: -5.622777103      7.412     10.621
REMARK  0 active torsions:
REMARK  status: ('A' for Active; 'I' for Inactive)
ROOT
HETATM    1  C1  UNL     1      14.139 -34.796   3.092  1.00  0.00     0.015 C 
HETATM    2  C2  UNL     1      13.639 -36.131   2.464  1.00  0.00    -0.047 C 
HETATM    3  C3  UNL     1      12.161 -35.953   2.480  1.00  0.00     0.015 C 
HETATM    4  C4  UNL     1      14.265 -36.139   1.107  1.00  0.00     0.009 C 
HETATM    5  C5  UNL     1      13.439 -36.704   0.016  1.00  0.00     0.002 C 
HETATM    6  C6  UNL     1      13.224 -38.191   0.066  1.00  0.00     0.015 C 
HETATM    7  C7  UNL     1      14.221 -38.970   0.793  1.00  0.00     0.053 C 
HETATM    8  S1  UNL     1      14.220 -40.674   0.036  1.00  0.00    -0.154 SA
HETATM    9  C8  UNL     1      13.384 -41.544   1.442  1.00  0.00     0.005 C 
HETATM   10  C9  UNL     1      14.342 -42.389   2.197  1.00  0.00     0.027 C 
HETATM   11  C10 UNL     1      12.275 -42.428   0.895  1.00  0.00     0.027 C 
HETATM   12  C11 UNL     1      12.852 -40.364   2.129  1.00  0.00     0.009 C 
HETATM   13  C12 UNL     1      12.469 -40.417   3.538  1.00  0.00     0.007 C 
HETATM   14  C13 UNL     1      12.474 -38.904   3.843  1.00  0.00     0.010 C 
HETATM   15  C14 UNL     1      13.878 -38.557   3.305  1.00  0.00    -0.038 C 
HETATM   16  C15 UNL     1      14.746 -39.102   4.484  1.00  0.00     0.015 C 
HETATM   17  C16 UNL     1      14.196 -37.144   3.358  1.00  0.00     0.018 C 
HETATM   18  C17 UNL     1      14.049 -39.394   2.170  1.00  0.00     0.013 C 
ENDROOT
TORSDOF 0
ENDMDL
