MODEL 1
REMARK VINA RESULT: -6.571108040      0.000      0.000
REMARK  0 active torsions:
REMARK  status: ('A' for Active; 'I' for Inactive)
ROOT
HETATM    1  C1  UNL     1      12.092 -28.593   9.899  1.00  0.00     0.015 C 
HETATM    2  C2  UNL     1      10.982 -29.403   9.219  1.00  0.00    -0.047 C 
HETATM    3  C3  UNL     1       9.692 -28.624   9.501  1.00  0.00     0.015 C 
HETATM    4  C4  UNL     1      11.152 -29.419   7.725  1.00  0.00     0.009 C 
HETATM    5  C5  UNL     1      10.893 -30.815   7.142  1.00  0.00     0.011 C 
HETATM    6  C6  UNL     1      11.931 -31.703   7.724  1.00  0.00    -0.032 C 
HETATM    7  C7  UNL     1      13.284 -31.198   7.202  1.00  0.00     0.016 C 
HETATM    8  C8  UNL     1      11.995 -31.643   9.210  1.00  0.00    -0.005 C 
HETATM    9  C9  UNL     1      11.906 -33.076   9.677  1.00  0.00     0.006 C 
HETATM   10  C10 UNL     1      12.505 -33.803   8.492  1.00  0.00     0.011 C 
HETATM   11  C11 UNL     1      11.740 -33.181   7.340  1.00  0.00    -0.028 C 
HETATM   12  C12 UNL     1      12.407 -33.353   6.017  1.00  0.00     0.010 C 
HETATM   13  C13 UNL     1      11.733 -34.254   5.051  1.00  0.00     0.001 C 
HETATM   14  C14 UNL     1      12.330 -35.660   5.197  1.00  0.00     0.002 C 
HETATM   15  C15 UNL     1      11.282 -36.674   4.856  1.00  0.00     0.020 C 
HETATM   16  C16 UNL     1      10.121 -36.475   5.816  1.00  0.00     0.118 C 
HETATM   17  N1  UNL     1      10.655 -35.921   7.034  1.00  0.00    -0.402 N 
ATOM     18  H1  UNL     1      11.524 -36.252   7.454  1.00  0.00     0.158 HD
HETATM   19  C17 UNL     1       9.885 -34.885   7.601  1.00  0.00     0.056 C 
HETATM   20  C18 UNL     1      10.289 -33.492   7.369  1.00  0.00     0.054 C 
HETATM   21  C19 UNL     1      10.963 -30.753   9.848  1.00  0.00     0.014 C 
ENDROOT
TORSDOF 0
ENDMDL
MODEL 2
REMARK VINA RESULT: -6.293089812      5.816      8.722
REMARK  0 active torsions:
REMARK  status: ('A' for Active; 'I' for Inactive)
ROOT
HETATM    1  C1  UNL     1      18.145 -34.720  -1.256  1.00  0.00     0.015 C 
HETATM    2  C2  UNL     1      16.703 -34.451  -0.811  1.00  0.00    -0.047 C 
HETATM    3  C3  UNL     1      16.278 -33.194  -1.581  1.00  0.00     0.015 C 
HETATM    4  C4  UNL     1      15.779 -35.552  -1.252  1.00  0.00     0.009 C 
HETATM    5  C5  UNL     1      14.791 -35.938  -0.142  1.00  0.00     0.011 C 
HETATM    6  C6  UNL     1      15.614 -36.459   0.979  1.00  0.00    -0.032 C 
HETATM    7  C7  UNL     1      16.297 -37.736   0.467  1.00  0.00     0.016 C 
HETATM    8  C8  UNL     1      16.700 -35.531   1.397  1.00  0.00    -0.005 C 
HETATM    9  C9  UNL     1      16.538 -35.364   2.889  1.00  0.00     0.006 C 
HETATM   10  C10 UNL     1      15.900 -36.686   3.259  1.00  0.00     0.011 C 
HETATM   11  C11 UNL     1      14.784 -36.777   2.235  1.00  0.00    -0.028 C 
HETATM   12  C12 UNL     1      14.260 -38.160   2.044  1.00  0.00     0.010 C 
HETATM   13  C13 UNL     1      12.881 -38.415   2.526  1.00  0.00     0.001 C 
HETATM   14  C14 UNL     1      12.958 -38.966   3.957  1.00  0.00     0.002 C 
HETATM   15  C15 UNL     1      11.731 -38.551   4.707  1.00  0.00     0.020 C 
HETATM   16  C16 UNL     1      11.686 -37.032   4.712  1.00  0.00     0.118 C 
HETATM   17  N1  UNL     1      13.044 -36.558   4.623  1.00  0.00    -0.402 N 
ATOM     18  H1  UNL     1      13.808 -36.979   5.151  1.00  0.00     0.158 HD
HETATM   19  C17 UNL     1      13.234 -35.468   3.751  1.00  0.00     0.056 C 
HETATM   20  C18 UNL     1      13.755 -35.721   2.401  1.00  0.00     0.054 C 
HETATM   21  C19 UNL     1      16.724 -34.219   0.660  1.00  0.00     0.014 C 
ENDROOT
TORSDOF 0
ENDMDL
MODEL 3
REMARK VINA RESULT: -6.214588809      3.257      7.461
REMARK  0 active torsions:
REMARK  status: ('A' for Active; 'I' for Inactive)
ROOT
HETATM    1  C1  UNL     1      16.391 -36.538   0.446  1.00  0.00     0.015 C 
HETATM    2  C2  UNL     1      15.904 -37.142   1.768  1.00  0.00    -0.047 C 
HETATM    3  C3  UNL     1      16.677 -38.459   1.912  1.00  0.00     0.015 C 
HETATM    4  C4  UNL     1      16.300 -36.286   2.940  1.00  0.00     0.009 C 
HETATM    5  C5  UNL     1      15.155 -36.151   3.952  1.00  0.00     0.011 C 
HETATM    6  C6  UNL     1      14.053 -35.458   3.238  1.00  0.00    -0.032 C 
HETATM    7  C7  UNL     1      14.569 -34.053   2.893  1.00  0.00     0.016 C 
HETATM    8  C8  UNL     1      13.682 -36.107   1.951  1.00  0.00    -0.005 C 
HETATM    9  C9  UNL     1      12.188 -36.316   2.019  1.00  0.00     0.006 C 
HETATM   10  C10 UNL     1      11.780 -35.184   2.937  1.00  0.00     0.011 C 
HETATM   11  C11 UNL     1      12.767 -35.352   4.076  1.00  0.00    -0.028 C 
HETATM   12  C12 UNL     1      12.922 -34.130   4.917  1.00  0.00     0.010 C 
HETATM   13  C13 UNL     1      12.394 -34.210   6.301  1.00  0.00     0.001 C 
HETATM   14  C14 UNL     1      10.958 -33.666   6.307  1.00  0.00     0.002 C 
HETATM   15  C15 UNL     1      10.176 -34.363   7.376  1.00  0.00     0.020 C 
HETATM   16  C16 UNL     1      10.191 -35.849   7.062  1.00  0.00     0.118 C 
HETATM   17  N1  UNL     1      10.329 -35.990   5.635  1.00  0.00    -0.402 N 
ATOM     18  H1  UNL     1       9.819 -35.403   4.973  1.00  0.00     0.158 HD
HETATM   19  C17 UNL     1      11.222 -36.999   5.222  1.00  0.00     0.056 C 
HETATM   20  C18 UNL     1      12.584 -36.622   4.822  1.00  0.00     0.054 C 
HETATM   21  C19 UNL     1      14.438 -37.372   1.643  1.00  0.00     0.014 C 
ENDROOT
TORSDOF 0
ENDMDL
MODEL 4
REMARK VINA RESULT: -6.134241552      4.616      7.426
REMARK  0 active torsions:
REMARK  status: ('A' for Active; 'I' for Inactive)
ROOT
HETATM    1  C1  UNL     1      12.116 -34.628   6.179  1.00  0.00     0.015 C 
HETATM    2  C2  UNL     1      11.559 -35.461   5.019  1.00  0.00    -0.047 C 
HETATM    3  C3  UNL     1      10.068 -35.633   5.334  1.00  0.00     0.015 C 
HETATM    4  C4  UNL     1      11.635 -34.710   3.719  1.00  0.00     0.009 C 
HETATM    5  C5  UNL     1      12.113 -35.612   2.573  1.00  0.00     0.011 C 
HETATM    6  C6  UNL     1      13.490 -36.038   2.931  1.00  0.00    -0.032 C 
HETATM    7  C7  UNL     1      14.353 -34.768   2.945  1.00  0.00     0.016 C 
HETATM    8  C8  UNL     1      13.589 -36.639   4.289  1.00  0.00    -0.005 C 
HETATM    9  C9  UNL     1      14.285 -37.966   4.095  1.00  0.00     0.006 C 
HETATM   10  C10 UNL     1      15.113 -37.678   2.862  1.00  0.00     0.011 C 
HETATM   11  C11 UNL     1      14.079 -37.060   1.942  1.00  0.00    -0.028 C 
HETATM   12  C12 UNL     1      14.669 -36.263   0.828  1.00  0.00     0.010 C 
HETATM   13  C13 UNL     1      14.515 -36.822  -0.537  1.00  0.00     0.001 C 
HETATM   14  C14 UNL     1      15.765 -37.650  -0.868  1.00  0.00     0.002 C 
HETATM   15  C15 UNL     1      15.384 -38.759  -1.799  1.00  0.00     0.020 C 
HETATM   16  C16 UNL     1      14.340 -39.611  -1.095  1.00  0.00     0.118 C 
HETATM   17  N1  UNL     1      14.568 -39.493   0.323  1.00  0.00    -0.402 N 
ATOM     18  H1  UNL     1      15.502 -39.510   0.732  1.00  0.00     0.158 HD
HETATM   19  C17 UNL     1      13.401 -39.350   1.100  1.00  0.00     0.056 C 
HETATM   20  C18 UNL     1      13.007 -38.009   1.550  1.00  0.00     0.054 C 
HETATM   21  C19 UNL     1      12.278 -36.765   5.018  1.00  0.00     0.014 C 
ENDROOT
TORSDOF 0
ENDMDL
MODEL 5
REMARK VINA RESULT: -6.075378088      5.351      8.702
REMARK  0 active torsions:
REMARK  status: ('A' for Active; 'I' for Inactive)
ROOT
HETATM    1  C1  UNL     1      11.857 -35.356   3.004  1.00  0.00     0.015 C 
HETATM    2  C2  UNL     1      12.474 -36.172   4.147  1.00  0.00    -0.047 C 
HETATM    3  C3  UNL     1      11.947 -35.519   5.431  1.00  0.00     0.015 C 
HETATM    4  C4  UNL     1      11.963 -37.586   4.149  1.00  0.00     0.009 C 
HETATM    5  C5  UNL     1      13.091 -38.594   4.408  1.00  0.00     0.011 C 
HETATM    6  C6  UNL     1      14.036 -38.456   3.272  1.00  0.00    -0.032 C 
HETATM    7  C7  UNL     1      13.274 -38.890   2.011  1.00  0.00     0.016 C 
HETATM    8  C8  UNL     1      14.484 -37.055   3.041  1.00  0.00    -0.005 C 
HETATM    9  C9  UNL     1      15.993 -37.112   3.012  1.00  0.00     0.006 C 
HETATM   10  C10 UNL     1      16.218 -38.525   2.520  1.00  0.00     0.011 C 
HETATM   11  C11 UNL     1      15.304 -39.312   3.439  1.00  0.00    -0.028 C 
HETATM   12  C12 UNL     1      14.957 -40.667   2.920  1.00  0.00     0.010 C 
HETATM   13  C13 UNL     1      15.525 -41.821   3.659  1.00  0.00     0.001 C 
HETATM   14  C14 UNL     1      16.842 -42.231   2.985  1.00  0.00     0.002 C 
HETATM   15  C15 UNL     1      17.760 -42.807   4.018  1.00  0.00     0.020 C 
HETATM   16  C16 UNL     1      17.998 -41.736   5.070  1.00  0.00     0.118 C 
HETATM   17  N1  UNL     1      17.852 -40.456   4.427  1.00  0.00    -0.402 N 
ATOM     18  H1  UNL     1      18.235 -40.259   3.502  1.00  0.00     0.158 HD
HETATM   19  C17 UNL     1      17.141 -39.495   5.173  1.00  0.00     0.056 C 
HETATM   20  C18 UNL     1      15.724 -39.261   4.861  1.00  0.00     0.054 C 
HETATM   21  C19 UNL     1      13.954 -36.054   4.033  1.00  0.00     0.014 C 
ENDROOT
TORSDOF 0
ENDMDL
