MODEL 1
REMARK VINA RESULT: -6.220390804      0.000      0.000
REMARK  9 active torsions:
REMARK  status: ('A' for Active; 'I' for Inactive)
REMARK    1  A    between atoms: N1_1  and  N2_4 
REMARK       I    between atoms: N2_4  and  C1_6 
REMARK    2  A    between atoms: C1_6  and  C2_8 
REMARK       I    between atoms: C2_8  and  N3_10 
REMARK    3  A    between atoms: N3_10  and  N4_12 
REMARK    4  A    between atoms: N4_12  and  C3_14 
REMARK    5  A    between atoms: C3_14  and  O3_15 
REMARK    6  A    between atoms: C3_14  and  N5_17 
REMARK    7  A    between atoms: N5_17  and  C4_19 
REMARK    8  A    between atoms: C4_19  and  O4_20 
REMARK    9  A    between atoms: C4_19  and  C5_22 
ROOT
HETATM    1  N4  UNL     1      26.093  19.077  48.322  1.00  0.00    -0.262 N 
ATOM      2  H4  UNL     1      26.714  19.113  49.131  1.00  0.00     0.190 HD
ENDROOT
BRANCH   1   3
HETATM    3  N3  UNL     1      26.608  18.699  47.047  1.00  0.00    -0.259 N 
HETATM    4  C2  UNL     1      26.721  17.337  46.747  1.00  0.00     0.329 C 
HETATM    5  O2  UNL     1      26.388  16.428  47.557  1.00  0.00    -0.261 OA
ATOM      6  H3  UNL     1      26.888  19.406  46.368  1.00  0.00     0.190 HD
BRANCH   4   7
HETATM    7  C1  UNL     1      27.251  16.942  45.430  1.00  0.00     0.329 C 
HETATM    8  N2  UNL     1      27.382  17.895  44.390  1.00  0.00    -0.268 N 
ATOM      9  H2  UNL     1      27.110  18.867  44.541  1.00  0.00     0.190 HD
HETATM   10  O1  UNL     1      27.595  15.756  45.203  1.00  0.00    -0.261 OA
BRANCH   8  11
HETATM   11  N1  UNL     1      27.886  17.484  43.161  1.00  0.00    -0.342 N 
ATOM     12  H12 UNL     1      28.867  17.652  42.938  1.00  0.00     0.176 HD
ATOM     13  H11 UNL     1      27.262  17.019  42.502  1.00  0.00     0.176 HD
ENDBRANCH   8  11
ENDBRANCH   4   7
ENDBRANCH   1   3
BRANCH   1  14
HETATM   14  C3  UNL     1      24.754  19.397  48.466  1.00  0.00     0.238 C 
BRANCH  14  15
HETATM   15  O3  UNL     1      24.534  20.367  49.322  1.00  0.00    -0.331 OA
ATOM     16  H3  UNL     1      23.622  20.454  49.573  1.00  0.00     0.221 HD
ENDBRANCH  14  15
BRANCH  14  17
HETATM   17  N5  UNL     1      23.641  18.859  47.856  1.00  0.00    -0.303 N 
ATOM     18  H5  UNL     1      23.115  18.262  48.494  1.00  0.00     0.171 HD
BRANCH  17  19
HETATM   19  C4  UNL     1      23.048  18.913  46.605  1.00  0.00     0.150 C 
BRANCH  19  20
HETATM   20  O4  UNL     1      21.985  18.162  46.422  1.00  0.00    -0.347 OA
ATOM     21  H4  UNL     1      21.231  18.579  46.023  1.00  0.00     0.219 HD
ENDBRANCH  19  20
BRANCH  19  22
HETATM   22  C5  UNL     1      23.446  19.700  45.445  1.00  0.00     0.219 A 
HETATM   23  C6  UNL     1      23.875  18.950  44.182  1.00  0.00     0.209 A 
HETATM   24  O5  UNL     1      24.783  19.564  45.026  1.00  0.00    -0.373 OA
ENDBRANCH  19  22
ENDBRANCH  17  19
ENDBRANCH  14  17
ENDBRANCH   1  14
TORSDOF 9
ENDMDL
MODEL 2
REMARK VINA RESULT: -6.172127502      1.546      2.146
REMARK  9 active torsions:
REMARK  status: ('A' for Active; 'I' for Inactive)
REMARK    1  A    between atoms: N1_1  and  N2_4 
REMARK       I    between atoms: N2_4  and  C1_6 
REMARK    2  A    between atoms: C1_6  and  C2_8 
REMARK       I    between atoms: C2_8  and  N3_10 
REMARK    3  A    between atoms: N3_10  and  N4_12 
REMARK    4  A    between atoms: N4_12  and  C3_14 
REMARK    5  A    between atoms: C3_14  and  O3_15 
REMARK    6  A    between atoms: C3_14  and  N5_17 
REMARK    7  A    between atoms: N5_17  and  C4_19 
REMARK    8  A    between atoms: C4_19  and  O4_20 
REMARK    9  A    between atoms: C4_19  and  C5_22 
ROOT
HETATM    1  N4  UNL     1      25.213  17.222  48.553  1.00  0.00    -0.262 N 
ATOM      2  H4  UNL     1      24.717  16.518  49.100  1.00  0.00     0.190 HD
ENDROOT
BRANCH   1   3
HETATM    3  N3  UNL     1      25.571  16.948  47.199  1.00  0.00    -0.259 N 
HETATM    4  C2  UNL     1      26.918  17.028  46.833  1.00  0.00     0.329 C 
HETATM    5  O2  UNL     1      27.832  17.332  47.648  1.00  0.00    -0.261 OA
ATOM      6  H3  UNL     1      24.859  16.700  46.512  1.00  0.00     0.190 HD
BRANCH   4   7
HETATM    7  C1  UNL     1      27.292  16.745  45.436  1.00  0.00     0.329 C 
HETATM    8  N2  UNL     1      27.409  17.796  44.493  1.00  0.00    -0.268 N 
ATOM      9  H2  UNL     1      27.234  18.762  44.770  1.00  0.00     0.190 HD
HETATM   10  O1  UNL     1      27.514  15.569  45.054  1.00  0.00    -0.261 OA
BRANCH   8  11
HETATM   11  N1  UNL     1      27.764  17.488  43.184  1.00  0.00    -0.342 N 
ATOM     12  H12 UNL     1      28.735  17.267  42.965  1.00  0.00     0.176 HD
ATOM     13  H11 UNL     1      27.042  17.490  42.464  1.00  0.00     0.176 HD
ENDBRANCH   8  11
ENDBRANCH   4   7
ENDBRANCH   1   3
BRANCH   1  14
HETATM   14  C3  UNL     1      25.537  18.439  49.126  1.00  0.00     0.238 C 
BRANCH  14  15
HETATM   15  O3  UNL     1      26.456  18.353  50.059  1.00  0.00    -0.331 OA
ATOM     16  H3  UNL     1      26.285  18.904  50.813  1.00  0.00     0.221 HD
ENDBRANCH  14  15
BRANCH  14  17
HETATM   17  N5  UNL     1      25.046  19.701  48.868  1.00  0.00    -0.303 N 
ATOM     18  H5  UNL     1      24.393  20.005  49.591  1.00  0.00     0.171 HD
BRANCH  17  19
HETATM   19  C4  UNL     1      25.204  20.666  47.887  1.00  0.00     0.150 C 
BRANCH  19  20
HETATM   20  O4  UNL     1      25.282  21.915  48.293  1.00  0.00    -0.347 OA
ATOM     21  H4  UNL     1      25.143  22.072  49.220  1.00  0.00     0.219 HD
ENDBRANCH  19  20
BRANCH  19  22
HETATM   22  C5  UNL     1      25.299  20.488  46.445  1.00  0.00     0.219 A 
HETATM   23  C6  UNL     1      23.997  20.429  45.641  1.00  0.00     0.209 A 
HETATM   24  O5  UNL     1      24.748  19.302  45.924  1.00  0.00    -0.373 OA
ENDBRANCH  19  22
ENDBRANCH  17  19
ENDBRANCH  14  17
ENDBRANCH   1  14
TORSDOF 9
ENDMDL
MODEL 3
REMARK VINA RESULT: -6.136746206      3.532      6.004
REMARK  9 active torsions:
REMARK  status: ('A' for Active; 'I' for Inactive)
REMARK    1  A    between atoms: N1_1  and  N2_4 
REMARK       I    between atoms: N2_4  and  C1_6 
REMARK    2  A    between atoms: C1_6  and  C2_8 
REMARK       I    between atoms: C2_8  and  N3_10 
REMARK    3  A    between atoms: N3_10  and  N4_12 
REMARK    4  A    between atoms: N4_12  and  C3_14 
REMARK    5  A    between atoms: C3_14  and  O3_15 
REMARK    6  A    between atoms: C3_14  and  N5_17 
REMARK    7  A    between atoms: N5_17  and  C4_19 
REMARK    8  A    between atoms: C4_19  and  O4_20 
REMARK    9  A    between atoms: C4_19  and  C5_22 
ROOT
HETATM    1  N4  UNL     1      27.498  17.809  44.582  1.00  0.00    -0.262 N 
ATOM      2  H4  UNL     1      27.844  16.857  44.702  1.00  0.00     0.190 HD
ENDROOT
BRANCH   1   3
HETATM    3  N3  UNL     1      26.933  18.505  45.692  1.00  0.00    -0.259 N 
HETATM    4  C2  UNL     1      26.867  17.854  46.929  1.00  0.00     0.329 C 
HETATM    5  O2  UNL     1      27.287  16.677  47.105  1.00  0.00    -0.261 OA
ATOM      6  H3  UNL     1      26.583  19.457  45.586  1.00  0.00     0.190 HD
BRANCH   4   7
HETATM    7  C1  UNL     1      26.286  18.570  48.077  1.00  0.00     0.329 C 
HETATM    8  N2  UNL     1      25.515  19.742  47.881  1.00  0.00    -0.268 N 
ATOM      9  H2  UNL     1      25.355  20.106  46.942  1.00  0.00     0.190 HD
HETATM   10  O1  UNL     1      26.462  18.157  49.250  1.00  0.00    -0.261 OA
BRANCH   8  11
HETATM   11  N1  UNL     1      24.983  20.390  48.991  1.00  0.00    -0.342 N 
ATOM     12  H12 UNL     1      24.199  21.032  48.871  1.00  0.00     0.176 HD
ATOM     13  H11 UNL     1      25.388  20.210  49.909  1.00  0.00     0.176 HD
ENDBRANCH   8  11
ENDBRANCH   4   7
ENDBRANCH   1   3
BRANCH   1  14
HETATM   14  C3  UNL     1      27.578  18.422  43.344  1.00  0.00     0.238 C 
BRANCH  14  15
HETATM   15  O3  UNL     1      26.413  18.594  42.766  1.00  0.00    -0.331 OA
ATOM     16  H3  UNL     1      25.745  18.935  43.350  1.00  0.00     0.221 HD
ENDBRANCH  14  15
BRANCH  14  17
HETATM   17  N5  UNL     1      28.678  18.868  42.642  1.00  0.00    -0.303 N 
ATOM     18  H5  UNL     1      29.198  19.572  43.166  1.00  0.00     0.171 HD
BRANCH  17  19
HETATM   19  C4  UNL     1      29.264  18.612  41.413  1.00  0.00     0.150 C 
BRANCH  19  20
HETATM   20  O4  UNL     1      30.490  18.135  41.431  1.00  0.00    -0.347 OA
ATOM     21  H4  UNL     1      30.585  17.207  41.607  1.00  0.00     0.219 HD
ENDBRANCH  19  20
BRANCH  19  22
HETATM   22  C5  UNL     1      28.703  18.800  40.082  1.00  0.00     0.219 A 
HETATM   23  C6  UNL     1      27.753  17.727  39.545  1.00  0.00     0.209 A 
HETATM   24  O5  UNL     1      29.061  17.846  39.112  1.00  0.00    -0.373 OA
ENDBRANCH  19  22
ENDBRANCH  17  19
ENDBRANCH  14  17
ENDBRANCH   1  14
TORSDOF 9
ENDMDL
MODEL 4
REMARK VINA RESULT: -6.043437785      1.862      2.098
REMARK  9 active torsions:
REMARK  status: ('A' for Active; 'I' for Inactive)
REMARK    1  A    between atoms: N1_1  and  N2_4 
REMARK       I    between atoms: N2_4  and  C1_6 
REMARK    2  A    between atoms: C1_6  and  C2_8 
REMARK       I    between atoms: C2_8  and  N3_10 
REMARK    3  A    between atoms: N3_10  and  N4_12 
REMARK    4  A    between atoms: N4_12  and  C3_14 
REMARK    5  A    between atoms: C3_14  and  O3_15 
REMARK    6  A    between atoms: C3_14  and  N5_17 
REMARK    7  A    between atoms: N5_17  and  C4_19 
REMARK    8  A    between atoms: C4_19  and  O4_20 
REMARK    9  A    between atoms: C4_19  and  C5_22 
ROOT
HETATM    1  N4  UNL     1      25.993  19.706  47.684  1.00  0.00    -0.262 N 
ATOM      2  H4  UNL     1      26.270  20.619  47.323  1.00  0.00     0.190 HD
ENDROOT
BRANCH   1   3
HETATM    3  N3  UNL     1      26.969  18.677  47.842  1.00  0.00    -0.259 N 
HETATM    4  C2  UNL     1      27.128  17.741  46.816  1.00  0.00     0.329 C 
HETATM    5  O2  UNL     1      26.444  17.765  45.755  1.00  0.00    -0.261 OA
ATOM      6  H3  UNL     1      27.539  18.626  48.686  1.00  0.00     0.190 HD
BRANCH   4   7
HETATM    7  C1  UNL     1      28.136  16.678  46.974  1.00  0.00     0.329 C 
HETATM    8  N2  UNL     1      29.269  16.877  47.801  1.00  0.00    -0.268 N 
ATOM      9  H2  UNL     1      29.401  17.759  48.297  1.00  0.00     0.190 HD
HETATM   10  O1  UNL     1      28.012  15.578  46.380  1.00  0.00    -0.261 OA
BRANCH   8  11
HETATM   11  N1  UNL     1      30.199  15.850  47.926  1.00  0.00    -0.342 N 
ATOM     12  H12 UNL     1      30.250  15.127  47.209  1.00  0.00     0.176 HD
ATOM     13  H11 UNL     1      30.816  15.840  48.737  1.00  0.00     0.176 HD
ENDBRANCH   8  11
ENDBRANCH   4   7
ENDBRANCH   1   3
BRANCH   1  14
HETATM   14  C3  UNL     1      24.671  19.468  48.019  1.00  0.00     0.238 C 
BRANCH  14  15
HETATM   15  O3  UNL     1      24.302  20.039  49.142  1.00  0.00    -0.331 OA
ATOM     16  H3  UNL     1      23.549  20.611  49.050  1.00  0.00     0.221 HD
ENDBRANCH  14  15
BRANCH  14  17
HETATM   17  N5  UNL     1      23.705  18.736  47.362  1.00  0.00    -0.303 N 
ATOM     18  H5  UNL     1      23.329  17.994  47.953  1.00  0.00     0.171 HD
BRANCH  17  19
HETATM   19  C4  UNL     1      23.111  18.740  46.111  1.00  0.00     0.150 C 
BRANCH  19  20
HETATM   20  O4  UNL     1      21.975  18.087  45.994  1.00  0.00    -0.347 OA
ATOM     21  H4  UNL     1      21.757  17.761  45.128  1.00  0.00     0.219 HD
ENDBRANCH  19  20
BRANCH  19  22
HETATM   22  C5  UNL     1      23.575  19.378  44.887  1.00  0.00     0.219 A 
HETATM   23  C6  UNL     1      23.470  20.902  44.786  1.00  0.00     0.209 A 
HETATM   24  O5  UNL     1      22.602  20.051  44.124  1.00  0.00    -0.373 OA
ENDBRANCH  19  22
ENDBRANCH  17  19
ENDBRANCH  14  17
ENDBRANCH   1  14
TORSDOF 9
ENDMDL
MODEL 5
REMARK VINA RESULT: -5.998263514      2.277      3.038
REMARK  9 active torsions:
REMARK  status: ('A' for Active; 'I' for Inactive)
REMARK    1  A    between atoms: N1_1  and  N2_4 
REMARK       I    between atoms: N2_4  and  C1_6 
REMARK    2  A    between atoms: C1_6  and  C2_8 
REMARK       I    between atoms: C2_8  and  N3_10 
REMARK    3  A    between atoms: N3_10  and  N4_12 
REMARK    4  A    between atoms: N4_12  and  C3_14 
REMARK    5  A    between atoms: C3_14  and  O3_15 
REMARK    6  A    between atoms: C3_14  and  N5_17 
REMARK    7  A    between atoms: N5_17  and  C4_19 
REMARK    8  A    between atoms: C4_19  and  O4_20 
REMARK    9  A    between atoms: C4_19  and  C5_22 
ROOT
HETATM    1  N4  UNL     1      23.532  18.606  47.066  1.00  0.00    -0.262 N 
ATOM      2  H4  UNL     1      22.997  18.671  47.932  1.00  0.00     0.190 HD
ENDROOT
BRANCH   1   3
HETATM    3  N3  UNL     1      24.955  18.702  47.100  1.00  0.00    -0.259 N 
HETATM    4  C2  UNL     1      25.697  17.558  47.415  1.00  0.00     0.329 C 
HETATM    5  O2  UNL     1      25.161  16.445  47.671  1.00  0.00    -0.261 OA
ATOM      6  H3  UNL     1      25.423  19.586  46.900  1.00  0.00     0.190 HD
BRANCH   4   7
HETATM    7  C1  UNL     1      27.167  17.652  47.450  1.00  0.00     0.329 C 
HETATM    8  N2  UNL     1      27.803  18.875  47.775  1.00  0.00    -0.268 N 
ATOM      9  H2  UNL     1      27.251  19.707  47.989  1.00  0.00     0.190 HD
HETATM   10  O1  UNL     1      27.883  16.653  47.193  1.00  0.00    -0.261 OA
BRANCH   8  11
HETATM   11  N1  UNL     1      29.193  18.925  47.799  1.00  0.00    -0.342 N 
ATOM     12  H12 UNL     1      29.686  19.525  47.138  1.00  0.00     0.176 HD
ATOM     13  H11 UNL     1      29.695  18.357  48.480  1.00  0.00     0.176 HD
ENDBRANCH   8  11
ENDBRANCH   4   7
ENDBRANCH   1   3
BRANCH   1  14
HETATM   14  C3  UNL     1      22.876  18.426  45.861  1.00  0.00     0.238 C 
BRANCH  14  15
HETATM   15  O3  UNL     1      21.789  17.696  45.958  1.00  0.00    -0.331 OA
ATOM     16  H3  UNL     1      21.958  16.761  45.962  1.00  0.00     0.221 HD
ENDBRANCH  14  15
BRANCH  14  17
HETATM   17  N5  UNL     1      23.188  18.888  44.600  1.00  0.00    -0.303 N 
ATOM     18  H5  UNL     1      23.360  18.121  43.950  1.00  0.00     0.171 HD
BRANCH  17  19
HETATM   19  C4  UNL     1      23.332  20.120  43.983  1.00  0.00     0.150 C 
BRANCH  19  20
HETATM   20  O4  UNL     1      22.400  20.460  43.118  1.00  0.00    -0.347 OA
ATOM     21  H4  UNL     1      21.802  19.775  42.844  1.00  0.00     0.219 HD
ENDBRANCH  19  20
BRANCH  19  22
HETATM   22  C5  UNL     1      24.387  21.108  44.160  1.00  0.00     0.219 A 
HETATM   23  C6  UNL     1      25.839  20.631  44.075  1.00  0.00     0.209 A 
HETATM   24  O5  UNL     1      25.226  20.933  45.278  1.00  0.00    -0.373 OA
ENDBRANCH  19  22
ENDBRANCH  17  19
ENDBRANCH  14  17
ENDBRANCH   1  14
TORSDOF 9
ENDMDL
