MODEL 1
REMARK VINA RESULT: -7.293871291      0.000      0.000
REMARK  3 active torsions:
REMARK  status: ('A' for Active; 'I' for Inactive)
REMARK       I    between atoms: C1_4  and  N3_6 
REMARK       I    between atoms: N3_6  and  C2_8 
REMARK    1  A    between atoms: C2_8  and  C3_10 
REMARK    2  A    between atoms: C4_18  and  N6_19 
REMARK    3  A    between atoms: N6_19  and  N7_21 
ROOT
HETATM    1  C3  UNL     1      26.067  18.699  46.557  1.00  0.00     0.158 A 
HETATM    2  N4  UNL     1      26.117  19.295  45.404  1.00  0.00    -0.259 N 
ATOM      3  H4  UNL     1      26.962  19.431  44.850  1.00  0.00     0.180 HD
HETATM    4  S1  UNL     1      24.554  19.818  44.954  1.00  0.00     0.325 S 
HETATM    5  O2  UNL     1      24.065  19.182  43.694  1.00  0.00    -0.182 OA
HETATM    6  O3  UNL     1      24.432  21.311  44.927  1.00  0.00    -0.182 OA
HETATM    7  N5  UNL     1      23.727  19.239  46.345  1.00  0.00    -0.249 N 
ATOM      8  H5  UNL     1      22.731  19.310  46.557  1.00  0.00     0.182 HD
HETATM    9  C4  UNL     1      24.746  18.638  47.134  1.00  0.00     0.164 A 
ENDROOT
BRANCH   1  10
HETATM   10  C2  UNL     1      27.311  18.150  47.165  1.00  0.00     0.279 C 
HETATM   11  N3  UNL     1      28.429  18.886  47.507  1.00  0.00    -0.296 N 
HETATM   12  C1  UNL     1      29.571  18.229  48.090  1.00  0.00     0.188 C 
ATOM     13  H3  UNL     1      28.447  19.893  47.347  1.00  0.00     0.171 HD
HETATM   14  N1  UNL     1      30.628  18.872  48.423  1.00  0.00    -0.373 N 
HETATM   15  N2  UNL     1      29.572  16.827  48.323  1.00  0.00    -0.064 NA
ATOM     16  H12 UNL     1      31.437  18.407  48.836  1.00  0.00     0.158 HD
ATOM     17  H11 UNL     1      30.627  19.878  48.256  1.00  0.00     0.158 HD
HETATM   18  O1  UNL     1      27.333  16.885  47.383  1.00  0.00    -0.265 OA
ENDBRANCH   1  10
BRANCH   9  19
HETATM   19  N6  UNL     1      24.437  18.081  48.303  1.00  0.00    -0.289 N 
ATOM     20  H6  UNL     1      24.023  18.662  49.032  1.00  0.00     0.188 HD
BRANCH  19  21
HETATM   21  N7  UNL     1      24.659  16.737  48.562  1.00  0.00    -0.344 N 
ATOM     22  H72 UNL     1      24.118  16.053  48.034  1.00  0.00     0.176 HD
ATOM     23  H71 UNL     1      25.339  16.424  49.255  1.00  0.00     0.176 HD
ENDBRANCH  19  21
ENDBRANCH   9  19
TORSDOF 3
ENDMDL
MODEL 2
REMARK VINA RESULT: -6.835318297      1.529      1.881
REMARK  3 active torsions:
REMARK  status: ('A' for Active; 'I' for Inactive)
REMARK       I    between atoms: C1_4  and  N3_6 
REMARK       I    between atoms: N3_6  and  C2_8 
REMARK    1  A    between atoms: C2_8  and  C3_10 
REMARK    2  A    between atoms: C4_18  and  N6_19 
REMARK    3  A    between atoms: N6_19  and  N7_21 
ROOT
HETATM    1  C3  UNL     1      25.882  18.588  46.618  1.00  0.00     0.158 A 
HETATM    2  N4  UNL     1      25.183  17.885  45.778  1.00  0.00    -0.259 N 
ATOM      3  H4  UNL     1      25.432  16.955  45.442  1.00  0.00     0.180 HD
HETATM    4  S1  UNL     1      23.785  18.752  45.320  1.00  0.00     0.325 S 
HETATM    5  O2  UNL     1      22.517  18.061  45.704  1.00  0.00    -0.182 OA
HETATM    6  O3  UNL     1      23.804  19.155  43.876  1.00  0.00    -0.182 OA
HETATM    7  N5  UNL     1      24.082  20.154  46.270  1.00  0.00    -0.249 N 
ATOM      8  H5  UNL     1      23.508  20.994  46.343  1.00  0.00     0.182 HD
HETATM    9  C4  UNL     1      25.310  19.875  46.931  1.00  0.00     0.164 A 
ENDROOT
BRANCH   1  10
HETATM   10  C2  UNL     1      27.155  18.042  47.166  1.00  0.00     0.279 C 
HETATM   11  N3  UNL     1      28.267  18.788  47.508  1.00  0.00    -0.296 N 
HETATM   12  C1  UNL     1      29.439  18.132  48.030  1.00  0.00     0.188 C 
ATOM     13  H3  UNL     1      28.258  19.801  47.391  1.00  0.00     0.171 HD
HETATM   14  N1  UNL     1      30.491  18.784  48.361  1.00  0.00    -0.373 N 
HETATM   15  N2  UNL     1      29.476  16.722  48.201  1.00  0.00    -0.064 NA
ATOM     16  H12 UNL     1      31.321  18.321  48.730  1.00  0.00     0.158 HD
ATOM     17  H11 UNL     1      30.464  19.796  48.237  1.00  0.00     0.158 HD
HETATM   18  O1  UNL     1      27.210  16.770  47.328  1.00  0.00    -0.265 OA
ENDBRANCH   1  10
BRANCH   9  19
HETATM   19  N6  UNL     1      25.834  20.774  47.760  1.00  0.00    -0.289 N 
ATOM     20  H6  UNL     1      26.816  21.028  47.656  1.00  0.00     0.188 HD
BRANCH  19  21
HETATM   21  N7  UNL     1      25.088  21.378  48.762  1.00  0.00    -0.344 N 
ATOM     22  H72 UNL     1      24.074  21.398  48.655  1.00  0.00     0.176 HD
ATOM     23  H71 UNL     1      25.522  21.792  49.586  1.00  0.00     0.176 HD
ENDBRANCH  19  21
ENDBRANCH   9  19
TORSDOF 3
ENDMDL
MODEL 3
REMARK VINA RESULT: -6.431343142      3.054      4.791
REMARK  3 active torsions:
REMARK  status: ('A' for Active; 'I' for Inactive)
REMARK       I    between atoms: C1_4  and  N3_6 
REMARK       I    between atoms: N3_6  and  C2_8 
REMARK    1  A    between atoms: C2_8  and  C3_10 
REMARK    2  A    between atoms: C4_18  and  N6_19 
REMARK    3  A    between atoms: N6_19  and  N7_21 
ROOT
HETATM    1  C3  UNL     1      25.982  18.278  44.977  1.00  0.00     0.158 A 
HETATM    2  N4  UNL     1      26.740  18.124  46.021  1.00  0.00    -0.259 N 
ATOM      3  H4  UNL     1      27.758  18.185  46.022  1.00  0.00     0.180 HD
HETATM    4  S1  UNL     1      25.776  17.801  47.394  1.00  0.00     0.325 S 
HETATM    5  O2  UNL     1      25.908  18.841  48.458  1.00  0.00    -0.182 OA
HETATM    6  O3  UNL     1      25.973  16.412  47.923  1.00  0.00    -0.182 OA
HETATM    7  N5  UNL     1      24.251  17.861  46.603  1.00  0.00    -0.249 N 
ATOM      8  H5  UNL     1      23.327  17.726  47.013  1.00  0.00     0.182 HD
HETATM    9  C4  UNL     1      24.571  18.141  45.246  1.00  0.00     0.164 A 
ENDROOT
BRANCH   1  10
HETATM   10  C2  UNL     1      26.593  18.571  43.651  1.00  0.00     0.279 C 
HETATM   11  N3  UNL     1      27.865  18.204  43.254  1.00  0.00    -0.296 N 
HETATM   12  C1  UNL     1      28.336  18.552  41.938  1.00  0.00     0.188 C 
ATOM     13  H3  UNL     1      28.469  17.687  43.893  1.00  0.00     0.171 HD
HETATM   14  N1  UNL     1      29.506  18.231  41.529  1.00  0.00    -0.373 N 
HETATM   15  N2  UNL     1      27.513  19.273  41.031  1.00  0.00    -0.064 NA
ATOM     16  H12 UNL     1      29.840  18.478  40.597  1.00  0.00     0.158 HD
ATOM     17  H11 UNL     1      30.097  17.714  42.180  1.00  0.00     0.158 HD
HETATM   18  O1  UNL     1      25.867  19.223  42.817  1.00  0.00    -0.265 OA
ENDBRANCH   1  10
BRANCH   9  19
HETATM   19  N6  UNL     1      23.597  18.255  44.346  1.00  0.00    -0.289 N 
ATOM     20  H6  UNL     1      23.186  17.408  43.955  1.00  0.00     0.188 HD
BRANCH  19  21
HETATM   21  N7  UNL     1      23.123  19.488  43.924  1.00  0.00    -0.344 N 
ATOM     22  H72 UNL     1      22.373  19.920  44.463  1.00  0.00     0.176 HD
ATOM     23  H71 UNL     1      23.500  19.962  43.104  1.00  0.00     0.176 HD
ENDBRANCH  19  21
ENDBRANCH   9  19
TORSDOF 3
ENDMDL
MODEL 4
REMARK VINA RESULT: -6.409403533      1.446      2.691
REMARK  3 active torsions:
REMARK  status: ('A' for Active; 'I' for Inactive)
REMARK       I    between atoms: C1_4  and  N3_6 
REMARK       I    between atoms: N3_6  and  C2_8 
REMARK    1  A    between atoms: C2_8  and  C3_10 
REMARK    2  A    between atoms: C4_18  and  N6_19 
REMARK    3  A    between atoms: N6_19  and  N7_21 
ROOT
HETATM    1  C3  UNL     1      26.471  18.445  46.143  1.00  0.00     0.158 A 
HETATM    2  N4  UNL     1      25.426  18.972  46.708  1.00  0.00    -0.259 N 
ATOM      3  H4  UNL     1      25.307  19.108  47.712  1.00  0.00     0.180 HD
HETATM    4  S1  UNL     1      24.279  19.401  45.517  1.00  0.00     0.325 S 
HETATM    5  O2  UNL     1      23.994  20.867  45.482  1.00  0.00    -0.182 OA
HETATM    6  O3  UNL     1      23.030  18.576  45.596  1.00  0.00    -0.182 OA
HETATM    7  N5  UNL     1      25.182  18.875  44.152  1.00  0.00    -0.249 N 
ATOM      8  H5  UNL     1      24.913  18.919  43.169  1.00  0.00     0.182 HD
HETATM    9  C4  UNL     1      26.389  18.366  44.705  1.00  0.00     0.164 A 
ENDROOT
BRANCH   1  10
HETATM   10  C2  UNL     1      27.617  17.988  46.978  1.00  0.00     0.279 C 
HETATM   11  N3  UNL     1      28.579  18.807  47.539  1.00  0.00    -0.296 N 
HETATM   12  C1  UNL     1      29.639  18.234  48.328  1.00  0.00     0.188 C 
ATOM     13  H3  UNL     1      28.538  19.816  47.394  1.00  0.00     0.171 HD
HETATM   14  N1  UNL     1      30.550  18.955  48.867  1.00  0.00    -0.373 N 
HETATM   15  N2  UNL     1      29.717  16.832  48.544  1.00  0.00    -0.064 NA
ATOM     16  H12 UNL     1      31.301  18.549  49.426  1.00  0.00     0.158 HD
ATOM     17  H11 UNL     1      30.494  19.961  48.712  1.00  0.00     0.158 HD
HETATM   18  O1  UNL     1      27.707  16.724  47.185  1.00  0.00    -0.265 OA
ENDBRANCH   1  10
BRANCH   9  19
HETATM   19  N6  UNL     1      27.327  17.869  43.902  1.00  0.00    -0.289 N 
ATOM     20  H6  UNL     1      27.417  16.857  43.816  1.00  0.00     0.188 HD
BRANCH  19  21
HETATM   21  N7  UNL     1      28.186  18.683  43.179  1.00  0.00    -0.344 N 
ATOM     22  H72 UNL     1      28.758  19.351  43.695  1.00  0.00     0.176 HD
ATOM     23  H71 UNL     1      28.256  18.630  42.163  1.00  0.00     0.176 HD
ENDBRANCH  19  21
ENDBRANCH   9  19
TORSDOF 3
ENDMDL
MODEL 5
REMARK VINA RESULT: -6.230044302      2.755      5.239
REMARK  3 active torsions:
REMARK  status: ('A' for Active; 'I' for Inactive)
REMARK       I    between atoms: C1_4  and  N3_6 
REMARK       I    between atoms: N3_6  and  C2_8 
REMARK    1  A    between atoms: C2_8  and  C3_10 
REMARK    2  A    between atoms: C4_18  and  N6_19 
REMARK    3  A    between atoms: N6_19  and  N7_21 
ROOT
HETATM    1  C3  UNL     1      25.592  18.386  46.030  1.00  0.00     0.158 A 
HETATM    2  N4  UNL     1      26.631  17.764  45.560  1.00  0.00    -0.259 N 
ATOM      3  H4  UNL     1      27.126  18.014  44.704  1.00  0.00     0.180 HD
HETATM    4  S1  UNL     1      27.044  16.466  46.590  1.00  0.00     0.325 S 
HETATM    5  O2  UNL     1      28.406  16.604  47.187  1.00  0.00    -0.182 OA
HETATM    6  O3  UNL     1      26.834  15.130  45.945  1.00  0.00    -0.182 OA
HETATM    7  N5  UNL     1      25.794  16.705  47.746  1.00  0.00    -0.249 N 
ATOM      8  H5  UNL     1      25.609  16.161  48.589  1.00  0.00     0.182 HD
HETATM    9  C4  UNL     1      25.078  17.833  47.260  1.00  0.00     0.164 A 
ENDROOT
BRANCH   1  10
HETATM   10  C2  UNL     1      25.037  19.563  45.304  1.00  0.00     0.279 C 
HETATM   11  N3  UNL     1      24.602  19.565  43.993  1.00  0.00    -0.296 N 
HETATM   12  C1  UNL     1      24.086  20.777  43.409  1.00  0.00     0.188 C 
ATOM     13  H3  UNL     1      24.646  18.710  43.439  1.00  0.00     0.171 HD
HETATM   14  N1  UNL     1      23.671  20.824  42.198  1.00  0.00    -0.373 N 
HETATM   15  N2  UNL     1      24.015  21.981  44.160  1.00  0.00    -0.064 NA
ATOM     16  H12 UNL     1      23.305  21.681  41.784  1.00  0.00     0.158 HD
ATOM     17  H11 UNL     1      23.722  19.959  41.659  1.00  0.00     0.158 HD
HETATM   18  O1  UNL     1      24.965  20.662  45.964  1.00  0.00    -0.265 OA
ENDBRANCH   1  10
BRANCH   9  19
HETATM   19  N6  UNL     1      24.026  18.290  47.934  1.00  0.00    -0.289 N 
ATOM     20  H6  UNL     1      23.144  17.783  47.875  1.00  0.00     0.188 HD
BRANCH  19  21
HETATM   21  N7  UNL     1      24.091  19.434  48.716  1.00  0.00    -0.344 N 
ATOM     22  H72 UNL     1      24.953  19.611  49.232  1.00  0.00     0.176 HD
ATOM     23  H71 UNL     1      23.312  20.088  48.785  1.00  0.00     0.176 HD
ENDBRANCH  19  21
ENDBRANCH   9  19
TORSDOF 3
ENDMDL
