MODEL 1
REMARK VINA RESULT: -3.888710734      0.000      0.000
REMARK  1 active torsions:
REMARK  status: ('A' for Active; 'I' for Inactive)
REMARK    1  A    between atoms: O1_2  and  C2_3 
ROOT
HETATM    1  C2  UNL     1      -0.355  10.716   2.519  1.00  0.00     0.131 C 
HETATM    2  C3  UNL     1      -1.317  10.425   1.420  1.00  0.00     0.034 C 
HETATM    3  C4  UNL     1      -2.029   9.462   2.356  1.00  0.00     0.017 C 
HETATM    4  C5  UNL     1      -0.735   9.339   3.081  1.00  0.00     0.016 C 
HETATM    5  C6  UNL     1       0.182   8.227   2.649  1.00  0.00     0.047 C 
HETATM    6  C7  UNL     1       0.555   7.595   3.980  1.00  0.00     0.187 C 
HETATM    7  C8  UNL     1      -0.604   6.884   4.604  1.00  0.00     0.035 C 
HETATM    8  C9  UNL     1      -1.555   8.031   4.979  1.00  0.00     0.036 C 
HETATM    9  C10 UNL     1      -0.773   9.254   4.566  1.00  0.00     0.197 C 
HETATM   10  N1  UNL     1       0.605   8.799   4.834  1.00  0.00    -0.066 N 
ATOM     11  H11 UNL     1       1.358   9.464   4.658  1.00  0.00     0.278 HD
ATOM     12  H12 UNL     1       0.872   8.668   5.809  1.00  0.00     0.278 HD
ENDROOT
BRANCH   1  13
HETATM   13  O1  UNL     1      -0.646  11.647   3.449  1.00  0.00    -0.390 OA
HETATM   14  C1  UNL     1       0.233  12.676   3.628  1.00  0.00     0.202 C 
ENDBRANCH   1  13
TORSDOF 1
ENDMDL
MODEL 2
REMARK VINA RESULT: -3.431861566     10.102     12.075
REMARK  1 active torsions:
REMARK  status: ('A' for Active; 'I' for Inactive)
REMARK    1  A    between atoms: O1_2  and  C2_3 
ROOT
HETATM    1  C2  UNL     1       2.142  14.225  -4.789  1.00  0.00     0.131 C 
HETATM    2  C3  UNL     1       2.208  15.215  -3.679  1.00  0.00     0.034 C 
HETATM    3  C4  UNL     1       1.439  16.188  -4.559  1.00  0.00     0.017 C 
HETATM    4  C5  UNL     1       1.977  15.432  -5.723  1.00  0.00     0.016 C 
HETATM    5  C6  UNL     1       3.268  15.928  -6.318  1.00  0.00     0.047 C 
HETATM    6  C7  UNL     1       2.937  15.959  -7.800  1.00  0.00     0.187 C 
HETATM    7  C8  UNL     1       1.951  17.036  -8.130  1.00  0.00     0.035 C 
HETATM    8  C9  UNL     1       0.659  16.542  -7.461  1.00  0.00     0.036 C 
HETATM    9  C10 UNL     1       1.075  15.210  -6.886  1.00  0.00     0.197 C 
HETATM   10  N1  UNL     1       2.060  14.774  -7.895  1.00  0.00    -0.066 N 
ATOM     11  H11 UNL     1       2.495  13.862  -7.759  1.00  0.00     0.278 HD
ATOM     12  H12 UNL     1       1.704  14.530  -8.819  1.00  0.00     0.278 HD
ENDROOT
BRANCH   1  13
HETATM   13  O1  UNL     1       1.062  13.431  -4.930  1.00  0.00    -0.390 OA
HETATM   14  C1  UNL     1       1.257  12.081  -4.981  1.00  0.00     0.202 C 
ENDBRANCH   1  13
TORSDOF 1
ENDMDL
MODEL 3
REMARK VINA RESULT: -3.340061842      7.219      9.261
REMARK  1 active torsions:
REMARK  status: ('A' for Active; 'I' for Inactive)
REMARK    1  A    between atoms: O1_2  and  C2_3 
ROOT
HETATM    1  C2  UNL     1       0.805  13.274  -3.874  1.00  0.00     0.131 C 
HETATM    2  C3  UNL     1       1.719  12.983  -5.013  1.00  0.00     0.034 C 
HETATM    3  C4  UNL     1       2.849  13.604  -4.209  1.00  0.00     0.017 C 
HETATM    4  C5  UNL     1       1.802  14.375  -3.486  1.00  0.00     0.016 C 
HETATM    5  C6  UNL     1       1.457  15.734  -4.036  1.00  0.00     0.047 C 
HETATM    6  C7  UNL     1       1.500  16.596  -2.785  1.00  0.00     0.187 C 
HETATM    7  C8  UNL     1       2.894  16.759  -2.267  1.00  0.00     0.035 C 
HETATM    8  C9  UNL     1       3.248  15.350  -1.770  1.00  0.00     0.036 C 
HETATM    9  C10 UNL     1       1.974  14.583  -2.023  1.00  0.00     0.197 C 
HETATM   10  N1  UNL     1       0.970  15.640  -1.793  1.00  0.00    -0.066 N 
ATOM     11  H11 UNL     1      -0.012  15.377  -1.877  1.00  0.00     0.278 HD
ATOM     12  H12 UNL     1       0.857  15.975  -0.836  1.00  0.00     0.278 HD
ENDROOT
BRANCH   1  13
HETATM   13  O1  UNL     1       0.707  12.411  -2.842  1.00  0.00    -0.390 OA
HETATM   14  C1  UNL     1      -0.388  11.599  -2.785  1.00  0.00     0.202 C 
ENDBRANCH   1  13
TORSDOF 1
ENDMDL
MODEL 4
REMARK VINA RESULT: -3.270415479      8.992     10.836
REMARK  1 active torsions:
REMARK  status: ('A' for Active; 'I' for Inactive)
REMARK    1  A    between atoms: O1_2  and  C2_3 
ROOT
HETATM    1  C2  UNL     1       2.263  15.019  -3.371  1.00  0.00     0.131 C 
HETATM    2  C3  UNL     1       1.882  16.447  -3.196  1.00  0.00     0.034 C 
HETATM    3  C4  UNL     1       1.088  16.350  -4.489  1.00  0.00     0.017 C 
HETATM    4  C5  UNL     1       1.999  15.236  -4.868  1.00  0.00     0.016 C 
HETATM    5  C6  UNL     1       3.226  15.602  -5.660  1.00  0.00     0.047 C 
HETATM    6  C7  UNL     1       3.186  14.584  -6.787  1.00  0.00     0.187 C 
HETATM    7  C8  UNL     1       2.056  14.844  -7.733  1.00  0.00     0.035 C 
HETATM    8  C9  UNL     1       0.814  14.526  -6.887  1.00  0.00     0.036 C 
HETATM    9  C10 UNL     1       1.414  14.069  -5.581  1.00  0.00     0.197 C 
HETATM   10  N1  UNL     1       2.647  13.416  -6.062  1.00  0.00    -0.066 N 
ATOM     11  H11 UNL     1       3.249  12.983  -5.362  1.00  0.00     0.278 HD
ATOM     12  H12 UNL     1       2.541  12.549  -6.589  1.00  0.00     0.278 HD
ENDROOT
BRANCH   1  13
HETATM   13  O1  UNL     1       1.447  14.038  -2.937  1.00  0.00    -0.390 OA
HETATM   14  C1  UNL     1       1.089  14.034  -1.620  1.00  0.00     0.202 C 
ENDBRANCH   1  13
TORSDOF 1
ENDMDL
MODEL 5
REMARK VINA RESULT: -3.179424165      2.154      4.166
REMARK  1 active torsions:
REMARK  status: ('A' for Active; 'I' for Inactive)
REMARK    1  A    between atoms: O1_2  and  C2_3 
ROOT
HETATM    1  C2  UNL     1      -0.612   6.704   4.459  1.00  0.00     0.131 C 
HETATM    2  C3  UNL     1      -1.543   6.831   5.614  1.00  0.00     0.034 C 
HETATM    3  C4  UNL     1      -2.339   7.844   4.808  1.00  0.00     0.017 C 
HETATM    4  C5  UNL     1      -1.082   8.109   4.056  1.00  0.00     0.016 C 
HETATM    5  C6  UNL     1      -0.205   9.219   4.568  1.00  0.00     0.047 C 
HETATM    6  C7  UNL     1       0.083  10.002   3.298  1.00  0.00     0.187 C 
HETATM    7  C8  UNL     1      -1.134  10.709   2.790  1.00  0.00     0.035 C 
HETATM    8  C9  UNL     1      -2.040   9.557   2.332  1.00  0.00     0.036 C 
HETATM    9  C10 UNL     1      -1.183   8.342   2.589  1.00  0.00     0.197 C 
HETATM   10  N1  UNL     1       0.159   8.895   2.323  1.00  0.00    -0.066 N 
ATOM     11  H11 UNL     1       0.950   8.257   2.403  1.00  0.00     0.278 HD
ATOM     12  H12 UNL     1       0.380   9.138   1.358  1.00  0.00     0.278 HD
ENDROOT
BRANCH   1  13
HETATM   13  O1  UNL     1      -0.893   5.858   3.448  1.00  0.00    -0.390 OA
HETATM   14  C1  UNL     1      -0.068   4.788   3.256  1.00  0.00     0.202 C 
ENDBRANCH   1  13
TORSDOF 1
ENDMDL
