MODEL 1
REMARK VINA RESULT: -4.135541165      0.000      0.000
REMARK  3 active torsions:
REMARK  status: ('A' for Active; 'I' for Inactive)
REMARK    1  A    between atoms: S1_2  and  C2_3 
REMARK    2  A    between atoms: C2_3  and  N1_5 
REMARK    3  A    between atoms: C6_8  and  O1_9 
ROOT
HETATM    1  N1  UNL     1      -0.300  11.922   1.142  1.00  0.00    -0.379 N 
HETATM    2  C4  UNL     1      -1.219  10.821   1.282  1.00  0.00     0.125 C 
HETATM    3  C5  UNL     1      -0.751   9.808   2.303  1.00  0.00     0.051 C 
HETATM    4  C6  UNL     1      -0.516  10.434   3.652  1.00  0.00     0.121 C 
HETATM    5  C7  UNL     1      -0.319  11.911   3.589  1.00  0.00     0.051 C 
HETATM    6  C8  UNL     1       0.415  12.351   2.328  1.00  0.00     0.125 C 
ENDROOT
BRANCH   1   7
HETATM    7  C2  UNL     1      -0.107  12.560  -0.116  1.00  0.00     0.040 C 
HETATM    8  C3  UNL     1      -0.635  11.920  -1.341  1.00  0.00     0.076 C 
BRANCH   7   9
HETATM    9  S1  UNL     1       0.680  13.972  -0.236  1.00  0.00    -0.122 SA
HETATM   10  C1  UNL     1       1.374  14.458  -1.851  1.00  0.00     0.097 C 
ENDBRANCH   7   9
ENDBRANCH   1   7
BRANCH   4  11
HETATM   11  O1  UNL     1       0.523   9.820   4.350  1.00  0.00    -0.395 OA
ATOM     12  H1  UNL     1       0.972  10.419   4.934  1.00  0.00     0.210 HD
ENDBRANCH   4  11
TORSDOF 3
ENDMDL
MODEL 2
REMARK VINA RESULT: -3.962379481      1.423      2.189
REMARK  3 active torsions:
REMARK  status: ('A' for Active; 'I' for Inactive)
REMARK    1  A    between atoms: S1_2  and  C2_3 
REMARK    2  A    between atoms: C2_3  and  N1_5 
REMARK    3  A    between atoms: C6_8  and  O1_9 
ROOT
HETATM    1  N1  UNL     1       0.324  12.774   0.708  1.00  0.00    -0.379 N 
HETATM    2  C4  UNL     1       1.219  13.525   1.551  1.00  0.00     0.125 C 
HETATM    3  C5  UNL     1       0.681  13.693   2.954  1.00  0.00     0.051 C 
HETATM    4  C6  UNL     1       0.376  12.369   3.605  1.00  0.00     0.121 C 
HETATM    5  C7  UNL     1       0.202  11.259   2.624  1.00  0.00     0.051 C 
HETATM    6  C8  UNL     1      -0.453  11.719   1.327  1.00  0.00     0.125 C 
ENDROOT
BRANCH   1   7
HETATM    7  C2  UNL     1       0.212  13.064  -0.682  1.00  0.00     0.040 C 
HETATM    8  C3  UNL     1      -0.620  12.191  -1.539  1.00  0.00     0.076 C 
BRANCH   7   9
HETATM    9  S1  UNL     1       0.976  14.329  -1.347  1.00  0.00    -0.122 SA
HETATM   10  C1  UNL     1       1.666  14.157  -3.026  1.00  0.00     0.097 C 
ENDBRANCH   7   9
ENDBRANCH   1   7
BRANCH   4  11
HETATM   11  O1  UNL     1      -0.709  12.442   4.477  1.00  0.00    -0.395 OA
ATOM     12  H1  UNL     1      -0.520  12.056   5.324  1.00  0.00     0.210 HD
ENDBRANCH   4  11
TORSDOF 3
ENDMDL
MODEL 3
REMARK VINA RESULT: -3.918341420      1.162      1.847
REMARK  3 active torsions:
REMARK  status: ('A' for Active; 'I' for Inactive)
REMARK    1  A    between atoms: S1_2  and  C2_3 
REMARK    2  A    between atoms: C2_3  and  N1_5 
REMARK    3  A    between atoms: C6_8  and  O1_9 
ROOT
HETATM    1  N1  UNL     1      -0.335  11.857   1.108  1.00  0.00    -0.379 N 
HETATM    2  C4  UNL     1      -1.184  10.718   1.347  1.00  0.00     0.125 C 
HETATM    3  C5  UNL     1      -0.623   9.795   2.406  1.00  0.00     0.051 C 
HETATM    4  C6  UNL     1      -0.376  10.513   3.707  1.00  0.00     0.121 C 
HETATM    5  C7  UNL     1      -0.267  11.992   3.550  1.00  0.00     0.051 C 
HETATM    6  C8  UNL     1       0.396  12.396   2.238  1.00  0.00     0.125 C 
ENDROOT
BRANCH   1   7
HETATM    7  C2  UNL     1      -0.223  12.428  -0.191  1.00  0.00     0.040 C 
HETATM    8  C3  UNL     1       0.319  13.797  -0.337  1.00  0.00     0.076 C 
BRANCH   7   9
HETATM    9  S1  UNL     1      -0.679  11.612  -1.515  1.00  0.00    -0.122 SA
HETATM   10  C1  UNL     1      -2.446  11.589  -1.970  1.00  0.00     0.097 C 
ENDBRANCH   7   9
ENDBRANCH   1   7
BRANCH   4  11
HETATM   11  O1  UNL     1       0.721  10.000   4.398  1.00  0.00    -0.395 OA
ATOM     12  H1  UNL     1       1.360  10.669   4.612  1.00  0.00     0.210 HD
ENDBRANCH   4  11
TORSDOF 3
ENDMDL
MODEL 4
REMARK VINA RESULT: -3.826771630      1.681      2.611
REMARK  3 active torsions:
REMARK  status: ('A' for Active; 'I' for Inactive)
REMARK    1  A    between atoms: S1_2  and  C2_3 
REMARK    2  A    between atoms: C2_3  and  N1_5 
REMARK    3  A    between atoms: C6_8  and  O1_9 
ROOT
HETATM    1  N1  UNL     1       0.281  12.694   0.737  1.00  0.00    -0.379 N 
HETATM    2  C4  UNL     1       1.180  13.465   1.557  1.00  0.00     0.125 C 
HETATM    3  C5  UNL     1       0.654  13.658   2.962  1.00  0.00     0.051 C 
HETATM    4  C6  UNL     1       0.362  12.346   3.641  1.00  0.00     0.121 C 
HETATM    5  C7  UNL     1       0.185  11.215   2.684  1.00  0.00     0.051 C 
HETATM    6  C8  UNL     1      -0.484  11.647   1.384  1.00  0.00     0.125 C 
ENDROOT
BRANCH   1   7
HETATM    7  C2  UNL     1       0.154  12.956  -0.657  1.00  0.00     0.040 C 
HETATM    8  C3  UNL     1       0.749  14.188  -1.219  1.00  0.00     0.076 C 
BRANCH   7   9
HETATM    9  S1  UNL     1      -0.628  11.933  -1.642  1.00  0.00    -0.122 SA
HETATM   10  C1  UNL     1       0.028  11.653  -3.320  1.00  0.00     0.097 C 
ENDBRANCH   7   9
ENDBRANCH   1   7
BRANCH   4  11
HETATM   11  O1  UNL     1      -0.715  12.430   4.521  1.00  0.00    -0.395 OA
ATOM     12  H1  UNL     1      -1.358  11.746   4.375  1.00  0.00     0.210 HD
ENDBRANCH   4  11
TORSDOF 3
ENDMDL
MODEL 5
REMARK VINA RESULT: -3.534238480      4.423      6.151
REMARK  3 active torsions:
REMARK  status: ('A' for Active; 'I' for Inactive)
REMARK    1  A    between atoms: S1_2  and  C2_3 
REMARK    2  A    between atoms: C2_3  and  N1_5 
REMARK    3  A    between atoms: C6_8  and  O1_9 
ROOT
HETATM    1  N1  UNL     1       0.879  13.328  -2.343  1.00  0.00    -0.379 N 
HETATM    2  C4  UNL     1       1.521  13.631  -3.598  1.00  0.00     0.125 C 
HETATM    3  C5  UNL     1       1.675  15.119  -3.819  1.00  0.00     0.051 C 
HETATM    4  C6  UNL     1       2.434  15.781  -2.698  1.00  0.00     0.121 C 
HETATM    5  C7  UNL     1       2.442  14.979  -1.440  1.00  0.00     0.051 C 
HETATM    6  C8  UNL     1       1.142  14.212  -1.226  1.00  0.00     0.125 C 
ENDROOT
BRANCH   1   7
HETATM    7  C2  UNL     1       0.021  12.199  -2.214  1.00  0.00     0.040 C 
HETATM    8  C3  UNL     1      -0.671  11.959  -0.929  1.00  0.00     0.076 C 
BRANCH   7   9
HETATM    9  S1  UNL     1      -0.215  11.170  -3.444  1.00  0.00    -0.122 SA
HETATM   10  C1  UNL     1      -1.912  10.906  -4.058  1.00  0.00     0.097 C 
ENDBRANCH   7   9
ENDBRANCH   1   7
BRANCH   4  11
HETATM   11  O1  UNL     1       2.002  17.084  -2.459  1.00  0.00    -0.395 OA
ATOM     12  H1  UNL     1       2.599  17.734  -2.809  1.00  0.00     0.210 HD
ENDBRANCH   4  11
TORSDOF 3
ENDMDL
