MODEL 1
REMARK VINA RESULT: -9.146878050      0.000      0.000
REMARK  9 active torsions:
REMARK  status: ('A' for Active; 'I' for Inactive)
REMARK    1  A    between atoms: O1_2  and  C2_3 
REMARK    2  A    between atoms: C4_5  and  C5_6 
REMARK    3  A    between atoms: C10_11  and  N1_12 
REMARK    4  A    between atoms: C16_20  and  O2_21 
REMARK    5  A    between atoms: C21_26  and  O3_27 
REMARK    6  A    between atoms: C23_29  and  O4_30 
REMARK    7  A    between atoms: O4_30  and  C24_31 
REMARK    8  A    between atoms: N2_34  and  C27_35 
REMARK    9  A    between atoms: C31_39  and  O5_40 
ROOT
HETATM    1  C2  UNL     1     -28.623   1.528 -11.201  1.00  0.00     0.105 A 
HETATM    2  C3  UNL     1     -28.323   2.794 -11.694  1.00  0.00     0.052 A 
HETATM    3  C4  UNL     1     -27.613   2.957 -12.869  1.00  0.00    -0.020 A 
HETATM    4  C20 UNL     1     -27.225   1.823 -13.516  1.00  0.00     0.052 A 
HETATM    5  C21 UNL     1     -27.501   0.537 -13.065  1.00  0.00     0.105 A 
HETATM    6  C23 UNL     1     -28.213   0.389 -11.885  1.00  0.00     0.136 A 
ENDROOT
BRANCH   3   7
HETATM    7  C5  UNL     1     -27.314   4.307 -13.358  1.00  0.00    -0.025 A 
HETATM    8  C6  UNL     1     -26.113   4.897 -12.966  1.00  0.00     0.013 A 
HETATM    9  C7  UNL     1     -25.819   6.165 -13.418  1.00  0.00     0.013 A 
HETATM   10  C8  UNL     1     -26.696   6.866 -14.256  1.00  0.00    -0.021 A 
HETATM   11  C9  UNL     1     -26.352   8.141 -14.684  1.00  0.00     0.041 A 
HETATM   12  C18 UNL     1     -27.876   6.253 -14.625  1.00  0.00     0.008 A 
HETATM   13  C10 UNL     1     -27.222   8.822 -15.507  1.00  0.00     0.033 A 
HETATM   14  C15 UNL     1     -28.398   8.195 -15.868  1.00  0.00     0.066 A 
HETATM   15  C16 UNL     1     -28.757   6.932 -15.454  1.00  0.00     0.081 A 
HETATM   16  C19 UNL     1     -28.165   4.982 -14.169  1.00  0.00     0.027 A 
BRANCH  13  17
HETATM   17  N1  UNL     1     -26.917  10.124 -15.968  1.00  0.00    -0.375 N 
HETATM   18  C11 UNL     1     -25.619  10.712 -16.219  1.00  0.00     0.129 C 
HETATM   19  C12 UNL     1     -25.848  11.463 -17.511  1.00  0.00     0.100 C 
HETATM   20  C13 UNL     1     -27.218  12.065 -17.278  1.00  0.00     0.260 C 
HETATM   21  F1  UNL     1     -27.072  13.332 -16.746  1.00  0.00    -0.204 F 
HETATM   22  F2  UNL     1     -27.936  12.177 -18.456  1.00  0.00    -0.204 F 
HETATM   23  C14 UNL     1     -27.897  11.142 -16.284  1.00  0.00     0.202 C 
ENDBRANCH  13  17
BRANCH  15  24
HETATM   24  O2  UNL     1     -29.932   6.311 -15.816  1.00  0.00    -0.355 OA
HETATM   25  C17 UNL     1     -30.292   6.219 -17.175  1.00  0.00     0.210 C 
ENDBRANCH  15  24
ENDBRANCH   3   7
BRANCH   1  26
HETATM   26  O1  UNL     1     -29.329   1.408 -10.033  1.00  0.00    -0.353 OA
HETATM   27  C1  UNL     1     -28.748   1.629  -8.763  1.00  0.00     0.210 C 
ENDBRANCH   1  26
BRANCH   5  28
HETATM   28  O3  UNL     1     -27.059  -0.550 -13.803  1.00  0.00    -0.353 OA
HETATM   29  C22 UNL     1     -25.941  -0.417 -14.657  1.00  0.00     0.210 C 
ENDBRANCH   5  28
BRANCH   6  30
HETATM   30  O4  UNL     1     -28.485  -0.876 -11.440  1.00  0.00    -0.340 OA
BRANCH  30  31
HETATM   31  C24 UNL     1     -27.825  -1.610 -10.458  1.00  0.00     0.138 C 
HETATM   32  C25 UNL     1     -28.569  -1.537  -9.140  1.00  0.00     0.077 C 
HETATM   33  C26 UNL     1     -27.824  -2.327  -8.065  1.00  0.00     0.064 C 
HETATM   34  N2  UNL     1     -26.458  -1.989  -7.969  1.00  0.00    -0.363 N 
HETATM   35  C31 UNL     1     -25.758  -1.794  -9.174  1.00  0.00     0.222 C 
HETATM   36  C32 UNL     1     -26.478  -0.959 -10.197  1.00  0.00     0.086 C 
BRANCH  34  37
HETATM   37  C27 UNL     1     -26.016  -1.265  -6.850  1.00  0.00     0.086 C 
HETATM   38  C28 UNL     1     -26.667   0.021  -6.492  1.00  0.00     0.025 C 
HETATM   39  C29 UNL     1     -25.307   0.506  -6.020  1.00  0.00     0.004 C 
HETATM   40  C30 UNL     1     -24.705  -0.509  -6.972  1.00  0.00     0.025 C 
ENDBRANCH  34  37
BRANCH  35  41
HETATM   41  O5  UNL     1     -25.337  -2.997  -9.755  1.00  0.00    -0.377 OA
ATOM     42  H5  UNL     1     -26.003  -3.389 -10.307  1.00  0.00     0.212 HD
ENDBRANCH  35  41
ENDBRANCH  30  31
ENDBRANCH   6  30
TORSDOF 9
ENDMDL
MODEL 2
REMARK VINA RESULT: -9.094957763      0.722      2.222
REMARK  9 active torsions:
REMARK  status: ('A' for Active; 'I' for Inactive)
REMARK    1  A    between atoms: O1_2  and  C2_3 
REMARK    2  A    between atoms: C4_5  and  C5_6 
REMARK    3  A    between atoms: C10_11  and  N1_12 
REMARK    4  A    between atoms: C16_20  and  O2_21 
REMARK    5  A    between atoms: C21_26  and  O3_27 
REMARK    6  A    between atoms: C23_29  and  O4_30 
REMARK    7  A    between atoms: O4_30  and  C24_31 
REMARK    8  A    between atoms: N2_34  and  C27_35 
REMARK    9  A    between atoms: C31_39  and  O5_40 
ROOT
HETATM    1  C2  UNL     1     -27.426   0.588 -13.068  1.00  0.00     0.105 A 
HETATM    2  C3  UNL     1     -27.124   1.866 -13.532  1.00  0.00     0.052 A 
HETATM    3  C4  UNL     1     -27.535   2.993 -12.846  1.00  0.00    -0.020 A 
HETATM    4  C20 UNL     1     -28.245   2.794 -11.701  1.00  0.00     0.052 A 
HETATM    5  C21 UNL     1     -28.571   1.540 -11.198  1.00  0.00     0.105 A 
HETATM    6  C23 UNL     1     -28.153   0.418 -11.895  1.00  0.00     0.136 A 
ENDROOT
BRANCH   3   7
HETATM    7  C5  UNL     1     -27.199   4.324 -13.365  1.00  0.00    -0.025 A 
HETATM    8  C6  UNL     1     -25.942   4.848 -13.064  1.00  0.00     0.013 A 
HETATM    9  C7  UNL     1     -25.612   6.097 -13.545  1.00  0.00     0.013 A 
HETATM   10  C8  UNL     1     -26.508   6.842 -14.323  1.00  0.00    -0.021 A 
HETATM   11  C9  UNL     1     -26.127   8.096 -14.783  1.00  0.00     0.041 A 
HETATM   12  C18 UNL     1     -27.743   6.293 -14.602  1.00  0.00     0.008 A 
HETATM   13  C10 UNL     1     -27.015   8.820 -15.547  1.00  0.00     0.033 A 
HETATM   14  C15 UNL     1     -28.246   8.258 -15.818  1.00  0.00     0.066 A 
HETATM   15  C16 UNL     1     -28.643   7.017 -15.371  1.00  0.00     0.081 A 
HETATM   16  C19 UNL     1     -28.067   5.042 -14.118  1.00  0.00     0.027 A 
BRANCH  13  17
HETATM   17  N1  UNL     1     -26.674  10.103 -16.037  1.00  0.00    -0.375 N 
HETATM   18  C11 UNL     1     -27.273  10.841 -17.127  1.00  0.00     0.129 C 
HETATM   19  C12 UNL     1     -27.342  12.245 -16.569  1.00  0.00     0.100 C 
HETATM   20  C13 UNL     1     -26.006  12.360 -15.865  1.00  0.00     0.260 C 
HETATM   21  F1  UNL     1     -25.082  12.914 -16.731  1.00  0.00    -0.204 F 
HETATM   22  F2  UNL     1     -26.084  13.174 -14.748  1.00  0.00    -0.204 F 
HETATM   23  C14 UNL     1     -25.618  10.938 -15.506  1.00  0.00     0.202 C 
ENDBRANCH  13  17
BRANCH  15  24
HETATM   24  O2  UNL     1     -29.872   6.461 -15.644  1.00  0.00    -0.355 OA
HETATM   25  C17 UNL     1     -30.313   6.341 -16.976  1.00  0.00     0.210 C 
ENDBRANCH  15  24
ENDBRANCH   3   7
BRANCH   1  26
HETATM   26  O1  UNL     1     -27.001  -0.505 -13.776  1.00  0.00    -0.353 OA
HETATM   27  C1  UNL     1     -26.007  -0.425 -14.778  1.00  0.00     0.210 C 
ENDBRANCH   1  26
BRANCH   5  28
HETATM   28  O3  UNL     1     -29.298   1.449 -10.020  1.00  0.00    -0.353 OA
HETATM   29  C22 UNL     1     -28.653   1.636  -8.777  1.00  0.00     0.210 C 
ENDBRANCH   5  28
BRANCH   6  30
HETATM   30  O4  UNL     1     -28.473  -0.817 -11.400  1.00  0.00    -0.340 OA
BRANCH  30  31
HETATM   31  C24 UNL     1     -27.798  -1.569 -10.443  1.00  0.00     0.138 C 
HETATM   32  C25 UNL     1     -28.513  -1.510  -9.107  1.00  0.00     0.077 C 
HETATM   33  C26 UNL     1     -27.750  -2.321  -8.061  1.00  0.00     0.064 C 
HETATM   34  N2  UNL     1     -26.381  -1.994  -7.990  1.00  0.00    -0.363 N 
HETATM   35  C31 UNL     1     -25.705  -1.786  -9.207  1.00  0.00     0.222 C 
HETATM   36  C32 UNL     1     -26.441  -0.932 -10.202  1.00  0.00     0.086 C 
BRANCH  34  37
HETATM   37  C27 UNL     1     -25.909  -1.289  -6.870  1.00  0.00     0.086 C 
HETATM   38  C28 UNL     1     -26.580  -0.034  -6.446  1.00  0.00     0.025 C 
HETATM   39  C29 UNL     1     -25.215   0.479  -6.020  1.00  0.00     0.004 C 
HETATM   40  C30 UNL     1     -24.628  -0.490  -7.028  1.00  0.00     0.025 C 
ENDBRANCH  34  37
BRANCH  35  41
HETATM   41  O5  UNL     1     -25.305  -2.983  -9.813  1.00  0.00    -0.377 OA
ATOM     42  H5  UNL     1     -25.528  -3.018 -10.736  1.00  0.00     0.212 HD
ENDBRANCH  35  41
ENDBRANCH  30  31
ENDBRANCH   6  30
TORSDOF 9
ENDMDL
MODEL 3
REMARK VINA RESULT: -9.057990559      1.401      2.120
REMARK  9 active torsions:
REMARK  status: ('A' for Active; 'I' for Inactive)
REMARK    1  A    between atoms: O1_2  and  C2_3 
REMARK    2  A    between atoms: C4_5  and  C5_6 
REMARK    3  A    between atoms: C10_11  and  N1_12 
REMARK    4  A    between atoms: C16_20  and  O2_21 
REMARK    5  A    between atoms: C21_26  and  O3_27 
REMARK    6  A    between atoms: C23_29  and  O4_30 
REMARK    7  A    between atoms: O4_30  and  C24_31 
REMARK    8  A    between atoms: N2_34  and  C27_35 
REMARK    9  A    between atoms: C31_39  and  O5_40 
ROOT
HETATM    1  C2  UNL     1     -28.294   1.623 -10.922  1.00  0.00     0.105 A 
HETATM    2  C3  UNL     1     -28.098   2.884 -11.476  1.00  0.00     0.052 A 
HETATM    3  C4  UNL     1     -27.269   3.069 -12.566  1.00  0.00    -0.020 A 
HETATM    4  C20 UNL     1     -26.658   1.961 -13.070  1.00  0.00     0.052 A 
HETATM    5  C21 UNL     1     -26.822   0.681 -12.553  1.00  0.00     0.105 A 
HETATM    6  C23 UNL     1     -27.655   0.510 -11.460  1.00  0.00     0.136 A 
ENDROOT
BRANCH   3   7
HETATM    7  C5  UNL     1     -27.086   4.414 -13.123  1.00  0.00    -0.025 A 
HETATM    8  C6  UNL     1     -25.928   5.113 -12.783  1.00  0.00     0.013 A 
HETATM    9  C7  UNL     1     -25.742   6.377 -13.299  1.00  0.00     0.013 A 
HETATM   10  C8  UNL     1     -26.687   6.968 -14.149  1.00  0.00    -0.021 A 
HETATM   11  C9  UNL     1     -26.451   8.245 -14.642  1.00  0.00     0.041 A 
HETATM   12  C18 UNL     1     -27.820   6.248 -14.465  1.00  0.00     0.008 A 
HETATM   13  C10 UNL     1     -27.386   8.816 -15.477  1.00  0.00     0.033 A 
HETATM   14  C15 UNL     1     -28.515   8.083 -15.784  1.00  0.00     0.066 A 
HETATM   15  C16 UNL     1     -28.766   6.817 -15.306  1.00  0.00     0.081 A 
HETATM   16  C19 UNL     1     -28.001   4.982 -13.946  1.00  0.00     0.027 A 
BRANCH  13  17
HETATM   17  N1  UNL     1     -27.192  10.115 -16.003  1.00  0.00    -0.375 N 
HETATM   18  C11 UNL     1     -25.961  10.863 -16.130  1.00  0.00     0.129 C 
HETATM   19  C12 UNL     1     -26.100  11.486 -17.500  1.00  0.00     0.100 C 
HETATM   20  C13 UNL     1     -27.556  11.902 -17.502  1.00  0.00     0.260 C 
HETATM   21  F1  UNL     1     -27.655  13.209 -17.065  1.00  0.00    -0.204 F 
HETATM   22  F2  UNL     1     -28.108  11.833 -18.769  1.00  0.00    -0.204 F 
HETATM   23  C14 UNL     1     -28.242  10.960 -16.531  1.00  0.00     0.202 C 
ENDBRANCH  13  17
BRANCH  15  24
HETATM   24  O2  UNL     1     -29.894   6.090 -15.615  1.00  0.00    -0.355 OA
HETATM   25  C17 UNL     1     -30.507   6.239 -16.874  1.00  0.00     0.210 C 
ENDBRANCH  15  24
ENDBRANCH   3   7
BRANCH   1  26
HETATM   26  O1  UNL     1     -29.124   1.481  -9.841  1.00  0.00    -0.353 OA
HETATM   27  C1  UNL     1     -28.639   1.310  -8.524  1.00  0.00     0.210 C 
ENDBRANCH   1  26
BRANCH   5  28
HETATM   28  O3  UNL     1     -26.152  -0.381 -13.144  1.00  0.00    -0.353 OA
HETATM   29  C22 UNL     1     -26.110  -0.492 -14.552  1.00  0.00     0.210 C 
ENDBRANCH   5  28
BRANCH   6  30
HETATM   30  O4  UNL     1     -27.817  -0.750 -10.950  1.00  0.00    -0.340 OA
BRANCH  30  31
HETATM   31  C24 UNL     1     -27.457  -1.229  -9.694  1.00  0.00     0.138 C 
HETATM   32  C25 UNL     1     -25.992  -1.618  -9.665  1.00  0.00     0.077 C 
HETATM   33  C26 UNL     1     -25.614  -2.163  -8.289  1.00  0.00     0.064 C 
HETATM   34  N2  UNL     1     -26.482  -3.176  -7.832  1.00  0.00    -0.363 N 
HETATM   35  C31 UNL     1     -27.860  -2.991  -8.055  1.00  0.00     0.222 C 
HETATM   36  C32 UNL     1     -28.220  -2.516  -9.435  1.00  0.00     0.086 C 
BRANCH  34  37
HETATM   37  C27 UNL     1     -26.015  -4.499  -7.787  1.00  0.00     0.086 C 
HETATM   38  C28 UNL     1     -25.359  -5.097  -8.977  1.00  0.00     0.025 C 
HETATM   39  C29 UNL     1     -25.984  -6.423  -8.581  1.00  0.00     0.004 C 
HETATM   40  C30 UNL     1     -27.045  -5.614  -7.860  1.00  0.00     0.025 C 
ENDBRANCH  34  37
BRANCH  35  41
HETATM   41  O5  UNL     1     -28.454  -2.160  -7.097  1.00  0.00    -0.377 OA
ATOM     42  H5  UNL     1     -29.386  -2.045  -7.241  1.00  0.00     0.212 HD
ENDBRANCH  35  41
ENDBRANCH  30  31
ENDBRANCH   6  30
TORSDOF 9
ENDMDL
MODEL 4
REMARK VINA RESULT: -9.051932651      1.393      2.893
REMARK  9 active torsions:
REMARK  status: ('A' for Active; 'I' for Inactive)
REMARK    1  A    between atoms: O1_2  and  C2_3 
REMARK    2  A    between atoms: C4_5  and  C5_6 
REMARK    3  A    between atoms: C10_11  and  N1_12 
REMARK    4  A    between atoms: C16_20  and  O2_21 
REMARK    5  A    between atoms: C21_26  and  O3_27 
REMARK    6  A    between atoms: C23_29  and  O4_30 
REMARK    7  A    between atoms: O4_30  and  C24_31 
REMARK    8  A    between atoms: N2_34  and  C27_35 
REMARK    9  A    between atoms: C31_39  and  O5_40 
ROOT
HETATM    1  C2  UNL     1     -26.761   0.742 -12.584  1.00  0.00     0.105 A 
HETATM    2  C3  UNL     1     -26.605   2.030 -13.089  1.00  0.00     0.052 A 
HETATM    3  C4  UNL     1     -27.286   3.102 -12.543  1.00  0.00    -0.020 A 
HETATM    4  C20 UNL     1     -28.112   2.837 -11.493  1.00  0.00     0.052 A 
HETATM    5  C21 UNL     1     -28.300   1.570 -10.953  1.00  0.00     0.105 A 
HETATM    6  C23 UNL     1     -27.612   0.504 -11.510  1.00  0.00     0.136 A 
ENDROOT
BRANCH   3   7
HETATM    7  C5  UNL     1     -27.097   4.446 -13.102  1.00  0.00    -0.025 A 
HETATM    8  C6  UNL     1     -25.944   5.147 -12.751  1.00  0.00     0.013 A 
HETATM    9  C7  UNL     1     -25.754   6.409 -13.268  1.00  0.00     0.013 A 
HETATM   10  C8  UNL     1     -26.689   6.997 -14.131  1.00  0.00    -0.021 A 
HETATM   11  C9  UNL     1     -26.449   8.272 -14.624  1.00  0.00     0.041 A 
HETATM   12  C18 UNL     1     -27.818   6.275 -14.457  1.00  0.00     0.008 A 
HETATM   13  C10 UNL     1     -27.375   8.840 -15.472  1.00  0.00     0.033 A 
HETATM   14  C15 UNL     1     -28.499   8.106 -15.789  1.00  0.00     0.066 A 
HETATM   15  C16 UNL     1     -28.755   6.840 -15.310  1.00  0.00     0.081 A 
HETATM   16  C19 UNL     1     -28.003   5.010 -13.936  1.00  0.00     0.027 A 
BRANCH  13  17
HETATM   17  N1  UNL     1     -27.176  10.138 -15.999  1.00  0.00    -0.375 N 
HETATM   18  C11 UNL     1     -25.938  10.870 -16.153  1.00  0.00     0.129 C 
HETATM   19  C12 UNL     1     -26.101  11.499 -17.519  1.00  0.00     0.100 C 
HETATM   20  C13 UNL     1     -27.551  11.933 -17.485  1.00  0.00     0.260 C 
HETATM   21  F1  UNL     1     -27.623  13.241 -17.043  1.00  0.00    -0.204 F 
HETATM   22  F2  UNL     1     -28.134  11.875 -18.739  1.00  0.00    -0.204 F 
HETATM   23  C14 UNL     1     -28.227  10.998 -16.500  1.00  0.00     0.202 C 
ENDBRANCH  13  17
BRANCH  15  24
HETATM   24  O2  UNL     1     -29.879   6.112 -15.630  1.00  0.00    -0.355 OA
HETATM   25  C17 UNL     1     -30.469   6.245 -16.902  1.00  0.00     0.210 C 
ENDBRANCH  15  24
ENDBRANCH   3   7
BRANCH   1  26
HETATM   26  O1  UNL     1     -26.068  -0.294 -13.153  1.00  0.00    -0.353 OA
HETATM   27  C1  UNL     1     -26.078  -0.546 -14.544  1.00  0.00     0.210 C 
ENDBRANCH   1  26
BRANCH   5  28
HETATM   28  O3  UNL     1     -29.165   1.410  -9.881  1.00  0.00    -0.353 OA
HETATM   29  C22 UNL     1     -28.650   1.311  -8.568  1.00  0.00     0.210 C 
ENDBRANCH   5  28
BRANCH   6  30
HETATM   30  O4  UNL     1     -27.797  -0.743 -10.980  1.00  0.00    -0.340 OA
BRANCH  30  31
HETATM   31  C24 UNL     1     -27.436  -1.212  -9.719  1.00  0.00     0.138 C 
HETATM   32  C25 UNL     1     -25.976  -1.623  -9.695  1.00  0.00     0.077 C 
HETATM   33  C26 UNL     1     -25.598  -2.156  -8.314  1.00  0.00     0.064 C 
HETATM   34  N2  UNL     1     -26.479  -3.148  -7.837  1.00  0.00    -0.363 N 
HETATM   35  C31 UNL     1     -27.855  -2.944  -8.053  1.00  0.00     0.222 C 
HETATM   36  C32 UNL     1     -28.217  -2.482  -9.437  1.00  0.00     0.086 C 
BRANCH  34  37
HETATM   37  C27 UNL     1     -26.033  -4.478  -7.777  1.00  0.00     0.086 C 
HETATM   38  C28 UNL     1     -25.340  -5.083  -8.943  1.00  0.00     0.025 C 
HETATM   39  C29 UNL     1     -25.998  -6.401  -8.573  1.00  0.00     0.004 C 
HETATM   40  C30 UNL     1     -27.074  -5.578  -7.892  1.00  0.00     0.025 C 
ENDBRANCH  34  37
BRANCH  35  41
HETATM   41  O5  UNL     1     -28.429  -2.091  -7.103  1.00  0.00    -0.377 OA
ATOM     42  H5  UNL     1     -29.169  -1.605  -7.448  1.00  0.00     0.212 HD
ENDBRANCH  35  41
ENDBRANCH  30  31
ENDBRANCH   6  30
TORSDOF 9
ENDMDL
MODEL 5
REMARK VINA RESULT: -8.979321434      1.877      2.256
REMARK  9 active torsions:
REMARK  status: ('A' for Active; 'I' for Inactive)
REMARK    1  A    between atoms: O1_2  and  C2_3 
REMARK    2  A    between atoms: C4_5  and  C5_6 
REMARK    3  A    between atoms: C10_11  and  N1_12 
REMARK    4  A    between atoms: C16_20  and  O2_21 
REMARK    5  A    between atoms: C21_26  and  O3_27 
REMARK    6  A    between atoms: C23_29  and  O4_30 
REMARK    7  A    between atoms: O4_30  and  C24_31 
REMARK    8  A    between atoms: N2_34  and  C27_35 
REMARK    9  A    between atoms: C31_39  and  O5_40 
ROOT
HETATM    1  C2  UNL     1     -27.797   2.041 -12.018  1.00  0.00     0.105 A 
HETATM    2  C3  UNL     1     -27.644   3.375 -12.387  1.00  0.00     0.052 A 
HETATM    3  C4  UNL     1     -26.604   3.779 -13.202  1.00  0.00    -0.020 A 
HETATM    4  C20 UNL     1     -25.741   2.814 -13.625  1.00  0.00     0.052 A 
HETATM    5  C21 UNL     1     -25.851   1.471 -13.284  1.00  0.00     0.105 A 
HETATM    6  C23 UNL     1     -26.898   1.079 -12.466  1.00  0.00     0.136 A 
ENDROOT
BRANCH   3   7
HETATM    7  C5  UNL     1     -26.475   5.194 -13.571  1.00  0.00    -0.025 A 
HETATM    8  C6  UNL     1     -26.631   6.150 -12.568  1.00  0.00     0.013 A 
HETATM    9  C7  UNL     1     -26.512   7.482 -12.899  1.00  0.00     0.013 A 
HETATM   10  C8  UNL     1     -26.240   7.890 -14.212  1.00  0.00    -0.021 A 
HETATM   11  C9  UNL     1     -26.130   9.245 -14.492  1.00  0.00     0.041 A 
HETATM   12  C18 UNL     1     -26.091   6.917 -15.179  1.00  0.00     0.008 A 
HETATM   13  C10 UNL     1     -25.862   9.635 -15.786  1.00  0.00     0.033 A 
HETATM   14  C15 UNL     1     -25.716   8.650 -16.743  1.00  0.00     0.066 A 
HETATM   15  C16 UNL     1     -25.822   7.302 -16.484  1.00  0.00     0.081 A 
HETATM   16  C19 UNL     1     -26.211   5.584 -14.841  1.00  0.00     0.027 A 
BRANCH  13  17
HETATM   17  N1  UNL     1     -25.743  11.004 -16.123  1.00  0.00    -0.375 N 
HETATM   18  C11 UNL     1     -26.362  11.722 -17.215  1.00  0.00     0.129 C 
HETATM   19  C12 UNL     1     -26.778  13.018 -16.556  1.00  0.00     0.100 C 
HETATM   20  C13 UNL     1     -25.578  13.317 -15.683  1.00  0.00     0.260 C 
HETATM   21  F1  UNL     1     -24.701  14.129 -16.378  1.00  0.00    -0.204 F 
HETATM   22  F2  UNL     1     -25.939  13.977 -14.521  1.00  0.00    -0.204 F 
HETATM   23  C14 UNL     1     -24.944  11.969 -15.397  1.00  0.00     0.202 C 
ENDBRANCH  13  17
BRANCH  15  24
HETATM   24  O2  UNL     1     -25.675   6.324 -17.442  1.00  0.00    -0.355 OA
HETATM   25  C17 UNL     1     -26.255   6.489 -18.715  1.00  0.00     0.210 C 
ENDBRANCH  15  24
ENDBRANCH   3   7
BRANCH   1  26
HETATM   26  O1  UNL     1     -28.841   1.680 -11.208  1.00  0.00    -0.353 OA
HETATM   27  C1  UNL     1     -29.086   2.294  -9.959  1.00  0.00     0.210 C 
ENDBRANCH   1  26
BRANCH   5  28
HETATM   28  O3  UNL     1     -24.917   0.568 -13.770  1.00  0.00    -0.353 OA
HETATM   29  C22 UNL     1     -25.055   0.045 -15.076  1.00  0.00     0.210 C 
ENDBRANCH   5  28
BRANCH   6  30
HETATM   30  O4  UNL     1     -27.007  -0.243 -12.130  1.00  0.00    -0.340 OA
BRANCH  30  31
HETATM   31  C24 UNL     1     -26.681  -0.861 -10.926  1.00  0.00     0.138 C 
HETATM   32  C25 UNL     1     -27.914  -1.454 -10.273  1.00  0.00     0.077 C 
HETATM   33  C26 UNL     1     -27.547  -2.110  -8.943  1.00  0.00     0.064 C 
HETATM   34  N2  UNL     1     -26.799  -1.269  -8.093  1.00  0.00    -0.363 N 
HETATM   35  C31 UNL     1     -25.787  -0.491  -8.686  1.00  0.00     0.222 C 
HETATM   36  C32 UNL     1     -26.185   0.200  -9.961  1.00  0.00     0.086 C 
BRANCH  34  37
HETATM   37  C27 UNL     1     -27.415  -0.747  -6.944  1.00  0.00     0.086 C 
HETATM   38  C28 UNL     1     -28.706  -1.308  -6.472  1.00  0.00     0.025 C 
HETATM   39  C29 UNL     1     -29.080   0.093  -6.020  1.00  0.00     0.004 C 
HETATM   40  C30 UNL     1     -28.105   0.601  -7.064  1.00  0.00     0.025 C 
ENDBRANCH  34  37
BRANCH  35  41
HETATM   41  O5  UNL     1     -24.602  -1.210  -8.886  1.00  0.00    -0.377 OA
ATOM     42  H5  UNL     1     -24.760  -2.116  -9.123  1.00  0.00     0.212 HD
ENDBRANCH  35  41
ENDBRANCH  30  31
ENDBRANCH   6  30
TORSDOF 9
ENDMDL
