MODEL 1
REMARK VINA RESULT: -8.120021467      0.000      0.000
REMARK  9 active torsions:
REMARK  status: ('A' for Active; 'I' for Inactive)
REMARK    1  A    between atoms: C2_2  and  O1_5 
REMARK    2  A    between atoms: O1_5  and  C5_6 
REMARK    3  A    between atoms: C5_6  and  C6_7 
REMARK    4  A    between atoms: C6_7  and  C7_8 
REMARK    5  A    between atoms: C7_8  and  C8_9 
REMARK    6  A    between atoms: C8_9  and  O2_12 
REMARK    7  A    between atoms: N1_17  and  C12_18 
REMARK    8  A    between atoms: C12_18  and  C13_19 
REMARK    9  A    between atoms: C17_26  and  N3_27 
ROOT
HETATM    1  C7  UNL     1     -85.852 -14.661  13.309  1.00  0.00     0.134 C 
HETATM    2  O3  UNL     1     -87.188 -14.234  13.217  1.00  0.00    -0.284 OA
HETATM    3  C11 UNL     1     -88.337 -14.950  13.286  1.00  0.00     0.368 C 
HETATM    4  O4  UNL     1     -89.492 -14.396  13.310  1.00  0.00    -0.238 OA
HETATM    5  N1  UNL     1     -88.238 -16.388  13.333  1.00  0.00    -0.289 N 
HETATM    6  C20 UNL     1     -86.922 -16.907  13.307  1.00  0.00     0.049 A 
HETATM    7  C21 UNL     1     -86.795 -18.280  13.310  1.00  0.00     0.033 A 
HETATM    8  C22 UNL     1     -85.572 -18.907  13.250  1.00  0.00     0.044 A 
HETATM    9  C23 UNL     1     -84.408 -18.187  13.186  1.00  0.00     0.117 A 
HETATM   10  F2  UNL     1     -83.196 -18.743  13.126  1.00  0.00    -0.206 F 
HETATM   11  C24 UNL     1     -84.542 -16.784  13.186  1.00  0.00     0.055 A 
HETATM   12  C25 UNL     1     -85.765 -16.166  13.246  1.00  0.00     0.010 A 
ENDROOT
BRANCH   5  13
HETATM   13  C12 UNL     1     -89.431 -17.161  13.431  1.00  0.00     0.173 C 
BRANCH  13  14
HETATM   14  C13 UNL     1     -90.140 -17.458  12.177  1.00  0.00    -0.035 A 
HETATM   15  C14 UNL     1     -90.805 -16.470  11.436  1.00  0.00     0.053 A 
HETATM   16  C15 UNL     1     -91.469 -16.743  10.260  1.00  0.00     0.146 A 
HETATM   17  F1  UNL     1     -92.110 -15.787   9.547  1.00  0.00    -0.204 F 
HETATM   18  C16 UNL     1     -91.496 -18.032   9.769  1.00  0.00     0.115 A 
HETATM   19  N2  UNL     1     -92.063 -18.575   8.658  1.00  0.00    -0.187 N 
HETATM   20  C18 UNL     1     -90.863 -19.010  10.463  1.00  0.00     0.080 A 
HETATM   21  C17 UNL     1     -91.789 -19.885   8.651  1.00  0.00     0.677 A 
ATOM     22  H2  UNL     1     -92.603 -18.071   7.953  1.00  0.00     0.184 HD
HETATM   23  N4  UNL     1     -91.055 -20.146   9.757  1.00  0.00    -0.190 N 
ATOM     24  H4  UNL     1     -90.699 -21.065  10.020  1.00  0.00     0.184 HD
HETATM   25  C19 UNL     1     -90.196 -18.713  11.653  1.00  0.00     0.041 A 
BRANCH  21  26
HETATM   26  N3  UNL     1     -92.174 -20.708   7.739  1.00  0.00    -0.234 N 
ATOM     27  H32 UNL     1     -92.727 -21.558   7.850  1.00  0.00     0.174 HD
ATOM     28  H31 UNL     1     -91.968 -20.609   6.745  1.00  0.00     0.174 HD
ENDBRANCH  21  26
ENDBRANCH  13  14
ENDBRANCH   5  13
BRANCH   1  29
HETATM   29  C6  UNL     1     -85.025 -14.128  12.185  1.00  0.00     0.073 C 
BRANCH  29  30
HETATM   30  C5  UNL     1     -85.626 -14.103  10.838  1.00  0.00     0.172 C 
BRANCH  30  31
HETATM   31  O1  UNL     1     -85.309 -15.068   9.967  1.00  0.00    -0.381 OA
BRANCH  31  32
HETATM   32  C2  UNL     1     -86.128 -15.992   9.478  1.00  0.00     0.050 C 
HETATM   33  C1  UNL     1     -86.054 -15.835   7.924  1.00  0.00     0.045 C 
HETATM   34  C3  UNL     1     -85.707 -17.429   9.715  1.00  0.00     0.045 C 
HETATM   35  C4  UNL     1     -87.592 -15.911   9.776  1.00  0.00     0.045 C 
ENDBRANCH  31  32
ENDBRANCH  30  31
ENDBRANCH  29  30
ENDBRANCH   1  29
BRANCH   1  36
HETATM   36  C8  UNL     1     -85.395 -14.314  14.711  1.00  0.00     0.087 C 
HETATM   37  C9  UNL     1     -84.001 -13.697  14.733  1.00  0.00     0.049 C 
HETATM   38  C10 UNL     1     -85.438 -15.384  15.717  1.00  0.00     0.049 C 
BRANCH  36  39
HETATM   39  O2  UNL     1     -86.225 -13.238  15.164  1.00  0.00    -0.387 OA
ATOM     40  H2  UNL     1     -85.718 -12.746  15.798  1.00  0.00     0.210 HD
ENDBRANCH  36  39
ENDBRANCH   1  36
TORSDOF 9
ENDMDL
MODEL 2
REMARK VINA RESULT: -7.953230856      3.881      6.537
REMARK  9 active torsions:
REMARK  status: ('A' for Active; 'I' for Inactive)
REMARK    1  A    between atoms: C2_2  and  O1_5 
REMARK    2  A    between atoms: O1_5  and  C5_6 
REMARK    3  A    between atoms: C5_6  and  C6_7 
REMARK    4  A    between atoms: C6_7  and  C7_8 
REMARK    5  A    between atoms: C7_8  and  C8_9 
REMARK    6  A    between atoms: C8_9  and  O2_12 
REMARK    7  A    between atoms: N1_17  and  C12_18 
REMARK    8  A    between atoms: C12_18  and  C13_19 
REMARK    9  A    between atoms: C17_26  and  N3_27 
ROOT
HETATM    1  C7  UNL     1     -87.999 -17.456  12.472  1.00  0.00     0.134 C 
HETATM    2  O3  UNL     1     -87.110 -18.158  11.638  1.00  0.00    -0.284 OA
HETATM    3  C11 UNL     1     -86.047 -17.708  10.928  1.00  0.00     0.368 C 
HETATM    4  O4  UNL     1     -85.251 -18.498  10.308  1.00  0.00    -0.238 OA
HETATM    5  N1  UNL     1     -85.817 -16.286  10.877  1.00  0.00    -0.289 N 
HETATM    6  C20 UNL     1     -86.744 -15.495  11.595  1.00  0.00     0.049 A 
HETATM    7  C21 UNL     1     -86.576 -14.128  11.532  1.00  0.00     0.033 A 
HETATM    8  C22 UNL     1     -87.432 -13.251  12.157  1.00  0.00     0.044 A 
HETATM    9  C23 UNL     1     -88.505 -13.700  12.881  1.00  0.00     0.117 A 
HETATM   10  F2  UNL     1     -89.366 -12.894  13.507  1.00  0.00    -0.206 F 
HETATM   11  C24 UNL     1     -88.671 -15.098  12.945  1.00  0.00     0.055 A 
HETATM   12  C25 UNL     1     -87.814 -15.966  12.319  1.00  0.00     0.010 A 
ENDROOT
BRANCH   5  13
HETATM   13  C12 UNL     1     -84.691 -15.792  10.155  1.00  0.00     0.173 C 
BRANCH  13  14
HETATM   14  C13 UNL     1     -84.850 -15.618   8.704  1.00  0.00    -0.035 A 
HETATM   15  C14 UNL     1     -86.107 -15.593   8.082  1.00  0.00     0.053 A 
HETATM   16  C15 UNL     1     -86.261 -15.428   6.723  1.00  0.00     0.146 A 
HETATM   17  F1  UNL     1     -87.476 -15.405   6.125  1.00  0.00    -0.204 F 
HETATM   18  C16 UNL     1     -85.151 -15.279   5.918  1.00  0.00     0.115 A 
HETATM   19  N2  UNL     1     -85.011 -15.103   4.576  1.00  0.00    -0.187 N 
HETATM   20  C18 UNL     1     -83.921 -15.299   6.490  1.00  0.00     0.080 A 
HETATM   21  C17 UNL     1     -83.704 -15.013   4.304  1.00  0.00     0.677 A 
ATOM     22  H2  UNL     1     -85.771 -15.051   3.897  1.00  0.00     0.184 HD
HETATM   23  N4  UNL     1     -83.042 -15.133   5.478  1.00  0.00    -0.190 N 
ATOM     24  H4  UNL     1     -82.027 -15.103   5.583  1.00  0.00     0.184 HD
HETATM   25  C19 UNL     1     -83.786 -15.467   7.869  1.00  0.00     0.041 A 
BRANCH  21  26
HETATM   26  N3  UNL     1     -83.212 -14.844   3.127  1.00  0.00    -0.234 N 
ATOM     27  H32 UNL     1     -83.677 -14.478   2.296  1.00  0.00     0.174 HD
ATOM     28  H31 UNL     1     -82.252 -15.063   2.864  1.00  0.00     0.174 HD
ENDBRANCH  21  26
ENDBRANCH  13  14
ENDBRANCH   5  13
BRANCH   1  29
HETATM   29  C6  UNL     1     -89.423 -17.757  12.135  1.00  0.00     0.073 C 
BRANCH  29  30
HETATM   30  C5  UNL     1     -89.728 -18.198  10.760  1.00  0.00     0.172 C 
BRANCH  30  31
HETATM   31  O1  UNL     1     -90.474 -19.294  10.580  1.00  0.00    -0.381 OA
BRANCH  31  32
HETATM   32  C2  UNL     1     -91.487 -19.431   9.732  1.00  0.00     0.050 C 
HETATM   33  C1  UNL     1     -91.679 -18.023   9.081  1.00  0.00     0.045 C 
HETATM   34  C3  UNL     1     -91.228 -20.343   8.549  1.00  0.00     0.045 C 
HETATM   35  C4  UNL     1     -92.846 -19.771  10.256  1.00  0.00     0.045 C 
ENDBRANCH  31  32
ENDBRANCH  30  31
ENDBRANCH  29  30
ENDBRANCH   1  29
BRANCH   1  36
HETATM   36  C8  UNL     1     -87.563 -17.749  13.892  1.00  0.00     0.087 C 
HETATM   37  C9  UNL     1     -88.734 -17.778  14.868  1.00  0.00     0.049 C 
HETATM   38  C10 UNL     1     -86.514 -16.893  14.464  1.00  0.00     0.049 C 
BRANCH  36  39
HETATM   39  O2  UNL     1     -87.098 -19.103  13.914  1.00  0.00    -0.387 OA
ATOM     40  H2  UNL     1     -86.329 -19.139  13.357  1.00  0.00     0.210 HD
ENDBRANCH  36  39
ENDBRANCH   1  36
TORSDOF 9
ENDMDL
MODEL 3
REMARK VINA RESULT: -7.927654369      1.531      1.910
REMARK  9 active torsions:
REMARK  status: ('A' for Active; 'I' for Inactive)
REMARK    1  A    between atoms: C2_2  and  O1_5 
REMARK    2  A    between atoms: O1_5  and  C5_6 
REMARK    3  A    between atoms: C5_6  and  C6_7 
REMARK    4  A    between atoms: C6_7  and  C7_8 
REMARK    5  A    between atoms: C7_8  and  C8_9 
REMARK    6  A    between atoms: C8_9  and  O2_12 
REMARK    7  A    between atoms: N1_17  and  C12_18 
REMARK    8  A    between atoms: C12_18  and  C13_19 
REMARK    9  A    between atoms: C17_26  and  N3_27 
ROOT
HETATM    1  C7  UNL     1     -86.476 -15.520  14.902  1.00  0.00     0.134 C 
HETATM    2  O3  UNL     1     -87.443 -14.629  14.404  1.00  0.00    -0.284 OA
HETATM    3  C11 UNL     1     -88.699 -14.872  13.956  1.00  0.00     0.368 C 
HETATM    4  O4  UNL     1     -89.513 -13.932  13.648  1.00  0.00    -0.238 OA
HETATM    5  N1  UNL     1     -89.120 -16.245  13.826  1.00  0.00    -0.289 N 
HETATM    6  C20 UNL     1     -88.156 -17.213  14.194  1.00  0.00     0.049 A 
HETATM    7  C21 UNL     1     -88.512 -18.536  14.042  1.00  0.00     0.033 A 
HETATM    8  C22 UNL     1     -87.651 -19.569  14.331  1.00  0.00     0.044 A 
HETATM    9  C23 UNL     1     -86.383 -19.328  14.790  1.00  0.00     0.117 A 
HETATM   10  F2  UNL     1     -85.507 -20.292  15.085  1.00  0.00    -0.206 F 
HETATM   11  C24 UNL     1     -86.023 -17.975  14.946  1.00  0.00     0.055 A 
HETATM   12  C25 UNL     1     -86.887 -16.951  14.656  1.00  0.00     0.010 A 
ENDROOT
BRANCH   5  13
HETATM   13  C12 UNL     1     -90.444 -16.525  13.379  1.00  0.00     0.173 C 
BRANCH  13  14
HETATM   14  C13 UNL     1     -90.590 -17.082  12.026  1.00  0.00    -0.035 A 
HETATM   15  C14 UNL     1     -89.959 -16.518  10.908  1.00  0.00     0.053 A 
HETATM   16  C15 UNL     1     -90.092 -17.038   9.638  1.00  0.00     0.146 A 
HETATM   17  F1  UNL     1     -89.482 -16.491   8.561  1.00  0.00    -0.204 F 
HETATM   18  C16 UNL     1     -90.870 -18.158   9.432  1.00  0.00     0.115 A 
HETATM   19  N2  UNL     1     -91.170 -18.868   8.311  1.00  0.00    -0.187 N 
HETATM   20  C18 UNL     1     -91.494 -18.726  10.493  1.00  0.00     0.080 A 
HETATM   21  C17 UNL     1     -91.976 -19.877   8.663  1.00  0.00     0.677 A 
ATOM     22  H2  UNL     1     -90.839 -18.666   7.367  1.00  0.00     0.184 HD
HETATM   23  N4  UNL     1     -92.171 -19.786   9.999  1.00  0.00    -0.190 N 
ATOM     24  H4  UNL     1     -92.745 -20.423  10.552  1.00  0.00     0.184 HD
HETATM   25  C19 UNL     1     -91.347 -18.185  11.772  1.00  0.00     0.041 A 
BRANCH  21  26
HETATM   26  N3  UNL     1     -92.455 -20.749   7.847  1.00  0.00    -0.234 N 
ATOM     27  H32 UNL     1     -92.222 -20.887   6.863  1.00  0.00     0.174 HD
ATOM     28  H31 UNL     1     -93.160 -21.445   8.091  1.00  0.00     0.174 HD
ENDBRANCH  21  26
ENDBRANCH  13  14
ENDBRANCH   5  13
BRANCH   1  29
HETATM   29  C6  UNL     1     -85.153 -15.324  14.236  1.00  0.00     0.073 C 
BRANCH  29  30
HETATM   30  C5  UNL     1     -85.149 -14.953  12.807  1.00  0.00     0.172 C 
BRANCH  30  31
HETATM   31  O1  UNL     1     -84.869 -15.891  11.894  1.00  0.00    -0.381 OA
BRANCH  31  32
HETATM   32  C2  UNL     1     -85.652 -16.281  10.895  1.00  0.00     0.050 C 
HETATM   33  C1  UNL     1     -86.788 -15.210  10.813  1.00  0.00     0.045 C 
HETATM   34  C3  UNL     1     -85.020 -16.243   9.518  1.00  0.00     0.045 C 
HETATM   35  C4  UNL     1     -86.390 -17.578  11.002  1.00  0.00     0.045 C 
ENDBRANCH  31  32
ENDBRANCH  30  31
ENDBRANCH  29  30
ENDBRANCH   1  29
BRANCH   1  36
HETATM   36  C8  UNL     1     -86.504 -15.371  16.409  1.00  0.00     0.087 C 
HETATM   37  C9  UNL     1     -85.138 -15.607  17.043  1.00  0.00     0.049 C 
HETATM   38  C10 UNL     1     -87.494 -16.169  17.146  1.00  0.00     0.049 C 
BRANCH  36  39
HETATM   39  O2  UNL     1     -86.747 -13.987  16.685  1.00  0.00    -0.387 OA
ATOM     40  H2  UNL     1     -86.168 -13.487  16.122  1.00  0.00     0.210 HD
ENDBRANCH  36  39
ENDBRANCH   1  36
TORSDOF 9
ENDMDL
MODEL 4
REMARK VINA RESULT: -7.921195474      1.065      1.247
REMARK  9 active torsions:
REMARK  status: ('A' for Active; 'I' for Inactive)
REMARK    1  A    between atoms: C2_2  and  O1_5 
REMARK    2  A    between atoms: O1_5  and  C5_6 
REMARK    3  A    between atoms: C5_6  and  C6_7 
REMARK    4  A    between atoms: C6_7  and  C7_8 
REMARK    5  A    between atoms: C7_8  and  C8_9 
REMARK    6  A    between atoms: C8_9  and  O2_12 
REMARK    7  A    between atoms: N1_17  and  C12_18 
REMARK    8  A    between atoms: C12_18  and  C13_19 
REMARK    9  A    between atoms: C17_26  and  N3_27 
ROOT
HETATM    1  C7  UNL     1     -85.826 -14.897  13.789  1.00  0.00     0.134 C 
HETATM    2  O3  UNL     1     -86.934 -14.156  13.343  1.00  0.00    -0.284 OA
HETATM    3  C11 UNL     1     -88.212 -14.550  13.125  1.00  0.00     0.368 C 
HETATM    4  O4  UNL     1     -89.147 -13.722  12.836  1.00  0.00    -0.238 OA
HETATM    5  N1  UNL     1     -88.515 -15.956  13.226  1.00  0.00    -0.289 N 
HETATM    6  C20 UNL     1     -87.422 -16.791  13.554  1.00  0.00     0.049 A 
HETATM    7  C21 UNL     1     -87.670 -18.145  13.619  1.00  0.00     0.033 A 
HETATM    8  C22 UNL     1     -86.683 -19.063  13.893  1.00  0.00     0.044 A 
HETATM    9  C23 UNL     1     -85.391 -18.669  14.120  1.00  0.00     0.117 A 
HETATM   10  F2  UNL     1     -84.395 -19.517  14.389  1.00  0.00    -0.206 F 
HETATM   11  C24 UNL     1     -85.142 -17.284  14.056  1.00  0.00     0.055 A 
HETATM   12  C25 UNL     1     -86.131 -16.375  13.782  1.00  0.00     0.010 A 
ENDROOT
BRANCH   5  13
HETATM   13  C12 UNL     1     -89.858 -16.391  13.025  1.00  0.00     0.173 C 
BRANCH  13  14
HETATM   14  C13 UNL     1     -90.180 -16.986  11.720  1.00  0.00    -0.035 A 
HETATM   15  C14 UNL     1     -89.734 -16.433  10.510  1.00  0.00     0.053 A 
HETATM   16  C15 UNL     1     -90.032 -16.989   9.284  1.00  0.00     0.146 A 
HETATM   17  F1  UNL     1     -89.601 -16.453   8.118  1.00  0.00    -0.204 F 
HETATM   18  C16 UNL     1     -90.797 -18.135   9.217  1.00  0.00     0.115 A 
HETATM   19  N2  UNL     1     -91.233 -18.882   8.166  1.00  0.00    -0.187 N 
HETATM   20  C18 UNL     1     -91.243 -18.694  10.369  1.00  0.00     0.080 A 
HETATM   21  C17 UNL     1     -91.948 -19.903   8.653  1.00  0.00     0.677 A 
ATOM     22  H2  UNL     1     -91.047 -18.696   7.181  1.00  0.00     0.184 HD
HETATM   23  N4  UNL     1     -91.951 -19.784  10.001  1.00  0.00    -0.190 N 
ATOM     24  H4  UNL     1     -92.419 -20.422  10.644  1.00  0.00     0.184 HD
HETATM   25  C19 UNL     1     -90.930 -18.116  11.601  1.00  0.00     0.041 A 
BRANCH  21  26
HETATM   26  N3  UNL     1     -92.512 -20.809   7.934  1.00  0.00    -0.234 N 
ATOM     27  H32 UNL     1     -93.483 -20.855   7.624  1.00  0.00     0.174 HD
ATOM     28  H31 UNL     1     -92.038 -21.634   7.564  1.00  0.00     0.174 HD
ENDBRANCH  21  26
ENDBRANCH  13  14
ENDBRANCH   5  13
BRANCH   1  29
HETATM   29  C6  UNL     1     -84.636 -14.692  12.908  1.00  0.00     0.073 C 
BRANCH  29  30
HETATM   30  C5  UNL     1     -84.866 -14.570  11.456  1.00  0.00     0.172 C 
BRANCH  30  31
HETATM   31  O1  UNL     1     -84.496 -15.575  10.653  1.00  0.00    -0.381 OA
BRANCH  31  32
HETATM   32  C2  UNL     1     -85.292 -16.307   9.883  1.00  0.00     0.050 C 
HETATM   33  C1  UNL     1     -86.674 -15.577   9.900  1.00  0.00     0.045 C 
HETATM   34  C3  UNL     1     -84.923 -16.346   8.413  1.00  0.00     0.045 C 
HETATM   35  C4  UNL     1     -85.623 -17.709  10.288  1.00  0.00     0.045 C 
ENDBRANCH  31  32
ENDBRANCH  30  31
ENDBRANCH  29  30
ENDBRANCH   1  29
BRANCH   1  36
HETATM   36  C8  UNL     1     -85.651 -14.553  15.253  1.00  0.00     0.087 C 
HETATM   37  C9  UNL     1     -84.186 -14.505  15.671  1.00  0.00     0.049 C 
HETATM   38  C10 UNL     1     -86.378 -15.377  16.229  1.00  0.00     0.049 C 
BRANCH  36  39
HETATM   39  O2  UNL     1     -86.072 -13.193  15.413  1.00  0.00    -0.387 OA
ATOM     40  H2  UNL     1     -85.352 -12.646  15.122  1.00  0.00     0.210 HD
ENDBRANCH  36  39
ENDBRANCH   1  36
TORSDOF 9
ENDMDL
MODEL 5
REMARK VINA RESULT: -7.692189801      2.910      4.080
REMARK  9 active torsions:
REMARK  status: ('A' for Active; 'I' for Inactive)
REMARK    1  A    between atoms: C2_2  and  O1_5 
REMARK    2  A    between atoms: O1_5  and  C5_6 
REMARK    3  A    between atoms: C5_6  and  C6_7 
REMARK    4  A    between atoms: C6_7  and  C7_8 
REMARK    5  A    between atoms: C7_8  and  C8_9 
REMARK    6  A    between atoms: C8_9  and  O2_12 
REMARK    7  A    between atoms: N1_17  and  C12_18 
REMARK    8  A    between atoms: C12_18  and  C13_19 
REMARK    9  A    between atoms: C17_26  and  N3_27 
ROOT
HETATM    1  C7  UNL     1     -86.655 -15.040  13.910  1.00  0.00     0.134 C 
HETATM    2  O3  UNL     1     -87.625 -14.593  12.996  1.00  0.00    -0.284 OA
HETATM    3  C11 UNL     1     -88.213 -15.246  11.963  1.00  0.00     0.368 C 
HETATM    4  O4  UNL     1     -89.179 -14.741  11.292  1.00  0.00    -0.238 OA
HETATM    5  N1  UNL     1     -87.719 -16.556  11.621  1.00  0.00    -0.289 N 
HETATM    6  C20 UNL     1     -86.654 -17.033  12.421  1.00  0.00     0.049 A 
HETATM    7  C21 UNL     1     -86.132 -18.266  12.092  1.00  0.00     0.033 A 
HETATM    8  C22 UNL     1     -85.073 -18.822  12.771  1.00  0.00     0.044 A 
HETATM    9  C23 UNL     1     -84.480 -18.169  13.819  1.00  0.00     0.117 A 
HETATM   10  F2  UNL     1     -83.450 -18.661  14.511  1.00  0.00    -0.206 F 
HETATM   11  C24 UNL     1     -85.018 -16.910  14.153  1.00  0.00     0.055 A 
HETATM   12  C25 UNL     1     -86.074 -16.362  13.472  1.00  0.00     0.010 A 
ENDROOT
BRANCH   5  13
HETATM   13  C12 UNL     1     -88.337 -17.272  10.554  1.00  0.00     0.173 C 
BRANCH  13  14
HETATM   14  C13 UNL     1     -88.042 -16.821   9.186  1.00  0.00    -0.035 A 
HETATM   15  C14 UNL     1     -89.035 -16.699   8.203  1.00  0.00     0.053 A 
HETATM   16  C15 UNL     1     -88.763 -16.274   6.920  1.00  0.00     0.146 A 
HETATM   17  F1  UNL     1     -89.723 -16.158   5.973  1.00  0.00    -0.204 F 
HETATM   18  C16 UNL     1     -87.471 -15.950   6.563  1.00  0.00     0.115 A 
HETATM   19  N2  UNL     1     -86.929 -15.513   5.394  1.00  0.00    -0.187 N 
HETATM   20  C18 UNL     1     -86.488 -16.058   7.491  1.00  0.00     0.080 A 
HETATM   21  C17 UNL     1     -85.614 -15.346   5.584  1.00  0.00     0.677 A 
ATOM     22  H2  UNL     1     -87.435 -15.342   4.525  1.00  0.00     0.184 HD
HETATM   23  N4  UNL     1     -85.350 -15.680   6.868  1.00  0.00    -0.190 N 
ATOM     24  H4  UNL     1     -84.428 -15.652   7.303  1.00  0.00     0.184 HD
HETATM   25  C19 UNL     1     -86.784 -16.489   8.785  1.00  0.00     0.041 A 
BRANCH  21  26
HETATM   26  N3  UNL     1     -84.791 -14.941   4.682  1.00  0.00    -0.234 N 
ATOM     27  H32 UNL     1     -84.977 -14.751   3.697  1.00  0.00     0.174 HD
ATOM     28  H31 UNL     1     -83.803 -14.747   4.845  1.00  0.00     0.174 HD
ENDBRANCH  21  26
ENDBRANCH  13  14
ENDBRANCH   5  13
BRANCH   1  29
HETATM   29  C6  UNL     1     -85.518 -14.077  14.020  1.00  0.00     0.073 C 
BRANCH  29  30
HETATM   30  C5  UNL     1     -84.901 -13.593  12.771  1.00  0.00     0.172 C 
BRANCH  30  31
HETATM   31  O1  UNL     1     -83.654 -13.976  12.471  1.00  0.00    -0.381 OA
BRANCH  31  32
HETATM   32  C2  UNL     1     -83.241 -14.496  11.322  1.00  0.00     0.050 C 
HETATM   33  C1  UNL     1     -84.445 -14.341  10.337  1.00  0.00     0.045 C 
HETATM   34  C3  UNL     1     -82.115 -13.750  10.634  1.00  0.00     0.045 C 
HETATM   35  C4  UNL     1     -82.906 -15.953  11.251  1.00  0.00     0.045 C 
ENDBRANCH  31  32
ENDBRANCH  30  31
ENDBRANCH  29  30
ENDBRANCH   1  29
BRANCH   1  36
HETATM   36  C8  UNL     1     -87.399 -15.359  15.190  1.00  0.00     0.087 C 
HETATM   37  C9  UNL     1     -86.597 -14.999  16.436  1.00  0.00     0.049 C 
HETATM   38  C10 UNL     1     -87.903 -16.730  15.352  1.00  0.00     0.049 C 
BRANCH  36  39
HETATM   39  O2  UNL     1     -88.512 -14.460  15.259  1.00  0.00    -0.387 OA
ATOM     40  H2  UNL     1     -89.063 -14.646  14.508  1.00  0.00     0.210 HD
ENDBRANCH  36  39
ENDBRANCH   1  36
TORSDOF 9
ENDMDL
