MODEL 1
REMARK VINA RESULT: -8.154297443      0.000      0.000
REMARK  8 active torsions:
REMARK  status: ('A' for Active; 'I' for Inactive)
REMARK    1  A    between atoms: C2_2  and  O1_3 
REMARK    2  A    between atoms: O1_3  and  N1_4 
REMARK    3  A    between atoms: C3_6  and  C5_8 
REMARK    4  A    between atoms: C9_16  and  O2_17 
REMARK    5  A    between atoms: C14_24  and  C15_25 
REMARK    6  A    between atoms: N4_28  and  C18_29 
REMARK    7  A    between atoms: C18_29  and  C19_30 
REMARK    8  A    between atoms: C24_35  and  O3_36 
ROOT
HETATM    1  C5  UNL     1     -90.635 -12.908   9.691  1.00  0.00     0.092 A 
HETATM    2  N2  UNL     1     -90.416 -12.884   8.371  1.00  0.00    -0.338 N 
ATOM      3  H2  UNL     1     -91.189 -13.106   7.743  1.00  0.00     0.167 HD
HETATM    4  C6  UNL     1     -89.234 -12.583   7.844  1.00  0.00     0.118 A 
HETATM    5  N3  UNL     1     -88.823 -12.468   6.549  1.00  0.00    -0.341 N 
ATOM      6  H3  UNL     1     -89.389 -12.637   5.717  1.00  0.00     0.167 HD
HETATM    7  C7  UNL     1     -87.550 -12.094   6.575  1.00  0.00     0.047 A 
HETATM    8  C8  UNL     1     -86.667 -11.802   5.539  1.00  0.00     0.068 A 
HETATM    9  C9  UNL     1     -85.391 -11.387   5.787  1.00  0.00     0.085 A 
HETATM   10  C10 UNL     1     -84.991 -11.260   7.076  1.00  0.00     0.045 A 
HETATM   11 BR1  UNL     1     -83.202 -10.674   7.428  1.00  0.00    -0.048 Br
HETATM   12  C11 UNL     1     -85.827 -11.538   8.152  1.00  0.00     0.036 A 
HETATM   13  C12 UNL     1     -87.098 -11.958   7.882  1.00  0.00     0.007 A 
HETATM   14  C13 UNL     1     -88.180 -12.281   8.681  1.00  0.00     0.034 A 
HETATM   15  C14 UNL     1     -88.334 -12.292  10.066  1.00  0.00     0.020 A 
HETATM   16  C24 UNL     1     -89.620 -12.618  10.572  1.00  0.00     0.106 A 
ENDROOT
BRANCH  15  17
HETATM   17  C15 UNL     1     -87.268 -12.267  11.022  1.00  0.00    -0.044 C 
HETATM   18  C16 UNL     1     -86.901 -11.232  11.765  1.00  0.00     0.011 C 
HETATM   19  C17 UNL     1     -85.776 -11.345  12.726  1.00  0.00     0.300 C 
HETATM   20  N4  UNL     1     -85.776 -12.538  13.489  1.00  0.00     0.092 N 
HETATM   21  C22 UNL     1     -86.646 -13.571  13.006  1.00  0.00     0.277 C 
HETATM   22  C23 UNL     1     -86.581 -13.544  11.469  1.00  0.00     0.069 C 
BRANCH  20  23
HETATM   23  C18 UNL     1     -86.074 -12.279  14.884  1.00  0.00     0.276 C 
BRANCH  23  24
HETATM   24  C19 UNL     1     -87.516 -12.665  15.123  1.00  0.00     0.006 C 
HETATM   25  C20 UNL     1     -87.560 -13.469  16.407  1.00  0.00     0.011 C 
HETATM   26  C21 UNL     1     -88.387 -11.424  15.267  1.00  0.00     0.011 C 
ENDBRANCH  23  24
ENDBRANCH  20  23
ENDBRANCH  15  17
BRANCH  16  27
HETATM   27  O3  UNL     1     -89.858 -12.652  11.881  1.00  0.00    -0.357 OA
ATOM     28  H3  UNL     1     -89.153 -12.467  12.491  1.00  0.00     0.217 HD
ENDBRANCH  16  27
BRANCH   1  29
HETATM   29  C3  UNL     1     -91.985 -13.246  10.158  1.00  0.00     0.058 C 
HETATM   30  N1  UNL     1     -92.114 -14.194  11.032  1.00  0.00    -0.269 N 
ATOM     31  H1  UNL     1     -91.269 -14.662  11.359  1.00  0.00     0.194 HD
HETATM   32  C4  UNL     1     -93.163 -12.550   9.664  1.00  0.00     0.072 C 
BRANCH  30  33
HETATM   33  O1  UNL     1     -93.301 -14.600  11.538  1.00  0.00    -0.281 OA
BRANCH  33  34
HETATM   34  C2  UNL     1     -93.914 -15.833  11.305  1.00  0.00     0.196 C 
HETATM   35  C1  UNL     1     -93.130 -16.633  10.283  1.00  0.00     0.036 C 
ENDBRANCH  33  34
ENDBRANCH  30  33
ENDBRANCH   1  29
BRANCH   9  36
HETATM   36  O2  UNL     1     -84.562 -11.114   4.696  1.00  0.00    -0.359 OA
ATOM     37  H2  UNL     1     -83.672 -10.833   4.869  1.00  0.00     0.217 HD
ENDBRANCH   9  36
TORSDOF 8
ENDMDL
MODEL 2
REMARK VINA RESULT: -7.927772852      1.720      2.770
REMARK  8 active torsions:
REMARK  status: ('A' for Active; 'I' for Inactive)
REMARK    1  A    between atoms: C2_2  and  O1_3 
REMARK    2  A    between atoms: O1_3  and  N1_4 
REMARK    3  A    between atoms: C3_6  and  C5_8 
REMARK    4  A    between atoms: C9_16  and  O2_17 
REMARK    5  A    between atoms: C14_24  and  C15_25 
REMARK    6  A    between atoms: N4_28  and  C18_29 
REMARK    7  A    between atoms: C18_29  and  C19_30 
REMARK    8  A    between atoms: C24_35  and  O3_36 
ROOT
HETATM    1  C5  UNL     1     -90.350 -12.791   9.421  1.00  0.00     0.092 A 
HETATM    2  N2  UNL     1     -90.151 -12.845   8.098  1.00  0.00    -0.338 N 
ATOM      3  H2  UNL     1     -90.928 -13.123   7.499  1.00  0.00     0.167 HD
HETATM    4  C6  UNL     1     -88.985 -12.551   7.534  1.00  0.00     0.118 A 
HETATM    5  N3  UNL     1     -88.596 -12.508   6.229  1.00  0.00    -0.341 N 
ATOM      6  H3  UNL     1     -89.170 -12.742   5.418  1.00  0.00     0.167 HD
HETATM    7  C7  UNL     1     -87.331 -12.103   6.210  1.00  0.00     0.047 A 
HETATM    8  C8  UNL     1     -86.471 -11.857   5.144  1.00  0.00     0.068 A 
HETATM    9  C9  UNL     1     -85.202 -11.398   5.344  1.00  0.00     0.085 A 
HETATM   10  C10 UNL     1     -84.786 -11.182   6.616  1.00  0.00     0.045 A 
HETATM   11 BR1  UNL     1     -83.006 -10.535   6.902  1.00  0.00    -0.048 Br
HETATM   12  C11 UNL     1     -85.599 -11.411   7.721  1.00  0.00     0.036 A 
HETATM   13  C12 UNL     1     -86.864 -11.876   7.499  1.00  0.00     0.007 A 
HETATM   14  C13 UNL     1     -87.925 -12.173   8.334  1.00  0.00     0.034 A 
HETATM   15  C14 UNL     1     -88.058 -12.101   9.720  1.00  0.00     0.020 A 
HETATM   16  C24 UNL     1     -89.329 -12.424  10.265  1.00  0.00     0.106 A 
ENDROOT
BRANCH  15  17
HETATM   17  C15 UNL     1     -86.979 -11.991  10.654  1.00  0.00    -0.044 C 
HETATM   18  C16 UNL     1     -86.038 -12.897  10.878  1.00  0.00     0.011 C 
HETATM   19  C17 UNL     1     -84.967 -12.653  11.877  1.00  0.00     0.300 C 
HETATM   20  N4  UNL     1     -84.414 -11.350  11.834  1.00  0.00     0.092 N 
HETATM   21  C22 UNL     1     -85.168 -10.392  11.078  1.00  0.00     0.277 C 
HETATM   22  C23 UNL     1     -86.658 -10.674  11.336  1.00  0.00     0.069 C 
BRANCH  20  23
HETATM   23  C18 UNL     1     -83.047 -11.367  11.352  1.00  0.00     0.276 C 
BRANCH  23  24
HETATM   24  C19 UNL     1     -82.543  -9.942  11.356  1.00  0.00     0.006 C 
HETATM   25  C20 UNL     1     -81.987  -9.664  12.738  1.00  0.00     0.011 C 
HETATM   26  C21 UNL     1     -81.445  -9.758  10.317  1.00  0.00     0.011 C 
ENDBRANCH  23  24
ENDBRANCH  20  23
ENDBRANCH  15  17
BRANCH  16  27
HETATM   27  O3  UNL     1     -89.547 -12.381  11.578  1.00  0.00    -0.357 OA
ATOM     28  H3  UNL     1     -88.831 -12.556  12.178  1.00  0.00     0.217 HD
ENDBRANCH  16  27
BRANCH   1  29
HETATM   29  C3  UNL     1     -91.685 -13.130   9.930  1.00  0.00     0.058 C 
HETATM   30  N1  UNL     1     -91.781 -14.044  10.843  1.00  0.00    -0.269 N 
ATOM     31  H1  UNL     1     -90.921 -14.487  11.169  1.00  0.00     0.194 HD
HETATM   32  C4  UNL     1     -92.883 -12.470   9.435  1.00  0.00     0.072 C 
BRANCH  30  33
HETATM   33  O1  UNL     1     -92.950 -14.447  11.390  1.00  0.00    -0.281 OA
BRANCH  33  34
HETATM   34  C2  UNL     1     -93.548 -15.698  11.220  1.00  0.00     0.196 C 
HETATM   35  C1  UNL     1     -92.864 -16.469  10.108  1.00  0.00     0.036 C 
ENDBRANCH  33  34
ENDBRANCH  30  33
ENDBRANCH   1  29
BRANCH   9  36
HETATM   36  O2  UNL     1     -84.396 -11.175   4.226  1.00  0.00    -0.359 OA
ATOM     37  H2  UNL     1     -84.294 -11.881   3.599  1.00  0.00     0.217 HD
ENDBRANCH   9  36
TORSDOF 8
ENDMDL
MODEL 3
REMARK VINA RESULT: -7.910779621      3.109      7.499
REMARK  8 active torsions:
REMARK  status: ('A' for Active; 'I' for Inactive)
REMARK    1  A    between atoms: C2_2  and  O1_3 
REMARK    2  A    between atoms: O1_3  and  N1_4 
REMARK    3  A    between atoms: C3_6  and  C5_8 
REMARK    4  A    between atoms: C9_16  and  O2_17 
REMARK    5  A    between atoms: C14_24  and  C15_25 
REMARK    6  A    between atoms: N4_28  and  C18_29 
REMARK    7  A    between atoms: C18_29  and  C19_30 
REMARK    8  A    between atoms: C24_35  and  O3_36 
ROOT
HETATM    1  C5  UNL     1     -88.026 -11.686  15.190  1.00  0.00     0.092 A 
HETATM    2  N2  UNL     1     -89.344 -11.916  15.146  1.00  0.00    -0.338 N 
ATOM      3  H2  UNL     1     -89.868 -11.924  16.021  1.00  0.00     0.167 HD
HETATM    4  C6  UNL     1     -89.998 -12.133  14.010  1.00  0.00     0.118 A 
HETATM    5  N3  UNL     1     -91.320 -12.344  13.753  1.00  0.00    -0.341 N 
ATOM      6  H3  UNL     1     -92.068 -12.405  14.443  1.00  0.00     0.167 HD
HETATM    7  C7  UNL     1     -91.449 -12.454  12.436  1.00  0.00     0.047 A 
HETATM    8  C8  UNL     1     -92.580 -12.638  11.646  1.00  0.00     0.068 A 
HETATM    9  C9  UNL     1     -92.499 -12.682  10.285  1.00  0.00     0.085 A 
HETATM   10  C10 UNL     1     -91.282 -12.541   9.705  1.00  0.00     0.045 A 
HETATM   11 BR1  UNL     1     -91.163 -12.599   7.794  1.00  0.00    -0.048 Br
HETATM   12  C11 UNL     1     -90.116 -12.356  10.442  1.00  0.00     0.036 A 
HETATM   13  C12 UNL     1     -90.219 -12.321  11.803  1.00  0.00     0.007 A 
HETATM   14  C13 UNL     1     -89.301 -12.125  12.818  1.00  0.00     0.034 A 
HETATM   15  C14 UNL     1     -87.926 -11.898  12.789  1.00  0.00     0.020 A 
HETATM   16  C24 UNL     1     -87.281 -11.669  14.034  1.00  0.00     0.106 A 
ENDROOT
BRANCH  15  17
HETATM   17  C15 UNL     1     -87.068 -12.134  11.668  1.00  0.00    -0.044 C 
HETATM   18  C16 UNL     1     -86.770 -13.313  11.140  1.00  0.00     0.011 C 
HETATM   19  C17 UNL     1     -85.866 -13.416   9.967  1.00  0.00     0.300 C 
HETATM   20  N4  UNL     1     -86.111 -12.456   8.955  1.00  0.00     0.092 N 
HETATM   21  C22 UNL     1     -86.951 -11.360   9.343  1.00  0.00     0.277 C 
HETATM   22  C23 UNL     1     -86.586 -10.993  10.791  1.00  0.00     0.069 C 
BRANCH  20  23
HETATM   23  C18 UNL     1     -86.652 -13.070   7.758  1.00  0.00     0.276 C 
BRANCH  23  24
HETATM   24  C19 UNL     1     -86.907 -11.969   6.754  1.00  0.00     0.006 C 
HETATM   25  C20 UNL     1     -85.586 -11.656   6.080  1.00  0.00     0.011 C 
HETATM   26  C21 UNL     1     -87.920 -12.418   5.710  1.00  0.00     0.011 C 
ENDBRANCH  23  24
ENDBRANCH  20  23
ENDBRANCH  15  17
BRANCH  16  27
HETATM   27  O3  UNL     1     -85.971 -11.443  14.100  1.00  0.00    -0.357 OA
ATOM     28  H3  UNL     1     -85.364 -12.121  13.827  1.00  0.00     0.217 HD
ENDBRANCH  16  27
BRANCH   1  29
HETATM   29  C3  UNL     1     -87.412 -11.451  16.503  1.00  0.00     0.058 C 
HETATM   30  N1  UNL     1     -86.627 -10.430  16.641  1.00  0.00    -0.269 N 
ATOM     31  H1  UNL     1     -86.472  -9.832  15.829  1.00  0.00     0.194 HD
HETATM   32  C4  UNL     1     -87.664 -12.331  17.634  1.00  0.00     0.072 C 
BRANCH  30  33
HETATM   33  O1  UNL     1     -86.001 -10.108  17.796  1.00  0.00    -0.281 OA
BRANCH  33  34
HETATM   34  C2  UNL     1     -84.695  -9.626  17.914  1.00  0.00     0.196 C 
HETATM   35  C1  UNL     1     -84.122  -9.297  16.549  1.00  0.00     0.036 C 
ENDBRANCH  33  34
ENDBRANCH  30  33
ENDBRANCH   1  29
BRANCH   9  36
HETATM   36  O2  UNL     1     -93.676 -12.871   9.558  1.00  0.00    -0.359 OA
ATOM     37  H2  UNL     1     -94.205 -13.636   9.752  1.00  0.00     0.217 HD
ENDBRANCH   9  36
TORSDOF 8
ENDMDL
MODEL 4
REMARK VINA RESULT: -7.870437322      1.141      1.531
REMARK  8 active torsions:
REMARK  status: ('A' for Active; 'I' for Inactive)
REMARK    1  A    between atoms: C2_2  and  O1_3 
REMARK    2  A    between atoms: O1_3  and  N1_4 
REMARK    3  A    between atoms: C3_6  and  C5_8 
REMARK    4  A    between atoms: C9_16  and  O2_17 
REMARK    5  A    between atoms: C14_24  and  C15_25 
REMARK    6  A    between atoms: N4_28  and  C18_29 
REMARK    7  A    between atoms: C18_29  and  C19_30 
REMARK    8  A    between atoms: C24_35  and  O3_36 
ROOT
HETATM    1  C5  UNL     1     -90.286 -12.649   9.727  1.00  0.00     0.092 A 
HETATM    2  N2  UNL     1     -90.024 -12.813   8.425  1.00  0.00    -0.338 N 
ATOM      3  H2  UNL     1     -90.763 -13.169   7.819  1.00  0.00     0.167 HD
HETATM    4  C6  UNL     1     -88.842 -12.531   7.888  1.00  0.00     0.118 A 
HETATM    5  N3  UNL     1     -88.394 -12.590   6.602  1.00  0.00    -0.341 N 
ATOM      6  H3  UNL     1     -88.922 -12.914   5.792  1.00  0.00     0.167 HD
HETATM    7  C7  UNL     1     -87.142 -12.147   6.603  1.00  0.00     0.047 A 
HETATM    8  C8  UNL     1     -86.241 -11.968   5.558  1.00  0.00     0.068 A 
HETATM    9  C9  UNL     1     -84.996 -11.451   5.772  1.00  0.00     0.085 A 
HETATM   10  C10 UNL     1     -84.646 -11.109   7.036  1.00  0.00     0.045 A 
HETATM   11 BR1  UNL     1     -82.902 -10.380   7.341  1.00  0.00    -0.048 Br
HETATM   12  C11 UNL     1     -85.503 -11.267   8.121  1.00  0.00     0.036 A 
HETATM   13  C12 UNL     1     -86.742 -11.792   7.886  1.00  0.00     0.007 A 
HETATM   14  C13 UNL     1     -87.832 -12.049   8.697  1.00  0.00     0.034 A 
HETATM   15  C14 UNL     1     -88.032 -11.859  10.063  1.00  0.00     0.020 A 
HETATM   16  C24 UNL     1     -89.317 -12.175  10.579  1.00  0.00     0.106 A 
ENDROOT
BRANCH  15  17
HETATM   17  C15 UNL     1     -87.001 -11.632  11.031  1.00  0.00    -0.044 C 
HETATM   18  C16 UNL     1     -86.630 -10.459  11.524  1.00  0.00     0.011 C 
HETATM   19  C17 UNL     1     -85.545 -10.365  12.532  1.00  0.00     0.300 C 
HETATM   20  N4  UNL     1     -85.610 -11.344  13.553  1.00  0.00     0.092 N 
HETATM   21  C22 UNL     1     -86.493 -12.443  13.289  1.00  0.00     0.277 C 
HETATM   22  C23 UNL     1     -86.370 -12.782  11.794  1.00  0.00     0.069 C 
BRANCH  20  23
HETATM   23  C18 UNL     1     -85.950 -10.757  14.834  1.00  0.00     0.276 C 
BRANCH  23  24
HETATM   24  C19 UNL     1     -84.747  -9.977  15.313  1.00  0.00     0.006 C 
HETATM   25  C20 UNL     1     -85.193  -9.139  16.495  1.00  0.00     0.011 C 
HETATM   26  C21 UNL     1     -83.633 -10.919  15.747  1.00  0.00     0.011 C 
ENDBRANCH  23  24
ENDBRANCH  20  23
ENDBRANCH  15  17
BRANCH  16  27
HETATM   27  O3  UNL     1     -89.597 -12.023  11.872  1.00  0.00    -0.357 OA
ATOM     28  H3  UNL     1     -88.975 -11.580  12.437  1.00  0.00     0.217 HD
ENDBRANCH  16  27
BRANCH   1  29
HETATM   29  C3  UNL     1     -91.632 -12.986  10.206  1.00  0.00     0.058 C 
HETATM   30  N1  UNL     1     -91.759 -13.960  11.051  1.00  0.00    -0.269 N 
ATOM     31  H1  UNL     1     -90.914 -14.449  11.348  1.00  0.00     0.194 HD
HETATM   32  C4  UNL     1     -92.809 -12.260   9.754  1.00  0.00     0.072 C 
BRANCH  30  33
HETATM   33  O1  UNL     1     -92.942 -14.368  11.563  1.00  0.00    -0.281 OA
BRANCH  33  34
HETATM   34  C2  UNL     1     -93.615 -15.547  11.236  1.00  0.00     0.196 C 
HETATM   35  C1  UNL     1     -92.886 -16.289  10.133  1.00  0.00     0.036 C 
ENDBRANCH  33  34
ENDBRANCH  30  33
ENDBRANCH   1  29
BRANCH   9  36
HETATM   36  O2  UNL     1     -84.146 -11.300   4.674  1.00  0.00    -0.359 OA
ATOM     37  H2  UNL     1     -83.343 -11.806   4.656  1.00  0.00     0.217 HD
ENDBRANCH   9  36
TORSDOF 8
ENDMDL
MODEL 5
REMARK VINA RESULT: -7.696619636      1.501      2.038
REMARK  8 active torsions:
REMARK  status: ('A' for Active; 'I' for Inactive)
REMARK    1  A    between atoms: C2_2  and  O1_3 
REMARK    2  A    between atoms: O1_3  and  N1_4 
REMARK    3  A    between atoms: C3_6  and  C5_8 
REMARK    4  A    between atoms: C9_16  and  O2_17 
REMARK    5  A    between atoms: C14_24  and  C15_25 
REMARK    6  A    between atoms: N4_28  and  C18_29 
REMARK    7  A    between atoms: C18_29  and  C19_30 
REMARK    8  A    between atoms: C24_35  and  O3_36 
ROOT
HETATM    1  C5  UNL     1     -89.167 -12.850   8.307  1.00  0.00     0.092 A 
HETATM    2  N2  UNL     1     -88.691 -12.823   7.057  1.00  0.00    -0.338 N 
ATOM      3  H2  UNL     1     -89.292 -13.145   6.298  1.00  0.00     0.167 HD
HETATM    4  C6  UNL     1     -87.469 -12.393   6.762  1.00  0.00     0.118 A 
HETATM    5  N3  UNL     1     -86.821 -12.252   5.571  1.00  0.00    -0.341 N 
ATOM      6  H3  UNL     1     -87.185 -12.501   4.651  1.00  0.00     0.167 HD
HETATM    7  C7  UNL     1     -85.629 -11.729   5.833  1.00  0.00     0.047 A 
HETATM    8  C8  UNL     1     -84.595 -11.352   4.981  1.00  0.00     0.068 A 
HETATM    9  C9  UNL     1     -83.450 -10.785   5.460  1.00  0.00     0.085 A 
HETATM   10  C10 UNL     1     -83.334 -10.590   6.796  1.00  0.00     0.045 A 
HETATM   11 BR1  UNL     1     -81.730  -9.791   7.472  1.00  0.00    -0.048 Br
HETATM   12  C11 UNL     1     -84.333 -10.947   7.696  1.00  0.00     0.036 A 
HETATM   13  C12 UNL     1     -85.468 -11.519   7.197  1.00  0.00     0.007 A 
HETATM   14  C13 UNL     1     -86.645 -11.954   7.779  1.00  0.00     0.034 A 
HETATM   15  C14 UNL     1     -87.072 -11.960   9.106  1.00  0.00     0.020 A 
HETATM   16  C24 UNL     1     -88.389 -12.427   9.360  1.00  0.00     0.106 A 
ENDROOT
BRANCH  15  17
HETATM   17  C15 UNL     1     -86.230 -11.793  10.252  1.00  0.00    -0.044 C 
HETATM   18  C16 UNL     1     -86.111 -10.697  10.987  1.00  0.00     0.011 C 
HETATM   19  C17 UNL     1     -85.201 -10.660  12.159  1.00  0.00     0.300 C 
HETATM   20  N4  UNL     1     -85.257 -11.814  12.978  1.00  0.00     0.092 N 
HETATM   21  C22 UNL     1     -85.919 -12.945  12.395  1.00  0.00     0.277 C 
HETATM   22  C23 UNL     1     -85.543 -12.978  10.904  1.00  0.00     0.069 C 
BRANCH  20  23
HETATM   23  C18 UNL     1     -85.853 -11.525  14.267  1.00  0.00     0.276 C 
BRANCH  23  24
HETATM   24  C19 UNL     1     -87.284 -12.013  14.228  1.00  0.00     0.006 C 
HETATM   25  C20 UNL     1     -87.537 -12.772  15.515  1.00  0.00     0.011 C 
HETATM   26  C21 UNL     1     -88.249 -10.839  14.130  1.00  0.00     0.011 C 
ENDBRANCH  23  24
ENDBRANCH  20  23
ENDBRANCH  15  17
BRANCH  16  27
HETATM   27  O3  UNL     1     -88.880 -12.467  10.596  1.00  0.00    -0.357 OA
ATOM     28  H3  UNL     1     -88.832 -13.274  11.094  1.00  0.00     0.217 HD
ENDBRANCH  16  27
BRANCH   1  29
HETATM   29  C3  UNL     1     -90.536 -13.338   8.512  1.00  0.00     0.058 C 
HETATM   30  N1  UNL     1     -91.482 -12.468   8.677  1.00  0.00    -0.269 N 
ATOM     31  H1  UNL     1     -91.231 -11.479   8.655  1.00  0.00     0.194 HD
HETATM   32  C4  UNL     1     -90.847 -14.759   8.535  1.00  0.00     0.072 C 
BRANCH  30  33
HETATM   33  O1  UNL     1     -92.780 -12.790   8.876  1.00  0.00    -0.281 OA
BRANCH  33  34
HETATM   34  C2  UNL     1     -93.521 -12.534  10.032  1.00  0.00     0.196 C 
HETATM   35  C1  UNL     1     -93.200 -13.555  11.107  1.00  0.00     0.036 C 
ENDBRANCH  33  34
ENDBRANCH  30  33
ENDBRANCH   1  29
BRANCH   9  36
HETATM   36  O2  UNL     1     -82.455 -10.434   4.545  1.00  0.00    -0.359 OA
ATOM     37  H2  UNL     1     -82.228 -11.059   3.866  1.00  0.00     0.217 HD
ENDBRANCH   9  36
TORSDOF 8
ENDMDL
