MODEL 1
REMARK VINA RESULT: -9.364047738      0.000      0.000
REMARK  7 active torsions:
REMARK  status: ('A' for Active; 'I' for Inactive)
REMARK    1  A    between atoms: N1_2  and  C2_4 
REMARK    2  A    between atoms: C5_11  and  O1_12 
REMARK    3  A    between atoms: O1_12  and  C6_13 
REMARK    4  A    between atoms: N5_20  and  C11_22 
REMARK    5  A    between atoms: C11_22  and  C12_23 
REMARK    6  A    between atoms: C14_25  and  O2_26 
REMARK    7  A    between atoms: C18_30  and  N6_31 
ROOT
HETATM    1  C6  UNL     1     -88.475 -13.702   7.032  1.00  0.00     0.079 A 
HETATM    2  C7  UNL     1     -87.837 -13.918   8.263  1.00  0.00     0.040 A 
HETATM    3  C8  UNL     1     -86.478 -13.737   8.397  1.00  0.00     0.035 A 
HETATM    4  C9  UNL     1     -85.679 -13.342   7.353  1.00  0.00     0.069 A 
HETATM    5  N4  UNL     1     -84.368 -13.090   7.179  1.00  0.00    -0.320 N 
ATOM      6  H4  UNL     1     -83.646 -13.161   7.896  1.00  0.00     0.169 HD
HETATM    7  C10 UNL     1     -84.169 -12.727   5.894  1.00  0.00     0.225 A 
HETATM    8  N5  UNL     1     -83.029 -12.404   5.338  1.00  0.00    -0.352 N 
ATOM      9  H5  UNL     1     -83.001 -12.145   4.353  1.00  0.00     0.163 HD
HETATM   10  O5  UNL     1     -85.339 -12.763   5.312  1.00  0.00    -0.277 OA
HETATM   11  C19 UNL     1     -86.288 -13.125   6.137  1.00  0.00     0.108 A 
HETATM   12  C20 UNL     1     -87.670 -13.306   5.993  1.00  0.00     0.077 A 
ENDROOT
BRANCH   1  13
HETATM   13  O1  UNL     1     -89.840 -13.895   6.951  1.00  0.00    -0.308 OA
BRANCH  13  14
HETATM   14  C5  UNL     1     -90.667 -14.320   7.984  1.00  0.00     0.116 A 
HETATM   15  C4  UNL     1     -91.574 -13.431   8.548  1.00  0.00     0.072 A 
HETATM   16  C3  UNL     1     -92.390 -13.846   9.567  1.00  0.00     0.065 A 
HETATM   17  N3  UNL     1     -93.356 -13.208  10.297  1.00  0.00    -0.298 N 
HETATM   18  C23 UNL     1     -92.368 -15.132  10.087  1.00  0.00     0.040 A 
HETATM   19  N2  UNL     1     -93.883 -14.026  11.188  1.00  0.00    -0.285 N 
ATOM     20  H3  UNL     1     -93.630 -12.234  10.170  1.00  0.00     0.187 HD
HETATM   21  C2  UNL     1     -93.304 -15.235  11.097  1.00  0.00     0.128 A 
ATOM     22  H2  UNL     1     -94.621 -13.777  11.847  1.00  0.00     0.188 HD
HETATM   23  C22 UNL     1     -91.459 -15.988   9.506  1.00  0.00     0.062 A 
HETATM   24  C21 UNL     1     -90.614 -15.597   8.467  1.00  0.00     0.151 A 
HETATM   25  F1  UNL     1     -89.758 -16.519   7.971  1.00  0.00    -0.203 F 
BRANCH  21  26
HETATM   26  N1  UNL     1     -93.524 -16.312  11.779  1.00  0.00    -0.379 N 
HETATM   27  C1  UNL     1     -94.366 -17.371  11.321  1.00  0.00     0.147 C 
ATOM     28  H1  UNL     1     -93.074 -16.410  12.689  1.00  0.00     0.160 HD
ENDBRANCH  21  26
ENDBRANCH  13  14
ENDBRANCH   1  13
BRANCH   8  29
HETATM   29  C11 UNL     1     -81.798 -12.411   6.120  1.00  0.00     0.164 C 
BRANCH  29  30
HETATM   30  C12 UNL     1     -81.340 -11.005   6.245  1.00  0.00    -0.005 A 
HETATM   31  C13 UNL     1     -80.836 -10.329   5.129  1.00  0.00     0.048 A 
HETATM   32  C14 UNL     1     -80.406  -9.022   5.163  1.00  0.00     0.068 A 
HETATM   33  C16 UNL     1     -80.480  -8.354   6.364  1.00  0.00     0.039 A 
HETATM   34  C17 UNL     1     -80.964  -8.963   7.494  1.00  0.00     0.039 A 
HETATM   35  C18 UNL     1     -81.398 -10.303   7.429  1.00  0.00     0.111 A 
BRANCH  32  36
HETATM   36  O2  UNL     1     -79.912  -8.408   4.004  1.00  0.00    -0.356 OA
HETATM   37  C15 UNL     1     -80.563  -8.633   2.770  1.00  0.00     0.210 C 
ENDBRANCH  32  36
BRANCH  35  38
HETATM   38  N6  UNL     1     -81.871 -10.909   8.620  1.00  0.00    -0.115 N 
HETATM   39  O3  UNL     1     -81.074 -11.376   9.435  1.00  0.00    -0.532 OA
HETATM   40  O4  UNL     1     -83.246 -10.988   8.879  1.00  0.00    -0.532 OA
ENDBRANCH  35  38
ENDBRANCH  29  30
ENDBRANCH   8  29
TORSDOF 7
ENDMDL
MODEL 2
REMARK VINA RESULT: -9.079140247      3.116     11.619
REMARK  7 active torsions:
REMARK  status: ('A' for Active; 'I' for Inactive)
REMARK    1  A    between atoms: N1_2  and  C2_4 
REMARK    2  A    between atoms: C5_11  and  O1_12 
REMARK    3  A    between atoms: O1_12  and  C6_13 
REMARK    4  A    between atoms: N5_20  and  C11_22 
REMARK    5  A    between atoms: C11_22  and  C12_23 
REMARK    6  A    between atoms: C14_25  and  O2_26 
REMARK    7  A    between atoms: C18_30  and  N6_31 
ROOT
HETATM    1  C6  UNL     1     -83.896 -13.140   7.451  1.00  0.00     0.079 A 
HETATM    2  C7  UNL     1     -84.611 -12.631   6.357  1.00  0.00     0.040 A 
HETATM    3  C8  UNL     1     -85.972 -12.818   6.251  1.00  0.00     0.035 A 
HETATM    4  C9  UNL     1     -86.698 -13.503   7.192  1.00  0.00     0.069 A 
HETATM    5  N4  UNL     1     -87.991 -13.839   7.362  1.00  0.00    -0.320 N 
ATOM      6  H4  UNL     1     -88.756 -13.608   6.726  1.00  0.00     0.169 HD
HETATM    7  C10 UNL     1     -88.106 -14.534   8.513  1.00  0.00     0.225 A 
HETATM    8  N5  UNL     1     -89.203 -15.033   9.022  1.00  0.00    -0.352 N 
ATOM      9  H5  UNL     1     -89.167 -15.542   9.904  1.00  0.00     0.163 HD
HETATM   10  O5  UNL     1     -86.904 -14.611   9.022  1.00  0.00    -0.277 OA
HETATM   11  C19 UNL     1     -86.013 -14.010   8.274  1.00  0.00     0.108 A 
HETATM   12  C20 UNL     1     -84.630 -13.823   8.389  1.00  0.00     0.077 A 
ENDROOT
BRANCH   1  13
HETATM   13  O1  UNL     1     -82.534 -12.923   7.511  1.00  0.00    -0.308 OA
BRANCH  13  14
HETATM   14  C5  UNL     1     -81.853 -11.847   6.953  1.00  0.00     0.116 A 
HETATM   15  C4  UNL     1     -81.956 -10.591   7.538  1.00  0.00     0.072 A 
HETATM   16  C3  UNL     1     -81.287  -9.529   6.990  1.00  0.00     0.065 A 
HETATM   17  N3  UNL     1     -81.204  -8.208   7.340  1.00  0.00    -0.298 N 
HETATM   18  C23 UNL     1     -80.492  -9.629   5.857  1.00  0.00     0.040 A 
HETATM   19  N2  UNL     1     -80.427  -7.552   6.500  1.00  0.00    -0.285 N 
ATOM     20  H3  UNL     1     -81.677  -7.790   8.140  1.00  0.00     0.187 HD
HETATM   21  C2  UNL     1     -79.959  -8.391   5.560  1.00  0.00     0.128 A 
ATOM     22  H2  UNL     1     -80.213  -6.556   6.555  1.00  0.00     0.188 HD
HETATM   23  C22 UNL     1     -80.411 -10.888   5.303  1.00  0.00     0.062 A 
HETATM   24  C21 UNL     1     -81.079 -11.990   5.836  1.00  0.00     0.151 A 
HETATM   25  F1  UNL     1     -80.930 -13.180   5.210  1.00  0.00    -0.203 F 
BRANCH  21  26
HETATM   26  N1  UNL     1     -79.174  -8.158   4.558  1.00  0.00    -0.379 N 
HETATM   27  C1  UNL     1     -79.556  -7.370   3.430  1.00  0.00     0.147 C 
ATOM     28  H1  UNL     1     -78.235  -8.556   4.575  1.00  0.00     0.160 HD
ENDBRANCH  21  26
ENDBRANCH  13  14
ENDBRANCH   1  13
BRANCH   8  29
HETATM   29  C11 UNL     1     -90.478 -14.865   8.334  1.00  0.00     0.164 C 
BRANCH  29  30
HETATM   30  C12 UNL     1     -91.554 -15.217   9.295  1.00  0.00    -0.005 A 
HETATM   31  C13 UNL     1     -92.104 -14.234  10.123  1.00  0.00     0.048 A 
HETATM   32  C14 UNL     1     -93.113 -14.479  11.027  1.00  0.00     0.068 A 
HETATM   33  C16 UNL     1     -93.597 -15.764  11.114  1.00  0.00     0.039 A 
HETATM   34  C17 UNL     1     -93.097 -16.773  10.328  1.00  0.00     0.039 A 
HETATM   35  C18 UNL     1     -92.065 -16.491   9.411  1.00  0.00     0.111 A 
BRANCH  32  36
HETATM   36  O2  UNL     1     -93.617 -13.443  11.826  1.00  0.00    -0.356 OA
HETATM   37  C15 UNL     1     -94.618 -12.593  11.305  1.00  0.00     0.210 C 
ENDBRANCH  32  36
BRANCH  35  38
HETATM   38  N6  UNL     1     -91.556 -17.560   8.632  1.00  0.00    -0.115 N 
HETATM   39  O3  UNL     1     -92.262 -18.091   7.774  1.00  0.00    -0.532 OA
HETATM   40  O4  UNL     1     -90.250 -18.028   8.834  1.00  0.00    -0.532 OA
ENDBRANCH  35  38
ENDBRANCH  29  30
ENDBRANCH   8  29
TORSDOF 7
ENDMDL
MODEL 3
REMARK VINA RESULT: -8.899064753      2.331      3.554
REMARK  7 active torsions:
REMARK  status: ('A' for Active; 'I' for Inactive)
REMARK    1  A    between atoms: N1_2  and  C2_4 
REMARK    2  A    between atoms: C5_11  and  O1_12 
REMARK    3  A    between atoms: O1_12  and  C6_13 
REMARK    4  A    between atoms: N5_20  and  C11_22 
REMARK    5  A    between atoms: C11_22  and  C12_23 
REMARK    6  A    between atoms: C14_25  and  O2_26 
REMARK    7  A    between atoms: C18_30  and  N6_31 
ROOT
HETATM    1  C6  UNL     1     -88.759 -13.662   6.743  1.00  0.00     0.079 A 
HETATM    2  C7  UNL     1     -88.372 -12.619   5.888  1.00  0.00     0.040 A 
HETATM    3  C8  UNL     1     -87.072 -12.164   5.870  1.00  0.00     0.035 A 
HETATM    4  C9  UNL     1     -86.093 -12.694   6.673  1.00  0.00     0.069 A 
HETATM    5  N4  UNL     1     -84.780 -12.470   6.876  1.00  0.00    -0.320 N 
ATOM      6  H4  UNL     1     -84.214 -11.768   6.398  1.00  0.00     0.169 HD
HETATM    7  C10 UNL     1     -84.340 -13.330   7.818  1.00  0.00     0.225 A 
HETATM    8  N5  UNL     1     -83.122 -13.423   8.287  1.00  0.00    -0.352 N 
ATOM      9  H5  UNL     1     -82.906 -14.116   9.002  1.00  0.00     0.163 HD
HETATM   10  O5  UNL     1     -85.370 -14.053   8.171  1.00  0.00    -0.277 OA
HETATM   11  C19 UNL     1     -86.454 -13.719   7.519  1.00  0.00     0.108 A 
HETATM   12  C20 UNL     1     -87.774 -14.188   7.542  1.00  0.00     0.077 A 
ENDROOT
BRANCH   1  13
HETATM   13  O1  UNL     1     -90.074 -14.083   6.721  1.00  0.00    -0.308 OA
BRANCH  13  14
HETATM   14  C5  UNL     1     -90.832 -14.447   7.827  1.00  0.00     0.116 A 
HETATM   15  C4  UNL     1     -91.689 -13.521   8.409  1.00  0.00     0.072 A 
HETATM   16  C3  UNL     1     -92.437 -13.877   9.500  1.00  0.00     0.065 A 
HETATM   17  N3  UNL     1     -93.343 -13.192  10.263  1.00  0.00    -0.298 N 
HETATM   18  C23 UNL     1     -92.393 -15.137  10.077  1.00  0.00     0.040 A 
HETATM   19  N2  UNL     1     -93.817 -13.960  11.225  1.00  0.00    -0.285 N 
ATOM     20  H3  UNL     1     -93.615 -12.222  10.109  1.00  0.00     0.187 HD
HETATM   21  C2  UNL     1     -93.258 -15.180  11.153  1.00  0.00     0.128 A 
ATOM     22  H2  UNL     1     -94.505 -13.671  11.921  1.00  0.00     0.188 HD
HETATM   23  C22 UNL     1     -91.534 -16.032   9.477  1.00  0.00     0.062 A 
HETATM   24  C21 UNL     1     -90.759 -15.701   8.366  1.00  0.00     0.151 A 
HETATM   25  F1  UNL     1     -89.949 -16.657   7.856  1.00  0.00    -0.203 F 
BRANCH  21  26
HETATM   26  N1  UNL     1     -93.441 -16.221  11.899  1.00  0.00    -0.379 N 
HETATM   27  C1  UNL     1     -94.127 -17.392  11.454  1.00  0.00     0.147 C 
ATOM     28  H1  UNL     1     -93.078 -16.205  12.852  1.00  0.00     0.160 HD
ENDBRANCH  21  26
ENDBRANCH  13  14
ENDBRANCH   1  13
BRANCH   8  29
HETATM   29  C11 UNL     1     -82.071 -12.541   7.793  1.00  0.00     0.164 C 
BRANCH  29  30
HETATM   30  C12 UNL     1     -81.156 -13.359   6.958  1.00  0.00    -0.005 A 
HETATM   31  C13 UNL     1     -80.086 -14.038   7.548  1.00  0.00     0.048 A 
HETATM   32  C14 UNL     1     -79.205 -14.827   6.844  1.00  0.00     0.068 A 
HETATM   33  C16 UNL     1     -79.397 -14.947   5.486  1.00  0.00     0.039 A 
HETATM   34  C17 UNL     1     -80.429 -14.304   4.849  1.00  0.00     0.039 A 
HETATM   35  C18 UNL     1     -81.315 -13.503   5.597  1.00  0.00     0.111 A 
BRANCH  32  36
HETATM   36  O2  UNL     1     -78.154 -15.479   7.503  1.00  0.00    -0.356 OA
HETATM   37  C15 UNL     1     -78.296 -16.841   7.855  1.00  0.00     0.210 C 
ENDBRANCH  32  36
BRANCH  35  38
HETATM   38  N6  UNL     1     -82.356 -12.836   4.904  1.00  0.00    -0.115 N 
HETATM   39  O3  UNL     1     -82.329 -11.611   4.779  1.00  0.00    -0.532 OA
HETATM   40  O4  UNL     1     -83.426 -13.560   4.361  1.00  0.00    -0.532 OA
ENDBRANCH  35  38
ENDBRANCH  29  30
ENDBRANCH   8  29
TORSDOF 7
ENDMDL
MODEL 4
REMARK VINA RESULT: -8.779198209      1.589      2.425
REMARK  7 active torsions:
REMARK  status: ('A' for Active; 'I' for Inactive)
REMARK    1  A    between atoms: N1_2  and  C2_4 
REMARK    2  A    between atoms: C5_11  and  O1_12 
REMARK    3  A    between atoms: O1_12  and  C6_13 
REMARK    4  A    between atoms: N5_20  and  C11_22 
REMARK    5  A    between atoms: C11_22  and  C12_23 
REMARK    6  A    between atoms: C14_25  and  O2_26 
REMARK    7  A    between atoms: C18_30  and  N6_31 
ROOT
HETATM    1  C6  UNL     1     -88.745 -13.662   6.939  1.00  0.00     0.079 A 
HETATM    2  C7  UNL     1     -88.083 -13.707   8.174  1.00  0.00     0.040 A 
HETATM    3  C8  UNL     1     -86.730 -13.463   8.261  1.00  0.00     0.035 A 
HETATM    4  C9  UNL     1     -85.961 -13.166   7.164  1.00  0.00     0.069 A 
HETATM    5  N4  UNL     1     -84.663 -12.890   6.937  1.00  0.00    -0.320 N 
ATOM      6  H4  UNL     1     -83.929 -12.849   7.645  1.00  0.00     0.169 HD
HETATM    7  C10 UNL     1     -84.495 -12.675   5.615  1.00  0.00     0.225 A 
HETATM    8  N5  UNL     1     -83.376 -12.380   5.005  1.00  0.00    -0.352 N 
ATOM      9  H5  UNL     1     -83.371 -12.239   3.995  1.00  0.00     0.163 HD
HETATM   10  O5  UNL     1     -85.671 -12.821   5.063  1.00  0.00    -0.277 OA
HETATM   11  C19 UNL     1     -86.594 -13.117   5.942  1.00  0.00     0.108 A 
HETATM   12  C20 UNL     1     -87.970 -13.363   5.845  1.00  0.00     0.077 A 
ENDROOT
BRANCH   1  13
HETATM   13  O1  UNL     1     -90.103 -13.912   6.905  1.00  0.00    -0.308 OA
BRANCH  13  14
HETATM   14  C5  UNL     1     -90.881 -14.338   7.976  1.00  0.00     0.116 A 
HETATM   15  C4  UNL     1     -91.750 -13.447   8.592  1.00  0.00     0.072 A 
HETATM   16  C3  UNL     1     -92.517 -13.865   9.647  1.00  0.00     0.065 A 
HETATM   17  N3  UNL     1     -93.439 -13.225  10.431  1.00  0.00    -0.298 N 
HETATM   18  C23 UNL     1     -92.481 -15.155  10.154  1.00  0.00     0.040 A 
HETATM   19  N2  UNL     1     -93.928 -14.046  11.340  1.00  0.00    -0.285 N 
ATOM     20  H3  UNL     1     -93.711 -12.247  10.326  1.00  0.00     0.187 HD
HETATM   21  C2  UNL     1     -93.365 -15.259  11.210  1.00  0.00     0.128 A 
ATOM     22  H2  UNL     1     -94.629 -13.797  12.038  1.00  0.00     0.188 HD
HETATM   23  C22 UNL     1     -91.609 -16.013   9.521  1.00  0.00     0.062 A 
HETATM   24  C21 UNL     1     -90.815 -15.620   8.444  1.00  0.00     0.151 A 
HETATM   25  F1  UNL     1     -89.993 -16.545   7.897  1.00  0.00    -0.203 F 
BRANCH  21  26
HETATM   26  N1  UNL     1     -93.560 -16.341  11.893  1.00  0.00    -0.379 N 
HETATM   27  C1  UNL     1     -94.211 -17.496  11.362  1.00  0.00     0.147 C 
ATOM     28  H1  UNL     1     -93.232 -16.370  12.858  1.00  0.00     0.160 HD
ENDBRANCH  21  26
ENDBRANCH  13  14
ENDBRANCH   1  13
BRANCH   8  29
HETATM   29  C11 UNL     1     -82.135 -12.250   5.759  1.00  0.00     0.164 C 
BRANCH  29  30
HETATM   30  C12 UNL     1     -81.211 -11.407   4.959  1.00  0.00    -0.005 A 
HETATM   31  C13 UNL     1     -80.966 -10.083   5.335  1.00  0.00     0.048 A 
HETATM   32  C14 UNL     1     -80.112  -9.246   4.653  1.00  0.00     0.068 A 
HETATM   33  C16 UNL     1     -79.472  -9.748   3.544  1.00  0.00     0.039 A 
HETATM   34  C17 UNL     1     -79.672 -11.040   3.124  1.00  0.00     0.039 A 
HETATM   35  C18 UNL     1     -80.552 -11.874   3.843  1.00  0.00     0.111 A 
BRANCH  32  36
HETATM   36  O2  UNL     1     -79.914  -7.928   5.088  1.00  0.00    -0.356 OA
HETATM   37  C15 UNL     1     -80.202  -7.592   6.431  1.00  0.00     0.210 C 
ENDBRANCH  32  36
BRANCH  35  38
HETATM   38  N6  UNL     1     -80.754 -13.195   3.369  1.00  0.00    -0.115 N 
HETATM   39  O3  UNL     1     -81.678 -13.439   2.592  1.00  0.00    -0.532 OA
HETATM   40  O4  UNL     1     -79.910 -14.235   3.783  1.00  0.00    -0.532 OA
ENDBRANCH  35  38
ENDBRANCH  29  30
ENDBRANCH   8  29
TORSDOF 7
ENDMDL
MODEL 5
REMARK VINA RESULT: -8.726910488      3.494      4.307
REMARK  7 active torsions:
REMARK  status: ('A' for Active; 'I' for Inactive)
REMARK    1  A    between atoms: N1_2  and  C2_4 
REMARK    2  A    between atoms: C5_11  and  O1_12 
REMARK    3  A    between atoms: O1_12  and  C6_13 
REMARK    4  A    between atoms: N5_20  and  C11_22 
REMARK    5  A    between atoms: C11_22  and  C12_23 
REMARK    6  A    between atoms: C14_25  and  O2_26 
REMARK    7  A    between atoms: C18_30  and  N6_31 
ROOT
HETATM    1  C6  UNL     1     -88.461 -13.902   8.152  1.00  0.00     0.079 A 
HETATM    2  C7  UNL     1     -88.977 -13.568   6.891  1.00  0.00     0.040 A 
HETATM    3  C8  UNL     1     -88.148 -13.139   5.878  1.00  0.00     0.035 A 
HETATM    4  C9  UNL     1     -86.790 -13.015   6.037  1.00  0.00     0.069 A 
HETATM    5  N4  UNL     1     -85.755 -12.636   5.264  1.00  0.00    -0.320 N 
ATOM      6  H4  UNL     1     -85.816 -12.334   4.291  1.00  0.00     0.169 HD
HETATM    7  C10 UNL     1     -84.622 -12.722   5.993  1.00  0.00     0.225 A 
HETATM    8  N5  UNL     1     -83.409 -12.438   5.593  1.00  0.00    -0.352 N 
ATOM      9  H5  UNL     1     -82.625 -12.543   6.236  1.00  0.00     0.163 HD
HETATM   10  O5  UNL     1     -84.974 -13.144   7.179  1.00  0.00    -0.277 OA
HETATM   11  C19 UNL     1     -86.265 -13.339   7.269  1.00  0.00     0.108 A 
HETATM   12  C20 UNL     1     -87.102 -13.777   8.303  1.00  0.00     0.077 A 
ENDROOT
BRANCH   1  13
HETATM   13  O1  UNL     1     -89.334 -14.329   9.133  1.00  0.00    -0.308 OA
BRANCH  13  14
HETATM   14  C5  UNL     1     -89.242 -14.040  10.489  1.00  0.00     0.116 A 
HETATM   15  C4  UNL     1     -89.163 -12.717  10.906  1.00  0.00     0.072 A 
HETATM   16  C3  UNL     1     -89.071 -12.429  12.242  1.00  0.00     0.065 A 
HETATM   17  N3  UNL     1     -88.982 -11.249  12.930  1.00  0.00    -0.298 N 
HETATM   18  C23 UNL     1     -89.051 -13.400  13.233  1.00  0.00     0.040 A 
HETATM   19  N2  UNL     1     -88.913 -11.471  14.229  1.00  0.00    -0.285 N 
ATOM     20  H3  UNL     1     -88.971 -10.325  12.498  1.00  0.00     0.187 HD
HETATM   21  C2  UNL     1     -88.953 -12.792  14.469  1.00  0.00     0.128 A 
ATOM     22  H2  UNL     1     -88.841 -10.747  14.944  1.00  0.00     0.188 HD
HETATM   23  C22 UNL     1     -89.131 -14.700  12.786  1.00  0.00     0.062 A 
HETATM   24  C21 UNL     1     -89.225 -15.027  11.434  1.00  0.00     0.151 A 
HETATM   25  F1  UNL     1     -89.297 -16.338  11.107  1.00  0.00    -0.203 F 
BRANCH  21  26
HETATM   26  N1  UNL     1     -88.910 -13.431  15.594  1.00  0.00    -0.379 N 
HETATM   27  C1  UNL     1     -88.064 -13.051  16.679  1.00  0.00     0.147 C 
ATOM     28  H1  UNL     1     -89.511 -14.247  15.711  1.00  0.00     0.160 HD
ENDBRANCH  21  26
ENDBRANCH  13  14
ENDBRANCH   1  13
BRANCH   8  29
HETATM   29  C11 UNL     1     -83.171 -11.973   4.231  1.00  0.00     0.164 C 
BRANCH  29  30
HETATM   30  C12 UNL     1     -81.755 -11.532   4.152  1.00  0.00    -0.005 A 
HETATM   31  C13 UNL     1     -81.228 -10.686   5.133  1.00  0.00     0.048 A 
HETATM   32  C14 UNL     1     -79.923 -10.247   5.135  1.00  0.00     0.068 A 
HETATM   33  C16 UNL     1     -79.104 -10.667   4.113  1.00  0.00     0.039 A 
HETATM   34  C17 UNL     1     -79.563 -11.496   3.120  1.00  0.00     0.039 A 
HETATM   35  C18 UNL     1     -80.904 -11.930   3.145  1.00  0.00     0.111 A 
BRANCH  32  36
HETATM   36  O2  UNL     1     -79.462  -9.399   6.152  1.00  0.00    -0.356 OA
HETATM   37  C15 UNL     1     -80.146  -8.189   6.407  1.00  0.00     0.210 C 
ENDBRANCH  32  36
BRANCH  35  38
HETATM   38  N6  UNL     1     -81.352 -12.768   2.092  1.00  0.00    -0.115 N 
HETATM   39  O3  UNL     1     -81.731 -12.275   1.029  1.00  0.00    -0.532 OA
HETATM   40  O4  UNL     1     -81.374 -14.160   2.252  1.00  0.00    -0.532 OA
ENDBRANCH  35  38
ENDBRANCH  29  30
ENDBRANCH   8  29
TORSDOF 7
ENDMDL
