MODEL 1
REMARK VINA RESULT: -8.327581839      0.000      0.000
REMARK  11 active torsions:
REMARK  status: ('A' for Active; 'I' for Inactive)
REMARK    1  A    between atoms: C10_11  and  C11_12 
REMARK    2  A    between atoms: C11_12  and  O1_13 
REMARK    3  A    between atoms: C11_12  and  C12_15 
REMARK    4  A    between atoms: C12_15  and  C13_16 
REMARK    5  A    between atoms: C12_15  and  C14_19 
REMARK    6  A    between atoms: C13_16  and  O2_17 
REMARK    7  A    between atoms: C14_19  and  C15_20 
REMARK    8  A    between atoms: C15_20  and  C16_21 
REMARK    9  A    between atoms: C16_21  and  C17_22 
REMARK   10  A    between atoms: C27_36  and  O3_37 
REMARK   11  A    between atoms: C29_40  and  O4_41 
ROOT
HETATM    1  C1  UNL     1     126.642  12.363  53.804  1.00  0.00     0.023 C 
HETATM    2  C2  UNL     1     125.884  13.653  53.465  1.00  0.00     0.011 C 
HETATM    3  C3  UNL     1     125.568  14.439  54.670  1.00  0.00    -0.053 C 
HETATM    4  C4  UNL     1     126.582  15.088  55.255  1.00  0.00    -0.008 C 
HETATM    5 BR1  UNL     1     126.236  16.132  56.832  1.00  0.00    -0.056 Br
HETATM    6  C5  UNL     1     127.955  15.038  54.743  1.00  0.00     0.052 C 
HETATM    7  C6  UNL     1     128.111  14.582  53.338  1.00  0.00    -0.000 C 
HETATM    8  C7  UNL     1     129.068  15.478  52.628  1.00  0.00    -0.005 C 
HETATM    9  C8  UNL     1     129.559  14.944  51.311  1.00  0.00     0.006 C 
HETATM   10  C9  UNL     1     129.695  16.171  50.383  1.00  0.00     0.008 C 
HETATM   11  C10 UNL     1     129.574  17.306  51.300  1.00  0.00     0.019 C 
HETATM   12  C22 UNL     1     128.495  16.810  52.287  1.00  0.00    -0.004 C 
HETATM   13  C23 UNL     1     127.138  16.810  51.720  1.00  0.00     0.006 C 
HETATM   14  C24 UNL     1     126.239  15.682  52.056  1.00  0.00     0.006 C 
HETATM   15  C25 UNL     1     126.855  14.444  52.567  1.00  0.00     0.005 C 
HETATM   16  C26 UNL     1     124.231  14.570  55.290  1.00  0.00     0.068 C 
HETATM   17  C27 UNL     1     123.122  13.910  54.553  1.00  0.00     0.124 C 
HETATM   18  C28 UNL     1     123.593  12.812  53.658  1.00  0.00     0.065 C 
HETATM   19  C29 UNL     1     124.666  13.263  52.695  1.00  0.00     0.133 C 
ENDROOT
BRANCH  11  20
HETATM   20  C11 UNL     1     129.295  18.662  50.838  1.00  0.00     0.128 C 
BRANCH  20  21
HETATM   21  O1  UNL     1     130.191  19.597  51.470  1.00  0.00    -0.395 OA
ATOM     22  H1  UNL     1     131.083  19.270  51.436  1.00  0.00     0.210 HD
ENDBRANCH  20  21
BRANCH  20  23
HETATM   23  C12 UNL     1     129.072  19.004  49.439  1.00  0.00     0.038 C 
BRANCH  23  24
HETATM   24  C13 UNL     1     129.849  20.177  48.920  1.00  0.00     0.171 C 
BRANCH  24  25
HETATM   25  O2  UNL     1     129.872  20.178  47.506  1.00  0.00    -0.400 OA
ATOM     26  H2  UNL     1     130.368  19.439  47.175  1.00  0.00     0.209 HD
ENDBRANCH  24  25
ENDBRANCH  23  24
BRANCH  23  27
HETATM   27  C14 UNL     1     127.638  19.277  49.051  1.00  0.00     0.010 C 
BRANCH  27  28
HETATM   28  C15 UNL     1     126.747  18.118  48.902  1.00  0.00     0.008 C 
BRANCH  28  29
HETATM   29  C16 UNL     1     127.149  17.002  48.009  1.00  0.00     0.076 C 
BRANCH  29  30
HETATM   30  C17 UNL     1     126.048  16.143  47.526  1.00  0.00     0.072 C 
HETATM   31  N1  UNL     1     125.072  15.951  48.375  1.00  0.00    -0.380 N 
HETATM   32  C18 UNL     1     123.844  15.207  48.315  1.00  0.00     0.121 C 
ATOM     33  H1  UNL     1     125.211  16.430  49.265  1.00  0.00     0.160 HD
HETATM   34  C19 UNL     1     123.202  15.323  46.935  1.00  0.00     0.021 C 
HETATM   35  C20 UNL     1     123.918  14.432  45.968  1.00  0.00     0.021 C 
HETATM   36  C21 UNL     1     125.016  15.234  45.301  1.00  0.00     0.121 C 
HETATM   37  N2  UNL     1     126.066  15.581  46.232  1.00  0.00    -0.380 N 
ATOM     38  H2  UNL     1     127.003  15.380  45.885  1.00  0.00     0.160 HD
ENDBRANCH  29  30
ENDBRANCH  28  29
ENDBRANCH  27  28
ENDBRANCH  23  27
ENDBRANCH  20  23
ENDBRANCH  11  20
BRANCH  19  39
HETATM   39  O4  UNL     1     124.935  12.216  51.836  1.00  0.00    -0.394 OA
ATOM     40  H4  UNL     1     124.284  12.164  51.145  1.00  0.00     0.210 HD
ENDBRANCH  19  39
BRANCH  17  41
HETATM   41  O3  UNL     1     122.217  13.335  55.470  1.00  0.00    -0.395 OA
ATOM     42  H3  UNL     1     121.406  13.829  55.472  1.00  0.00     0.210 HD
ENDBRANCH  17  41
TORSDOF 11
ENDMDL
MODEL 2
REMARK VINA RESULT: -8.106636936      3.183      7.440
REMARK  11 active torsions:
REMARK  status: ('A' for Active; 'I' for Inactive)
REMARK    1  A    between atoms: C10_11  and  C11_12 
REMARK    2  A    between atoms: C11_12  and  O1_13 
REMARK    3  A    between atoms: C11_12  and  C12_15 
REMARK    4  A    between atoms: C12_15  and  C13_16 
REMARK    5  A    between atoms: C12_15  and  C14_19 
REMARK    6  A    between atoms: C13_16  and  O2_17 
REMARK    7  A    between atoms: C14_19  and  C15_20 
REMARK    8  A    between atoms: C15_20  and  C16_21 
REMARK    9  A    between atoms: C16_21  and  C17_22 
REMARK   10  A    between atoms: C27_36  and  O3_37 
REMARK   11  A    between atoms: C29_40  and  O4_41 
ROOT
HETATM    1  C1  UNL     1     122.132  16.716  48.036  1.00  0.00     0.023 C 
HETATM    2  C2  UNL     1     123.153  15.589  48.246  1.00  0.00     0.011 C 
HETATM    3  C3  UNL     1     124.529  16.035  47.970  1.00  0.00    -0.053 C 
HETATM    4  C4  UNL     1     125.101  16.837  48.878  1.00  0.00    -0.008 C 
HETATM    5 BR1  UNL     1     126.896  17.454  48.577  1.00  0.00    -0.056 Br
HETATM    6  C5  UNL     1     124.413  17.269  50.099  1.00  0.00     0.052 C 
HETATM    7  C6  UNL     1     123.225  16.470  50.495  1.00  0.00    -0.000 C 
HETATM    8  C7  UNL     1     123.278  16.195  51.959  1.00  0.00    -0.005 C 
HETATM    9  C8  UNL     1     121.989  15.683  52.542  1.00  0.00     0.006 C 
HETATM   10  C9  UNL     1     122.395  14.658  53.624  1.00  0.00     0.008 C 
HETATM   11  C10 UNL     1     123.832  14.885  53.786  1.00  0.00     0.019 C 
HETATM   12  C22 UNL     1     124.281  15.160  52.335  1.00  0.00    -0.004 C 
HETATM   13  C23 UNL     1     124.319  13.954  51.494  1.00  0.00     0.006 C 
HETATM   14  C24 UNL     1     123.859  14.064  50.091  1.00  0.00     0.006 C 
HETATM   15  C25 UNL     1     123.013  15.218  49.735  1.00  0.00     0.005 C 
HETATM   16  C26 UNL     1     125.331  15.677  46.781  1.00  0.00     0.068 C 
HETATM   17  C27 UNL     1     124.691  14.711  45.850  1.00  0.00     0.124 C 
HETATM   18  C28 UNL     1     123.203  14.690  45.970  1.00  0.00     0.065 C 
HETATM   19  C29 UNL     1     122.734  14.444  47.384  1.00  0.00     0.133 C 
ENDROOT
BRANCH  11  20
HETATM   20  C11 UNL     1     124.710  13.923  54.445  1.00  0.00     0.128 C 
BRANCH  20  21
HETATM   21  O1  UNL     1     124.174  12.592  54.317  1.00  0.00    -0.395 OA
ATOM     22  H1  UNL     1     123.254  12.630  54.082  1.00  0.00     0.210 HD
ENDBRANCH  20  21
BRANCH  20  23
HETATM   23  C12 UNL     1     126.160  13.928  54.298  1.00  0.00     0.038 C 
BRANCH  23  24
HETATM   24  C13 UNL     1     126.799  12.591  54.071  1.00  0.00     0.171 C 
BRANCH  24  25
HETATM   25  O2  UNL     1     126.467  12.085  52.794  1.00  0.00    -0.400 OA
ATOM     26  H2  UNL     1     126.594  11.143  52.760  1.00  0.00     0.209 HD
ENDBRANCH  24  25
ENDBRANCH  23  24
BRANCH  23  27
HETATM   27  C14 UNL     1     126.932  14.548  55.438  1.00  0.00     0.010 C 
BRANCH  27  28
HETATM   28  C15 UNL     1     127.736  15.741  55.138  1.00  0.00     0.008 C 
BRANCH  28  29
HETATM   29  C16 UNL     1     127.438  16.532  53.917  1.00  0.00     0.076 C 
BRANCH  29  30
HETATM   30  C17 UNL     1     128.578  16.749  53.003  1.00  0.00     0.072 C 
HETATM   31  N1  UNL     1     129.137  15.665  52.534  1.00  0.00    -0.380 N 
HETATM   32  C18 UNL     1     130.239  15.428  51.643  1.00  0.00     0.121 C 
ATOM     33  H1  UNL     1     128.698  14.807  52.871  1.00  0.00     0.160 HD
HETATM   34  C19 UNL     1     130.251  16.448  50.507  1.00  0.00     0.021 C 
HETATM   35  C20 UNL     1     130.790  17.753  51.005  1.00  0.00     0.021 C 
HETATM   36  C21 UNL     1     129.628  18.600  51.481  1.00  0.00     0.121 C 
HETATM   37  N2  UNL     1     129.016  18.049  52.669  1.00  0.00    -0.380 N 
ATOM     38  H2  UNL     1     128.873  18.733  53.411  1.00  0.00     0.160 HD
ENDBRANCH  29  30
ENDBRANCH  28  29
ENDBRANCH  27  28
ENDBRANCH  23  27
ENDBRANCH  20  23
ENDBRANCH  11  20
BRANCH  19  39
HETATM   39  O4  UNL     1     121.359  14.315  47.362  1.00  0.00    -0.394 OA
ATOM     40  H4  UNL     1     121.010  14.525  46.504  1.00  0.00     0.210 HD
ENDBRANCH  19  39
BRANCH  17  41
HETATM   41  O3  UNL     1     124.993  15.061  44.518  1.00  0.00    -0.395 OA
ATOM     42  H3  UNL     1     125.723  15.668  44.503  1.00  0.00     0.210 HD
ENDBRANCH  17  41
TORSDOF 11
ENDMDL
MODEL 3
REMARK VINA RESULT: -8.070450660      2.998      5.716
REMARK  11 active torsions:
REMARK  status: ('A' for Active; 'I' for Inactive)
REMARK    1  A    between atoms: C10_11  and  C11_12 
REMARK    2  A    between atoms: C11_12  and  O1_13 
REMARK    3  A    between atoms: C11_12  and  C12_15 
REMARK    4  A    between atoms: C12_15  and  C13_16 
REMARK    5  A    between atoms: C12_15  and  C14_19 
REMARK    6  A    between atoms: C13_16  and  O2_17 
REMARK    7  A    between atoms: C14_19  and  C15_20 
REMARK    8  A    between atoms: C15_20  and  C16_21 
REMARK    9  A    between atoms: C16_21  and  C17_22 
REMARK   10  A    between atoms: C27_36  and  O3_37 
REMARK   11  A    between atoms: C29_40  and  O4_41 
ROOT
HETATM    1  C1  UNL     1     128.941  17.339  52.511  1.00  0.00     0.023 C 
HETATM    2  C2  UNL     1     127.725  16.403  52.571  1.00  0.00     0.011 C 
HETATM    3  C3  UNL     1     126.603  17.006  53.310  1.00  0.00    -0.053 C 
HETATM    4  C4  UNL     1     125.926  17.984  52.695  1.00  0.00    -0.008 C 
HETATM    5 BR1  UNL     1     124.450  18.812  53.606  1.00  0.00    -0.056 Br
HETATM    6  C5  UNL     1     126.264  18.456  51.348  1.00  0.00     0.052 C 
HETATM    7  C6  UNL     1     127.112  17.548  50.533  1.00  0.00    -0.000 C 
HETATM    8  C7  UNL     1     126.559  17.460  49.151  1.00  0.00    -0.005 C 
HETATM    9  C8  UNL     1     127.492  16.841  48.147  1.00  0.00     0.006 C 
HETATM   10  C9  UNL     1     126.598  16.022  47.191  1.00  0.00     0.008 C 
HETATM   11  C10 UNL     1     125.245  16.470  47.522  1.00  0.00     0.019 C 
HETATM   12  C22 UNL     1     125.324  16.632  49.056  1.00  0.00    -0.004 C 
HETATM   13  C23 UNL     1     125.341  15.352  49.780  1.00  0.00     0.006 C 
HETATM   14  C24 UNL     1     126.226  15.227  50.961  1.00  0.00     0.006 C 
HETATM   15  C25 UNL     1     127.328  16.197  51.097  1.00  0.00     0.005 C 
HETATM   16  C26 UNL     1     126.162  16.627  54.670  1.00  0.00     0.068 C 
HETATM   17  C27 UNL     1     126.882  15.476  55.273  1.00  0.00     0.124 C 
HETATM   18  C28 UNL     1     128.231  15.255  54.673  1.00  0.00     0.065 C 
HETATM   19  C29 UNL     1     128.186  15.116  53.170  1.00  0.00     0.133 C 
ENDROOT
BRANCH  11  20
HETATM   20  C11 UNL     1     124.052  15.729  47.124  1.00  0.00     0.128 C 
BRANCH  20  21
HETATM   21  O1  UNL     1     124.423  14.464  46.542  1.00  0.00    -0.395 OA
ATOM     22  H1  UNL     1     124.203  13.754  47.134  1.00  0.00     0.210 HD
ENDBRANCH  20  21
BRANCH  20  23
HETATM   23  C12 UNL     1     122.869  15.600  47.965  1.00  0.00     0.038 C 
BRANCH  23  24
HETATM   24  C13 UNL     1     121.858  14.585  47.522  1.00  0.00     0.171 C 
BRANCH  24  25
HETATM   25  O2  UNL     1     121.950  13.409  48.301  1.00  0.00    -0.400 OA
ATOM     26  H2  UNL     1     121.525  13.528  49.143  1.00  0.00     0.209 HD
ENDBRANCH  24  25
ENDBRANCH  23  24
BRANCH  23  27
HETATM   27  C14 UNL     1     122.083  16.869  48.191  1.00  0.00     0.010 C 
BRANCH  27  28
HETATM   28  C15 UNL     1     121.345  16.990  49.456  1.00  0.00     0.008 C 
BRANCH  28  29
HETATM   29  C16 UNL     1     122.097  17.035  50.736  1.00  0.00     0.076 C 
BRANCH  29  30
HETATM   30  C17 UNL     1     122.050  15.801  51.547  1.00  0.00     0.072 C 
HETATM   31  N1  UNL     1     121.218  14.885  51.127  1.00  0.00    -0.380 N 
HETATM   32  C18 UNL     1     120.869  13.575  51.605  1.00  0.00     0.121 C 
ATOM     33  H1  UNL     1     120.711  15.156  50.284  1.00  0.00     0.160 HD
HETATM   34  C19 UNL     1     122.100  12.837  52.124  1.00  0.00     0.021 C 
HETATM   35  C20 UNL     1     122.465  13.356  53.481  1.00  0.00     0.021 C 
HETATM   36  C21 UNL     1     123.463  14.482  53.310  1.00  0.00     0.121 C 
HETATM   37  N2  UNL     1     122.860  15.641  52.692  1.00  0.00    -0.380 N 
ATOM     38  H2  UNL     1     123.059  16.515  53.178  1.00  0.00     0.160 HD
ENDBRANCH  29  30
ENDBRANCH  28  29
ENDBRANCH  27  28
ENDBRANCH  23  27
ENDBRANCH  20  23
ENDBRANCH  11  20
BRANCH  19  39
HETATM   39  O4  UNL     1     129.455  14.790  52.734  1.00  0.00    -0.394 OA
ATOM     40  H4  UNL     1     129.918  14.274  53.384  1.00  0.00     0.210 HD
ENDBRANCH  19  39
BRANCH  17  41
HETATM   41  O3  UNL     1     127.075  15.704  56.652  1.00  0.00    -0.395 OA
ATOM     42  H3  UNL     1     127.448  14.929  57.056  1.00  0.00     0.210 HD
ENDBRANCH  17  41
TORSDOF 11
ENDMDL
MODEL 4
REMARK VINA RESULT: -8.051996852      3.564      6.789
REMARK  11 active torsions:
REMARK  status: ('A' for Active; 'I' for Inactive)
REMARK    1  A    between atoms: C10_11  and  C11_12 
REMARK    2  A    between atoms: C11_12  and  O1_13 
REMARK    3  A    between atoms: C11_12  and  C12_15 
REMARK    4  A    between atoms: C12_15  and  C13_16 
REMARK    5  A    between atoms: C12_15  and  C14_19 
REMARK    6  A    between atoms: C13_16  and  O2_17 
REMARK    7  A    between atoms: C14_19  and  C15_20 
REMARK    8  A    between atoms: C15_20  and  C16_21 
REMARK    9  A    between atoms: C16_21  and  C17_22 
REMARK   10  A    between atoms: C27_36  and  O3_37 
REMARK   11  A    between atoms: C29_40  and  O4_41 
ROOT
HETATM    1  C1  UNL     1     120.842  17.420  48.627  1.00  0.00     0.023 C 
HETATM    2  C2  UNL     1     121.270  15.949  48.727  1.00  0.00     0.011 C 
HETATM    3  C3  UNL     1     121.851  15.458  47.465  1.00  0.00    -0.053 C 
HETATM    4  C4  UNL     1     123.083  15.884  47.159  1.00  0.00    -0.008 C 
HETATM    5 BR1  UNL     1     123.898  15.279  45.526  1.00  0.00    -0.056 Br
HETATM    6  C5  UNL     1     123.843  16.797  48.018  1.00  0.00     0.052 C 
HETATM    7  C6  UNL     1     123.373  16.912  49.422  1.00  0.00    -0.000 C 
HETATM    8  C7  UNL     1     124.545  16.860  50.343  1.00  0.00    -0.005 C 
HETATM    9  C8  UNL     1     124.246  17.288  51.753  1.00  0.00     0.006 C 
HETATM   10  C9  UNL     1     125.105  16.378  52.659  1.00  0.00     0.008 C 
HETATM   11  C10 UNL     1     126.027  15.736  51.722  1.00  0.00     0.019 C 
HETATM   12  C22 UNL     1     125.122  15.495  50.493  1.00  0.00    -0.004 C 
HETATM   13  C23 UNL     1     124.161  14.398  50.680  1.00  0.00     0.006 C 
HETATM   14  C24 UNL     1     122.793  14.566  50.139  1.00  0.00     0.006 C 
HETATM   15  C25 UNL     1     122.340  15.936  49.835  1.00  0.00     0.005 C 
HETATM   16  C26 UNL     1     121.192  14.540  46.511  1.00  0.00     0.068 C 
HETATM   17  C27 UNL     1     119.868  14.021  46.939  1.00  0.00     0.124 C 
HETATM   18  C28 UNL     1     119.201  14.896  47.950  1.00  0.00     0.065 C 
HETATM   19  C29 UNL     1     120.072  15.166  49.153  1.00  0.00     0.133 C 
ENDROOT
BRANCH  11  20
HETATM   20  C11 UNL     1     126.792  14.541  52.066  1.00  0.00     0.128 C 
BRANCH  20  21
HETATM   21  O1  UNL     1     127.097  13.786  50.876  1.00  0.00    -0.395 OA
ATOM     22  H1  UNL     1     127.698  13.080  51.082  1.00  0.00     0.210 HD
ENDBRANCH  20  21
BRANCH  20  23
HETATM   23  C12 UNL     1     127.916  14.546  52.993  1.00  0.00     0.038 C 
BRANCH  23  24
HETATM   24  C13 UNL     1     127.565  14.663  54.447  1.00  0.00     0.171 C 
BRANCH  24  25
HETATM   25  O2  UNL     1     128.542  15.413  55.141  1.00  0.00    -0.400 OA
ATOM     26  H2  UNL     1     128.244  15.626  56.018  1.00  0.00     0.209 HD
ENDBRANCH  24  25
ENDBRANCH  23  24
BRANCH  23  27
HETATM   27  C14 UNL     1     128.960  15.610  52.752  1.00  0.00     0.010 C 
BRANCH  27  28
HETATM   28  C15 UNL     1     130.165  15.217  52.008  1.00  0.00     0.008 C 
BRANCH  28  29
HETATM   29  C16 UNL     1     130.127  15.190  50.524  1.00  0.00     0.076 C 
BRANCH  29  30
HETATM   30  C17 UNL     1     129.550  16.387  49.879  1.00  0.00     0.072 C 
HETATM   31  N1  UNL     1     128.540  16.163  49.079  1.00  0.00    -0.380 N 
HETATM   32  C18 UNL     1     127.710  17.016  48.274  1.00  0.00     0.121 C 
ATOM     33  H1  UNL     1     128.289  15.176  49.013  1.00  0.00     0.160 HD
HETATM   34  C19 UNL     1     127.405  18.324  49.000  1.00  0.00     0.021 C 
HETATM   35  C20 UNL     1     128.595  19.230  48.930  1.00  0.00     0.021 C 
HETATM   36  C21 UNL     1     129.454  18.987  50.154  1.00  0.00     0.121 C 
HETATM   37  N2  UNL     1     130.065  17.677  50.126  1.00  0.00    -0.380 N 
ATOM     38  H2  UNL     1     131.065  17.688  50.325  1.00  0.00     0.160 HD
ENDBRANCH  29  30
ENDBRANCH  28  29
ENDBRANCH  27  28
ENDBRANCH  23  27
ENDBRANCH  20  23
ENDBRANCH  11  20
BRANCH  19  39
HETATM   39  O4  UNL     1     119.320  15.869  50.074  1.00  0.00    -0.394 OA
ATOM     40  H4  UNL     1     118.972  16.667  49.694  1.00  0.00     0.210 HD
ENDBRANCH  19  39
BRANCH  17  41
HETATM   41  O3  UNL     1     119.004  13.943  45.827  1.00  0.00    -0.395 OA
ATOM     42  H3  UNL     1     118.103  14.047  46.112  1.00  0.00     0.210 HD
ENDBRANCH  17  41
TORSDOF 11
ENDMDL
MODEL 5
REMARK VINA RESULT: -8.004171897      3.004      4.879
REMARK  11 active torsions:
REMARK  status: ('A' for Active; 'I' for Inactive)
REMARK    1  A    between atoms: C10_11  and  C11_12 
REMARK    2  A    between atoms: C11_12  and  O1_13 
REMARK    3  A    between atoms: C11_12  and  C12_15 
REMARK    4  A    between atoms: C12_15  and  C13_16 
REMARK    5  A    between atoms: C12_15  and  C14_19 
REMARK    6  A    between atoms: C13_16  and  O2_17 
REMARK    7  A    between atoms: C14_19  and  C15_20 
REMARK    8  A    between atoms: C15_20  and  C16_21 
REMARK    9  A    between atoms: C16_21  and  C17_22 
REMARK   10  A    between atoms: C27_36  and  O3_37 
REMARK   11  A    between atoms: C29_40  and  O4_41 
ROOT
HETATM    1  C1  UNL     1     120.902  13.532  51.220  1.00  0.00     0.023 C 
HETATM    2  C2  UNL     1     121.772  14.525  50.437  1.00  0.00     0.011 C 
HETATM    3  C3  UNL     1     121.461  15.922  50.784  1.00  0.00    -0.053 C 
HETATM    4  C4  UNL     1     121.886  16.360  51.976  1.00  0.00    -0.008 C 
HETATM    5 BR1  UNL     1     121.512  18.174  52.489  1.00  0.00    -0.056 Br
HETATM    6  C5  UNL     1     122.627  15.511  52.914  1.00  0.00     0.052 C 
HETATM    7  C6  UNL     1     123.242  14.288  52.340  1.00  0.00    -0.000 C 
HETATM    8  C7  UNL     1     124.636  14.145  52.850  1.00  0.00    -0.005 C 
HETATM    9  C8  UNL     1     125.251  12.795  52.608  1.00  0.00     0.006 C 
HETATM   10  C9  UNL     1     126.743  13.060  52.308  1.00  0.00     0.008 C 
HETATM   11  C10 UNL     1     126.924  14.460  52.694  1.00  0.00     0.019 C 
HETATM   12  C22 UNL     1     125.597  15.098  52.228  1.00  0.00    -0.004 C 
HETATM   13  C23 UNL     1     125.505  15.258  50.770  1.00  0.00     0.006 C 
HETATM   14  C24 UNL     1     124.202  14.990  50.117  1.00  0.00     0.006 C 
HETATM   15  C25 UNL     1     123.214  14.190  50.863  1.00  0.00     0.005 C 
HETATM   16  C26 UNL     1     120.721  16.879  49.934  1.00  0.00     0.068 C 
HETATM   17  C27 UNL     1     120.353  16.377  48.585  1.00  0.00     0.124 C 
HETATM   18  C28 UNL     1     120.301  14.887  48.514  1.00  0.00     0.065 C 
HETATM   19  C29 UNL     1     121.579  14.235  48.985  1.00  0.00     0.133 C 
ENDROOT
BRANCH  11  20
HETATM   20  C11 UNL     1     128.076  15.250  52.269  1.00  0.00     0.128 C 
BRANCH  20  21
HETATM   21  O1  UNL     1     128.612  15.988  53.385  1.00  0.00    -0.395 OA
ATOM     22  H1  UNL     1     128.317  16.890  53.353  1.00  0.00     0.210 HD
ENDBRANCH  20  21
BRANCH  20  23
HETATM   23  C12 UNL     1     129.138  14.727  51.419  1.00  0.00     0.038 C 
BRANCH  23  24
HETATM   24  C13 UNL     1     130.489  15.353  51.599  1.00  0.00     0.171 C 
BRANCH  24  25
HETATM   25  O2  UNL     1     131.218  14.691  52.613  1.00  0.00    -0.400 OA
ATOM     26  H2  UNL     1     131.564  15.314  53.242  1.00  0.00     0.209 HD
ENDBRANCH  24  25
ENDBRANCH  23  24
BRANCH  23  27
HETATM   27  C14 UNL     1     128.873  14.778  49.933  1.00  0.00     0.010 C 
BRANCH  27  28
HETATM   28  C15 UNL     1     129.234  16.014  49.225  1.00  0.00     0.008 C 
BRANCH  28  29
HETATM   29  C16 UNL     1     128.180  17.017  48.928  1.00  0.00     0.076 C 
BRANCH  29  30
HETATM   30  C17 UNL     1     127.275  16.679  47.811  1.00  0.00     0.072 C 
HETATM   31  N1  UNL     1     127.773  15.875  46.908  1.00  0.00    -0.380 N 
HETATM   32  C18 UNL     1     127.250  15.309  45.694  1.00  0.00     0.121 C 
ATOM     33  H1  UNL     1     128.732  15.589  47.107  1.00  0.00     0.160 HD
HETATM   34  C19 UNL     1     125.784  14.919  45.861  1.00  0.00     0.021 C 
HETATM   35  C20 UNL     1     124.924  16.143  45.791  1.00  0.00     0.021 C 
HETATM   36  C21 UNL     1     124.732  16.674  47.196  1.00  0.00     0.121 C 
HETATM   37  N2  UNL     1     125.964  17.196  47.743  1.00  0.00    -0.380 N 
ATOM     38  H2  UNL     1     125.866  18.120  48.163  1.00  0.00     0.160 HD
ENDBRANCH  29  30
ENDBRANCH  28  29
ENDBRANCH  27  28
ENDBRANCH  23  27
ENDBRANCH  20  23
ENDBRANCH  11  20
BRANCH  19  39
HETATM   39  O4  UNL     1     121.473  12.876  48.759  1.00  0.00    -0.394 OA
ATOM     40  H4  UNL     1     121.986  12.383  49.388  1.00  0.00     0.210 HD
ENDBRANCH  19  39
BRANCH  17  41
HETATM   41  O3  UNL     1     119.072  16.852  48.232  1.00  0.00    -0.395 OA
ATOM     42  H3  UNL     1     118.567  16.150  47.840  1.00  0.00     0.210 HD
ENDBRANCH  17  41
TORSDOF 11
ENDMDL
