MODEL 1
REMARK VINA RESULT: -8.091506732      0.000      0.000
REMARK  12 active torsions:
REMARK  status: ('A' for Active; 'I' for Inactive)
REMARK    1  A    between atoms: C2_2  and  C3_3 
REMARK    2  A    between atoms: C3_3  and  C4_4 
REMARK    3  A    between atoms: C4_4  and  O1_5 
REMARK    4  A    between atoms: C4_4  and  C5_7 
REMARK    5  A    between atoms: C5_7  and  C7_9 
REMARK    6  A    between atoms: C8_10  and  C9_11 
REMARK    7  A    between atoms: C9_11  and  N1_12 
REMARK    8  A    between atoms: N1_12  and  C10_15 
REMARK    9  A    between atoms: C10_15  and  C11_16 
REMARK   10  A    between atoms: C15_22  and  O2_23 
REMARK   11  A    between atoms: C20_29  and  O3_30 
REMARK   12  A    between atoms: C30_42  and  O4_43 
ROOT
HETATM    1  C7  UNL     1     124.212  16.446  47.524  1.00  0.00     0.008 C 
HETATM    2  C8  UNL     1     125.649  16.860  47.682  1.00  0.00     0.017 C 
HETATM    3  C16 UNL     1     125.601  17.572  49.029  1.00  0.00     0.012 C 
HETATM    4  C17 UNL     1     124.971  16.466  49.748  1.00  0.00     0.001 C 
HETATM    5  C18 UNL     1     124.603  16.617  51.153  1.00  0.00    -0.002 C 
HETATM    6  C19 UNL     1     125.653  17.440  51.856  1.00  0.00     0.037 C 
HETATM    7  C20 UNL     1     125.487  17.121  53.331  1.00  0.00     0.123 C 
HETATM    8  C21 UNL     1     126.188  15.762  53.458  1.00  0.00     0.024 C 
HETATM    9  C22 UNL     1     126.336  15.343  54.903  1.00  0.00     0.028 C 
HETATM   10  C23 UNL     1     125.042  15.090  55.593  1.00  0.00     0.083 C 
HETATM   11 CL1  UNL     1     125.369  14.010  56.981  1.00  0.00    -0.125 Cl
HETATM   12  C24 UNL     1     124.130  14.352  54.644  1.00  0.00     0.021 C 
HETATM   13  C25 UNL     1     124.936  13.697  53.571  1.00  0.00     0.011 C 
HETATM   14  C26 UNL     1     125.537  14.726  52.591  1.00  0.00    -0.034 C 
HETATM   15  C27 UNL     1     126.667  13.951  51.914  1.00  0.00     0.016 C 
HETATM   16  C28 UNL     1     124.478  15.201  51.682  1.00  0.00     0.001 C 
HETATM   17  C29 UNL     1     124.295  14.237  50.559  1.00  0.00     0.038 C 
HETATM   18  C30 UNL     1     123.399  14.805  49.421  1.00  0.00     0.127 C 
HETATM   19  C31 UNL     1     123.729  16.089  48.888  1.00  0.00    -0.010 C 
HETATM   20  C32 UNL     1     122.646  17.118  49.280  1.00  0.00     0.018 C 
ENDROOT
BRANCH   2  21
HETATM   21  C9  UNL     1     126.825  16.086  47.413  1.00  0.00     0.237 C 
BRANCH  21  22
HETATM   22  N1  UNL     1     128.050  16.722  47.777  1.00  0.00    -0.070 N 
ATOM     23  H12 UNL     1     128.620  16.903  46.950  1.00  0.00     0.277 HD
ATOM     24  H11 UNL     1     127.881  17.680  48.081  1.00  0.00     0.277 HD
BRANCH  22  25
HETATM   25  C10 UNL     1     128.808  15.998  48.769  1.00  0.00     0.286 C 
BRANCH  25  26
HETATM   26  C11 UNL     1     129.044  16.913  49.917  1.00  0.00     0.037 C 
HETATM   27  N2  UNL     1     129.081  16.534  51.140  1.00  0.00    -0.393 N 
HETATM   28  C12 UNL     1     129.312  17.455  52.223  1.00  0.00     0.119 C 
ATOM     29  H2  UNL     1     128.942  15.546  51.354  1.00  0.00     0.159 HD
HETATM   30  C13 UNL     1     130.301  18.525  51.912  1.00  0.00     0.022 C 
HETATM   31  C14 UNL     1     130.538  18.720  50.445  1.00  0.00     0.039 C 
HETATM   32  C15 UNL     1     129.262  18.392  49.708  1.00  0.00     0.165 C 
BRANCH  32  33
HETATM   33  O2  UNL     1     128.207  19.053  50.317  1.00  0.00    -0.390 OA
ATOM     34  H2  UNL     1     127.700  19.468  49.629  1.00  0.00     0.210 HD
ENDBRANCH  32  33
ENDBRANCH  25  26
ENDBRANCH  22  25
ENDBRANCH  21  22
ENDBRANCH   2  21
BRANCH   1  35
HETATM   35  C5  UNL     1     123.918  15.604  46.350  1.00  0.00     0.016 C 
HETATM   36  C6  UNL     1     124.319  14.137  46.482  1.00  0.00     0.013 C 
BRANCH  35  37
HETATM   37  C4  UNL     1     122.523  15.486  45.828  1.00  0.00     0.125 C 
BRANCH  37  38
HETATM   38  C3  UNL     1     121.417  14.814  46.503  1.00  0.00     0.058 C 
BRANCH  38  39
HETATM   39  C2  UNL     1     120.232  15.765  46.385  1.00  0.00    -0.034 C 
HETATM   40  C1  UNL     1     119.622  16.176  47.453  1.00  0.00     0.007 C 
ENDBRANCH  38  39
ENDBRANCH  37  38
BRANCH  37  41
HETATM   41  O1  UNL     1     122.635  14.721  44.570  1.00  0.00    -0.395 OA
ATOM     42  H1  UNL     1     123.102  13.943  44.848  1.00  0.00     0.210 HD
ENDBRANCH  37  41
ENDBRANCH  35  37
ENDBRANCH   1  35
BRANCH  18  43
HETATM   43  O4  UNL     1     122.129  14.863  50.095  1.00  0.00    -0.395 OA
ATOM     44  H4  UNL     1     121.539  14.805  49.353  1.00  0.00     0.210 HD
ENDBRANCH  18  43
BRANCH   7  45
HETATM   45  O3  UNL     1     126.226  18.055  54.041  1.00  0.00    -0.395 OA
ATOM     46  H3  UNL     1     125.668  18.390  54.733  1.00  0.00     0.210 HD
ENDBRANCH   7  45
TORSDOF 12
ENDMDL
MODEL 2
REMARK VINA RESULT: -7.867284170      2.988      5.462
REMARK  12 active torsions:
REMARK  status: ('A' for Active; 'I' for Inactive)
REMARK    1  A    between atoms: C2_2  and  C3_3 
REMARK    2  A    between atoms: C3_3  and  C4_4 
REMARK    3  A    between atoms: C4_4  and  O1_5 
REMARK    4  A    between atoms: C4_4  and  C5_7 
REMARK    5  A    between atoms: C5_7  and  C7_9 
REMARK    6  A    between atoms: C8_10  and  C9_11 
REMARK    7  A    between atoms: C9_11  and  N1_12 
REMARK    8  A    between atoms: N1_12  and  C10_15 
REMARK    9  A    between atoms: C10_15  and  C11_16 
REMARK   10  A    between atoms: C15_22  and  O2_23 
REMARK   11  A    between atoms: C20_29  and  O3_30 
REMARK   12  A    between atoms: C30_42  and  O4_43 
ROOT
HETATM    1  C7  UNL     1     121.849  14.110  49.882  1.00  0.00     0.008 C 
HETATM    2  C8  UNL     1     122.466  13.515  51.118  1.00  0.00     0.017 C 
HETATM    3  C16 UNL     1     123.929  13.424  50.701  1.00  0.00     0.012 C 
HETATM    4  C17 UNL     1     124.047  14.827  50.307  1.00  0.00     0.001 C 
HETATM    5  C18 UNL     1     125.293  15.325  49.729  1.00  0.00    -0.002 C 
HETATM    6  C19 UNL     1     126.460  14.659  50.413  1.00  0.00     0.037 C 
HETATM    7  C20 UNL     1     127.648  15.566  50.146  1.00  0.00     0.123 C 
HETATM    8  C21 UNL     1     127.441  16.693  51.168  1.00  0.00     0.024 C 
HETATM    9  C22 UNL     1     128.638  17.614  51.232  1.00  0.00     0.028 C 
HETATM   10  C23 UNL     1     128.882  18.374  49.976  1.00  0.00     0.083 C 
HETATM   11 CL1  UNL     1     129.833  19.828  50.398  1.00  0.00    -0.125 Cl
HETATM   12  C24 UNL     1     127.552  18.839  49.432  1.00  0.00     0.021 C 
HETATM   13  C25 UNL     1     126.530  18.836  50.521  1.00  0.00     0.011 C 
HETATM   14  C26 UNL     1     126.140  17.404  50.944  1.00  0.00    -0.034 C 
HETATM   15  C27 UNL     1     125.509  17.602  52.320  1.00  0.00     0.016 C 
HETATM   16  C28 UNL     1     125.244  16.829  49.925  1.00  0.00     0.001 C 
HETATM   17  C29 UNL     1     123.842  17.280  50.161  1.00  0.00     0.038 C 
HETATM   18  C30 UNL     1     122.807  16.497  49.303  1.00  0.00     0.127 C 
HETATM   19  C31 UNL     1     122.852  15.070  49.339  1.00  0.00    -0.010 C 
HETATM   20  C32 UNL     1     123.326  14.522  47.975  1.00  0.00     0.018 C 
ENDROOT
BRANCH   2  21
HETATM   21  C9  UNL     1     122.215  13.865  52.486  1.00  0.00     0.237 C 
BRANCH  21  22
HETATM   22  N1  UNL     1     122.552  12.850  53.430  1.00  0.00    -0.070 N 
ATOM     23  H12 UNL     1     121.748  12.249  53.615  1.00  0.00     0.277 HD
ATOM     24  H11 UNL     1     123.184  12.166  53.013  1.00  0.00     0.277 HD
BRANCH  22  25
HETATM   25  C10 UNL     1     123.099  13.362  54.664  1.00  0.00     0.286 C 
BRANCH  25  26
HETATM   26  C11 UNL     1     124.581  13.326  54.554  1.00  0.00     0.037 C 
HETATM   27  N2  UNL     1     125.225  12.494  53.823  1.00  0.00    -0.393 N 
HETATM   28  C12 UNL     1     126.663  12.494  53.746  1.00  0.00     0.119 C 
ATOM     29  H2  UNL     1     124.702  11.808  53.278  1.00  0.00     0.159 HD
HETATM   30  C13 UNL     1     127.275  13.853  53.764  1.00  0.00     0.022 C 
HETATM   31  C14 UNL     1     126.362  14.918  54.291  1.00  0.00     0.039 C 
HETATM   32  C15 UNL     1     125.446  14.297  55.318  1.00  0.00     0.165 C 
BRANCH  32  33
HETATM   33  O2  UNL     1     126.207  13.557  56.210  1.00  0.00    -0.390 OA
ATOM     34  H2  UNL     1     127.113  13.815  56.088  1.00  0.00     0.210 HD
ENDBRANCH  32  33
ENDBRANCH  25  26
ENDBRANCH  22  25
ENDBRANCH  21  22
ENDBRANCH   2  21
BRANCH   1  35
HETATM   35  C5  UNL     1     120.421  14.454  49.987  1.00  0.00     0.016 C 
HETATM   36  C6  UNL     1     120.111  15.734  50.759  1.00  0.00     0.013 C 
BRANCH  35  37
HETATM   37  C4  UNL     1     119.591  14.640  48.758  1.00  0.00     0.125 C 
BRANCH  37  38
HETATM   38  C3  UNL     1     118.978  15.894  48.327  1.00  0.00     0.058 C 
BRANCH  38  39
HETATM   39  C2  UNL     1     119.776  16.336  47.106  1.00  0.00    -0.034 C 
HETATM   40  C1  UNL     1     120.181  15.457  46.244  1.00  0.00     0.007 C 
ENDBRANCH  38  39
ENDBRANCH  37  38
BRANCH  37  41
HETATM   41  O1  UNL     1     118.417  13.763  48.937  1.00  0.00    -0.395 OA
ATOM     42  H1  UNL     1     118.244  13.843  49.867  1.00  0.00     0.210 HD
ENDBRANCH  37  41
ENDBRANCH  35  37
ENDBRANCH   1  35
BRANCH  18  43
HETATM   43  O4  UNL     1     123.151  16.968  47.988  1.00  0.00    -0.395 OA
ATOM     44  H4  UNL     1     122.343  17.404  47.745  1.00  0.00     0.210 HD
ENDBRANCH  18  43
BRANCH   7  45
HETATM   45  O3  UNL     1     128.790  14.865  50.503  1.00  0.00    -0.395 OA
ATOM     46  H3  UNL     1     129.514  15.480  50.492  1.00  0.00     0.210 HD
ENDBRANCH   7  45
TORSDOF 12
ENDMDL
MODEL 3
REMARK VINA RESULT: -7.841943396      2.931      6.411
REMARK  12 active torsions:
REMARK  status: ('A' for Active; 'I' for Inactive)
REMARK    1  A    between atoms: C2_2  and  C3_3 
REMARK    2  A    between atoms: C3_3  and  C4_4 
REMARK    3  A    between atoms: C4_4  and  O1_5 
REMARK    4  A    between atoms: C4_4  and  C5_7 
REMARK    5  A    between atoms: C5_7  and  C7_9 
REMARK    6  A    between atoms: C8_10  and  C9_11 
REMARK    7  A    between atoms: C9_11  and  N1_12 
REMARK    8  A    between atoms: N1_12  and  C10_15 
REMARK    9  A    between atoms: C10_15  and  C11_16 
REMARK   10  A    between atoms: C15_22  and  O2_23 
REMARK   11  A    between atoms: C20_29  and  O3_30 
REMARK   12  A    between atoms: C30_42  and  O4_43 
ROOT
HETATM    1  C7  UNL     1     123.033  15.459  48.916  1.00  0.00     0.008 C 
HETATM    2  C8  UNL     1     123.693  15.623  47.576  1.00  0.00     0.017 C 
HETATM    3  C16 UNL     1     124.380  16.973  47.750  1.00  0.00     0.012 C 
HETATM    4  C17 UNL     1     125.080  16.613  48.982  1.00  0.00     0.001 C 
HETATM    5  C18 UNL     1     125.890  17.605  49.683  1.00  0.00    -0.002 C 
HETATM    6  C19 UNL     1     126.593  18.477  48.674  1.00  0.00     0.037 C 
HETATM    7  C20 UNL     1     127.757  19.097  49.425  1.00  0.00     0.123 C 
HETATM    8  C21 UNL     1     128.784  17.956  49.445  1.00  0.00     0.024 C 
HETATM    9  C22 UNL     1     130.126  18.422  49.963  1.00  0.00     0.028 C 
HETATM   10  C23 UNL     1     130.107  18.849  51.388  1.00  0.00     0.083 C 
HETATM   11 CL1  UNL     1     131.777  18.722  52.014  1.00  0.00    -0.125 Cl
HETATM   12  C24 UNL     1     129.251  17.880  52.167  1.00  0.00     0.021 C 
HETATM   13  C25 UNL     1     129.125  16.596  51.413  1.00  0.00     0.011 C 
HETATM   14  C26 UNL     1     128.248  16.749  50.154  1.00  0.00    -0.034 C 
HETATM   15  C27 UNL     1     128.634  15.538  49.306  1.00  0.00     0.016 C 
HETATM   16  C28 UNL     1     126.831  16.798  50.558  1.00  0.00     0.001 C 
HETATM   17  C29 UNL     1     126.305  15.417  50.758  1.00  0.00     0.038 C 
HETATM   18  C30 UNL     1     124.758  15.381  50.909  1.00  0.00     0.127 C 
HETATM   19  C31 UNL     1     123.972  16.043  49.916  1.00  0.00    -0.010 C 
HETATM   20  C32 UNL     1     123.286  17.285  50.526  1.00  0.00     0.018 C 
ENDROOT
BRANCH   2  21
HETATM   21  C9  UNL     1     124.409  14.638  46.818  1.00  0.00     0.237 C 
BRANCH  21  22
HETATM   22  N1  UNL     1     123.754  14.216  45.623  1.00  0.00    -0.070 N 
ATOM     23  H12 UNL     1     124.396  13.696  45.025  1.00  0.00     0.277 HD
ATOM     24  H11 UNL     1     123.075  13.482  45.825  1.00  0.00     0.277 HD
BRANCH  22  25
HETATM   25  C10 UNL     1     123.134  15.294  44.889  1.00  0.00     0.286 C 
BRANCH  25  26
HETATM   26  C11 UNL     1     121.739  14.888  44.577  1.00  0.00     0.037 C 
HETATM   27  N2  UNL     1     121.411  14.167  43.570  1.00  0.00    -0.393 N 
HETATM   28  C12 UNL     1     120.045  13.796  43.304  1.00  0.00     0.119 C 
ATOM     29  H2  UNL     1     122.141  13.845  42.935  1.00  0.00     0.159 HD
HETATM   30  C13 UNL     1     119.246  13.493  44.525  1.00  0.00     0.022 C 
HETATM   31  C14 UNL     1     119.844  14.039  45.787  1.00  0.00     0.039 C 
HETATM   32  C15 UNL     1     120.586  15.311  45.453  1.00  0.00     0.165 C 
BRANCH  32  33
HETATM   33  O2  UNL     1     119.764  16.123  44.688  1.00  0.00    -0.390 OA
ATOM     34  H2  UNL     1     120.244  16.923  44.511  1.00  0.00     0.210 HD
ENDBRANCH  32  33
ENDBRANCH  25  26
ENDBRANCH  22  25
ENDBRANCH  21  22
ENDBRANCH   2  21
BRANCH   1  35
HETATM   35  C5  UNL     1     122.362  14.167  49.142  1.00  0.00     0.016 C 
HETATM   36  C6  UNL     1     122.627  13.521  50.499  1.00  0.00     0.013 C 
BRANCH  35  37
HETATM   37  C4  UNL     1     120.875  14.054  49.044  1.00  0.00     0.125 C 
BRANCH  37  38
HETATM   38  C3  UNL     1     119.912  14.708  49.926  1.00  0.00     0.058 C 
BRANCH  38  39
HETATM   39  C2  UNL     1     119.266  15.800  49.082  1.00  0.00    -0.034 C 
HETATM   40  C1  UNL     1     119.863  16.941  48.931  1.00  0.00     0.007 C 
ENDBRANCH  38  39
ENDBRANCH  37  38
BRANCH  37  41
HETATM   41  O1  UNL     1     120.572  12.624  49.254  1.00  0.00    -0.395 OA
ATOM     42  H1  UNL     1     121.286  12.197  48.796  1.00  0.00     0.210 HD
ENDBRANCH  37  41
ENDBRANCH  35  37
ENDBRANCH   1  35
BRANCH  18  43
HETATM   43  O4  UNL     1     124.606  16.042  52.178  1.00  0.00    -0.395 OA
ATOM     44  H4  UNL     1     123.660  16.111  52.224  1.00  0.00     0.210 HD
ENDBRANCH  18  43
BRANCH   7  45
HETATM   45  O3  UNL     1     128.263  20.118  48.634  1.00  0.00    -0.395 OA
ATOM     46  H3  UNL     1     129.140  20.308  48.944  1.00  0.00     0.210 HD
ENDBRANCH   7  45
TORSDOF 12
ENDMDL
MODEL 4
REMARK VINA RESULT: -7.817880514      2.972      6.578
REMARK  12 active torsions:
REMARK  status: ('A' for Active; 'I' for Inactive)
REMARK    1  A    between atoms: C2_2  and  C3_3 
REMARK    2  A    between atoms: C3_3  and  C4_4 
REMARK    3  A    between atoms: C4_4  and  O1_5 
REMARK    4  A    between atoms: C4_4  and  C5_7 
REMARK    5  A    between atoms: C5_7  and  C7_9 
REMARK    6  A    between atoms: C8_10  and  C9_11 
REMARK    7  A    between atoms: C9_11  and  N1_12 
REMARK    8  A    between atoms: N1_12  and  C10_15 
REMARK    9  A    between atoms: C10_15  and  C11_16 
REMARK   10  A    between atoms: C15_22  and  O2_23 
REMARK   11  A    between atoms: C20_29  and  O3_30 
REMARK   12  A    between atoms: C30_42  and  O4_43 
ROOT
HETATM    1  C7  UNL     1     127.278  16.204  50.496  1.00  0.00     0.008 C 
HETATM    2  C8  UNL     1     126.666  15.677  51.765  1.00  0.00     0.017 C 
HETATM    3  C16 UNL     1     125.424  16.554  51.877  1.00  0.00     0.012 C 
HETATM    4  C17 UNL     1     124.929  16.263  50.532  1.00  0.00     0.001 C 
HETATM    5  C18 UNL     1     123.725  16.924  50.035  1.00  0.00    -0.002 C 
HETATM    6  C19 UNL     1     122.734  17.068  51.162  1.00  0.00     0.037 C 
HETATM    7  C20 UNL     1     121.388  17.264  50.486  1.00  0.00     0.123 C 
HETATM    8  C21 UNL     1     121.011  15.834  50.077  1.00  0.00     0.024 C 
HETATM    9  C22 UNL     1     119.589  15.756  49.570  1.00  0.00     0.028 C 
HETATM   10  C23 UNL     1     119.355  16.512  48.310  1.00  0.00     0.083 C 
HETATM   11 CL1  UNL     1     117.915  15.811  47.515  1.00  0.00    -0.125 Cl
HETATM   12  C24 UNL     1     120.535  16.293  47.395  1.00  0.00     0.021 C 
HETATM   13  C25 UNL     1     121.271  15.059  47.802  1.00  0.00     0.011 C 
HETATM   14  C26 UNL     1     122.022  15.248  49.137  1.00  0.00    -0.034 C 
HETATM   15  C27 UNL     1     122.274  13.816  49.606  1.00  0.00     0.016 C 
HETATM   16  C28 UNL     1     123.236  16.047  48.897  1.00  0.00     0.001 C 
HETATM   17  C29 UNL     1     124.338  15.171  48.401  1.00  0.00     0.038 C 
HETATM   18  C30 UNL     1     125.718  15.889  48.394  1.00  0.00     0.127 C 
HETATM   19  C31 UNL     1     126.140  16.540  49.594  1.00  0.00    -0.010 C 
HETATM   20  C32 UNL     1     126.146  18.071  49.391  1.00  0.00     0.018 C 
ENDROOT
BRANCH   2  21
HETATM   21  C9  UNL     1     126.519  14.310  52.172  1.00  0.00     0.237 C 
BRANCH  21  22
HETATM   22  N1  UNL     1     126.824  14.064  53.544  1.00  0.00    -0.070 N 
ATOM     23  H12 UNL     1     126.021  14.279  54.136  1.00  0.00     0.277 HD
ATOM     24  H11 UNL     1     126.902  13.062  53.721  1.00  0.00     0.277 HD
BRANCH  22  25
HETATM   25  C10 UNL     1     128.000  14.757  54.012  1.00  0.00     0.286 C 
BRANCH  25  26
HETATM   26  C11 UNL     1     127.613  15.559  55.202  1.00  0.00     0.037 C 
HETATM   27  N2  UNL     1     128.416  16.323  55.844  1.00  0.00    -0.393 N 
HETATM   28  C12 UNL     1     127.999  17.083  56.993  1.00  0.00     0.119 C 
ATOM     29  H2  UNL     1     129.384  16.394  55.531  1.00  0.00     0.159 HD
HETATM   30  C13 UNL     1     126.621  17.641  56.888  1.00  0.00     0.022 C 
HETATM   31  C14 UNL     1     125.776  16.969  55.848  1.00  0.00     0.039 C 
HETATM   32  C15 UNL     1     126.205  15.525  55.744  1.00  0.00     0.165 C 
BRANCH  32  33
HETATM   33  O2  UNL     1     126.269  14.983  57.018  1.00  0.00    -0.390 OA
ATOM     34  H2  UNL     1     126.055  14.060  56.942  1.00  0.00     0.210 HD
ENDBRANCH  32  33
ENDBRANCH  25  26
ENDBRANCH  22  25
ENDBRANCH  21  22
ENDBRANCH   2  21
BRANCH   1  35
HETATM   35  C5  UNL     1     128.465  15.477  50.013  1.00  0.00     0.016 C 
HETATM   36  C6  UNL     1     128.883  15.788  48.578  1.00  0.00     0.013 C 
BRANCH  35  37
HETATM   37  C4  UNL     1     129.770  15.585  50.733  1.00  0.00     0.125 C 
BRANCH  37  38
HETATM   38  C3  UNL     1     130.118  16.612  51.712  1.00  0.00     0.058 C 
BRANCH  38  39
HETATM   39  C2  UNL     1     130.531  17.829  50.893  1.00  0.00    -0.034 C 
HETATM   40  C1  UNL     1     129.857  18.932  50.988  1.00  0.00     0.007 C 
ENDBRANCH  38  39
ENDBRANCH  37  38
BRANCH  37  41
HETATM   41  O1  UNL     1     130.786  15.796  49.683  1.00  0.00    -0.395 OA
ATOM     42  H1  UNL     1     130.502  15.195  49.004  1.00  0.00     0.210 HD
ENDBRANCH  37  41
ENDBRANCH  35  37
ENDBRANCH   1  35
BRANCH  18  43
HETATM   43  O4  UNL     1     125.499  16.862  47.357  1.00  0.00    -0.395 OA
ATOM     44  H4  UNL     1     124.731  16.494  46.936  1.00  0.00     0.210 HD
ENDBRANCH  18  43
BRANCH   7  45
HETATM   45  O3  UNL     1     120.495  17.684  51.461  1.00  0.00    -0.395 OA
ATOM     46  H3  UNL     1     119.797  18.154  51.020  1.00  0.00     0.210 HD
ENDBRANCH   7  45
TORSDOF 12
ENDMDL
MODEL 5
REMARK VINA RESULT: -7.804357985      3.331      5.660
REMARK  12 active torsions:
REMARK  status: ('A' for Active; 'I' for Inactive)
REMARK    1  A    between atoms: C2_2  and  C3_3 
REMARK    2  A    between atoms: C3_3  and  C4_4 
REMARK    3  A    between atoms: C4_4  and  O1_5 
REMARK    4  A    between atoms: C4_4  and  C5_7 
REMARK    5  A    between atoms: C5_7  and  C7_9 
REMARK    6  A    between atoms: C8_10  and  C9_11 
REMARK    7  A    between atoms: C9_11  and  N1_12 
REMARK    8  A    between atoms: N1_12  and  C10_15 
REMARK    9  A    between atoms: C10_15  and  C11_16 
REMARK   10  A    between atoms: C15_22  and  O2_23 
REMARK   11  A    between atoms: C20_29  and  O3_30 
REMARK   12  A    between atoms: C30_42  and  O4_43 
ROOT
HETATM    1  C7  UNL     1     121.899  14.025  49.904  1.00  0.00     0.008 C 
HETATM    2  C8  UNL     1     122.522  13.459  51.150  1.00  0.00     0.017 C 
HETATM    3  C16 UNL     1     123.988  13.385  50.737  1.00  0.00     0.012 C 
HETATM    4  C17 UNL     1     124.084  14.784  50.322  1.00  0.00     0.001 C 
HETATM    5  C18 UNL     1     125.323  15.292  49.739  1.00  0.00    -0.002 C 
HETATM    6  C19 UNL     1     126.499  14.656  50.435  1.00  0.00     0.037 C 
HETATM    7  C20 UNL     1     127.673  15.577  50.156  1.00  0.00     0.123 C 
HETATM    8  C21 UNL     1     127.446  16.716  51.160  1.00  0.00     0.024 C 
HETATM    9  C22 UNL     1     128.628  17.657  51.212  1.00  0.00     0.028 C 
HETATM   10  C23 UNL     1     128.862  18.402  49.945  1.00  0.00     0.083 C 
HETATM   11 CL1  UNL     1     129.790  19.877  50.346  1.00  0.00    -0.125 Cl
HETATM   12  C24 UNL     1     127.527  18.837  49.392  1.00  0.00     0.021 C 
HETATM   13  C25 UNL     1     126.502  18.834  50.479  1.00  0.00     0.011 C 
HETATM   14  C26 UNL     1     126.135  17.403  50.923  1.00  0.00    -0.034 C 
HETATM   15  C27 UNL     1     125.497  17.612  52.295  1.00  0.00     0.016 C 
HETATM   16  C28 UNL     1     125.249  16.798  49.911  1.00  0.00     0.001 C 
HETATM   17  C29 UNL     1     123.840  17.231  50.138  1.00  0.00     0.038 C 
HETATM   18  C30 UNL     1     122.820  16.418  49.290  1.00  0.00     0.127 C 
HETATM   19  C31 UNL     1     122.887  14.992  49.348  1.00  0.00    -0.010 C 
HETATM   20  C32 UNL     1     123.373  14.431  47.993  1.00  0.00     0.018 C 
ENDROOT
BRANCH   2  21
HETATM   21  C9  UNL     1     122.263  13.826  52.512  1.00  0.00     0.237 C 
BRANCH  21  22
HETATM   22  N1  UNL     1     122.537  12.801  53.466  1.00  0.00    -0.070 N 
ATOM     23  H12 UNL     1     121.704  12.239  53.641  1.00  0.00     0.277 HD
ATOM     24  H11 UNL     1     123.143  12.087  53.062  1.00  0.00     0.277 HD
BRANCH  22  25
HETATM   25  C10 UNL     1     123.088  13.293  54.706  1.00  0.00     0.286 C 
BRANCH  25  26
HETATM   26  C11 UNL     1     124.569  13.292  54.577  1.00  0.00     0.037 C 
HETATM   27  N2  UNL     1     125.225  12.467  53.848  1.00  0.00    -0.393 N 
HETATM   28  C12 UNL     1     126.661  12.501  53.753  1.00  0.00     0.119 C 
ATOM     29  H2  UNL     1     124.712  11.763  53.318  1.00  0.00     0.159 HD
HETATM   30  C13 UNL     1     127.240  13.875  53.747  1.00  0.00     0.022 C 
HETATM   31  C14 UNL     1     126.307  14.924  54.272  1.00  0.00     0.039 C 
HETATM   32  C15 UNL     1     125.420  14.293  55.319  1.00  0.00     0.165 C 
BRANCH  32  33
HETATM   33  O2  UNL     1     126.210  13.583  56.209  1.00  0.00    -0.390 OA
ATOM     34  H2  UNL     1     126.742  12.984  55.698  1.00  0.00     0.210 HD
ENDBRANCH  32  33
ENDBRANCH  25  26
ENDBRANCH  22  25
ENDBRANCH  21  22
ENDBRANCH   2  21
BRANCH   1  35
HETATM   35  C5  UNL     1     120.465  14.348  50.001  1.00  0.00     0.016 C 
HETATM   36  C6  UNL     1     120.058  15.699  49.418  1.00  0.00     0.013 C 
BRANCH  35  37
HETATM   37  C4  UNL     1     119.438  13.443  49.399  1.00  0.00     0.125 C 
BRANCH  37  38
HETATM   38  C3  UNL     1     118.752  12.356  50.092  1.00  0.00     0.058 C 
BRANCH  38  39
HETATM   39  C2  UNL     1     118.838  12.702  51.574  1.00  0.00    -0.034 C 
HETATM   40  C1  UNL     1     119.111  11.777  52.440  1.00  0.00     0.007 C 
ENDBRANCH  38  39
ENDBRANCH  37  38
BRANCH  37  41
HETATM   41  O1  UNL     1     120.130  12.731  48.306  1.00  0.00    -0.395 OA
ATOM     42  H1  UNL     1     121.034  12.741  48.598  1.00  0.00     0.210 HD
ENDBRANCH  37  41
ENDBRANCH  35  37
ENDBRANCH   1  35
BRANCH  18  43
HETATM   43  O4  UNL     1     123.159  16.874  47.968  1.00  0.00    -0.395 OA
ATOM     44  H4  UNL     1     123.183  17.813  48.112  1.00  0.00     0.210 HD
ENDBRANCH  18  43
BRANCH   7  45
HETATM   45  O3  UNL     1     128.825  14.900  50.526  1.00  0.00    -0.395 OA
ATOM     46  H3  UNL     1     128.958  14.203  49.894  1.00  0.00     0.210 HD
ENDBRANCH   7  45
TORSDOF 12
ENDMDL
