MODEL 1
REMARK VINA RESULT: -7.707108618      0.000      0.000
REMARK  8 active torsions:
REMARK  status: ('A' for Active; 'I' for Inactive)
REMARK    1  A    between atoms: O1_2  and  C2_3 
REMARK    2  A    between atoms: C2_3  and  C3_4 
REMARK    3  A    between atoms: C4_5  and  C5_6 
REMARK    4  A    between atoms: C5_6  and  C6_7 
REMARK    5  A    between atoms: N3_23  and  C19_24 
REMARK    6  A    between atoms: C19_24  and  C20_25 
REMARK    7  A    between atoms: C20_25  and  C21_26 
REMARK    8  A    between atoms: C21_26  and  O2_30 
ROOT
HETATM    1  C6  UNL     1     -12.026  16.081 -20.350  1.00  0.00     0.154 C 
HETATM    2  C7  UNL     1     -11.846  16.456 -18.967  1.00  0.00    -0.143 C 
HETATM    3  C8  UNL     1     -11.400  16.505 -17.627  1.00  0.00     0.088 C 
HETATM    4  C9  UNL     1     -10.156  15.579 -17.486  1.00  0.00     0.056 C 
HETATM    5  C10 UNL     1     -10.224  14.313 -18.229  1.00  0.00     0.066 C 
HETATM    6  N1  UNL     1     -10.336  14.231 -19.648  1.00  0.00    -0.352 N 
HETATM    7  C11 UNL     1      -9.763  13.026 -20.233  1.00  0.00     0.156 C 
HETATM    8  C12 UNL     1     -10.900  15.095 -20.658  1.00  0.00     0.121 C 
HETATM    9  N2  UNL     1     -10.382  15.014 -21.780  1.00  0.00    -0.366 N 
ATOM     10  H2  UNL     1      -9.637  14.330 -21.912  1.00  0.00     0.161 HD
HETATM   11  C13 UNL     1     -10.772  15.843 -22.941  1.00  0.00     0.049 C 
HETATM   12  C14 UNL     1     -11.474  14.836 -23.863  1.00  0.00     0.041 C 
HETATM   13  C15 UNL     1      -9.473  16.126 -23.724  1.00  0.00     0.041 C 
HETATM   14  C16 UNL     1     -11.568  17.036 -22.576  1.00  0.00     0.051 C 
HETATM   15  C17 UNL     1     -10.753  18.241 -23.088  1.00  0.00     0.041 C 
HETATM   16  C18 UNL     1     -12.786  17.061 -23.530  1.00  0.00     0.041 C 
HETATM   17  N3  UNL     1     -11.947  17.229 -21.242  1.00  0.00    -0.356 N 
ENDROOT
BRANCH  17  18
HETATM   18  C19 UNL     1     -12.570  18.347 -20.722  1.00  0.00     0.069 C 
BRANCH  18  19
HETATM   19  C20 UNL     1     -13.855  18.904 -21.173  1.00  0.00     0.128 C 
BRANCH  19  20
HETATM   20  C21 UNL     1     -13.709  20.393 -21.495  1.00  0.00     0.115 C 
HETATM   21  N4  UNL     1     -14.124  21.271 -20.683  1.00  0.00    -0.383 N 
ATOM     22  H42 UNL     1     -14.560  20.986 -19.806  1.00  0.00     0.157 HD
ATOM     23  H41 UNL     1     -14.026  22.263 -20.897  1.00  0.00     0.157 HD
BRANCH  20  24
HETATM   24  O2  UNL     1     -13.123  20.776 -22.674  1.00  0.00    -0.344 OA
HETATM   25  C22 UNL     1     -13.673  20.406 -23.942  1.00  0.00     0.211 C 
ENDBRANCH  20  24
ENDBRANCH  19  20
ENDBRANCH  18  19
ENDBRANCH  17  18
BRANCH   1  26
HETATM   26  C5  UNL     1     -13.357  15.430 -20.648  1.00  0.00     0.146 C 
BRANCH  26  27
HETATM   27  C4  UNL     1     -13.229  14.006 -20.987  1.00  0.00    -0.101 C 
HETATM   28  C3  UNL     1     -13.147  12.832 -21.278  1.00  0.00    -0.080 C 
BRANCH  28  29
HETATM   29  C2  UNL     1     -13.050  11.411 -21.606  1.00  0.00     0.260 C 
BRANCH  29  30
HETATM   30  O1  UNL     1     -13.757  11.094 -22.768  1.00  0.00    -0.384 OA
HETATM   31  C1  UNL     1     -14.512   9.933 -22.569  1.00  0.00     0.202 C 
ENDBRANCH  29  30
ENDBRANCH  28  29
ENDBRANCH  26  27
ENDBRANCH   1  26
TORSDOF 8
ENDMDL
MODEL 2
REMARK VINA RESULT: -7.616910029      2.730      5.859
REMARK  8 active torsions:
REMARK  status: ('A' for Active; 'I' for Inactive)
REMARK    1  A    between atoms: O1_2  and  C2_3 
REMARK    2  A    between atoms: C2_3  and  C3_4 
REMARK    3  A    between atoms: C4_5  and  C5_6 
REMARK    4  A    between atoms: C5_6  and  C6_7 
REMARK    5  A    between atoms: N3_23  and  C19_24 
REMARK    6  A    between atoms: C19_24  and  C20_25 
REMARK    7  A    between atoms: C20_25  and  C21_26 
REMARK    8  A    between atoms: C21_26  and  O2_30 
ROOT
HETATM    1  C6  UNL     1     -12.409  14.676 -21.889  1.00  0.00     0.154 C 
HETATM    2  C7  UNL     1     -12.364  13.448 -21.130  1.00  0.00    -0.143 C 
HETATM    3  C8  UNL     1     -12.557  12.115 -20.703  1.00  0.00     0.088 C 
HETATM    4  C9  UNL     1     -13.196  11.309 -21.872  1.00  0.00     0.056 C 
HETATM    5  C10 UNL     1     -14.219  12.025 -22.646  1.00  0.00     0.066 C 
HETATM    6  N1  UNL     1     -13.965  13.219 -23.383  1.00  0.00    -0.352 N 
HETATM    7  C11 UNL     1     -14.831  13.415 -24.538  1.00  0.00     0.156 C 
HETATM    8  C12 UNL     1     -13.018  14.300 -23.240  1.00  0.00     0.121 C 
HETATM    9  N2  UNL     1     -12.701  14.875 -24.290  1.00  0.00    -0.366 N 
ATOM     10  H2  UNL     1     -13.152  14.572 -25.153  1.00  0.00     0.161 HD
HETATM   11  C13 UNL     1     -11.713  15.972 -24.374  1.00  0.00     0.049 C 
HETATM   12  C14 UNL     1     -12.584  17.198 -24.683  1.00  0.00     0.041 C 
HETATM   13  C15 UNL     1     -10.968  15.777 -25.712  1.00  0.00     0.041 C 
HETATM   14  C16 UNL     1     -10.851  16.086 -23.177  1.00  0.00     0.051 C 
HETATM   15  C17 UNL     1      -9.409  15.909 -23.694  1.00  0.00     0.041 C 
HETATM   16  C18 UNL     1     -10.852  17.580 -22.775  1.00  0.00     0.041 C 
HETATM   17  N3  UNL     1     -11.086  15.251 -22.077  1.00  0.00    -0.356 N 
ENDROOT
BRANCH  17  18
HETATM   18  C19 UNL     1     -10.296  15.143 -20.949  1.00  0.00     0.069 C 
BRANCH  18  19
HETATM   19  C20 UNL     1      -9.287  14.101 -20.701  1.00  0.00     0.128 C 
BRANCH  19  20
HETATM   20  C21 UNL     1      -9.366  13.615 -19.253  1.00  0.00     0.115 C 
HETATM   21  N4  UNL     1      -9.410  14.444 -18.297  1.00  0.00    -0.383 N 
ATOM     22  H42 UNL     1      -9.395  15.445 -18.492  1.00  0.00     0.157 HD
ATOM     23  H41 UNL     1      -9.462  14.119 -17.331  1.00  0.00     0.157 HD
BRANCH  20  24
HETATM   24  O2  UNL     1      -9.386  12.269 -18.990  1.00  0.00    -0.344 OA
HETATM   25  C22 UNL     1      -9.553  11.764 -17.662  1.00  0.00     0.211 C 
ENDBRANCH  20  24
ENDBRANCH  19  20
ENDBRANCH  18  19
ENDBRANCH  17  18
BRANCH   1  26
HETATM   26  C5  UNL     1     -13.238  15.768 -21.253  1.00  0.00     0.146 C 
BRANCH  26  27
HETATM   27  C4  UNL     1     -12.847  16.043 -19.865  1.00  0.00    -0.101 C 
HETATM   28  C3  UNL     1     -12.507  16.285 -18.727  1.00  0.00    -0.080 C 
BRANCH  28  29
HETATM   29  C2  UNL     1     -12.088  16.556 -17.352  1.00  0.00     0.260 C 
BRANCH  29  30
HETATM   30  O1  UNL     1     -10.746  16.940 -17.281  1.00  0.00    -0.384 OA
HETATM   31  C1  UNL     1     -10.418  17.295 -15.968  1.00  0.00     0.202 C 
ENDBRANCH  29  30
ENDBRANCH  28  29
ENDBRANCH  26  27
ENDBRANCH   1  26
TORSDOF 8
ENDMDL
MODEL 3
REMARK VINA RESULT: -7.475113229      2.341      6.963
REMARK  8 active torsions:
REMARK  status: ('A' for Active; 'I' for Inactive)
REMARK    1  A    between atoms: O1_2  and  C2_3 
REMARK    2  A    between atoms: C2_3  and  C3_4 
REMARK    3  A    between atoms: C4_5  and  C5_6 
REMARK    4  A    between atoms: C5_6  and  C6_7 
REMARK    5  A    between atoms: N3_23  and  C19_24 
REMARK    6  A    between atoms: C19_24  and  C20_25 
REMARK    7  A    between atoms: C20_25  and  C21_26 
REMARK    8  A    between atoms: C21_26  and  O2_30 
ROOT
HETATM    1  C6  UNL     1     -12.744  14.820 -23.694  1.00  0.00     0.154 C 
HETATM    2  C7  UNL     1     -12.831  14.283 -25.031  1.00  0.00    -0.143 C 
HETATM    3  C8  UNL     1     -12.556  13.964 -26.381  1.00  0.00     0.088 C 
HETATM    4  C9  UNL     1     -11.094  14.393 -26.702  1.00  0.00     0.056 C 
HETATM    5  C10 UNL     1     -10.666  15.668 -26.110  1.00  0.00     0.066 C 
HETATM    6  N1  UNL     1     -10.609  15.911 -24.706  1.00  0.00    -0.352 N 
HETATM    7  C11 UNL     1      -9.614  16.896 -24.301  1.00  0.00     0.156 C 
HETATM    8  C12 UNL     1     -11.329  15.386 -23.570  1.00  0.00     0.121 C 
HETATM    9  N2  UNL     1     -10.710  15.386 -22.498  1.00  0.00    -0.366 N 
ATOM     10  H2  UNL     1      -9.771  15.784 -22.491  1.00  0.00     0.161 HD
HETATM   11  C13 UNL     1     -11.242  14.849 -21.227  1.00  0.00     0.049 C 
HETATM   12  C14 UNL     1     -11.477  16.114 -20.390  1.00  0.00     0.041 C 
HETATM   13  C15 UNL     1     -10.043  14.212 -20.494  1.00  0.00     0.041 C 
HETATM   14  C16 UNL     1     -12.420  13.971 -21.402  1.00  0.00     0.051 C 
HETATM   15  C17 UNL     1     -12.009  12.612 -20.801  1.00  0.00     0.041 C 
HETATM   16  C18 UNL     1     -13.480  14.449 -20.382  1.00  0.00     0.041 C 
HETATM   17  N3  UNL     1     -12.967  13.800 -22.680  1.00  0.00    -0.356 N 
ENDROOT
BRANCH  17  18
HETATM   18  C19 UNL     1     -13.973  12.919 -23.028  1.00  0.00     0.069 C 
BRANCH  18  19
HETATM   19  C20 UNL     1     -13.892  11.451 -22.963  1.00  0.00     0.128 C 
BRANCH  19  20
HETATM   20  C21 UNL     1     -14.929  10.818 -23.893  1.00  0.00     0.115 C 
HETATM   21  N4  UNL     1     -15.435   9.690 -23.619  1.00  0.00    -0.383 N 
ATOM     22  H42 UNL     1     -15.151   9.198 -22.773  1.00  0.00     0.157 HD
ATOM     23  H41 UNL     1     -16.127   9.268 -24.239  1.00  0.00     0.157 HD
BRANCH  20  24
HETATM   24  O2  UNL     1     -15.312  11.479 -25.032  1.00  0.00    -0.344 OA
HETATM   25  C22 UNL     1     -14.960  11.000 -26.333  1.00  0.00     0.211 C 
ENDBRANCH  20  24
ENDBRANCH  19  20
ENDBRANCH  18  19
ENDBRANCH  17  18
BRANCH   1  26
HETATM   26  C5  UNL     1     -13.747  15.910 -23.397  1.00  0.00     0.146 C 
BRANCH  26  27
HETATM   27  C4  UNL     1     -13.272  17.242 -23.794  1.00  0.00    -0.101 C 
HETATM   28  C3  UNL     1     -12.895  18.352 -24.103  1.00  0.00    -0.080 C 
BRANCH  28  29
HETATM   29  C2  UNL     1     -12.452  19.690 -24.495  1.00  0.00     0.260 C 
BRANCH  29  30
HETATM   30  O1  UNL     1     -12.209  20.505 -23.387  1.00  0.00    -0.384 OA
HETATM   31  C1  UNL     1     -13.391  20.698 -22.665  1.00  0.00     0.202 C 
ENDBRANCH  29  30
ENDBRANCH  28  29
ENDBRANCH  26  27
ENDBRANCH   1  26
TORSDOF 8
ENDMDL
MODEL 4
REMARK VINA RESULT: -7.376553221      1.511      1.995
REMARK  8 active torsions:
REMARK  status: ('A' for Active; 'I' for Inactive)
REMARK    1  A    between atoms: O1_2  and  C2_3 
REMARK    2  A    between atoms: C2_3  and  C3_4 
REMARK    3  A    between atoms: C4_5  and  C5_6 
REMARK    4  A    between atoms: C5_6  and  C6_7 
REMARK    5  A    between atoms: N3_23  and  C19_24 
REMARK    6  A    between atoms: C19_24  and  C20_25 
REMARK    7  A    between atoms: C20_25  and  C21_26 
REMARK    8  A    between atoms: C21_26  and  O2_30 
ROOT
HETATM    1  C6  UNL     1     -12.666  16.296 -22.372  1.00  0.00     0.154 C 
HETATM    2  C7  UNL     1     -13.089  16.807 -21.090  1.00  0.00    -0.143 C 
HETATM    3  C8  UNL     1     -13.173  17.088 -19.707  1.00  0.00     0.088 C 
HETATM    4  C9  UNL     1     -11.861  16.601 -19.023  1.00  0.00     0.056 C 
HETATM    5  C10 UNL     1     -11.328  15.325 -19.518  1.00  0.00     0.066 C 
HETATM    6  N1  UNL     1     -10.907  15.110 -20.864  1.00  0.00    -0.352 N 
HETATM    7  C11 UNL     1      -9.869  14.099 -21.020  1.00  0.00     0.156 C 
HETATM    8  C12 UNL     1     -11.286  15.683 -22.134  1.00  0.00     0.121 C 
HETATM    9  N2  UNL     1     -10.404  15.684 -23.004  1.00  0.00    -0.366 N 
ATOM     10  H2  UNL     1      -9.509  15.253 -22.774  1.00  0.00     0.161 HD
HETATM   11  C13 UNL     1     -10.565  16.266 -24.353  1.00  0.00     0.049 C 
HETATM   12  C14 UNL     1     -10.605  15.027 -25.260  1.00  0.00     0.041 C 
HETATM   13  C15 UNL     1      -9.197  16.876 -24.724  1.00  0.00     0.041 C 
HETATM   14  C16 UNL     1     -11.722  17.181 -24.471  1.00  0.00     0.051 C 
HETATM   15  C17 UNL     1     -11.128  18.536 -24.901  1.00  0.00     0.041 C 
HETATM   16  C18 UNL     1     -12.487  16.761 -25.748  1.00  0.00     0.041 C 
HETATM   17  N3  UNL     1     -12.583  17.344 -23.378  1.00  0.00    -0.356 N 
ENDROOT
BRANCH  17  18
HETATM   18  C19 UNL     1     -13.620  18.252 -23.283  1.00  0.00     0.069 C 
BRANCH  18  19
HETATM   19  C20 UNL     1     -13.683  19.560 -23.954  1.00  0.00     0.128 C 
BRANCH  19  20
HETATM   20  C21 UNL     1     -13.346  20.682 -22.971  1.00  0.00     0.115 C 
HETATM   21  N4  UNL     1     -12.190  21.197 -22.953  1.00  0.00    -0.383 N 
ATOM     22  H42 UNL     1     -11.476  20.863 -23.600  1.00  0.00     0.157 HD
ATOM     23  H41 UNL     1     -11.965  21.946 -22.298  1.00  0.00     0.157 HD
BRANCH  20  24
HETATM   24  O2  UNL     1     -14.306  21.131 -22.101  1.00  0.00    -0.344 OA
HETATM   25  C22 UNL     1     -14.287  20.781 -20.714  1.00  0.00     0.211 C 
ENDBRANCH  20  24
ENDBRANCH  19  20
ENDBRANCH  18  19
ENDBRANCH  17  18
BRANCH   1  26
HETATM   26  C5  UNL     1     -13.584  15.247 -22.956  1.00  0.00     0.146 C 
BRANCH  26  27
HETATM   27  C4  UNL     1     -13.407  13.928 -22.336  1.00  0.00    -0.101 C 
HETATM   28  C3  UNL     1     -13.273  12.828 -21.844  1.00  0.00    -0.080 C 
BRANCH  28  29
HETATM   29  C2  UNL     1     -13.127  11.507 -21.234  1.00  0.00     0.260 C 
BRANCH  29  30
HETATM   30  O1  UNL     1     -13.736  10.508 -21.999  1.00  0.00    -0.384 OA
HETATM   31  C1  UNL     1     -15.128  10.626 -21.920  1.00  0.00     0.202 C 
ENDBRANCH  29  30
ENDBRANCH  28  29
ENDBRANCH  26  27
ENDBRANCH   1  26
TORSDOF 8
ENDMDL
MODEL 5
REMARK VINA RESULT: -7.225747613      2.508      5.857
REMARK  8 active torsions:
REMARK  status: ('A' for Active; 'I' for Inactive)
REMARK    1  A    between atoms: O1_2  and  C2_3 
REMARK    2  A    between atoms: C2_3  and  C3_4 
REMARK    3  A    between atoms: C4_5  and  C5_6 
REMARK    4  A    between atoms: C5_6  and  C6_7 
REMARK    5  A    between atoms: N3_23  and  C19_24 
REMARK    6  A    between atoms: C19_24  and  C20_25 
REMARK    7  A    between atoms: C20_25  and  C21_26 
REMARK    8  A    between atoms: C21_26  and  O2_30 
ROOT
HETATM    1  C6  UNL     1     -12.523  15.680 -22.305  1.00  0.00     0.154 C 
HETATM    2  C7  UNL     1     -12.845  15.728 -20.898  1.00  0.00    -0.143 C 
HETATM    3  C8  UNL     1     -13.130  16.185 -19.591  1.00  0.00     0.088 C 
HETATM    4  C9  UNL     1     -13.357  17.724 -19.644  1.00  0.00     0.056 C 
HETATM    5  C10 UNL     1     -12.457  18.464 -20.539  1.00  0.00     0.066 C 
HETATM    6  N1  UNL     1     -12.390  18.255 -21.948  1.00  0.00    -0.352 N 
HETATM    7  C11 UNL     1     -11.981  19.423 -22.716  1.00  0.00     0.156 C 
HETATM    8  C12 UNL     1     -12.647  17.120 -22.803  1.00  0.00     0.121 C 
HETATM    9  N2  UNL     1     -13.014  17.391 -23.954  1.00  0.00    -0.366 N 
ATOM     10  H2  UNL     1     -13.070  18.375 -24.217  1.00  0.00     0.161 HD
HETATM   11  C13 UNL     1     -13.376  16.382 -24.973  1.00  0.00     0.049 C 
HETATM   12  C14 UNL     1     -12.216  16.473 -25.976  1.00  0.00     0.041 C 
HETATM   13  C15 UNL     1     -14.537  16.991 -25.787  1.00  0.00     0.041 C 
HETATM   14  C16 UNL     1     -13.630  15.037 -24.412  1.00  0.00     0.051 C 
HETATM   15  C17 UNL     1     -15.080  14.696 -24.810  1.00  0.00     0.041 C 
HETATM   16  C18 UNL     1     -12.829  14.039 -25.281  1.00  0.00     0.041 C 
HETATM   17  N3  UNL     1     -13.429  14.813 -23.044  1.00  0.00    -0.356 N 
ENDROOT
BRANCH  17  18
HETATM   18  C19 UNL     1     -13.745  13.662 -22.348  1.00  0.00     0.069 C 
BRANCH  18  19
HETATM   19  C20 UNL     1     -13.385  12.291 -22.743  1.00  0.00     0.128 C 
BRANCH  19  20
HETATM   20  C21 UNL     1     -14.620  11.389 -22.727  1.00  0.00     0.115 C 
HETATM   21  N4  UNL     1     -15.320  11.234 -23.771  1.00  0.00    -0.383 N 
ATOM     22  H42 UNL     1     -15.058  11.714 -24.632  1.00  0.00     0.157 HD
ATOM     23  H41 UNL     1     -16.143  10.632 -23.759  1.00  0.00     0.157 HD
BRANCH  20  24
HETATM   24  O2  UNL     1     -14.972  10.743 -21.569  1.00  0.00    -0.344 OA
HETATM   25  C22 UNL     1     -15.347   9.363 -21.561  1.00  0.00     0.211 C 
ENDBRANCH  20  24
ENDBRANCH  19  20
ENDBRANCH  18  19
ENDBRANCH  17  18
BRANCH   1  26
HETATM   26  C5  UNL     1     -11.135  15.164 -22.606  1.00  0.00     0.146 C 
BRANCH  26  27
HETATM   27  C4  UNL     1     -10.437  14.678 -21.409  1.00  0.00    -0.101 C 
HETATM   28  C3  UNL     1      -9.870  14.253 -20.425  1.00  0.00    -0.080 C 
BRANCH  28  29
HETATM   29  C2  UNL     1      -9.202  13.753 -19.224  1.00  0.00     0.260 C 
BRANCH  29  30
HETATM   30  O1  UNL     1     -10.063  13.714 -18.125  1.00  0.00    -0.384 OA
HETATM   31  C1  UNL     1     -10.193  14.992 -17.571  1.00  0.00     0.202 C 
ENDBRANCH  29  30
ENDBRANCH  28  29
ENDBRANCH  26  27
ENDBRANCH   1  26
TORSDOF 8
ENDMDL
