MODEL 1
REMARK VINA RESULT: -5.217416128      0.000      0.000
REMARK  3 active torsions:
REMARK  status: ('A' for Active; 'I' for Inactive)
REMARK    1  A    between atoms: N1_1  and  N2_4 
REMARK       I    between atoms: N2_4  and  C1_6 
REMARK    2  A    between atoms: C1_6  and  C2_8 
REMARK       I    between atoms: C2_8  and  N3_10 
REMARK    3  A    between atoms: N3_10  and  N4_12 
REMARK       I    between atoms: N4_12  and  C3_14 
ROOT
HETATM    1  C2  UNL     1     -14.482 -34.185  95.235  1.00  0.00     0.329 C 
HETATM    2  O2  UNL     1     -15.370 -33.276  95.265  1.00  0.00    -0.261 OA
HETATM    3  N3  UNL     1     -13.267 -34.085  95.925  1.00  0.00    -0.258 N 
ATOM      4  H3  UNL     1     -12.605 -34.858  95.853  1.00  0.00     0.190 HD
ENDROOT
BRANCH   1   5
HETATM    5  C1  UNL     1     -14.780 -35.377  94.433  1.00  0.00     0.329 C 
HETATM    6  N2  UNL     1     -13.750 -36.274  94.021  1.00  0.00    -0.268 N 
ATOM      7  H2  UNL     1     -12.776 -36.109  94.275  1.00  0.00     0.190 HD
HETATM    8  O1  UNL     1     -15.992 -35.592  94.109  1.00  0.00    -0.261 OA
BRANCH   6   9
HETATM    9  N1  UNL     1     -14.120 -37.383  93.260  1.00  0.00    -0.342 N 
ATOM     10  H12 UNL     1     -14.072 -38.319  93.662  1.00  0.00     0.176 HD
ATOM     11  H11 UNL     1     -14.434 -37.220  92.303  1.00  0.00     0.176 HD
ENDBRANCH   6   9
ENDBRANCH   1   5
BRANCH   3  12
HETATM   12  N4  UNL     1     -12.913 -32.984  96.706  1.00  0.00    -0.251 N 
HETATM   13  C3  UNL     1     -12.197 -31.879  96.170  1.00  0.00     0.347 C 
HETATM   14  N5  UNL     1     -11.844 -30.770  96.968  1.00  0.00    -0.038 NA
HETATM   15  O3  UNL     1     -11.884 -31.928  94.930  1.00  0.00    -0.249 OA
ATOM     16  H4  UNL     1     -13.176 -32.972  97.691  1.00  0.00     0.191 HD
ENDBRANCH   3  12
TORSDOF 3
ENDMDL
MODEL 2
REMARK VINA RESULT: -5.204273741      1.331      1.331
REMARK  3 active torsions:
REMARK  status: ('A' for Active; 'I' for Inactive)
REMARK    1  A    between atoms: N1_1  and  N2_4 
REMARK       I    between atoms: N2_4  and  C1_6 
REMARK    2  A    between atoms: C1_6  and  C2_8 
REMARK       I    between atoms: C2_8  and  N3_10 
REMARK    3  A    between atoms: N3_10  and  N4_12 
REMARK       I    between atoms: N4_12  and  C3_14 
ROOT
HETATM    1  C2  UNL     1     -14.507 -34.589  95.480  1.00  0.00     0.329 C 
HETATM    2  O2  UNL     1     -15.434 -34.538  96.349  1.00  0.00    -0.261 OA
HETATM    3  N3  UNL     1     -13.308 -33.874  95.603  1.00  0.00    -0.258 N 
ATOM      4  H3  UNL     1     -12.612 -33.968  94.864  1.00  0.00     0.190 HD
ENDROOT
BRANCH   1   5
HETATM    5  C1  UNL     1     -14.740 -35.445  94.311  1.00  0.00     0.329 C 
HETATM    6  N2  UNL     1     -16.030 -35.986  94.029  1.00  0.00    -0.268 N 
ATOM      7  H2  UNL     1     -16.827 -35.790  94.635  1.00  0.00     0.190 HD
HETATM    8  O1  UNL     1     -13.753 -35.697  93.548  1.00  0.00    -0.261 OA
BRANCH   6   9
HETATM    9  N1  UNL     1     -16.164 -36.789  92.897  1.00  0.00    -0.342 N 
ATOM     10  H12 UNL     1     -16.654 -36.438  92.074  1.00  0.00     0.176 HD
ATOM     11  H11 UNL     1     -15.760 -37.726  92.928  1.00  0.00     0.176 HD
ENDBRANCH   6   9
ENDBRANCH   1   5
BRANCH   3  12
HETATM   12  N4  UNL     1     -13.017 -33.040  96.683  1.00  0.00    -0.251 N 
HETATM   13  C3  UNL     1     -12.349 -31.796  96.515  1.00  0.00     0.347 C 
HETATM   14  N5  UNL     1     -12.058 -30.961  97.615  1.00  0.00    -0.038 NA
HETATM   15  O3  UNL     1     -12.020 -31.463  95.324  1.00  0.00    -0.249 OA
ATOM     16  H4  UNL     1     -13.291 -33.332  97.620  1.00  0.00     0.191 HD
ENDBRANCH   3  12
TORSDOF 3
ENDMDL
MODEL 3
REMARK VINA RESULT: -5.186139046      1.294      1.536
REMARK  3 active torsions:
REMARK  status: ('A' for Active; 'I' for Inactive)
REMARK    1  A    between atoms: N1_1  and  N2_4 
REMARK       I    between atoms: N2_4  and  C1_6 
REMARK    2  A    between atoms: C1_6  and  C2_8 
REMARK       I    between atoms: C2_8  and  N3_10 
REMARK    3  A    between atoms: N3_10  and  N4_12 
REMARK       I    between atoms: N4_12  and  C3_14 
ROOT
HETATM    1  C2  UNL     1     -14.014 -34.129  95.066  1.00  0.00     0.329 C 
HETATM    2  O2  UNL     1     -14.065 -33.163  94.242  1.00  0.00    -0.261 OA
HETATM    3  N3  UNL     1     -13.376 -34.036  96.311  1.00  0.00    -0.258 N 
ATOM      4  H3  UNL     1     -13.379 -34.855  96.918  1.00  0.00     0.190 HD
ENDROOT
BRANCH   1   5
HETATM    5  C1  UNL     1     -14.664 -35.381  94.661  1.00  0.00     0.329 C 
HETATM    6  N2  UNL     1     -14.198 -36.135  93.544  1.00  0.00    -0.268 N 
ATOM      7  H2  UNL     1     -13.397 -35.821  92.994  1.00  0.00     0.190 HD
HETATM    8  O1  UNL     1     -15.663 -35.782  95.339  1.00  0.00    -0.261 OA
BRANCH   6   9
HETATM    9  N1  UNL     1     -14.872 -37.313  93.227  1.00  0.00    -0.342 N 
ATOM     10  H12 UNL     1     -15.637 -37.641  93.818  1.00  0.00     0.176 HD
ATOM     11  H11 UNL     1     -14.573 -37.824  92.396  1.00  0.00     0.176 HD
ENDBRANCH   6   9
ENDBRANCH   1   5
BRANCH   3  12
HETATM   12  N4  UNL     1     -12.736 -32.881  96.763  1.00  0.00    -0.251 N 
HETATM   13  C3  UNL     1     -13.440 -31.845  97.435  1.00  0.00     0.347 C 
HETATM   14  N5  UNL     1     -12.784 -30.681  97.888  1.00  0.00    -0.038 NA
HETATM   15  O3  UNL     1     -14.697 -32.009  97.613  1.00  0.00    -0.249 OA
ATOM     16  H4  UNL     1     -11.734 -32.778  96.607  1.00  0.00     0.191 HD
ENDBRANCH   3  12
TORSDOF 3
ENDMDL
MODEL 4
REMARK VINA RESULT: -5.049238401      1.958      4.998
REMARK  3 active torsions:
REMARK  status: ('A' for Active; 'I' for Inactive)
REMARK    1  A    between atoms: N1_1  and  N2_4 
REMARK       I    between atoms: N2_4  and  C1_6 
REMARK    2  A    between atoms: C1_6  and  C2_8 
REMARK       I    between atoms: C2_8  and  N3_10 
REMARK    3  A    between atoms: N3_10  and  N4_12 
REMARK       I    between atoms: N4_12  and  C3_14 
ROOT
HETATM    1  C2  UNL     1     -14.210 -32.578  96.658  1.00  0.00     0.329 C 
HETATM    2  O2  UNL     1     -15.339 -32.097  96.989  1.00  0.00    -0.261 OA
HETATM    3  N3  UNL     1     -14.074 -33.738  95.884  1.00  0.00    -0.258 N 
ATOM      4  H3  UNL     1     -13.133 -34.060  95.659  1.00  0.00     0.190 HD
ENDROOT
BRANCH   1   5
HETATM    5  C1  UNL     1     -13.020 -31.858  97.127  1.00  0.00     0.329 C 
HETATM    6  N2  UNL     1     -11.734 -32.094  96.556  1.00  0.00    -0.268 N 
ATOM      7  H2  UNL     1     -11.608 -32.772  95.804  1.00  0.00     0.190 HD
HETATM    8  O1  UNL     1     -13.165 -31.010  98.064  1.00  0.00    -0.261 OA
BRANCH   6   9
HETATM    9  N1  UNL     1     -10.656 -31.367  97.060  1.00  0.00    -0.342 N 
ATOM     10  H12 UNL     1      -9.707 -31.728  96.968  1.00  0.00     0.176 HD
ATOM     11  H11 UNL     1     -10.855 -30.475  97.515  1.00  0.00     0.176 HD
ENDBRANCH   6   9
ENDBRANCH   1   5
BRANCH   3  12
HETATM   12  N4  UNL     1     -15.157 -34.475  95.405  1.00  0.00    -0.251 N 
HETATM   13  C3  UNL     1     -15.043 -35.339  94.282  1.00  0.00     0.347 C 
HETATM   14  N5  UNL     1     -16.145 -36.080  93.805  1.00  0.00    -0.038 NA
HETATM   15  O3  UNL     1     -13.897 -35.419  93.718  1.00  0.00    -0.249 OA
ATOM     16  H4  UNL     1     -16.058 -34.391  95.875  1.00  0.00     0.191 HD
ENDBRANCH   3  12
TORSDOF 3
ENDMDL
MODEL 5
REMARK VINA RESULT: -4.928869429      1.505      1.595
REMARK  3 active torsions:
REMARK  status: ('A' for Active; 'I' for Inactive)
REMARK    1  A    between atoms: N1_1  and  N2_4 
REMARK       I    between atoms: N2_4  and  C1_6 
REMARK    2  A    between atoms: C1_6  and  C2_8 
REMARK       I    between atoms: C2_8  and  N3_10 
REMARK    3  A    between atoms: N3_10  and  N4_12 
REMARK       I    between atoms: N4_12  and  C3_14 
ROOT
HETATM    1  C2  UNL     1     -14.095 -34.814  96.166  1.00  0.00     0.329 C 
HETATM    2  O2  UNL     1     -14.309 -35.021  97.401  1.00  0.00    -0.261 OA
HETATM    3  N3  UNL     1     -13.309 -33.754  95.696  1.00  0.00    -0.258 N 
ATOM      4  H3  UNL     1     -13.184 -33.654  94.689  1.00  0.00     0.190 HD
ENDROOT
BRANCH   1   5
HETATM    5  C1  UNL     1     -14.718 -35.747  95.219  1.00  0.00     0.329 C 
HETATM    6  N2  UNL     1     -13.969 -36.351  94.166  1.00  0.00    -0.268 N 
ATOM      7  H2  UNL     1     -12.976 -36.149  94.043  1.00  0.00     0.190 HD
HETATM    8  O1  UNL     1     -15.955 -36.007  95.363  1.00  0.00    -0.261 OA
BRANCH   6   9
HETATM    9  N1  UNL     1     -14.638 -37.227  93.312  1.00  0.00    -0.342 N 
ATOM     10  H12 UNL     1     -15.026 -36.887  92.432  1.00  0.00     0.176 HD
ATOM     11  H11 UNL     1     -14.720 -38.202  93.600  1.00  0.00     0.176 HD
ENDBRANCH   6   9
ENDBRANCH   1   5
BRANCH   3  12
HETATM   12  N4  UNL     1     -12.687 -32.827  96.533  1.00  0.00    -0.251 N 
HETATM   13  C3  UNL     1     -13.380 -31.702  97.057  1.00  0.00     0.347 C 
HETATM   14  N5  UNL     1     -12.742 -30.770  97.903  1.00  0.00    -0.038 NA
HETATM   15  O3  UNL     1     -14.611 -31.566  96.731  1.00  0.00    -0.249 OA
ATOM     16  H4  UNL     1     -11.706 -32.961  96.776  1.00  0.00     0.191 HD
ENDBRANCH   3  12
TORSDOF 3
ENDMDL
