MODEL 1
REMARK VINA RESULT: -9.110798952      0.000      0.000
REMARK  8 active torsions:
REMARK  status: ('A' for Active; 'I' for Inactive)
REMARK    1  A    between atoms: N2_5  and  C3_6 
REMARK    2  A    between atoms: C10_14  and  C11_15 
REMARK    3  A    between atoms: C11_15  and  C12_16 
REMARK    4  A    between atoms: C15_19  and  S1_20 
REMARK    5  A    between atoms: S1_20  and  O4_23 
REMARK    6  A    between atoms: O4_23  and  C16_24 
REMARK    7  A    between atoms: C19_27  and  C20_28 
REMARK    8  A    between atoms: N3_29  and  N4_31 
REMARK       I    between atoms: N4_31  and  C21_33 
ROOT
HETATM    1  C12 UNL     1      11.967  52.482  87.467  1.00  0.00    -0.035 A 
HETATM    2  C13 UNL     1      13.107  53.224  87.254  1.00  0.00     0.013 A 
HETATM    3  C14 UNL     1      13.641  53.950  88.287  1.00  0.00     0.027 A 
HETATM    4  C15 UNL     1      13.067  53.960  89.546  1.00  0.00     0.086 A 
HETATM    5  C24 UNL     1      11.928  53.218  89.757  1.00  0.00     0.027 A 
HETATM    6  C25 UNL     1      11.394  52.494  88.727  1.00  0.00     0.013 A 
ENDROOT
BRANCH   4   7
HETATM    7  S1  UNL     1      13.840  54.923  90.779  1.00  0.00     0.303 S 
HETATM    8  O2  UNL     1      15.231  54.388  90.981  1.00  0.00    -0.193 OA
HETATM    9  O3  UNL     1      13.873  56.354  90.297  1.00  0.00    -0.193 OA
BRANCH   7  10
HETATM   10  O4  UNL     1      12.965  54.896  92.235  1.00  0.00    -0.229 OA
BRANCH  10  11
HETATM   11  C16 UNL     1      13.237  53.901  93.145  1.00  0.00     0.089 A 
HETATM   12  C17 UNL     1      13.545  52.605  92.809  1.00  0.00     0.039 A 
HETATM   13  C18 UNL     1      13.809  51.645  93.764  1.00  0.00     0.015 A 
HETATM   14  C19 UNL     1      13.779  51.931  95.104  1.00  0.00    -0.019 A 
HETATM   15  C22 UNL     1      13.465  53.249  95.458  1.00  0.00     0.015 A 
HETATM   16  C23 UNL     1      13.206  54.186  94.491  1.00  0.00     0.039 A 
BRANCH  14  17
HETATM   17  C20 UNL     1      14.044  50.976  96.171  1.00  0.00     0.118 C 
HETATM   18  N3  UNL     1      15.012  50.899  96.952  1.00  0.00    -0.309 N 
ATOM     19  H3  UNL     1      14.920  50.119  97.602  1.00  0.00     0.186 HD
BRANCH  18  20
HETATM   20  N4  UNL     1      16.152  51.594  97.151  1.00  0.00    -0.274 N 
HETATM   21  C21 UNL     1      17.389  51.051  97.612  1.00  0.00     0.200 C 
HETATM   22  N5  UNL     1      18.031  51.704  98.513  1.00  0.00    -0.372 N 
HETATM   23  N6  UNL     1      17.929  49.839  97.123  1.00  0.00    -0.062 NA
ATOM     24  H52 UNL     1      17.641  52.578  98.865  1.00  0.00     0.158 HD
ATOM     25  H51 UNL     1      18.915  51.316  98.842  1.00  0.00     0.158 HD
ATOM     26  H4  UNL     1      16.127  52.594  96.955  1.00  0.00     0.189 HD
ENDBRANCH  18  20
ENDBRANCH  14  17
ENDBRANCH  10  11
ENDBRANCH   7  10
ENDBRANCH   4   7
BRANCH   1  27
HETATM   27  C11 UNL     1      11.416  51.678  86.390  1.00  0.00     0.030 C 
BRANCH  27  28
HETATM   28  C10 UNL     1      12.033  50.945  85.505  1.00  0.00     0.062 A 
HETATM   29  C2  UNL     1      12.196  49.592  85.344  1.00  0.00     0.055 A 
HETATM   30  C1  UNL     1      11.732  48.632  86.105  1.00  0.00     0.045 C 
HETATM   31  N1  UNL     1      12.954  49.408  84.213  1.00  0.00    -0.291 N 
HETATM   32  N2  UNL     1      13.265  50.561  83.673  1.00  0.00    -0.220 N 
ATOM     33  H1  UNL     1      13.236  48.499  83.845  1.00  0.00     0.187 HD
HETATM   34  C9  UNL     1      12.729  51.501  84.421  1.00  0.00     0.279 A 
HETATM   35  O1  UNL     1      12.832  52.719  84.189  1.00  0.00    -0.265 OA
BRANCH  32  36
HETATM   36  C3  UNL     1      14.039  50.717  82.496  1.00  0.00     0.060 A 
HETATM   37  C4  UNL     1      13.652  50.161  81.290  1.00  0.00     0.031 A 
HETATM   38  C5  UNL     1      14.413  50.317  80.139  1.00  0.00     0.002 A 
HETATM   39  C6  UNL     1      15.589  51.037  80.164  1.00  0.00     0.000 A 
HETATM   40  C7  UNL     1      15.981  51.594  81.363  1.00  0.00     0.002 A 
HETATM   41  C8  UNL     1      15.217  51.435  82.504  1.00  0.00     0.031 A 
ENDBRANCH  32  36
ENDBRANCH  27  28
ENDBRANCH   1  27
TORSDOF 8
ENDMDL
MODEL 2
REMARK VINA RESULT: -9.030960443      3.557      4.667
REMARK  8 active torsions:
REMARK  status: ('A' for Active; 'I' for Inactive)
REMARK    1  A    between atoms: N2_5  and  C3_6 
REMARK    2  A    between atoms: C10_14  and  C11_15 
REMARK    3  A    between atoms: C11_15  and  C12_16 
REMARK    4  A    between atoms: C15_19  and  S1_20 
REMARK    5  A    between atoms: S1_20  and  O4_23 
REMARK    6  A    between atoms: O4_23  and  C16_24 
REMARK    7  A    between atoms: C19_27  and  C20_28 
REMARK    8  A    between atoms: N3_29  and  N4_31 
REMARK       I    between atoms: N4_31  and  C21_33 
ROOT
HETATM    1  C12 UNL     1      11.783  49.741  88.039  1.00  0.00    -0.035 A 
HETATM    2  C13 UNL     1      11.420  50.643  89.014  1.00  0.00     0.013 A 
HETATM    3  C14 UNL     1      11.933  50.513  90.278  1.00  0.00     0.027 A 
HETATM    4  C15 UNL     1      12.811  49.494  90.608  1.00  0.00     0.086 A 
HETATM    5  C24 UNL     1      13.171  48.594  89.634  1.00  0.00     0.027 A 
HETATM    6  C25 UNL     1      12.660  48.723  88.372  1.00  0.00     0.013 A 
ENDROOT
BRANCH   4   7
HETATM    7  S1  UNL     1      13.395  49.433  92.251  1.00  0.00     0.303 S 
HETATM    8  O2  UNL     1      12.205  49.485  93.169  1.00  0.00    -0.193 OA
HETATM    9  O3  UNL     1      14.158  48.141  92.425  1.00  0.00    -0.193 OA
BRANCH   7  10
HETATM   10  O4  UNL     1      14.469  50.707  92.582  1.00  0.00    -0.229 OA
BRANCH  10  11
HETATM   11  C16 UNL     1      13.966  51.862  93.136  1.00  0.00     0.089 A 
HETATM   12  C17 UNL     1      13.722  52.037  94.477  1.00  0.00     0.039 A 
HETATM   13  C18 UNL     1      13.215  53.217  94.979  1.00  0.00     0.015 A 
HETATM   14  C19 UNL     1      12.927  54.284  94.168  1.00  0.00    -0.019 A 
HETATM   15  C22 UNL     1      13.172  54.116  92.800  1.00  0.00     0.015 A 
HETATM   16  C23 UNL     1      13.675  52.933  92.323  1.00  0.00     0.039 A 
BRANCH  14  17
HETATM   17  C20 UNL     1      12.391  55.560  94.620  1.00  0.00     0.118 C 
HETATM   18  N3  UNL     1      11.284  55.827  95.126  1.00  0.00    -0.309 N 
ATOM     19  H3  UNL     1      11.192  56.819  95.345  1.00  0.00     0.186 HD
BRANCH  18  20
HETATM   20  N4  UNL     1      10.177  55.129  95.457  1.00  0.00    -0.274 N 
HETATM   21  C21 UNL     1       9.199  54.634  94.542  1.00  0.00     0.200 C 
HETATM   22  N5  UNL     1       7.962  54.787  94.849  1.00  0.00    -0.372 N 
HETATM   23  N6  UNL     1       9.534  53.992  93.327  1.00  0.00    -0.062 NA
ATOM     24  H52 UNL     1       7.721  55.250  95.724  1.00  0.00     0.158 HD
ATOM     25  H51 UNL     1       7.263  54.434  94.195  1.00  0.00     0.158 HD
ATOM     26  H4  UNL     1      10.027  54.938  96.447  1.00  0.00     0.189 HD
ENDBRANCH  18  20
ENDBRANCH  14  17
ENDBRANCH  10  11
ENDBRANCH   7  10
ENDBRANCH   4   7
BRANCH   1  27
HETATM   27  C11 UNL     1      11.276  49.894  86.687  1.00  0.00     0.030 C 
BRANCH  27  28
HETATM   28  C10 UNL     1      11.706  50.662  85.724  1.00  0.00     0.062 A 
HETATM   29  C2  UNL     1      11.436  51.955  85.353  1.00  0.00     0.055 A 
HETATM   30  C1  UNL     1      10.613  52.799  85.924  1.00  0.00     0.045 C 
HETATM   31  N1  UNL     1      12.200  52.225  84.243  1.00  0.00    -0.291 N 
HETATM   32  N2  UNL     1      12.919  51.180  83.912  1.00  0.00    -0.220 N 
ATOM     33  H1  UNL     1      12.207  53.116  83.745  1.00  0.00     0.187 HD
HETATM   34  C9  UNL     1      12.647  50.228  84.779  1.00  0.00     0.279 A 
HETATM   35  O1  UNL     1      13.162  49.096  84.753  1.00  0.00    -0.265 OA
BRANCH  32  36
HETATM   36  C3  UNL     1      13.813  51.132  82.814  1.00  0.00     0.060 A 
HETATM   37  C4  UNL     1      13.468  50.528  81.618  1.00  0.00     0.031 A 
HETATM   38  C5  UNL     1      14.348  50.483  80.546  1.00  0.00     0.002 A 
HETATM   39  C6  UNL     1      15.604  51.044  80.640  1.00  0.00     0.000 A 
HETATM   40  C7  UNL     1      15.955  51.647  81.829  1.00  0.00     0.002 A 
HETATM   41  C8  UNL     1      15.073  51.688  82.893  1.00  0.00     0.031 A 
ENDBRANCH  32  36
ENDBRANCH  27  28
ENDBRANCH   1  27
TORSDOF 8
ENDMDL
MODEL 3
REMARK VINA RESULT: -9.015818971      3.989      5.294
REMARK  8 active torsions:
REMARK  status: ('A' for Active; 'I' for Inactive)
REMARK    1  A    between atoms: N2_5  and  C3_6 
REMARK    2  A    between atoms: C10_14  and  C11_15 
REMARK    3  A    between atoms: C11_15  and  C12_16 
REMARK    4  A    between atoms: C15_19  and  S1_20 
REMARK    5  A    between atoms: S1_20  and  O4_23 
REMARK    6  A    between atoms: O4_23  and  C16_24 
REMARK    7  A    between atoms: C19_27  and  C20_28 
REMARK    8  A    between atoms: N3_29  and  N4_31 
REMARK       I    between atoms: N4_31  and  C21_33 
ROOT
HETATM    1  C12 UNL     1      11.746  48.858  87.614  1.00  0.00    -0.035 A 
HETATM    2  C13 UNL     1      10.814  48.532  88.574  1.00  0.00     0.013 A 
HETATM    3  C14 UNL     1      11.226  47.939  89.739  1.00  0.00     0.027 A 
HETATM    4  C15 UNL     1      12.559  47.657  89.983  1.00  0.00     0.086 A 
HETATM    5  C24 UNL     1      13.488  47.983  89.024  1.00  0.00     0.027 A 
HETATM    6  C25 UNL     1      13.079  48.574  87.860  1.00  0.00     0.013 A 
ENDROOT
BRANCH   4   7
HETATM    7  S1  UNL     1      12.959  46.901  91.504  1.00  0.00     0.303 S 
HETATM    8  O2  UNL     1      12.313  45.543  91.531  1.00  0.00    -0.193 OA
HETATM    9  O3  UNL     1      14.462  46.787  91.585  1.00  0.00    -0.193 OA
BRANCH   7  10
HETATM   10  O4  UNL     1      12.447  47.840  92.824  1.00  0.00    -0.229 OA
BRANCH  10  11
HETATM   11  C16 UNL     1      12.817  49.164  92.871  1.00  0.00     0.089 A 
HETATM   12  C17 UNL     1      14.085  49.605  93.165  1.00  0.00     0.039 A 
HETATM   13  C18 UNL     1      14.402  50.947  93.199  1.00  0.00     0.015 A 
HETATM   14  C19 UNL     1      13.470  51.917  92.939  1.00  0.00    -0.019 A 
HETATM   15  C22 UNL     1      12.174  51.479  92.638  1.00  0.00     0.015 A 
HETATM   16  C23 UNL     1      11.883  50.139  92.611  1.00  0.00     0.039 A 
BRANCH  14  17
HETATM   17  C20 UNL     1      13.724  53.351  92.955  1.00  0.00     0.118 C 
HETATM   18  N3  UNL     1      14.043  54.116  92.025  1.00  0.00    -0.309 N 
ATOM     19  H3  UNL     1      14.152  55.080  92.341  1.00  0.00     0.186 HD
BRANCH  18  20
HETATM   20  N4  UNL     1      14.278  53.986  90.702  1.00  0.00    -0.274 N 
HETATM   21  C21 UNL     1      14.433  55.059  89.773  1.00  0.00     0.200 C 
HETATM   22  N5  UNL     1      13.830  54.964  88.644  1.00  0.00    -0.372 N 
HETATM   23  N6  UNL     1      15.213  56.207  90.044  1.00  0.00    -0.062 NA
ATOM     24  H52 UNL     1      13.267  54.136  88.449  1.00  0.00     0.158 HD
ATOM     25  H51 UNL     1      13.940  55.730  87.980  1.00  0.00     0.158 HD
ATOM     26  H4  UNL     1      14.353  53.038  90.335  1.00  0.00     0.189 HD
ENDBRANCH  18  20
ENDBRANCH  14  17
ENDBRANCH  10  11
ENDBRANCH   7  10
ENDBRANCH   4   7
BRANCH   1  27
HETATM   27  C11 UNL     1      11.325  49.522  86.393  1.00  0.00     0.030 C 
BRANCH  27  28
HETATM   28  C10 UNL     1      11.964  50.394  85.662  1.00  0.00     0.062 A 
HETATM   29  C2  UNL     1      12.141  51.752  85.747  1.00  0.00     0.055 A 
HETATM   30  C1  UNL     1      11.671  52.567  86.660  1.00  0.00     0.045 C 
HETATM   31  N1  UNL     1      12.920  52.127  84.679  1.00  0.00    -0.291 N 
HETATM   32  N2  UNL     1      13.229  51.085  83.946  1.00  0.00    -0.220 N 
ATOM     33  H1  UNL     1      13.215  53.083  84.483  1.00  0.00     0.187 HD
HETATM   34  C9  UNL     1      12.673  50.033  84.508  1.00  0.00     0.279 A 
HETATM   35  O1  UNL     1      12.770  48.874  84.064  1.00  0.00    -0.265 OA
BRANCH  32  36
HETATM   36  C3  UNL     1      14.022  51.132  82.773  1.00  0.00     0.060 A 
HETATM   37  C4  UNL     1      13.551  50.672  81.556  1.00  0.00     0.031 A 
HETATM   38  C5  UNL     1      14.332  50.720  80.409  1.00  0.00     0.002 A 
HETATM   39  C6  UNL     1      15.611  51.232  80.448  1.00  0.00     0.000 A 
HETATM   40  C7  UNL     1      16.087  51.693  81.657  1.00  0.00     0.002 A 
HETATM   41  C8  UNL     1      15.304  51.642  82.795  1.00  0.00     0.031 A 
ENDBRANCH  32  36
ENDBRANCH  27  28
ENDBRANCH   1  27
TORSDOF 8
ENDMDL
MODEL 4
REMARK VINA RESULT: -8.924071483      3.332      4.370
REMARK  8 active torsions:
REMARK  status: ('A' for Active; 'I' for Inactive)
REMARK    1  A    between atoms: N2_5  and  C3_6 
REMARK    2  A    between atoms: C10_14  and  C11_15 
REMARK    3  A    between atoms: C11_15  and  C12_16 
REMARK    4  A    between atoms: C15_19  and  S1_20 
REMARK    5  A    between atoms: S1_20  and  O4_23 
REMARK    6  A    between atoms: O4_23  and  C16_24 
REMARK    7  A    between atoms: C19_27  and  C20_28 
REMARK    8  A    between atoms: N3_29  and  N4_31 
REMARK       I    between atoms: N4_31  and  C21_33 
ROOT
HETATM    1  C12 UNL     1      11.719  49.831  88.007  1.00  0.00    -0.035 A 
HETATM    2  C13 UNL     1      11.380  50.788  88.937  1.00  0.00     0.013 A 
HETATM    3  C14 UNL     1      11.872  50.691  90.213  1.00  0.00     0.027 A 
HETATM    4  C15 UNL     1      12.704  49.654  90.598  1.00  0.00     0.086 A 
HETATM    5  C24 UNL     1      13.040  48.699  89.668  1.00  0.00     0.027 A 
HETATM    6  C25 UNL     1      12.550  48.794  88.394  1.00  0.00     0.013 A 
ENDROOT
BRANCH   4   7
HETATM    7  S1  UNL     1      13.265  49.639  92.250  1.00  0.00     0.303 S 
HETATM    8  O2  UNL     1      12.062  49.728  93.149  1.00  0.00    -0.193 OA
HETATM    9  O3  UNL     1      14.015  48.348  92.474  1.00  0.00    -0.193 OA
BRANCH   7  10
HETATM   10  O4  UNL     1      14.344  50.915  92.557  1.00  0.00    -0.229 OA
BRANCH  10  11
HETATM   11  C16 UNL     1      13.851  52.070  93.118  1.00  0.00     0.089 A 
HETATM   12  C17 UNL     1      13.631  52.248  94.462  1.00  0.00     0.039 A 
HETATM   13  C18 UNL     1      13.133  53.429  94.972  1.00  0.00     0.015 A 
HETATM   14  C19 UNL     1      12.831  54.494  94.165  1.00  0.00    -0.019 A 
HETATM   15  C22 UNL     1      13.051  54.324  92.792  1.00  0.00     0.015 A 
HETATM   16  C23 UNL     1      13.546  53.140  92.309  1.00  0.00     0.039 A 
BRANCH  14  17
HETATM   17  C20 UNL     1      12.302  55.771  94.624  1.00  0.00     0.118 C 
HETATM   18  N3  UNL     1      11.843  56.092  95.736  1.00  0.00    -0.309 N 
ATOM     19  H3  UNL     1      11.548  57.068  95.763  1.00  0.00     0.186 HD
BRANCH  18  20
HETATM   20  N4  UNL     1      11.638  55.467  96.915  1.00  0.00    -0.274 N 
HETATM   21  C21 UNL     1      10.611  55.778  97.857  1.00  0.00     0.200 C 
HETATM   22  N5  UNL     1      10.933  55.833  99.098  1.00  0.00    -0.372 N 
HETATM   23  N6  UNL     1       9.270  56.026  97.481  1.00  0.00    -0.062 NA
ATOM     24  H52 UNL     1      11.900  55.654  99.369  1.00  0.00     0.158 HD
ATOM     25  H51 UNL     1      10.200  56.056  99.770  1.00  0.00     0.158 HD
ATOM     26  H4  UNL     1      12.274  54.707  97.155  1.00  0.00     0.189 HD
ENDBRANCH  18  20
ENDBRANCH  14  17
ENDBRANCH  10  11
ENDBRANCH   7  10
ENDBRANCH   4   7
BRANCH   1  27
HETATM   27  C11 UNL     1      11.235  49.946  86.642  1.00  0.00     0.030 C 
BRANCH  27  28
HETATM   28  C10 UNL     1      11.669  50.702  85.671  1.00  0.00     0.062 A 
HETATM   29  C2  UNL     1      11.395  51.987  85.278  1.00  0.00     0.055 A 
HETATM   30  C1  UNL     1      10.561  52.834  85.829  1.00  0.00     0.045 C 
HETATM   31  N1  UNL     1      12.167  52.246  84.171  1.00  0.00    -0.291 N 
HETATM   32  N2  UNL     1      12.896  51.200  83.863  1.00  0.00    -0.220 N 
ATOM     33  H1  UNL     1      12.173  53.129  83.660  1.00  0.00     0.187 HD
HETATM   34  C9  UNL     1      12.621  50.260  84.741  1.00  0.00     0.279 A 
HETATM   35  O1  UNL     1      13.144  49.131  84.738  1.00  0.00    -0.265 OA
BRANCH  32  36
HETATM   36  C3  UNL     1      13.800  51.141  82.774  1.00  0.00     0.060 A 
HETATM   37  C4  UNL     1      13.453  50.558  81.568  1.00  0.00     0.031 A 
HETATM   38  C5  UNL     1      14.343  50.502  80.504  1.00  0.00     0.002 A 
HETATM   39  C6  UNL     1      15.612  51.031  80.618  1.00  0.00     0.000 A 
HETATM   40  C7  UNL     1      15.965  51.613  81.817  1.00  0.00     0.002 A 
HETATM   41  C8  UNL     1      15.073  51.665  82.872  1.00  0.00     0.031 A 
ENDBRANCH  32  36
ENDBRANCH  27  28
ENDBRANCH   1  27
TORSDOF 8
ENDMDL
MODEL 5
REMARK VINA RESULT: -8.912328258      3.530      4.508
REMARK  8 active torsions:
REMARK  status: ('A' for Active; 'I' for Inactive)
REMARK    1  A    between atoms: N2_5  and  C3_6 
REMARK    2  A    between atoms: C10_14  and  C11_15 
REMARK    3  A    between atoms: C11_15  and  C12_16 
REMARK    4  A    between atoms: C15_19  and  S1_20 
REMARK    5  A    between atoms: S1_20  and  O4_23 
REMARK    6  A    between atoms: O4_23  and  C16_24 
REMARK    7  A    between atoms: C19_27  and  C20_28 
REMARK    8  A    between atoms: N3_29  and  N4_31 
REMARK       I    between atoms: N4_31  and  C21_33 
ROOT
HETATM    1  C12 UNL     1      11.713  49.911  88.052  1.00  0.00    -0.035 A 
HETATM    2  C13 UNL     1      11.439  50.956  88.905  1.00  0.00     0.013 A 
HETATM    3  C14 UNL     1      11.909  50.916  90.193  1.00  0.00     0.027 A 
HETATM    4  C15 UNL     1      12.655  49.850  90.664  1.00  0.00     0.086 A 
HETATM    5  C24 UNL     1      12.927  48.807  89.811  1.00  0.00     0.027 A 
HETATM    6  C25 UNL     1      12.459  48.846  88.526  1.00  0.00     0.013 A 
ENDROOT
BRANCH   4   7
HETATM    7  S1  UNL     1      13.196  49.914  92.321  1.00  0.00     0.303 S 
HETATM    8  O2  UNL     1      11.983  50.041  93.201  1.00  0.00    -0.193 OA
HETATM    9  O3  UNL     1      13.947  48.637  92.615  1.00  0.00    -0.193 OA
BRANCH   7  10
HETATM   10  O4  UNL     1      14.269  51.206  92.581  1.00  0.00    -0.229 OA
BRANCH  10  11
HETATM   11  C16 UNL     1      13.776  52.367  93.132  1.00  0.00     0.089 A 
HETATM   12  C17 UNL     1      13.499  53.508  92.419  1.00  0.00     0.039 A 
HETATM   13  C18 UNL     1      13.006  54.646  93.023  1.00  0.00     0.015 A 
HETATM   14  C19 UNL     1      12.764  54.702  94.370  1.00  0.00    -0.019 A 
HETATM   15  C22 UNL     1      13.044  53.545  95.108  1.00  0.00     0.015 A 
HETATM   16  C23 UNL     1      13.534  52.425  94.485  1.00  0.00     0.039 A 
BRANCH  14  17
HETATM   17  C20 UNL     1      12.247  55.863  95.082  1.00  0.00     0.118 C 
HETATM   18  N3  UNL     1      11.072  56.253  95.227  1.00  0.00    -0.309 N 
ATOM     19  H3  UNL     1      11.017  57.106  95.783  1.00  0.00     0.186 HD
BRANCH  18  20
HETATM   20  N4  UNL     1       9.855  55.825  94.829  1.00  0.00    -0.274 N 
HETATM   21  C21 UNL     1       9.356  54.494  94.957  1.00  0.00     0.200 C 
HETATM   22  N5  UNL     1       8.742  53.986  93.951  1.00  0.00    -0.372 N 
HETATM   23  N6  UNL     1       9.509  53.722  96.133  1.00  0.00    -0.062 NA
ATOM     24  H52 UNL     1       8.632  54.542  93.103  1.00  0.00     0.158 HD
ATOM     25  H51 UNL     1       8.386  53.035  94.042  1.00  0.00     0.158 HD
ATOM     26  H4  UNL     1       9.238  56.515  94.401  1.00  0.00     0.189 HD
ENDBRANCH  18  20
ENDBRANCH  14  17
ENDBRANCH  10  11
ENDBRANCH   7  10
ENDBRANCH   4   7
BRANCH   1  27
HETATM   27  C11 UNL     1      11.253  49.963  86.675  1.00  0.00     0.030 C 
BRANCH  27  28
HETATM   28  C10 UNL     1      11.667  50.714  85.692  1.00  0.00     0.062 A 
HETATM   29  C2  UNL     1      11.346  51.979  85.268  1.00  0.00     0.055 A 
HETATM   30  C1  UNL     1      10.473  52.804  85.792  1.00  0.00     0.045 C 
HETATM   31  N1  UNL     1      12.119  52.244  84.163  1.00  0.00    -0.291 N 
HETATM   32  N2  UNL     1      12.891  51.222  83.885  1.00  0.00    -0.220 N 
ATOM     33  H1  UNL     1      12.095  53.115  83.632  1.00  0.00     0.187 HD
HETATM   34  C9  UNL     1      12.646  50.291  84.781  1.00  0.00     0.279 A 
HETATM   35  O1  UNL     1      13.213  49.183  84.808  1.00  0.00    -0.265 OA
BRANCH  32  36
HETATM   36  C3  UNL     1      13.809  51.175  82.806  1.00  0.00     0.060 A 
HETATM   37  C4  UNL     1      13.493  50.566  81.605  1.00  0.00     0.031 A 
HETATM   38  C5  UNL     1      14.395  50.522  80.552  1.00  0.00     0.002 A 
HETATM   39  C6  UNL     1      15.646  51.090  80.671  1.00  0.00     0.000 A 
HETATM   40  C7  UNL     1      15.969  51.699  81.865  1.00  0.00     0.002 A 
HETATM   41  C8  UNL     1      15.064  51.739  82.910  1.00  0.00     0.031 A 
ENDBRANCH  32  36
ENDBRANCH  27  28
ENDBRANCH   1  27
TORSDOF 8
ENDMDL
