MODEL 1
REMARK VINA RESULT: -9.015678148      0.000      0.000
REMARK  10 active torsions:
REMARK  status: ('A' for Active; 'I' for Inactive)
REMARK    1  A    between atoms: C4_4  and  C5_5 
REMARK    2  A    between atoms: C5_5  and  C6_6 
REMARK    3  A    between atoms: C6_6  and  N1_7 
REMARK       I    between atoms: N1_7  and  C7_9 
REMARK    4  A    between atoms: C7_9  and  C8_11 
REMARK    5  A    between atoms: C10_15  and  N3_16 
REMARK    6  A    between atoms: N3_16  and  C11_17 
REMARK    7  A    between atoms: C14_20  and  N4_21 
REMARK    8  A    between atoms: N4_21  and  C15_23 
REMARK    9  A    between atoms: C24_37  and  O2_38 
REMARK   10  A    between atoms: C26_42  and  N8_43 
ROOT
HETATM    1  C1  UNL     1      11.486  58.230  95.588  1.00  0.00     0.017 C 
HETATM    2  C2  UNL     1      11.566  57.035  95.430  1.00  0.00    -0.090 C 
HETATM    3  C3  UNL     1      11.680  55.598  95.267  1.00  0.00     0.059 C 
HETATM    4  C4  UNL     1      12.765  55.082  94.749  1.00  0.00    -0.016 C 
ENDROOT
BRANCH   4   5
HETATM    5  C5  UNL     1      12.973  53.605  94.541  1.00  0.00     0.047 C 
BRANCH   5   6
HETATM    6  C6  UNL     1      11.704  52.984  94.014  1.00  0.00     0.126 C 
BRANCH   6   7
HETATM    7  N1  UNL     1      11.601  52.835  92.605  1.00  0.00    -0.356 N 
HETATM    8  C7  UNL     1      12.653  52.597  91.698  1.00  0.00     0.256 C 
HETATM    9  O1  UNL     1      13.830  52.492  92.116  1.00  0.00    -0.267 OA
ATOM     10  H1  UNL     1      10.665  52.907  92.207  1.00  0.00     0.162 HD
BRANCH   8  11
HETATM   11  C8  UNL     1      12.388  52.462  90.285  1.00  0.00     0.091 A 
HETATM   12  C9  UNL     1      11.978  51.250  89.792  1.00  0.00     0.113 A 
HETATM   13  N2  UNL     1      11.661  51.145  88.506  1.00  0.00    -0.325 N 
HETATM   14  C10 UNL     1      11.721  52.176  87.642  1.00  0.00     0.261 A 
ATOM     15  H2  UNL     1      11.356  50.237  88.156  1.00  0.00     0.169 HD
HETATM   16  N7  UNL     1      12.139  53.371  88.171  1.00  0.00    -0.301 N 
HETATM   17  C26 UNL     1      12.469  53.543  89.453  1.00  0.00     0.121 A 
ATOM     18  H7  UNL     1      12.203  54.176  87.548  1.00  0.00     0.171 HD
BRANCH  14  19
HETATM   19  N3  UNL     1      11.387  52.124  86.512  1.00  0.00    -0.368 NA
BRANCH  19  20
HETATM   20  C11 UNL     1      10.921  52.114  85.283  1.00  0.00     0.145 A 
HETATM   21  C12 UNL     1      11.511  51.446  84.237  1.00  0.00     0.065 A 
HETATM   22  C13 UNL     1      11.028  51.428  82.954  1.00  0.00     0.038 A 
HETATM   23  C14 UNL     1      11.634  50.747  81.921  1.00  0.00     0.119 A 
HETATM   24  C22 UNL     1       9.866  52.129  82.691  1.00  0.00     0.050 A 
HETATM   25  N5  UNL     1      11.077  50.786  80.698  1.00  0.00    -0.338 N 
HETATM   26  C21 UNL     1       9.944  51.468  80.445  1.00  0.00     0.182 A 
ATOM     27  H5  UNL     1      11.528  50.281  79.935  1.00  0.00     0.168 HD
HETATM   28  N6  UNL     1       9.361  52.128  81.448  1.00  0.00    -0.351 N 
ATOM     29  H6  UNL     1       8.503  52.649  81.264  1.00  0.00     0.166 HD
HETATM   30  C23 UNL     1       9.235  52.817  83.717  1.00  0.00     0.070 A 
HETATM   31  C24 UNL     1       9.733  52.825  84.995  1.00  0.00     0.111 A 
BRANCH  23  32
HETATM   32  N4  UNL     1      12.713  50.088  82.159  1.00  0.00    -0.342 N 
ATOM     33  H4  UNL     1      12.678  49.167  82.596  1.00  0.00     0.167 HD
BRANCH  32  34
HETATM   34  C15 UNL     1      13.952  50.674  81.797  1.00  0.00     0.036 A 
HETATM   35  C16 UNL     1      14.382  50.677  80.490  1.00  0.00     0.029 A 
HETATM   36  C17 UNL     1      15.587  51.253  80.106  1.00  0.00     0.005 A 
HETATM   37  C18 UNL     1      16.398  51.849  81.042  1.00  0.00     0.042 A 
HETATM   38  C19 UNL     1      15.988  51.855  82.348  1.00  0.00     0.118 A 
HETATM   39  F1  UNL     1      16.792  52.440  83.261  1.00  0.00    -0.206 F 
HETATM   40  C20 UNL     1      14.789  51.279  82.721  1.00  0.00     0.071 A 
ENDBRANCH  32  34
ENDBRANCH  23  32
BRANCH  31  41
HETATM   41  O2  UNL     1       9.078  53.525  85.996  1.00  0.00    -0.352 OA
HETATM   42  C25 UNL     1       8.074  52.865  86.733  1.00  0.00     0.210 C 
ENDBRANCH  31  41
ENDBRANCH  19  20
ENDBRANCH  14  19
BRANCH  17  43
HETATM   43  N8  UNL     1      12.851  54.726  89.880  1.00  0.00    -0.380 N 
HETATM   44  C27 UNL     1      14.067  55.275  89.320  1.00  0.00     0.147 C 
ATOM     45  H8  UNL     1      12.312  55.237  90.579  1.00  0.00     0.160 HD
ENDBRANCH  17  43
ENDBRANCH   8  11
ENDBRANCH   6   7
ENDBRANCH   5   6
ENDBRANCH   4   5
TORSDOF 10
ENDMDL
MODEL 2
REMARK VINA RESULT: -8.641207611      1.261      1.634
REMARK  10 active torsions:
REMARK  status: ('A' for Active; 'I' for Inactive)
REMARK    1  A    between atoms: C4_4  and  C5_5 
REMARK    2  A    between atoms: C5_5  and  C6_6 
REMARK    3  A    between atoms: C6_6  and  N1_7 
REMARK       I    between atoms: N1_7  and  C7_9 
REMARK    4  A    between atoms: C7_9  and  C8_11 
REMARK    5  A    between atoms: C10_15  and  N3_16 
REMARK    6  A    between atoms: N3_16  and  C11_17 
REMARK    7  A    between atoms: C14_20  and  N4_21 
REMARK    8  A    between atoms: N4_21  and  C15_23 
REMARK    9  A    between atoms: C24_37  and  O2_38 
REMARK   10  A    between atoms: C26_42  and  N8_43 
ROOT
HETATM    1  C1  UNL     1      11.445  57.924  95.596  1.00  0.00     0.017 C 
HETATM    2  C2  UNL     1      11.530  56.759  95.288  1.00  0.00    -0.090 C 
HETATM    3  C3  UNL     1      11.651  55.355  94.944  1.00  0.00     0.059 C 
HETATM    4  C4  UNL     1      12.727  54.919  94.341  1.00  0.00    -0.016 C 
ENDROOT
BRANCH   4   5
HETATM    5  C5  UNL     1      12.941  53.481  93.946  1.00  0.00     0.047 C 
BRANCH   5   6
HETATM    6  C6  UNL     1      13.969  53.406  92.845  1.00  0.00     0.126 C 
BRANCH   6   7
HETATM    7  N1  UNL     1      13.481  53.190  91.528  1.00  0.00    -0.356 N 
HETATM    8  C7  UNL     1      13.129  54.174  90.582  1.00  0.00     0.256 C 
HETATM    9  O1  UNL     1      13.239  55.388  90.870  1.00  0.00    -0.267 OA
ATOM     10  H1  UNL     1      13.375  52.219  91.236  1.00  0.00     0.162 HD
BRANCH   8  11
HETATM   11  C8  UNL     1      12.652  53.796  89.273  1.00  0.00     0.091 A 
HETATM   12  C9  UNL     1      13.507  53.859  88.202  1.00  0.00     0.113 A 
HETATM   13  N2  UNL     1      13.092  53.439  87.013  1.00  0.00    -0.325 N 
HETATM   14  C10 UNL     1      11.857  52.948  86.790  1.00  0.00     0.261 A 
ATOM     15  H2  UNL     1      13.740  53.491  86.228  1.00  0.00     0.169 HD
HETATM   16  N7  UNL     1      11.029  52.905  87.884  1.00  0.00    -0.301 N 
HETATM   17  C26 UNL     1      11.387  53.307  89.105  1.00  0.00     0.121 A 
ATOM     18  H7  UNL     1      10.084  52.543  87.756  1.00  0.00     0.171 HD
BRANCH  14  19
HETATM   19  N3  UNL     1      11.484  52.513  85.760  1.00  0.00    -0.368 NA
BRANCH  19  20
HETATM   20  C11 UNL     1      11.008  52.118  84.599  1.00  0.00     0.145 A 
HETATM   21  C12 UNL     1      11.675  51.287  83.731  1.00  0.00     0.065 A 
HETATM   22  C13 UNL     1      11.183  50.868  82.523  1.00  0.00     0.038 A 
HETATM   23  C14 UNL     1      11.867  50.030  81.670  1.00  0.00     0.119 A 
HETATM   24  C22 UNL     1       9.927  51.310  82.148  1.00  0.00     0.050 A 
HETATM   25  N5  UNL     1      11.294  49.672  80.508  1.00  0.00    -0.338 N 
HETATM   26  C21 UNL     1      10.070  50.102  80.146  1.00  0.00     0.182 A 
ATOM     27  H5  UNL     1      11.804  49.051  79.878  1.00  0.00     0.168 HD
HETATM   28  N6  UNL     1       9.411  50.915  80.975  1.00  0.00    -0.351 N 
ATOM     29  H6  UNL     1       8.485  51.247  80.706  1.00  0.00     0.166 HD
HETATM   30  C23 UNL     1       9.217  52.149  82.993  1.00  0.00     0.070 A 
HETATM   31  C24 UNL     1       9.726  52.559  84.199  1.00  0.00     0.111 A 
BRANCH  23  32
HETATM   32  N4  UNL     1      13.034  49.611  82.014  1.00  0.00    -0.342 N 
ATOM     33  H4  UNL     1      13.145  48.732  82.517  1.00  0.00     0.167 HD
BRANCH  32  34
HETATM   34  C15 UNL     1      14.160  50.403  81.674  1.00  0.00     0.036 A 
HETATM   35  C16 UNL     1      14.543  50.567  80.363  1.00  0.00     0.029 A 
HETATM   36  C17 UNL     1      15.636  51.345  80.000  1.00  0.00     0.005 A 
HETATM   37  C18 UNL     1      16.379  51.985  80.963  1.00  0.00     0.042 A 
HETATM   38  C19 UNL     1      16.014  51.832  82.273  1.00  0.00     0.118 A 
HETATM   39  F1  UNL     1      16.751  52.462  83.213  1.00  0.00    -0.206 F 
HETATM   40  C20 UNL     1      14.926  51.056  82.625  1.00  0.00     0.071 A 
ENDBRANCH  32  34
ENDBRANCH  23  32
BRANCH  31  41
HETATM   41  O2  UNL     1       8.989  53.399  85.019  1.00  0.00    -0.352 OA
HETATM   42  C25 UNL     1       8.046  52.828  85.898  1.00  0.00     0.210 C 
ENDBRANCH  31  41
ENDBRANCH  19  20
ENDBRANCH  14  19
BRANCH  17  43
HETATM   43  N8  UNL     1      10.533  53.222  90.101  1.00  0.00    -0.380 N 
HETATM   44  C27 UNL     1       9.215  53.782  89.898  1.00  0.00     0.147 C 
ATOM     45  H8  UNL     1      10.791  52.779  90.983  1.00  0.00     0.160 HD
ENDBRANCH  17  43
ENDBRANCH   8  11
ENDBRANCH   6   7
ENDBRANCH   5   6
ENDBRANCH   4   5
TORSDOF 10
ENDMDL
MODEL 3
REMARK VINA RESULT: -8.568814775      1.030      1.728
REMARK  10 active torsions:
REMARK  status: ('A' for Active; 'I' for Inactive)
REMARK    1  A    between atoms: C4_4  and  C5_5 
REMARK    2  A    between atoms: C5_5  and  C6_6 
REMARK    3  A    between atoms: C6_6  and  N1_7 
REMARK       I    between atoms: N1_7  and  C7_9 
REMARK    4  A    between atoms: C7_9  and  C8_11 
REMARK    5  A    between atoms: C10_15  and  N3_16 
REMARK    6  A    between atoms: N3_16  and  C11_17 
REMARK    7  A    between atoms: C14_20  and  N4_21 
REMARK    8  A    between atoms: N4_21  and  C15_23 
REMARK    9  A    between atoms: C24_37  and  O2_38 
REMARK   10  A    between atoms: C26_42  and  N8_43 
ROOT
HETATM    1  C1  UNL     1      11.610  58.129  95.565  1.00  0.00     0.017 C 
HETATM    2  C2  UNL     1      11.657  56.939  95.370  1.00  0.00    -0.090 C 
HETATM    3  C3  UNL     1      11.738  55.505  95.158  1.00  0.00     0.059 C 
HETATM    4  C4  UNL     1      12.699  55.004  94.425  1.00  0.00    -0.016 C 
ENDROOT
BRANCH   4   5
HETATM    5  C5  UNL     1      12.862  53.533  94.151  1.00  0.00     0.047 C 
BRANCH   5   6
HETATM    6  C6  UNL     1      13.827  53.334  93.009  1.00  0.00     0.126 C 
BRANCH   6   7
HETATM    7  N1  UNL     1      13.263  53.100  91.727  1.00  0.00    -0.356 N 
HETATM    8  C7  UNL     1      12.406  52.044  91.357  1.00  0.00     0.256 C 
HETATM    9  O1  UNL     1      12.064  51.188  92.205  1.00  0.00    -0.267 OA
ATOM     10  H1  UNL     1      13.503  53.769  90.995  1.00  0.00     0.162 HD
BRANCH   8  11
HETATM   11  C8  UNL     1      11.905  51.944  90.006  1.00  0.00     0.091 A 
HETATM   12  C9  UNL     1      11.281  53.025  89.438  1.00  0.00     0.113 A 
HETATM   13  N2  UNL     1      10.889  52.958  88.171  1.00  0.00    -0.325 N 
HETATM   14  C10 UNL     1      11.070  51.871  87.396  1.00  0.00     0.261 A 
ATOM     15  H2  UNL     1      10.428  53.771  87.764  1.00  0.00     0.169 HD
HETATM   16  N7  UNL     1      11.694  50.808  88.000  1.00  0.00    -0.301 N 
HETATM   17  C26 UNL     1      12.114  50.813  89.266  1.00  0.00     0.121 A 
ATOM     18  H7  UNL     1      11.846  49.964  87.448  1.00  0.00     0.171 HD
BRANCH  14  19
HETATM   19  N3  UNL     1      10.787  51.808  86.253  1.00  0.00    -0.368 NA
BRANCH  19  20
HETATM   20  C11 UNL     1      10.464  51.847  84.979  1.00  0.00     0.145 A 
HETATM   21  C12 UNL     1      11.195  51.256  83.977  1.00  0.00     0.065 A 
HETATM   22  C13 UNL     1      10.861  51.288  82.648  1.00  0.00     0.038 A 
HETATM   23  C14 UNL     1      11.607  50.684  81.660  1.00  0.00     0.119 A 
HETATM   24  C22 UNL     1       9.709  51.961  82.287  1.00  0.00     0.050 A 
HETATM   25  N5  UNL     1      11.191  50.768  80.384  1.00  0.00    -0.338 N 
HETATM   26  C21 UNL     1      10.067  51.423  80.036  1.00  0.00     0.182 A 
ATOM     27  H5  UNL     1      11.746  50.320  79.655  1.00  0.00     0.168 HD
HETATM   28  N6  UNL     1       9.348  52.008  80.996  1.00  0.00    -0.351 N 
ATOM     29  H6  UNL     1       8.497  52.508  80.740  1.00  0.00     0.166 HD
HETATM   30  C23 UNL     1       8.939  52.572  83.266  1.00  0.00     0.070 A 
HETATM   31  C24 UNL     1       9.289  52.530  84.591  1.00  0.00     0.111 A 
BRANCH  23  32
HETATM   32  N4  UNL     1      12.678  50.051  81.988  1.00  0.00    -0.342 N 
ATOM     33  H4  UNL     1      12.629  49.127  82.416  1.00  0.00     0.167 HD
BRANCH  32  34
HETATM   34  C15 UNL     1      13.929  50.671  81.738  1.00  0.00     0.036 A 
HETATM   35  C16 UNL     1      14.453  50.726  80.467  1.00  0.00     0.029 A 
HETATM   36  C17 UNL     1      15.671  51.336  80.192  1.00  0.00     0.005 A 
HETATM   37  C18 UNL     1      16.399  51.914  81.205  1.00  0.00     0.042 A 
HETATM   38  C19 UNL     1      15.895  51.868  82.476  1.00  0.00     0.118 A 
HETATM   39  F1  UNL     1      16.617  52.436  83.464  1.00  0.00    -0.206 F 
HETATM   40  C20 UNL     1      14.683  51.259  82.740  1.00  0.00     0.071 A 
ENDBRANCH  32  34
ENDBRANCH  23  32
BRANCH  31  41
HETATM   41  O2  UNL     1       8.496  53.153  85.543  1.00  0.00    -0.352 OA
HETATM   42  C25 UNL     1       7.354  52.476  86.017  1.00  0.00     0.210 C 
ENDBRANCH  31  41
ENDBRANCH  19  20
ENDBRANCH  14  19
BRANCH  17  43
HETATM   43  N8  UNL     1      12.713  49.754  89.764  1.00  0.00    -0.380 N 
HETATM   44  C27 UNL     1      12.936  48.636  88.874  1.00  0.00     0.147 C 
ATOM     45  H8  UNL     1      13.008  49.721  90.740  1.00  0.00     0.160 HD
ENDBRANCH  17  43
ENDBRANCH   8  11
ENDBRANCH   6   7
ENDBRANCH   5   6
ENDBRANCH   4   5
TORSDOF 10
ENDMDL
MODEL 4
REMARK VINA RESULT: -8.187851916      1.977      2.317
REMARK  10 active torsions:
REMARK  status: ('A' for Active; 'I' for Inactive)
REMARK    1  A    between atoms: C4_4  and  C5_5 
REMARK    2  A    between atoms: C5_5  and  C6_6 
REMARK    3  A    between atoms: C6_6  and  N1_7 
REMARK       I    between atoms: N1_7  and  C7_9 
REMARK    4  A    between atoms: C7_9  and  C8_11 
REMARK    5  A    between atoms: C10_15  and  N3_16 
REMARK    6  A    between atoms: N3_16  and  C11_17 
REMARK    7  A    between atoms: C14_20  and  N4_21 
REMARK    8  A    between atoms: N4_21  and  C15_23 
REMARK    9  A    between atoms: C24_37  and  O2_38 
REMARK   10  A    between atoms: C26_42  and  N8_43 
ROOT
HETATM    1  C1  UNL     1      14.998  55.884  90.056  1.00  0.00     0.017 C 
HETATM    2  C2  UNL     1      14.392  55.242  90.880  1.00  0.00    -0.090 C 
HETATM    3  C3  UNL     1      13.684  54.483  91.893  1.00  0.00     0.059 C 
HETATM    4  C4  UNL     1      14.206  53.384  92.374  1.00  0.00    -0.016 C 
ENDROOT
BRANCH   4   5
HETATM    5  C5  UNL     1      13.545  52.533  93.425  1.00  0.00     0.047 C 
BRANCH   5   6
HETATM    6  C6  UNL     1      12.971  51.294  92.787  1.00  0.00     0.126 C 
BRANCH   6   7
HETATM    7  N1  UNL     1      12.647  51.376  91.406  1.00  0.00    -0.356 N 
HETATM    8  C7  UNL     1      11.408  51.746  90.846  1.00  0.00     0.256 C 
HETATM    9  O1  UNL     1      10.449  52.052  91.592  1.00  0.00    -0.267 OA
ATOM     10  H1  UNL     1      13.392  51.141  90.750  1.00  0.00     0.162 HD
BRANCH   8  11
HETATM   11  C8  UNL     1      11.234  51.789  89.413  1.00  0.00     0.091 A 
HETATM   12  C9  UNL     1      11.421  50.646  88.679  1.00  0.00     0.113 A 
HETATM   13  N2  UNL     1      11.186  50.667  87.372  1.00  0.00    -0.325 N 
HETATM   14  C10 UNL     1      10.769  51.765  86.712  1.00  0.00     0.261 A 
ATOM     15  H2  UNL     1      11.328  49.809  86.841  1.00  0.00     0.169 HD
HETATM   16  N7  UNL     1      10.597  52.890  87.479  1.00  0.00    -0.301 N 
HETATM   17  C26 UNL     1      10.813  52.933  88.795  1.00  0.00     0.121 A 
ATOM     18  H7  UNL     1      10.287  53.744  87.016  1.00  0.00     0.171 HD
BRANCH  14  19
HETATM   19  N3  UNL     1      10.495  51.795  85.565  1.00  0.00    -0.368 NA
BRANCH  19  20
HETATM   20  C11 UNL     1      10.254  51.740  84.274  1.00  0.00     0.145 A 
HETATM   21  C12 UNL     1      11.070  51.115  83.360  1.00  0.00     0.065 A 
HETATM   22  C13 UNL     1      10.822  51.050  82.014  1.00  0.00     0.038 A 
HETATM   23  C14 UNL     1      11.651  50.414  81.116  1.00  0.00     0.119 A 
HETATM   24  C22 UNL     1       9.672  51.653  81.538  1.00  0.00     0.050 A 
HETATM   25  N5  UNL     1      11.316  50.400  79.815  1.00  0.00    -0.338 N 
HETATM   26  C21 UNL     1      10.195  50.987  79.354  1.00  0.00     0.182 A 
ATOM     27  H5  UNL     1      11.932  49.929  79.152  1.00  0.00     0.168 HD
HETATM   28  N6  UNL     1       9.395  51.603  80.227  1.00  0.00    -0.351 N 
ATOM     29  H6  UNL     1       8.545  52.052  79.885  1.00  0.00     0.166 HD
HETATM   30  C23 UNL     1       8.819  52.294  82.424  1.00  0.00     0.070 A 
HETATM   31  C24 UNL     1       9.084  52.350  83.769  1.00  0.00     0.111 A 
BRANCH  23  32
HETATM   32  N4  UNL     1      12.720  49.846  81.552  1.00  0.00    -0.342 N 
ATOM     33  H4  UNL     1      12.685  48.916  81.968  1.00  0.00     0.167 HD
BRANCH  32  34
HETATM   34  C15 UNL     1      13.948  50.546  81.437  1.00  0.00     0.036 A 
HETATM   35  C16 UNL     1      14.592  50.658  80.227  1.00  0.00     0.029 A 
HETATM   36  C17 UNL     1      15.790  51.347  80.083  1.00  0.00     0.005 A 
HETATM   37  C18 UNL     1      16.376  51.947  81.172  1.00  0.00     0.042 A 
HETATM   38  C19 UNL     1      15.752  51.846  82.385  1.00  0.00     0.118 A 
HETATM   39  F1  UNL     1      16.336  52.437  83.449  1.00  0.00    -0.206 F 
HETATM   40  C20 UNL     1      14.560  51.158  82.518  1.00  0.00     0.071 A 
ENDBRANCH  32  34
ENDBRANCH  23  32
BRANCH  31  41
HETATM   41  O2  UNL     1       8.209  53.000  84.626  1.00  0.00    -0.352 OA
HETATM   42  C25 UNL     1       7.153  52.263  85.198  1.00  0.00     0.210 C 
ENDBRANCH  31  41
ENDBRANCH  19  20
ENDBRANCH  14  19
BRANCH  17  43
HETATM   43  N8  UNL     1      10.614  54.052  89.457  1.00  0.00    -0.380 N 
HETATM   44  C27 UNL     1       9.257  54.545  89.538  1.00  0.00     0.147 C 
ATOM     45  H8  UNL     1      11.387  54.552  89.896  1.00  0.00     0.160 HD
ENDBRANCH  17  43
ENDBRANCH   8  11
ENDBRANCH   6   7
ENDBRANCH   5   6
ENDBRANCH   4   5
TORSDOF 10
ENDMDL
MODEL 5
REMARK VINA RESULT: -7.995838433      1.036      1.706
REMARK  10 active torsions:
REMARK  status: ('A' for Active; 'I' for Inactive)
REMARK    1  A    between atoms: C4_4  and  C5_5 
REMARK    2  A    between atoms: C5_5  and  C6_6 
REMARK    3  A    between atoms: C6_6  and  N1_7 
REMARK       I    between atoms: N1_7  and  C7_9 
REMARK    4  A    between atoms: C7_9  and  C8_11 
REMARK    5  A    between atoms: C10_15  and  N3_16 
REMARK    6  A    between atoms: N3_16  and  C11_17 
REMARK    7  A    between atoms: C14_20  and  N4_21 
REMARK    8  A    between atoms: N4_21  and  C15_23 
REMARK    9  A    between atoms: C24_37  and  O2_38 
REMARK   10  A    between atoms: C26_42  and  N8_43 
ROOT
HETATM    1  C1  UNL     1       9.071  57.566  95.996  1.00  0.00     0.017 C 
HETATM    2  C2  UNL     1      10.107  56.952  95.921  1.00  0.00    -0.090 C 
HETATM    3  C3  UNL     1      11.360  56.228  95.803  1.00  0.00     0.059 C 
HETATM    4  C4  UNL     1      11.448  55.199  95.000  1.00  0.00    -0.016 C 
ENDROOT
BRANCH   4   5
HETATM    5  C5  UNL     1      12.703  54.389  94.812  1.00  0.00     0.047 C 
BRANCH   5   6
HETATM    6  C6  UNL     1      13.488  54.932  93.645  1.00  0.00     0.126 C 
BRANCH   6   7
HETATM    7  N1  UNL     1      13.012  54.606  92.346  1.00  0.00    -0.356 N 
HETATM    8  C7  UNL     1      13.223  53.402  91.644  1.00  0.00     0.256 C 
HETATM    9  O1  UNL     1      13.889  52.479  92.167  1.00  0.00    -0.267 OA
ATOM     10  H1  UNL     1      12.459  55.319  91.872  1.00  0.00     0.162 HD
BRANCH   8  11
HETATM   11  C8  UNL     1      12.666  53.215  90.325  1.00  0.00     0.091 A 
HETATM   12  C9  UNL     1      13.222  53.877  89.260  1.00  0.00     0.113 A 
HETATM   13  N2  UNL     1      12.760  53.646  88.037  1.00  0.00    -0.325 N 
HETATM   14  C10 UNL     1      11.757  52.786  87.774  1.00  0.00     0.261 A 
ATOM     15  H2  UNL     1      13.186  54.145  87.257  1.00  0.00     0.169 HD
HETATM   16  N7  UNL     1      11.223  52.146  88.865  1.00  0.00    -0.301 N 
HETATM   17  C26 UNL     1      11.644  52.331  90.117  1.00  0.00     0.121 A 
ATOM     18  H7  UNL     1      10.458  51.490  88.708  1.00  0.00     0.171 HD
BRANCH  14  19
HETATM   19  N3  UNL     1      11.369  52.518  86.694  1.00  0.00    -0.368 NA
BRANCH  19  20
HETATM   20  C11 UNL     1      10.865  52.151  85.536  1.00  0.00     0.145 A 
HETATM   21  C12 UNL     1      11.520  51.358  84.624  1.00  0.00     0.065 A 
HETATM   22  C13 UNL     1      10.999  50.967  83.417  1.00  0.00     0.038 A 
HETATM   23  C14 UNL     1      11.672  50.168  82.520  1.00  0.00     0.119 A 
HETATM   24  C22 UNL     1       9.726  51.399  83.093  1.00  0.00     0.050 A 
HETATM   25  N5  UNL     1      11.070  49.834  81.365  1.00  0.00    -0.338 N 
HETATM   26  C21 UNL     1       9.830  50.254  81.052  1.00  0.00     0.182 A 
ATOM     27  H5  UNL     1      11.571  49.242  80.702  1.00  0.00     0.168 HD
HETATM   28  N6  UNL     1       9.182  51.030  81.924  1.00  0.00    -0.351 N 
ATOM     29  H6  UNL     1       8.243  51.354  81.693  1.00  0.00     0.166 HD
HETATM   30  C23 UNL     1       9.028  52.200  83.984  1.00  0.00     0.070 A 
HETATM   31  C24 UNL     1       9.565  52.581  85.187  1.00  0.00     0.111 A 
BRANCH  23  32
HETATM   32  N4  UNL     1      12.855  49.758  82.816  1.00  0.00    -0.342 N 
ATOM     33  H4  UNL     1      12.991  48.950  83.423  1.00  0.00     0.167 HD
BRANCH  32  34
HETATM   34  C15 UNL     1      13.964  50.459  82.279  1.00  0.00     0.036 A 
HETATM   35  C16 UNL     1      14.228  50.442  80.929  1.00  0.00     0.029 A 
HETATM   36  C17 UNL     1      15.301  51.128  80.373  1.00  0.00     0.005 A 
HETATM   37  C18 UNL     1      16.145  51.858  81.176  1.00  0.00     0.042 A 
HETATM   38  C19 UNL     1      15.900  51.886  82.522  1.00  0.00     0.118 A 
HETATM   39  F1  UNL     1      16.735  52.603  83.303  1.00  0.00    -0.206 F 
HETATM   40  C20 UNL     1      14.830  51.200  83.066  1.00  0.00     0.071 A 
ENDBRANCH  32  34
ENDBRANCH  23  32
BRANCH  31  41
HETATM   41  O2  UNL     1       8.839  53.384  86.054  1.00  0.00    -0.352 OA
HETATM   42  C25 UNL     1       8.088  52.767  87.074  1.00  0.00     0.210 C 
ENDBRANCH  31  41
ENDBRANCH  19  20
ENDBRANCH  14  19
BRANCH  17  43
HETATM   43  N8  UNL     1      11.083  51.669  91.104  1.00  0.00    -0.380 N 
HETATM   44  C27 UNL     1       9.987  50.784  90.773  1.00  0.00     0.147 C 
ATOM     45  H8  UNL     1      11.407  51.774  92.065  1.00  0.00     0.160 HD
ENDBRANCH  17  43
ENDBRANCH   8  11
ENDBRANCH   6   7
ENDBRANCH   5   6
ENDBRANCH   4   5
TORSDOF 10
ENDMDL
