MODEL 1
REMARK VINA RESULT: -8.262264216      0.000      0.000
REMARK  11 active torsions:
REMARK  status: ('A' for Active; 'I' for Inactive)
REMARK    1  A    between atoms: S1_2  and  C2_4 
REMARK    2  A    between atoms: C4_6  and  N1_7 
REMARK       I    between atoms: N1_7  and  C5_9 
REMARK    3  A    between atoms: C5_9  and  C6_11 
REMARK    4  A    between atoms: C6_11  and  S2_12 
REMARK    5  A    between atoms: C10_18  and  N2_19 
REMARK    6  A    between atoms: N2_19  and  C11_21 
REMARK    7  A    between atoms: C12_24  and  N4_25 
REMARK    8  A    between atoms: N4_25  and  C13_27 
REMARK    9  A    between atoms: C13_27  and  C14_28 
REMARK   10  A    between atoms: C20_36  and  N6_37 
REMARK   11  A    between atoms: N6_37  and  C21_39 
ROOT
HETATM    1  C11 UNL     1      11.964  53.305  90.060  1.00  0.00     0.711 A 
HETATM    2  N3  UNL     1      12.435  53.564  88.843  1.00  0.00    -0.021 N 
ATOM      3  H3  UNL     1      13.447  53.638  88.730  1.00  0.00     0.203 HD
HETATM    4  C12 UNL     1      11.676  53.733  87.756  1.00  0.00     0.707 A 
HETATM    5  N5  UNL     1      10.340  53.629  87.931  1.00  0.00    -0.021 N 
ATOM      6  H5  UNL     1       9.724  53.751  87.128  1.00  0.00     0.203 HD
HETATM    7  C20 UNL     1       9.802  53.371  89.129  1.00  0.00     0.711 A 
HETATM    8  N7  UNL     1      10.611  53.211  90.178  1.00  0.00    -0.021 N 
ATOM      9  H7  UNL     1      10.206  53.013  91.092  1.00  0.00     0.203 HD
ENDROOT
BRANCH   1  10
HETATM   10  N2  UNL     1      12.747  53.153  91.043  1.00  0.00    -0.189 N 
ATOM     11  H2  UNL     1      13.560  52.549  90.925  1.00  0.00     0.184 HD
BRANCH  10  12
HETATM   12  C10 UNL     1      12.553  53.776  92.293  1.00  0.00     0.068 A 
HETATM   13  C2  UNL     1      13.143  54.879  92.745  1.00  0.00     0.060 A 
HETATM   14  C3  UNL     1      12.985  55.504  93.916  1.00  0.00     0.053 A 
HETATM   15  C4  UNL     1      12.056  54.947  94.858  1.00  0.00     0.036 A 
HETATM   16  C8  UNL     1      11.424  53.812  94.439  1.00  0.00     0.032 A 
HETATM   17  C9  UNL     1      11.625  53.195  93.198  1.00  0.00     0.034 A 
BRANCH  13  18
HETATM   18  S1  UNL     1      14.183  55.684  91.569  1.00  0.00     0.048 S 
HETATM   19  C1  UNL     1      14.168  56.653  90.760  1.00  0.00     0.133 C 
HETATM   20  O1  UNL     1      15.154  54.523  92.084  1.00  0.00    -0.253 OA
ENDBRANCH  13  18
BRANCH  15  21
HETATM   21  N1  UNL     1      11.896  55.585  96.094  1.00  0.00    -0.326 N 
HETATM   22  C5  UNL     1      10.778  56.256  96.580  1.00  0.00     0.236 C 
HETATM   23  O2  UNL     1       9.737  56.359  95.885  1.00  0.00    -0.272 OA
ATOM     24  H1  UNL     1      12.702  55.554  96.719  1.00  0.00     0.169 HD
BRANCH  22  25
HETATM   25  C6  UNL     1      10.716  56.890  97.916  1.00  0.00     0.242 C 
BRANCH  25  26
HETATM   26  S2  UNL     1      11.084  55.840  99.264  1.00  0.00     0.149 S 
HETATM   27  C7  UNL     1      10.070  54.392  99.230  1.00  0.00     0.161 C 
HETATM   28  O3  UNL     1      10.732  56.594 100.529  1.00  0.00    -0.228 OA
HETATM   29  O4  UNL     1      12.533  55.464  99.359  1.00  0.00    -0.228 OA
ENDBRANCH  25  26
ENDBRANCH  22  25
ENDBRANCH  15  21
ENDBRANCH  10  12
ENDBRANCH   1  10
BRANCH   4  30
HETATM   30  N4  UNL     1      12.215  53.984  86.620  1.00  0.00    -0.221 N 
ATOM     31  H4  UNL     1      11.623  53.939  85.790  1.00  0.00     0.178 HD
BRANCH  30  32
HETATM   32  C13 UNL     1      13.604  54.324  86.441  1.00  0.00     0.176 C 
BRANCH  32  33
HETATM   33  C14 UNL     1      14.190  53.526  85.338  1.00  0.00    -0.040 A 
HETATM   34  C15 UNL     1      15.396  53.864  84.801  1.00  0.00     0.009 A 
HETATM   35  C16 UNL     1      15.889  53.084  83.778  1.00  0.00     0.001 A 
HETATM   36  C17 UNL     1      15.209  51.984  83.283  1.00  0.00     0.000 A 
HETATM   37  C18 UNL     1      13.980  51.677  83.861  1.00  0.00     0.001 A 
HETATM   38  C19 UNL     1      13.459  52.435  84.886  1.00  0.00     0.009 A 
ENDBRANCH  32  33
ENDBRANCH  30  32
ENDBRANCH   4  30
BRANCH   7  39
HETATM   39  N6  UNL     1       8.535  53.279  89.254  1.00  0.00    -0.191 N 
ATOM     40  H6  UNL     1       8.143  52.338  89.252  1.00  0.00     0.184 HD
BRANCH  39  41
HETATM   41  C21 UNL     1       7.625  54.339  89.394  1.00  0.00     0.049 A 
HETATM   42  C22 UNL     1       6.390  54.205  88.780  1.00  0.00     0.030 A 
HETATM   43  C23 UNL     1       5.481  55.207  88.892  1.00  0.00     0.002 A 
HETATM   44  C24 UNL     1       5.785  56.337  89.606  1.00  0.00     0.000 A 
HETATM   45  C25 UNL     1       7.011  56.488  90.224  1.00  0.00     0.002 A 
HETATM   46  C26 UNL     1       7.948  55.482  90.123  1.00  0.00     0.030 A 
ENDBRANCH  39  41
ENDBRANCH   7  39
TORSDOF 11
ENDMDL
MODEL 2
REMARK VINA RESULT: -8.208910243      4.183      7.450
REMARK  11 active torsions:
REMARK  status: ('A' for Active; 'I' for Inactive)
REMARK    1  A    between atoms: S1_2  and  C2_4 
REMARK    2  A    between atoms: C4_6  and  N1_7 
REMARK       I    between atoms: N1_7  and  C5_9 
REMARK    3  A    between atoms: C5_9  and  C6_11 
REMARK    4  A    between atoms: C6_11  and  S2_12 
REMARK    5  A    between atoms: C10_18  and  N2_19 
REMARK    6  A    between atoms: N2_19  and  C11_21 
REMARK    7  A    between atoms: C12_24  and  N4_25 
REMARK    8  A    between atoms: N4_25  and  C13_27 
REMARK    9  A    between atoms: C13_27  and  C14_28 
REMARK   10  A    between atoms: C20_36  and  N6_37 
REMARK   11  A    between atoms: N6_37  and  C21_39 
ROOT
HETATM    1  C11 UNL     1      11.706  53.576  90.057  1.00  0.00     0.711 A 
HETATM    2  N3  UNL     1      12.225  53.853  88.863  1.00  0.00    -0.021 N 
ATOM      3  H3  UNL     1      11.671  53.620  88.038  1.00  0.00     0.203 HD
HETATM    4  C12 UNL     1      13.423  54.414  88.669  1.00  0.00     0.707 A 
HETATM    5  N5  UNL     1      14.136  54.712  89.777  1.00  0.00    -0.021 N 
ATOM      6  H5  UNL     1      15.055  55.142  89.673  1.00  0.00     0.203 HD
HETATM    7  C20 UNL     1      13.672  54.459  91.006  1.00  0.00     0.711 A 
HETATM    8  N7  UNL     1      12.468  53.898  91.138  1.00  0.00    -0.021 N 
ATOM      9  H7  UNL     1      12.110  53.706  92.072  1.00  0.00     0.203 HD
ENDROOT
BRANCH   1  10
HETATM   10  N2  UNL     1      10.562  53.046  90.163  1.00  0.00    -0.189 N 
ATOM     11  H2  UNL     1      10.506  52.071  90.457  1.00  0.00     0.184 HD
BRANCH  10  12
HETATM   12  C10 UNL     1       9.360  53.732  89.896  1.00  0.00     0.068 A 
HETATM   13  C2  UNL     1       8.355  53.330  89.124  1.00  0.00     0.060 A 
HETATM   14  C3  UNL     1       7.200  53.946  88.848  1.00  0.00     0.053 A 
HETATM   15  C4  UNL     1       6.958  55.226  89.449  1.00  0.00     0.036 A 
HETATM   16  C8  UNL     1       7.963  55.683  90.253  1.00  0.00     0.032 A 
HETATM   17  C9  UNL     1       9.157  54.998  90.509  1.00  0.00     0.034 A 
BRANCH  13  18
HETATM   18  S1  UNL     1       8.537  51.698  88.480  1.00  0.00     0.048 S 
HETATM   19  C1  UNL     1       8.860  51.103  87.415  1.00  0.00     0.133 C 
HETATM   20  O1  UNL     1       8.070  51.380  89.976  1.00  0.00    -0.253 OA
ENDBRANCH  13  18
BRANCH  15  21
HETATM   21  N1  UNL     1       5.759  55.886  89.154  1.00  0.00    -0.326 N 
HETATM   22  C5  UNL     1       4.657  56.084  89.981  1.00  0.00     0.236 C 
HETATM   23  O2  UNL     1       4.647  55.640  91.156  1.00  0.00    -0.272 OA
ATOM     24  H1  UNL     1       5.683  56.271  88.213  1.00  0.00     0.169 HD
BRANCH  22  25
HETATM   25  C6  UNL     1       3.436  56.810  89.565  1.00  0.00     0.242 C 
BRANCH  25  26
HETATM   26  S2  UNL     1       3.569  57.710  88.073  1.00  0.00     0.149 S 
HETATM   27  C7  UNL     1       2.158  58.748  87.836  1.00  0.00     0.161 C 
HETATM   28  O3  UNL     1       3.572  56.705  86.941  1.00  0.00    -0.228 OA
HETATM   29  O4  UNL     1       4.833  58.511  87.961  1.00  0.00    -0.228 OA
ENDBRANCH  25  26
ENDBRANCH  22  25
ENDBRANCH  15  21
ENDBRANCH  10  12
ENDBRANCH   1  10
BRANCH   4  30
HETATM   30  N4  UNL     1      13.848  54.642  87.481  1.00  0.00    -0.221 N 
ATOM     31  H4  UNL     1      14.764  55.078  87.377  1.00  0.00     0.178 HD
BRANCH  30  32
HETATM   32  C13 UNL     1      13.112  54.321  86.283  1.00  0.00     0.176 C 
BRANCH  32  33
HETATM   33  C14 UNL     1      13.979  53.588  85.330  1.00  0.00    -0.040 A 
HETATM   34  C15 UNL     1      15.208  54.071  84.994  1.00  0.00     0.009 A 
HETATM   35  C16 UNL     1      15.967  53.345  84.103  1.00  0.00     0.001 A 
HETATM   36  C17 UNL     1      15.530  52.157  83.544  1.00  0.00     0.000 A 
HETATM   37  C18 UNL     1      14.267  51.700  83.914  1.00  0.00     0.001 A 
HETATM   38  C19 UNL     1      13.482  52.402  84.803  1.00  0.00     0.009 A 
ENDBRANCH  32  33
ENDBRANCH  30  32
ENDBRANCH   4  30
BRANCH   7  39
HETATM   39  N6  UNL     1      14.375  54.758  92.029  1.00  0.00    -0.191 N 
ATOM     40  H6  UNL     1      15.275  55.203  91.850  1.00  0.00     0.184 HD
BRANCH  39  41
HETATM   41  C21 UNL     1      14.039  54.537  93.374  1.00  0.00     0.049 A 
HETATM   42  C22 UNL     1      14.158  53.244  93.857  1.00  0.00     0.030 A 
HETATM   43  C23 UNL     1      13.844  52.988  95.153  1.00  0.00     0.002 A 
HETATM   44  C24 UNL     1      13.414  54.000  95.970  1.00  0.00     0.000 A 
HETATM   45  C25 UNL     1      13.289  55.295  95.506  1.00  0.00     0.002 A 
HETATM   46  C26 UNL     1      13.603  55.576  94.194  1.00  0.00     0.030 A 
ENDBRANCH  39  41
ENDBRANCH   7  39
TORSDOF 11
ENDMDL
MODEL 3
REMARK VINA RESULT: -8.032893030      1.073      1.793
REMARK  11 active torsions:
REMARK  status: ('A' for Active; 'I' for Inactive)
REMARK    1  A    between atoms: S1_2  and  C2_4 
REMARK    2  A    between atoms: C4_6  and  N1_7 
REMARK       I    between atoms: N1_7  and  C5_9 
REMARK    3  A    between atoms: C5_9  and  C6_11 
REMARK    4  A    between atoms: C6_11  and  S2_12 
REMARK    5  A    between atoms: C10_18  and  N2_19 
REMARK    6  A    between atoms: N2_19  and  C11_21 
REMARK    7  A    between atoms: C12_24  and  N4_25 
REMARK    8  A    between atoms: N4_25  and  C13_27 
REMARK    9  A    between atoms: C13_27  and  C14_28 
REMARK   10  A    between atoms: C20_36  and  N6_37 
REMARK   11  A    between atoms: N6_37  and  C21_39 
ROOT
HETATM    1  C11 UNL     1      12.059  53.205  89.507  1.00  0.00     0.711 A 
HETATM    2  N3  UNL     1      12.642  53.654  88.398  1.00  0.00    -0.021 N 
ATOM      3  H3  UNL     1      13.650  53.811  88.421  1.00  0.00     0.203 HD
HETATM    4  C12 UNL     1      11.999  53.911  87.255  1.00  0.00     0.707 A 
HETATM    5  N5  UNL     1      10.665  53.693  87.250  1.00  0.00    -0.021 N 
ATOM      6  H5  UNL     1      10.136  53.876  86.398  1.00  0.00     0.203 HD
HETATM    7  C20 UNL     1      10.019  53.243  88.332  1.00  0.00     0.711 A 
HETATM    8  N7  UNL     1      10.715  53.003  89.446  1.00  0.00    -0.021 N 
ATOM      9  H7  UNL     1      10.226  52.659  90.272  1.00  0.00     0.203 HD
ENDROOT
BRANCH   1  10
HETATM   10  N2  UNL     1      12.735  52.981  90.554  1.00  0.00    -0.189 N 
ATOM     11  H2  UNL     1      13.622  52.486  90.459  1.00  0.00     0.184 HD
BRANCH  10  12
HETATM   12  C10 UNL     1      12.327  53.379  91.843  1.00  0.00     0.068 A 
HETATM   13  C2  UNL     1      12.771  54.416  92.546  1.00  0.00     0.060 A 
HETATM   14  C3  UNL     1      12.408  54.830  93.765  1.00  0.00     0.053 A 
HETATM   15  C4  UNL     1      11.396  54.086  94.456  1.00  0.00     0.036 A 
HETATM   16  C8  UNL     1      10.906  53.009  93.773  1.00  0.00     0.032 A 
HETATM   17  C9  UNL     1      11.321  52.617  92.495  1.00  0.00     0.034 A 
BRANCH  13  18
HETATM   18  S1  UNL     1      13.910  55.449  91.682  1.00  0.00     0.048 S 
HETATM   19  C1  UNL     1      13.928  56.478  90.952  1.00  0.00     0.133 C 
HETATM   20  O1  UNL     1      14.907  54.376  92.324  1.00  0.00    -0.253 OA
ENDBRANCH  13  18
BRANCH  15  21
HETATM   21  N1  UNL     1      11.021  54.502  95.740  1.00  0.00    -0.326 N 
HETATM   22  C5  UNL     1       9.841  55.126  96.134  1.00  0.00     0.236 C 
HETATM   23  O2  UNL     1       8.945  55.396  95.296  1.00  0.00    -0.272 OA
ATOM     24  H1  UNL     1      11.699  54.325  96.481  1.00  0.00     0.169 HD
BRANCH  22  25
HETATM   25  C6  UNL     1       9.543  55.516  97.530  1.00  0.00     0.242 C 
BRANCH  25  26
HETATM   26  S2  UNL     1       9.603  57.231  97.860  1.00  0.00     0.149 S 
HETATM   27  C7  UNL     1      10.722  58.046  96.761  1.00  0.00     0.161 C 
HETATM   28  O3  UNL     1      10.158  57.401  99.259  1.00  0.00    -0.228 OA
HETATM   29  O4  UNL     1       8.261  57.900  97.831  1.00  0.00    -0.228 OA
ENDBRANCH  25  26
ENDBRANCH  22  25
ENDBRANCH  15  21
ENDBRANCH  10  12
ENDBRANCH   1  10
BRANCH   4  30
HETATM   30  N4  UNL     1      12.640  54.345  86.233  1.00  0.00    -0.221 N 
ATOM     31  H4  UNL     1      12.099  54.712  85.450  1.00  0.00     0.178 HD
BRANCH  30  32
HETATM   32  C13 UNL     1      14.077  54.347  86.121  1.00  0.00     0.176 C 
BRANCH  32  33
HETATM   33  C14 UNL     1      14.509  53.441  85.029  1.00  0.00    -0.040 A 
HETATM   34  C15 UNL     1      13.710  52.415  84.622  1.00  0.00     0.009 A 
HETATM   35  C16 UNL     1      14.166  51.608  83.603  1.00  0.00     0.001 A 
HETATM   36  C17 UNL     1      15.391  51.800  82.988  1.00  0.00     0.000 A 
HETATM   37  C18 UNL     1      16.174  52.860  83.437  1.00  0.00     0.001 A 
HETATM   38  C19 UNL     1      15.749  53.688  84.453  1.00  0.00     0.009 A 
ENDBRANCH  32  33
ENDBRANCH  30  32
ENDBRANCH   4  30
BRANCH   7  39
HETATM   39  N6  UNL     1       8.758  53.048  88.288  1.00  0.00    -0.191 N 
ATOM     40  H6  UNL     1       8.445  52.184  87.847  1.00  0.00     0.184 HD
BRANCH  39  41
HETATM   41  C21 UNL     1       7.757  53.900  88.783  1.00  0.00     0.049 A 
HETATM   42  C22 UNL     1       8.138  54.866  89.700  1.00  0.00     0.030 A 
HETATM   43  C23 UNL     1       7.201  55.710  90.202  1.00  0.00     0.002 A 
HETATM   44  C24 UNL     1       5.894  55.604  89.805  1.00  0.00     0.000 A 
HETATM   45  C25 UNL     1       5.496  54.646  88.893  1.00  0.00     0.002 A 
HETATM   46  C26 UNL     1       6.431  53.779  88.370  1.00  0.00     0.030 A 
ENDBRANCH  39  41
ENDBRANCH   7  39
TORSDOF 11
ENDMDL
MODEL 4
REMARK VINA RESULT: -7.995592749      2.141      6.349
REMARK  11 active torsions:
REMARK  status: ('A' for Active; 'I' for Inactive)
REMARK    1  A    between atoms: S1_2  and  C2_4 
REMARK    2  A    between atoms: C4_6  and  N1_7 
REMARK       I    between atoms: N1_7  and  C5_9 
REMARK    3  A    between atoms: C5_9  and  C6_11 
REMARK    4  A    between atoms: C6_11  and  S2_12 
REMARK    5  A    between atoms: C10_18  and  N2_19 
REMARK    6  A    between atoms: N2_19  and  C11_21 
REMARK    7  A    between atoms: C12_24  and  N4_25 
REMARK    8  A    between atoms: N4_25  and  C13_27 
REMARK    9  A    between atoms: C13_27  and  C14_28 
REMARK   10  A    between atoms: C20_36  and  N6_37 
REMARK   11  A    between atoms: N6_37  and  C21_39 
ROOT
HETATM    1  C11 UNL     1      11.683  53.486  89.400  1.00  0.00     0.711 A 
HETATM    2  N3  UNL     1      12.650  53.960  90.182  1.00  0.00    -0.021 N 
ATOM      3  H3  UNL     1      12.549  53.837  91.190  1.00  0.00     0.203 HD
HETATM    4  C12 UNL     1      13.744  54.585  89.739  1.00  0.00     0.707 A 
HETATM    5  N5  UNL     1      13.855  54.735  88.401  1.00  0.00    -0.021 N 
ATOM      6  H5  UNL     1      14.675  55.206  88.020  1.00  0.00     0.203 HD
HETATM    7  C20 UNL     1      12.917  54.282  87.559  1.00  0.00     0.711 A 
HETATM    8  N7  UNL     1      11.846  53.664  88.060  1.00  0.00    -0.021 N 
ATOM      9  H7  UNL     1      11.130  53.316  87.423  1.00  0.00     0.203 HD
ENDROOT
BRANCH   1  10
HETATM   10  N2  UNL     1      10.674  52.901  89.893  1.00  0.00    -0.189 N 
ATOM     11  H2  UNL     1      10.176  52.226  89.312  1.00  0.00     0.184 HD
BRANCH  10  12
HETATM   12  C10 UNL     1      10.204  53.132  91.201  1.00  0.00     0.068 A 
HETATM   13  C2  UNL     1       9.157  53.865  91.565  1.00  0.00     0.060 A 
HETATM   14  C3  UNL     1       8.676  54.105  92.789  1.00  0.00     0.053 A 
HETATM   15  C4  UNL     1       9.348  53.508  93.907  1.00  0.00     0.036 A 
HETATM   16  C8  UNL     1      10.432  52.743  93.584  1.00  0.00     0.032 A 
HETATM   17  C9  UNL     1      10.897  52.523  92.282  1.00  0.00     0.034 A 
BRANCH  13  18
HETATM   18  S1  UNL     1       8.208  54.501  90.220  1.00  0.00     0.048 S 
HETATM   19  C1  UNL     1       7.262  54.167  89.455  1.00  0.00     0.133 C 
HETATM   20  O1  UNL     1       9.198  55.727  90.495  1.00  0.00    -0.253 OA
ENDBRANCH  13  18
BRANCH  15  21
HETATM   21  N1  UNL     1       8.862  53.767  95.195  1.00  0.00    -0.326 N 
HETATM   22  C5  UNL     1       9.010  54.922  95.957  1.00  0.00     0.236 C 
HETATM   23  O2  UNL     1       9.655  55.906  95.515  1.00  0.00    -0.272 OA
ATOM     24  H1  UNL     1       8.331  53.013  95.630  1.00  0.00     0.169 HD
BRANCH  22  25
HETATM   25  C6  UNL     1       8.442  55.091  97.313  1.00  0.00     0.242 C 
BRANCH  25  26
HETATM   26  S2  UNL     1       9.335  56.154  98.374  1.00  0.00     0.149 S 
HETATM   27  C7  UNL     1      11.059  55.767  98.350  1.00  0.00     0.161 C 
HETATM   28  O3  UNL     1       8.845  55.896  99.784  1.00  0.00    -0.228 OA
HETATM   29  O4  UNL     1       9.121  57.612  98.090  1.00  0.00    -0.228 OA
ENDBRANCH  25  26
ENDBRANCH  22  25
ENDBRANCH  15  21
ENDBRANCH  10  12
ENDBRANCH   1  10
BRANCH   4  30
HETATM   30  N4  UNL     1      14.627  55.014  90.565  1.00  0.00    -0.221 N 
ATOM     31  H4  UNL     1      15.588  54.696  90.445  1.00  0.00     0.178 HD
BRANCH  30  32
HETATM   32  C13 UNL     1      14.344  55.917  91.653  1.00  0.00     0.176 C 
BRANCH  32  33
HETATM   33  C14 UNL     1      14.036  55.154  92.887  1.00  0.00    -0.040 A 
HETATM   34  C15 UNL     1      13.376  55.744  93.922  1.00  0.00     0.009 A 
HETATM   35  C16 UNL     1      13.119  54.983  95.042  1.00  0.00     0.001 A 
HETATM   36  C17 UNL     1      13.503  53.658  95.149  1.00  0.00     0.000 A 
HETATM   37  C18 UNL     1      14.176  53.096  94.066  1.00  0.00     0.001 A 
HETATM   38  C19 UNL     1      14.449  53.828  92.932  1.00  0.00     0.009 A 
ENDBRANCH  32  33
ENDBRANCH  30  32
ENDBRANCH   4  30
BRANCH   7  39
HETATM   39  N6  UNL     1      13.058  54.441  86.300  1.00  0.00    -0.191 N 
ATOM     40  H6  UNL     1      12.540  55.210  85.877  1.00  0.00     0.184 HD
BRANCH  39  41
HETATM   41  C21 UNL     1      13.852  53.667  85.439  1.00  0.00     0.049 A 
HETATM   42  C22 UNL     1      13.321  52.471  84.984  1.00  0.00     0.030 A 
HETATM   43  C23 UNL     1      14.056  51.693  84.149  1.00  0.00     0.002 A 
HETATM   44  C24 UNL     1      15.309  52.090  83.762  1.00  0.00     0.000 A 
HETATM   45  C25 UNL     1      15.854  53.279  84.206  1.00  0.00     0.002 A 
HETATM   46  C26 UNL     1      15.125  54.084  85.054  1.00  0.00     0.030 A 
ENDBRANCH  39  41
ENDBRANCH   7  39
TORSDOF 11
ENDMDL
MODEL 5
REMARK VINA RESULT: -7.978885507      2.628      5.057
REMARK  11 active torsions:
REMARK  status: ('A' for Active; 'I' for Inactive)
REMARK    1  A    between atoms: S1_2  and  C2_4 
REMARK    2  A    between atoms: C4_6  and  N1_7 
REMARK       I    between atoms: N1_7  and  C5_9 
REMARK    3  A    between atoms: C5_9  and  C6_11 
REMARK    4  A    between atoms: C6_11  and  S2_12 
REMARK    5  A    between atoms: C10_18  and  N2_19 
REMARK    6  A    between atoms: N2_19  and  C11_21 
REMARK    7  A    between atoms: C12_24  and  N4_25 
REMARK    8  A    between atoms: N4_25  and  C13_27 
REMARK    9  A    between atoms: C13_27  and  C14_28 
REMARK   10  A    between atoms: C20_36  and  N6_37 
REMARK   11  A    between atoms: N6_37  and  C21_39 
ROOT
HETATM    1  C11 UNL     1      12.048  53.678  89.471  1.00  0.00     0.711 A 
HETATM    2  N3  UNL     1      12.062  52.474  90.038  1.00  0.00    -0.021 N 
ATOM      3  H3  UNL     1      12.027  52.429  91.057  1.00  0.00     0.203 HD
HETATM    4  C12 UNL     1      12.118  51.320  89.366  1.00  0.00     0.707 A 
HETATM    5  N5  UNL     1      12.163  51.408  88.018  1.00  0.00    -0.021 N 
ATOM      6  H5  UNL     1      12.205  50.551  87.467  1.00  0.00     0.203 HD
HETATM    7  C20 UNL     1      12.153  52.588  87.386  1.00  0.00     0.711 A 
HETATM    8  N7  UNL     1      12.095  53.707  88.111  1.00  0.00    -0.021 N 
ATOM      9  H7  UNL     1      12.085  54.607  87.633  1.00  0.00     0.203 HD
ENDROOT
BRANCH   1  10
HETATM   10  N2  UNL     1      11.991  54.729  90.174  1.00  0.00    -0.189 N 
ATOM     11  H2  UNL     1      11.946  55.629  89.695  1.00  0.00     0.184 HD
BRANCH  10  12
HETATM   12  C10 UNL     1      11.986  54.721  91.583  1.00  0.00     0.068 A 
HETATM   13  C2  UNL     1      13.004  54.986  92.396  1.00  0.00     0.060 A 
HETATM   14  C3  UNL     1      13.041  54.995  93.732  1.00  0.00     0.053 A 
HETATM   15  C4  UNL     1      11.834  54.684  94.442  1.00  0.00     0.036 A 
HETATM   16  C8  UNL     1      10.757  54.404  93.650  1.00  0.00     0.032 A 
HETATM   17  C9  UNL     1      10.771  54.408  92.250  1.00  0.00     0.034 A 
BRANCH  13  18
HETATM   18  S1  UNL     1      14.473  55.519  91.576  1.00  0.00     0.048 S 
HETATM   19  C1  UNL     1      14.874  56.421  90.790  1.00  0.00     0.133 C 
HETATM   20  O1  UNL     1      15.018  54.240  92.366  1.00  0.00    -0.253 OA
ENDBRANCH  13  18
BRANCH  15  21
HETATM   21  N1  UNL     1      11.866  54.674  95.842  1.00  0.00    -0.326 N 
HETATM   22  C5  UNL     1      11.803  55.757  96.714  1.00  0.00     0.236 C 
HETATM   23  O2  UNL     1      11.714  56.931  96.275  1.00  0.00    -0.272 OA
ATOM     24  H1  UNL     1      11.945  53.756  96.279  1.00  0.00     0.169 HD
BRANCH  22  25
HETATM   25  C6  UNL     1      11.836  55.630  98.188  1.00  0.00     0.242 C 
BRANCH  25  26
HETATM   26  S2  UNL     1      10.298  55.826  98.993  1.00  0.00     0.149 S 
HETATM   27  C7  UNL     1       8.996  55.088  98.053  1.00  0.00     0.161 C 
HETATM   28  O3  UNL     1      10.010  57.312  99.055  1.00  0.00    -0.228 OA
HETATM   29  O4  UNL     1      10.284  55.312 100.402  1.00  0.00    -0.228 OA
ENDBRANCH  25  26
ENDBRANCH  22  25
ENDBRANCH  15  21
ENDBRANCH  10  12
ENDBRANCH   1  10
BRANCH   4  30
HETATM   30  N4  UNL     1      12.131  50.203  89.995  1.00  0.00    -0.221 N 
ATOM     31  H4  UNL     1      12.146  50.228  91.014  1.00  0.00     0.178 HD
BRANCH  30  32
HETATM   32  C13 UNL     1      12.128  48.913  89.352  1.00  0.00     0.176 C 
BRANCH  32  33
HETATM   33  C14 UNL     1      13.511  48.507  89.006  1.00  0.00    -0.040 A 
HETATM   34  C15 UNL     1      14.496  48.526  89.948  1.00  0.00     0.009 A 
HETATM   35  C16 UNL     1      15.762  48.138  89.566  1.00  0.00     0.001 A 
HETATM   36  C17 UNL     1      16.064  47.737  88.276  1.00  0.00     0.000 A 
HETATM   37  C18 UNL     1      15.026  47.734  87.347  1.00  0.00     0.001 A 
HETATM   38  C19 UNL     1      13.749  48.115  87.695  1.00  0.00     0.009 A 
ENDBRANCH  32  33
ENDBRANCH  30  32
ENDBRANCH   4  30
BRANCH   7  39
HETATM   39  N6  UNL     1      12.195  52.629  86.111  1.00  0.00    -0.191 N 
ATOM     40  H6  UNL     1      11.299  52.602  85.624  1.00  0.00     0.184 HD
BRANCH  39  41
HETATM   41  C21 UNL     1      13.344  52.709  85.309  1.00  0.00     0.049 A 
HETATM   42  C22 UNL     1      14.184  53.794  85.504  1.00  0.00     0.030 A 
HETATM   43  C23 UNL     1      15.307  53.908  84.749  1.00  0.00     0.002 A 
HETATM   44  C24 UNL     1      15.603  52.958  83.808  1.00  0.00     0.000 A 
HETATM   45  C25 UNL     1      14.778  51.870  83.600  1.00  0.00     0.002 A 
HETATM   46  C26 UNL     1      13.633  51.735  84.354  1.00  0.00     0.030 A 
ENDBRANCH  39  41
ENDBRANCH   7  39
TORSDOF 11
ENDMDL
