MODEL 1
REMARK VINA RESULT: -7.348490476      0.000      0.000
REMARK  11 active torsions:
REMARK  status: ('A' for Active; 'I' for Inactive)
REMARK    1  A    between atoms: C2_2  and  N1_3 
REMARK       I    between atoms: N2_6  and  C5_7 
REMARK    2  A    between atoms: C5_7  and  C6_9 
REMARK    3  A    between atoms: C9_12  and  N3_13 
REMARK    4  A    between atoms: N3_13  and  C10_15 
REMARK    5  A    between atoms: C11_18  and  N5_19 
REMARK    6  A    between atoms: N5_19  and  C12_21 
REMARK    7  A    between atoms: C14_23  and  C15_24 
REMARK    8  A    between atoms: C19_32  and  N8_33 
REMARK    9  A    between atoms: N8_33  and  C20_35 
REMARK   10  A    between atoms: C20_35  and  C21_36 
REMARK   11  A    between atoms: C26_44  and  O3_45 
ROOT
HETATM    1  C10 UNL     1      12.078  52.807  87.497  1.00  0.00     0.685 A 
HETATM    2  N4  UNL     1      12.569  53.818  88.260  1.00  0.00    -0.176 N 
ATOM      3  H4  UNL     1      12.178  53.973  89.189  1.00  0.00     0.186 HD
HETATM    4  C11 UNL     1      13.555  54.620  87.825  1.00  0.00     0.126 A 
HETATM    5  C18 UNL     1      14.076  54.393  86.550  1.00  0.00     0.097 A 
HETATM    6  C19 UNL     1      13.585  53.369  85.769  1.00  0.00     0.120 A 
HETATM    7  N9  UNL     1      12.605  52.618  86.276  1.00  0.00    -0.177 N 
ATOM      8  H9  UNL     1      12.236  51.858  85.704  1.00  0.00     0.186 HD
ENDROOT
BRANCH   1   9
HETATM    9  N3  UNL     1      11.125  52.069  87.979  1.00  0.00    -0.192 N 
ATOM     10  H3  UNL     1      10.198  52.076  87.554  1.00  0.00     0.184 HD
BRANCH   9  11
HETATM   11  C9  UNL     1      11.399  51.246  89.120  1.00  0.00     0.051 A 
HETATM   12  C8  UNL     1      10.815  51.591  90.327  1.00  0.00     0.031 A 
HETATM   13  C7  UNL     1      11.058  50.824  91.426  1.00  0.00     0.022 A 
HETATM   14  C6  UNL     1      11.869  49.716  91.368  1.00  0.00     0.065 A 
HETATM   15  C26 UNL     1      12.451  49.365  90.179  1.00  0.00     0.086 A 
HETATM   16  C25 UNL     1      12.209  50.136  89.064  1.00  0.00     0.067 A 
BRANCH  14  17
HETATM   17  C5  UNL     1      12.131  48.890  92.541  1.00  0.00     0.256 C 
HETATM   18  N2  UNL     1      13.208  49.172  93.391  1.00  0.00    -0.345 N 
HETATM   19  C4  UNL     1      13.459  48.348  94.547  1.00  0.00     0.156 C 
HETATM   20  C28 UNL     1      14.073  50.290  93.118  1.00  0.00     0.156 C 
HETATM   21  C3  UNL     1      14.776  48.835  95.145  1.00  0.00     0.292 C 
HETATM   22  N1  UNL     1      14.620  50.220  95.509  1.00  0.00     0.091 N 
HETATM   23  C29 UNL     1      14.338  51.072  94.394  1.00  0.00     0.292 C 
HETATM   24  O1  UNL     1      11.354  47.912  92.759  1.00  0.00    -0.267 OA
BRANCH  22  25
HETATM   25  C2  UNL     1      15.704  50.692  96.347  1.00  0.00     0.268 C 
HETATM   26  C1  UNL     1      15.284  51.978  97.023  1.00  0.00     0.037 C 
ENDBRANCH  22  25
ENDBRANCH  14  17
BRANCH  15  27
HETATM   27  O3  UNL     1      13.285  48.249  90.060  1.00  0.00    -0.355 OA
HETATM   28  C27 UNL     1      14.666  48.399  89.860  1.00  0.00     0.210 C 
ENDBRANCH  15  27
ENDBRANCH   9  11
ENDBRANCH   1   9
BRANCH   4  29
HETATM   29  N5  UNL     1      14.076  55.674  88.610  1.00  0.00    -0.327 N 
ATOM     30  H5  UNL     1      14.310  56.564  88.168  1.00  0.00     0.169 HD
BRANCH  29  31
HETATM   31  C12 UNL     1      14.264  55.526  89.892  1.00  0.00     0.123 A 
HETATM   32  C13 UNL     1      13.332  55.718  90.887  1.00  0.00     0.076 A 
HETATM   33  C14 UNL     1      13.925  55.455  92.115  1.00  0.00     0.033 A 
HETATM   34  N6  UNL     1      15.190  55.114  91.831  1.00  0.00    -0.303 N 
HETATM   35  N7  UNL     1      15.397  55.153  90.526  1.00  0.00    -0.285 N 
ATOM     36  H6  UNL     1      15.895  54.861  92.524  1.00  0.00     0.186 HD
ATOM     37  H7  UNL     1      16.280  54.934  90.066  1.00  0.00     0.188 HD
BRANCH  33  38
HETATM   38  C15 UNL     1      13.292  55.535  93.464  1.00  0.00     0.037 A 
HETATM   39  C16 UNL     1      12.444  54.279  93.831  1.00  0.00     0.011 A 
HETATM   40  C17 UNL     1      13.701  54.630  94.537  1.00  0.00     0.011 A 
ENDBRANCH  33  38
ENDBRANCH  29  31
ENDBRANCH   4  29
BRANCH   6  41
HETATM   41  N8  UNL     1      14.057  53.146  84.591  1.00  0.00    -0.373 N 
ATOM     42  H8  UNL     1      13.406  52.856  83.861  1.00  0.00     0.161 HD
BRANCH  41  43
HETATM   43  C20 UNL     1      15.435  53.278  84.244  1.00  0.00     0.153 C 
BRANCH  43  44
HETATM   44  C21 UNL     1      15.746  52.168  83.230  1.00  0.00     0.139 C 
HETATM   45  C22 UNL     1      16.326  52.738  81.979  1.00  0.00     0.035 C 
HETATM   46  C23 UNL     1      15.435  52.176  80.895  1.00  0.00     0.029 C 
HETATM   47  C24 UNL     1      14.752  51.029  81.601  1.00  0.00     0.168 C 
HETATM   48  O2  UNL     1      14.562  51.525  82.876  1.00  0.00    -0.384 OA
ENDBRANCH  43  44
ENDBRANCH  41  43
ENDBRANCH   6  41
TORSDOF 11
ENDMDL
MODEL 2
REMARK VINA RESULT: -7.172657515      2.574      7.237
REMARK  11 active torsions:
REMARK  status: ('A' for Active; 'I' for Inactive)
REMARK    1  A    between atoms: C2_2  and  N1_3 
REMARK       I    between atoms: N2_6  and  C5_7 
REMARK    2  A    between atoms: C5_7  and  C6_9 
REMARK    3  A    between atoms: C9_12  and  N3_13 
REMARK    4  A    between atoms: N3_13  and  C10_15 
REMARK    5  A    between atoms: C11_18  and  N5_19 
REMARK    6  A    between atoms: N5_19  and  C12_21 
REMARK    7  A    between atoms: C14_23  and  C15_24 
REMARK    8  A    between atoms: C19_32  and  N8_33 
REMARK    9  A    between atoms: N8_33  and  C20_35 
REMARK   10  A    between atoms: C20_35  and  C21_36 
REMARK   11  A    between atoms: C26_44  and  O3_45 
ROOT
HETATM    1  C10 UNL     1      12.893  53.673  89.153  1.00  0.00     0.685 A 
HETATM    2  N4  UNL     1      12.593  53.877  87.843  1.00  0.00    -0.176 N 
ATOM      3  H4  UNL     1      12.849  54.764  87.409  1.00  0.00     0.186 HD
HETATM    4  C11 UNL     1      11.969  52.945  87.106  1.00  0.00     0.126 A 
HETATM    5  C18 UNL     1      11.626  51.739  87.718  1.00  0.00     0.097 A 
HETATM    6  C19 UNL     1      11.927  51.522  89.046  1.00  0.00     0.120 A 
HETATM    7  N9  UNL     1      12.549  52.499  89.709  1.00  0.00    -0.177 N 
ATOM      8  H9  UNL     1      12.775  52.347  90.691  1.00  0.00     0.186 HD
ENDROOT
BRANCH   1   9
HETATM    9  N3  UNL     1      13.498  54.616  89.807  1.00  0.00    -0.192 N 
ATOM     10  H3  UNL     1      14.165  55.229  89.336  1.00  0.00     0.184 HD
BRANCH   9  11
HETATM   11  C9  UNL     1      13.214  54.783  91.202  1.00  0.00     0.051 A 
HETATM   12  C8  UNL     1      14.233  55.235  92.024  1.00  0.00     0.031 A 
HETATM   13  C7  UNL     1      13.988  55.402  93.354  1.00  0.00     0.022 A 
HETATM   14  C6  UNL     1      12.756  55.134  93.901  1.00  0.00     0.065 A 
HETATM   15  C26 UNL     1      11.742  54.686  93.096  1.00  0.00     0.086 A 
HETATM   16  C25 UNL     1      11.983  54.515  91.752  1.00  0.00     0.067 A 
BRANCH  14  17
HETATM   17  C5  UNL     1      12.488  55.313  95.323  1.00  0.00     0.256 C 
HETATM   18  N2  UNL     1      12.753  54.286  96.238  1.00  0.00    -0.345 N 
HETATM   19  C4  UNL     1      12.483  54.474  97.641  1.00  0.00     0.156 C 
HETATM   20  C28 UNL     1      13.300  53.034  95.785  1.00  0.00     0.156 C 
HETATM   21  C3  UNL     1      12.733  53.126  98.312  1.00  0.00     0.292 C 
HETATM   22  N1  UNL     1      14.108  52.759  98.084  1.00  0.00     0.091 N 
HETATM   23  C29 UNL     1      14.429  52.593  96.700  1.00  0.00     0.292 C 
HETATM   24  O1  UNL     1      12.007  56.426  95.697  1.00  0.00    -0.267 OA
BRANCH  22  25
HETATM   25  C2  UNL     1      14.525  51.651  98.920  1.00  0.00     0.268 C 
HETATM   26  C1  UNL     1      15.869  51.972  99.535  1.00  0.00     0.037 C 
ENDBRANCH  22  25
ENDBRANCH  14  17
BRANCH  15  27
HETATM   27  O3  UNL     1      10.469  54.396  93.597  1.00  0.00    -0.355 OA
HETATM   28  C27 UNL     1       9.434  53.987  92.742  1.00  0.00     0.210 C 
ENDBRANCH  15  27
ENDBRANCH   9  11
ENDBRANCH   1   9
BRANCH   4  29
HETATM   29  N5  UNL     1      11.653  53.144  85.741  1.00  0.00    -0.327 N 
ATOM     30  H5  UNL     1      10.866  53.743  85.489  1.00  0.00     0.169 HD
BRANCH  29  31
HETATM   31  C12 UNL     1      12.354  52.573  84.801  1.00  0.00     0.123 A 
HETATM   32  C13 UNL     1      13.722  52.624  84.648  1.00  0.00     0.076 A 
HETATM   33  C14 UNL     1      14.076  51.886  83.527  1.00  0.00     0.033 A 
HETATM   34  N6  UNL     1      12.922  51.413  83.035  1.00  0.00    -0.303 N 
HETATM   35  N7  UNL     1      11.905  51.813  83.779  1.00  0.00    -0.285 N 
ATOM     36  H6  UNL     1      12.840  50.827  82.204  1.00  0.00     0.186 HD
ATOM     37  H7  UNL     1      10.927  51.581  83.607  1.00  0.00     0.188 HD
BRANCH  33  38
HETATM   38  C15 UNL     1      15.448  51.665  82.983  1.00  0.00     0.037 A 
HETATM   39  C16 UNL     1      15.829  52.645  81.832  1.00  0.00     0.011 A 
HETATM   40  C17 UNL     1      16.494  52.671  83.158  1.00  0.00     0.011 A 
ENDBRANCH  33  38
ENDBRANCH  29  31
ENDBRANCH   4  29
BRANCH   6  41
HETATM   41  N8  UNL     1      11.618  50.413  89.625  1.00  0.00    -0.373 N 
ATOM     42  H8  UNL     1      10.648  50.275  89.909  1.00  0.00     0.161 HD
BRANCH  41  43
HETATM   43  C20 UNL     1      12.550  49.366  89.896  1.00  0.00     0.153 C 
BRANCH  43  44
HETATM   44  C21 UNL     1      12.786  49.362  91.412  1.00  0.00     0.139 C 
HETATM   45  C22 UNL     1      11.545  49.750  92.143  1.00  0.00     0.035 C 
HETATM   46  C23 UNL     1      12.004  50.887  93.029  1.00  0.00     0.029 C 
HETATM   47  C24 UNL     1      13.504  50.715  93.022  1.00  0.00     0.168 C 
HETATM   48  O2  UNL     1      13.760  50.307  91.728  1.00  0.00    -0.384 OA
ENDBRANCH  43  44
ENDBRANCH  41  43
ENDBRANCH   6  41
TORSDOF 11
ENDMDL
MODEL 3
REMARK VINA RESULT: -7.166282578      3.970      6.108
REMARK  11 active torsions:
REMARK  status: ('A' for Active; 'I' for Inactive)
REMARK    1  A    between atoms: C2_2  and  N1_3 
REMARK       I    between atoms: N2_6  and  C5_7 
REMARK    2  A    between atoms: C5_7  and  C6_9 
REMARK    3  A    between atoms: C9_12  and  N3_13 
REMARK    4  A    between atoms: N3_13  and  C10_15 
REMARK    5  A    between atoms: C11_18  and  N5_19 
REMARK    6  A    between atoms: N5_19  and  C12_21 
REMARK    7  A    between atoms: C14_23  and  C15_24 
REMARK    8  A    between atoms: C19_32  and  N8_33 
REMARK    9  A    between atoms: N8_33  and  C20_35 
REMARK   10  A    between atoms: C20_35  and  C21_36 
REMARK   11  A    between atoms: C26_44  and  O3_45 
ROOT
HETATM    1  C10 UNL     1      12.204  52.607  87.548  1.00  0.00     0.685 A 
HETATM    2  N4  UNL     1      12.624  53.642  88.322  1.00  0.00    -0.176 N 
ATOM      3  H4  UNL     1      12.247  53.741  89.264  1.00  0.00     0.186 HD
HETATM    4  C11 UNL     1      13.522  54.538  87.880  1.00  0.00     0.126 A 
HETATM    5  C18 UNL     1      14.026  54.386  86.588  1.00  0.00     0.097 A 
HETATM    6  C19 UNL     1      13.607  53.339  85.796  1.00  0.00     0.120 A 
HETATM    7  N9  UNL     1      12.713  52.492  86.309  1.00  0.00    -0.177 N 
ATOM      8  H9  UNL     1      12.398  51.714  85.730  1.00  0.00     0.186 HD
ENDROOT
BRANCH   1   9
HETATM    9  N3  UNL     1      11.335  51.777  88.037  1.00  0.00    -0.192 N 
ATOM     10  H3  UNL     1      11.582  50.799  88.192  1.00  0.00     0.184 HD
BRANCH   9  11
HETATM   11  C9  UNL     1      10.023  52.257  88.356  1.00  0.00     0.051 A 
HETATM   12  C8  UNL     1       9.355  53.006  87.401  1.00  0.00     0.031 A 
HETATM   13  C7  UNL     1       8.106  53.474  87.680  1.00  0.00     0.022 A 
HETATM   14  C6  UNL     1       7.492  53.221  88.883  1.00  0.00     0.065 A 
HETATM   15  C26 UNL     1       8.144  52.481  89.833  1.00  0.00     0.086 A 
HETATM   16  C25 UNL     1       9.406  52.005  89.558  1.00  0.00     0.067 A 
BRANCH  14  17
HETATM   17  C5  UNL     1       6.154  53.718  89.185  1.00  0.00     0.256 C 
HETATM   18  N2  UNL     1       5.975  54.908  89.902  1.00  0.00    -0.345 N 
HETATM   19  C4  UNL     1       4.649  55.388  90.196  1.00  0.00     0.156 C 
HETATM   20  C28 UNL     1       7.116  55.662  90.351  1.00  0.00     0.156 C 
HETATM   21  C3  UNL     1       4.822  56.598  91.111  1.00  0.00     0.292 C 
HETATM   22  N1  UNL     1       5.597  57.587  90.405  1.00  0.00     0.091 N 
HETATM   23  C29 UNL     1       6.913  57.140  90.064  1.00  0.00     0.292 C 
HETATM   24  O1  UNL     1       5.166  53.035  88.778  1.00  0.00    -0.267 OA
BRANCH  22  25
HETATM   25  C2  UNL     1       5.568  58.878  91.064  1.00  0.00     0.268 C 
HETATM   26  C1  UNL     1       5.234  58.680  92.526  1.00  0.00     0.037 C 
ENDBRANCH  22  25
ENDBRANCH  14  17
BRANCH  15  27
HETATM   27  O3  UNL     1       7.568  52.193  91.075  1.00  0.00    -0.355 OA
HETATM   28  C27 UNL     1       8.180  52.611  92.267  1.00  0.00     0.210 C 
ENDBRANCH  15  27
ENDBRANCH   9  11
ENDBRANCH   1   9
BRANCH   4  29
HETATM   29  N5  UNL     1      13.968  55.619  88.677  1.00  0.00    -0.327 N 
ATOM     30  H5  UNL     1      14.143  56.526  88.243  1.00  0.00     0.169 HD
BRANCH  29  31
HETATM   31  C12 UNL     1      14.161  55.472  89.958  1.00  0.00     0.123 A 
HETATM   32  C13 UNL     1      13.234  55.671  90.957  1.00  0.00     0.076 A 
HETATM   33  C14 UNL     1      13.832  55.408  92.183  1.00  0.00     0.033 A 
HETATM   34  N6  UNL     1      15.094  55.060  91.894  1.00  0.00    -0.303 N 
HETATM   35  N7  UNL     1      15.295  55.095  90.588  1.00  0.00    -0.285 N 
ATOM     36  H6  UNL     1      15.800  54.804  92.585  1.00  0.00     0.186 HD
ATOM     37  H7  UNL     1      16.175  54.871  90.125  1.00  0.00     0.188 HD
BRANCH  33  38
HETATM   38  C15 UNL     1      13.205  55.493  93.534  1.00  0.00     0.037 A 
HETATM   39  C16 UNL     1      12.309  54.266  93.886  1.00  0.00     0.011 A 
HETATM   40  C17 UNL     1      13.580  54.558  94.594  1.00  0.00     0.011 A 
ENDBRANCH  33  38
ENDBRANCH  29  31
ENDBRANCH   4  29
BRANCH   6  41
HETATM   41  N8  UNL     1      14.065  53.184  84.601  1.00  0.00    -0.373 N 
ATOM     42  H8  UNL     1      13.401  52.959  83.860  1.00  0.00     0.161 HD
BRANCH  41  43
HETATM   43  C20 UNL     1      15.443  53.307  84.251  1.00  0.00     0.153 C 
BRANCH  43  44
HETATM   44  C21 UNL     1      15.755  52.168  83.271  1.00  0.00     0.139 C 
HETATM   45  C22 UNL     1      16.390  52.696  82.028  1.00  0.00     0.035 C 
HETATM   46  C23 UNL     1      15.519  52.134  80.927  1.00  0.00     0.029 C 
HETATM   47  C24 UNL     1      14.782  51.022  81.634  1.00  0.00     0.168 C 
HETATM   48  O2  UNL     1      14.565  51.549  82.892  1.00  0.00    -0.384 OA
ENDBRANCH  43  44
ENDBRANCH  41  43
ENDBRANCH   6  41
TORSDOF 11
ENDMDL
MODEL 4
REMARK VINA RESULT: -7.154198802      3.037      7.640
REMARK  11 active torsions:
REMARK  status: ('A' for Active; 'I' for Inactive)
REMARK    1  A    between atoms: C2_2  and  N1_3 
REMARK       I    between atoms: N2_6  and  C5_7 
REMARK    2  A    between atoms: C5_7  and  C6_9 
REMARK    3  A    between atoms: C9_12  and  N3_13 
REMARK    4  A    between atoms: N3_13  and  C10_15 
REMARK    5  A    between atoms: C11_18  and  N5_19 
REMARK    6  A    between atoms: N5_19  and  C12_21 
REMARK    7  A    between atoms: C14_23  and  C15_24 
REMARK    8  A    between atoms: C19_32  and  N8_33 
REMARK    9  A    between atoms: N8_33  and  C20_35 
REMARK   10  A    between atoms: C20_35  and  C21_36 
REMARK   11  A    between atoms: C26_44  and  O3_45 
ROOT
HETATM    1  C10 UNL     1      12.657  53.646  89.167  1.00  0.00     0.685 A 
HETATM    2  N4  UNL     1      12.370  53.845  87.853  1.00  0.00    -0.176 N 
ATOM      3  H4  UNL     1      12.480  54.777  87.457  1.00  0.00     0.186 HD
HETATM    4  C11 UNL     1      11.944  52.846  87.062  1.00  0.00     0.126 A 
HETATM    5  C18 UNL     1      11.798  51.576  87.622  1.00  0.00     0.097 A 
HETATM    6  C19 UNL     1      12.088  51.365  88.953  1.00  0.00     0.120 A 
HETATM    7  N9  UNL     1      12.506  52.410  89.671  1.00  0.00    -0.177 N 
ATOM      8  H9  UNL     1      12.723  52.262  90.656  1.00  0.00     0.186 HD
ENDROOT
BRANCH   1   9
HETATM    9  N3  UNL     1      13.065  54.655  89.873  1.00  0.00    -0.192 N 
ATOM     10  H3  UNL     1      13.403  55.504  89.419  1.00  0.00     0.184 HD
BRANCH   9  11
HETATM   11  C9  UNL     1      13.032  54.556  91.303  1.00  0.00     0.051 A 
HETATM   12  C8  UNL     1      14.086  55.101  92.017  1.00  0.00     0.031 A 
HETATM   13  C7  UNL     1      14.078  55.021  93.377  1.00  0.00     0.022 A 
HETATM   14  C6  UNL     1      13.051  54.414  94.059  1.00  0.00     0.065 A 
HETATM   15  C26 UNL     1      12.004  53.872  93.362  1.00  0.00     0.086 A 
HETATM   16  C25 UNL     1      12.006  53.949  91.987  1.00  0.00     0.067 A 
BRANCH  14  17
HETATM   17  C5  UNL     1      13.037  54.327  95.514  1.00  0.00     0.256 C 
HETATM   18  N2  UNL     1      12.276  55.220  96.280  1.00  0.00    -0.345 N 
HETATM   19  C4  UNL     1      12.270  55.125  97.717  1.00  0.00     0.156 C 
HETATM   20  C28 UNL     1      11.491  56.239  95.635  1.00  0.00     0.156 C 
HETATM   21  C3  UNL     1      11.479  56.328  98.225  1.00  0.00     0.292 C 
HETATM   22  N1  UNL     1      10.146  56.248  97.686  1.00  0.00     0.091 N 
HETATM   23  C29 UNL     1      10.106  56.307  96.257  1.00  0.00     0.292 C 
HETATM   24  O1  UNL     1      13.737  53.419  96.058  1.00  0.00    -0.267 OA
BRANCH  22  25
HETATM   25  C2  UNL     1       9.236  57.172  98.335  1.00  0.00     0.268 C 
HETATM   26  C1  UNL     1       8.550  58.013  97.283  1.00  0.00     0.037 C 
ENDBRANCH  22  25
ENDBRANCH  14  17
BRANCH  15  27
HETATM   27  O3  UNL     1      10.932  53.241  94.002  1.00  0.00    -0.355 OA
HETATM   28  C27 UNL     1       9.607  53.596  93.707  1.00  0.00     0.210 C 
ENDBRANCH  15  27
ENDBRANCH   9  11
ENDBRANCH   1   9
BRANCH   4  29
HETATM   29  N5  UNL     1      11.644  53.039  85.693  1.00  0.00    -0.327 N 
ATOM     30  H5  UNL     1      10.848  53.619  85.429  1.00  0.00     0.169 HD
BRANCH  29  31
HETATM   31  C12 UNL     1      12.371  52.484  84.763  1.00  0.00     0.123 A 
HETATM   32  C13 UNL     1      13.738  52.576  84.624  1.00  0.00     0.076 A 
HETATM   33  C14 UNL     1      14.126  51.843  83.511  1.00  0.00     0.033 A 
HETATM   34  N6  UNL     1      12.992  51.331  83.010  1.00  0.00    -0.303 N 
HETATM   35  N7  UNL     1      11.956  51.704  83.742  1.00  0.00    -0.285 N 
ATOM     36  H6  UNL     1      12.936  50.739  82.182  1.00  0.00     0.186 HD
ATOM     37  H7  UNL     1      10.987  51.441  83.562  1.00  0.00     0.188 HD
BRANCH  33  38
HETATM   38  C15 UNL     1      15.509  51.660  82.981  1.00  0.00     0.037 A 
HETATM   39  C16 UNL     1      15.858  52.619  81.803  1.00  0.00     0.011 A 
HETATM   40  C17 UNL     1      16.513  52.712  83.131  1.00  0.00     0.011 A 
ENDBRANCH  33  38
ENDBRANCH  29  31
ENDBRANCH   4  29
BRANCH   6  41
HETATM   41  N8  UNL     1      11.960  50.198  89.485  1.00  0.00    -0.373 N 
ATOM     42  H8  UNL     1      11.034  49.917  89.806  1.00  0.00     0.161 HD
BRANCH  41  43
HETATM   43  C20 UNL     1      13.035  49.274  89.654  1.00  0.00     0.153 C 
BRANCH  43  44
HETATM   44  C21 UNL     1      13.303  49.175  91.161  1.00  0.00     0.139 C 
HETATM   45  C22 UNL     1      12.028  48.996  91.916  1.00  0.00     0.035 C 
HETATM   46  C23 UNL     1      12.073  50.107  92.941  1.00  0.00     0.029 C 
HETATM   47  C24 UNL     1      13.533  50.492  92.936  1.00  0.00     0.168 C 
HETATM   48  O2  UNL     1      13.879  50.363  91.605  1.00  0.00    -0.384 OA
ENDBRANCH  43  44
ENDBRANCH  41  43
ENDBRANCH   6  41
TORSDOF 11
ENDMDL
MODEL 5
REMARK VINA RESULT: -7.146797706      2.532      7.238
REMARK  11 active torsions:
REMARK  status: ('A' for Active; 'I' for Inactive)
REMARK    1  A    between atoms: C2_2  and  N1_3 
REMARK       I    between atoms: N2_6  and  C5_7 
REMARK    2  A    between atoms: C5_7  and  C6_9 
REMARK    3  A    between atoms: C9_12  and  N3_13 
REMARK    4  A    between atoms: N3_13  and  C10_15 
REMARK    5  A    between atoms: C11_18  and  N5_19 
REMARK    6  A    between atoms: N5_19  and  C12_21 
REMARK    7  A    between atoms: C14_23  and  C15_24 
REMARK    8  A    between atoms: C19_32  and  N8_33 
REMARK    9  A    between atoms: N8_33  and  C20_35 
REMARK   10  A    between atoms: C20_35  and  C21_36 
REMARK   11  A    between atoms: C26_44  and  O3_45 
ROOT
HETATM    1  C10 UNL     1      12.919  53.885  89.738  1.00  0.00     0.685 A 
HETATM    2  N4  UNL     1      12.840  54.045  88.390  1.00  0.00    -0.176 N 
ATOM      3  H4  UNL     1      13.097  54.942  87.982  1.00  0.00     0.186 HD
HETATM    4  C11 UNL     1      12.432  53.052  87.582  1.00  0.00     0.126 A 
HETATM    5  C18 UNL     1      12.083  51.831  88.160  1.00  0.00     0.097 A 
HETATM    6  C19 UNL     1      12.160  51.660  89.526  1.00  0.00     0.120 A 
HETATM    7  N9  UNL     1      12.575  52.695  90.258  1.00  0.00    -0.177 N 
ATOM      8  H9  UNL     1      12.636  52.577  91.270  1.00  0.00     0.186 HD
ENDROOT
BRANCH   1   9
HETATM    9  N3  UNL     1      13.322  54.885  90.460  1.00  0.00    -0.192 N 
ATOM     10  H3  UNL     1      13.844  55.653  90.038  1.00  0.00     0.184 HD
BRANCH   9  11
HETATM   11  C9  UNL     1      13.020  54.892  91.861  1.00  0.00     0.051 A 
HETATM   12  C8  UNL     1      13.998  55.337  92.735  1.00  0.00     0.031 A 
HETATM   13  C7  UNL     1      13.736  55.354  94.072  1.00  0.00     0.022 A 
HETATM   14  C6  UNL     1      12.526  54.942  94.576  1.00  0.00     0.065 A 
HETATM   15  C26 UNL     1      11.552  54.500  93.720  1.00  0.00     0.086 A 
HETATM   16  C25 UNL     1      11.810  54.480  92.368  1.00  0.00     0.067 A 
BRANCH  14  17
HETATM   17  C5  UNL     1      12.240  54.960  96.006  1.00  0.00     0.256 C 
HETATM   18  N2  UNL     1      12.716  53.946  96.846  1.00  0.00    -0.345 N 
HETATM   19  C4  UNL     1      12.426  53.974  98.257  1.00  0.00     0.156 C 
HETATM   20  C28 UNL     1      13.503  52.868  96.307  1.00  0.00     0.156 C 
HETATM   21  C3  UNL     1      12.952  52.660  98.831  1.00  0.00     0.292 C 
HETATM   22  N1  UNL     1      14.370  52.600  98.586  1.00  0.00     0.091 N 
HETATM   23  C29 UNL     1      14.707  52.602  97.195  1.00  0.00     0.292 C 
HETATM   24  O1  UNL     1      11.545  55.921  96.456  1.00  0.00    -0.267 OA
BRANCH  22  25
HETATM   25  C2  UNL     1      15.012  51.543  99.342  1.00  0.00     0.268 C 
HETATM   26  C1  UNL     1      16.510  51.748  99.307  1.00  0.00     0.037 C 
ENDBRANCH  22  25
ENDBRANCH  14  17
BRANCH  15  27
HETATM   27  O3  UNL     1      10.302  54.067  94.176  1.00  0.00    -0.355 OA
HETATM   28  C27 UNL     1       9.224  53.922  93.290  1.00  0.00     0.210 C 
ENDBRANCH  15  27
ENDBRANCH   9  11
ENDBRANCH   1   9
BRANCH   4  29
HETATM   29  N5  UNL     1      12.348  53.205  86.178  1.00  0.00    -0.327 N 
ATOM     30  H5  UNL     1      11.437  53.340  85.740  1.00  0.00     0.169 HD
BRANCH  29  31
HETATM   31  C12 UNL     1      13.420  53.174  85.436  1.00  0.00     0.123 A 
HETATM   32  C13 UNL     1      13.719  52.248  84.461  1.00  0.00     0.076 A 
HETATM   33  C14 UNL     1      14.949  52.567  83.902  1.00  0.00     0.033 A 
HETATM   34  N6  UNL     1      15.358  53.667  84.549  1.00  0.00    -0.303 N 
HETATM   35  N7  UNL     1      14.464  54.030  85.452  1.00  0.00    -0.285 N 
ATOM     36  H6  UNL     1      16.236  54.156  84.370  1.00  0.00     0.186 HD
ATOM     37  H7  UNL     1      14.550  54.838  86.070  1.00  0.00     0.188 HD
BRANCH  33  38
HETATM   38  C15 UNL     1      15.665  51.841  82.813  1.00  0.00     0.037 A 
HETATM   39  C16 UNL     1      15.045  52.064  81.400  1.00  0.00     0.011 A 
HETATM   40  C17 UNL     1      16.388  52.573  81.773  1.00  0.00     0.011 A 
ENDBRANCH  33  38
ENDBRANCH  29  31
ENDBRANCH   4  29
BRANCH   6  41
HETATM   41  N8  UNL     1      11.843  50.537  90.075  1.00  0.00    -0.373 N 
ATOM     42  H8  UNL     1      10.892  50.429  90.428  1.00  0.00     0.161 HD
BRANCH  41  43
HETATM   43  C20 UNL     1      12.740  49.437  90.219  1.00  0.00     0.153 C 
BRANCH  43  44
HETATM   44  C21 UNL     1      13.124  49.370  91.703  1.00  0.00     0.139 C 
HETATM   45  C22 UNL     1      11.964  49.733  92.569  1.00  0.00     0.035 C 
HETATM   46  C23 UNL     1      12.518  50.830  93.450  1.00  0.00     0.029 C 
HETATM   47  C24 UNL     1      14.009  50.652  93.288  1.00  0.00     0.168 C 
HETATM   48  O2  UNL     1      14.132  50.297  91.959  1.00  0.00    -0.384 OA
ENDBRANCH  43  44
ENDBRANCH  41  43
ENDBRANCH   6  41
TORSDOF 11
ENDMDL
