MODEL 1
REMARK VINA RESULT: -8.136726540      0.000      0.000
REMARK  9 active torsions:
REMARK  status: ('A' for Active; 'I' for Inactive)
REMARK    1  A    between atoms: C2_2  and  C3_3 
REMARK    2  A    between atoms: C3_3  and  C4_4 
REMARK    3  A    between atoms: C5_7  and  N2_8 
REMARK    4  A    between atoms: N2_8  and  C6_10 
REMARK    5  A    between atoms: C10_14  and  S1_15 
REMARK    6  A    between atoms: S1_15  and  N3_18 
REMARK    7  A    between atoms: N3_18  and  C11_20 
REMARK    8  A    between atoms: C16_25  and  S2_26 
REMARK    9  A    between atoms: N4_37  and  O6_38 
ROOT
HETATM    1  C6  UNL     1       9.864  53.736  89.729  1.00  0.00     0.035 A 
HETATM    2  C7  UNL     1       8.509  54.123  89.878  1.00  0.00     0.029 A 
HETATM    3  C8  UNL     1       7.669  54.111  88.801  1.00  0.00     0.004 A 
HETATM    4  C9  UNL     1       8.094  53.729  87.549  1.00  0.00     0.025 A 
HETATM    5  C10 UNL     1       9.422  53.338  87.347  1.00  0.00     0.082 A 
HETATM    6  C17 UNL     1      10.233  53.358  88.421  1.00  0.00     0.054 A 
ENDROOT
BRANCH   1   7
HETATM    7  N2  UNL     1      10.699  53.734  90.771  1.00  0.00    -0.342 N 
ATOM      8  H2  UNL     1      10.716  52.739  90.998  1.00  0.00     0.167 HD
BRANCH   7   9
HETATM    9  C5  UNL     1      11.441  54.165  91.607  1.00  0.00     0.119 A 
HETATM   10  N1  UNL     1      11.065  54.144  92.950  1.00  0.00    -0.329 N 
HETATM   11  C4  UNL     1      11.801  54.590  93.943  1.00  0.00     0.111 A 
ATOM     12  H1  UNL     1      10.150  53.755  93.178  1.00  0.00     0.168 HD
HETATM   13  N4  UNL     1      13.003  55.105  93.662  1.00  0.00    -0.211 N 
HETATM   14  C23 UNL     1      13.439  55.160  92.379  1.00  0.00     0.078 A 
HETATM   15  C18 UNL     1      12.704  54.706  91.311  1.00  0.00     0.037 A 
HETATM   16  C22 UNL     1      14.702  55.704  92.119  1.00  0.00     0.033 A 
HETATM   17  C19 UNL     1      13.149  54.761  90.010  1.00  0.00     0.017 A 
HETATM   18  C20 UNL     1      14.417  55.313  89.786  1.00  0.00     0.001 A 
HETATM   19  C21 UNL     1      15.186  55.779  90.830  1.00  0.00     0.002 A 
BRANCH  11  20
HETATM   20  C3  UNL     1      11.313  54.529  95.375  1.00  0.00     0.079 C 
BRANCH  20  21
HETATM   21  C2  UNL     1      10.271  55.635  95.535  1.00  0.00     0.003 C 
HETATM   22  C1  UNL     1      10.832  56.821  96.258  1.00  0.00     0.005 C 
ENDBRANCH  20  21
ENDBRANCH  11  20
BRANCH  13  23
HETATM   23  O6  UNL     1      13.809  55.582  94.658  1.00  0.00    -0.281 OA
ATOM     24  H6  UNL     1      14.242  56.423  94.570  1.00  0.00     0.245 HD
ENDBRANCH  13  23
ENDBRANCH   7   9
ENDBRANCH   1   7
BRANCH   5  25
HETATM   25  S1  UNL     1       9.982  52.849  85.763  1.00  0.00     0.263 S 
HETATM   26  O1  UNL     1      10.024  54.092  84.910  1.00  0.00    -0.200 OA
HETATM   27  O2  UNL     1       8.947  51.952  85.101  1.00  0.00    -0.200 OA
BRANCH  25  28
HETATM   28  N3  UNL     1      11.515  52.123  85.749  1.00  0.00    -0.279 N 
ATOM     29  H3  UNL     1      11.555  51.117  85.911  1.00  0.00     0.179 HD
BRANCH  28  30
HETATM   30  C11 UNL     1      12.744  52.790  85.533  1.00  0.00     0.067 A 
HETATM   31  C12 UNL     1      13.191  53.830  86.309  1.00  0.00     0.032 A 
HETATM   32  C13 UNL     1      14.392  54.469  86.050  1.00  0.00     0.002 A 
HETATM   33  C14 UNL     1      15.141  54.050  84.995  1.00  0.00     0.002 A 
HETATM   34  C15 UNL     1      14.715  53.016  84.206  1.00  0.00     0.028 A 
HETATM   35  C16 UNL     1      13.534  52.379  84.454  1.00  0.00     0.107 A 
BRANCH  35  36
HETATM   36  S2  UNL     1      12.986  51.053  83.435  1.00  0.00     0.140 S 
HETATM   37  O3  UNL     1      11.664  51.442  82.806  1.00  0.00    -0.591 OA
HETATM   38  O4  UNL     1      12.699  49.848  84.290  1.00  0.00    -0.591 OA
HETATM   39  O5  UNL     1      14.041  50.714  82.203  1.00  0.00    -0.591 OA
ENDBRANCH  35  36
ENDBRANCH  28  30
ENDBRANCH  25  28
ENDBRANCH   5  25
TORSDOF 9
ENDMDL
MODEL 2
REMARK VINA RESULT: -7.844187259      3.479      9.344
REMARK  9 active torsions:
REMARK  status: ('A' for Active; 'I' for Inactive)
REMARK    1  A    between atoms: C2_2  and  C3_3 
REMARK    2  A    between atoms: C3_3  and  C4_4 
REMARK    3  A    between atoms: C5_7  and  N2_8 
REMARK    4  A    between atoms: N2_8  and  C6_10 
REMARK    5  A    between atoms: C10_14  and  S1_15 
REMARK    6  A    between atoms: S1_15  and  N3_18 
REMARK    7  A    between atoms: N3_18  and  C11_20 
REMARK    8  A    between atoms: C16_25  and  S2_26 
REMARK    9  A    between atoms: N4_37  and  O6_38 
ROOT
HETATM    1  C6  UNL     1      11.675  52.468  85.748  1.00  0.00     0.035 A 
HETATM    2  C7  UNL     1      10.494  53.134  85.338  1.00  0.00     0.029 A 
HETATM    3  C8  UNL     1       9.699  53.754  86.261  1.00  0.00     0.004 A 
HETATM    4  C9  UNL     1      10.005  53.757  87.603  1.00  0.00     0.025 A 
HETATM    5  C10 UNL     1      11.160  53.113  88.061  1.00  0.00     0.082 A 
HETATM    6  C17 UNL     1      11.929  52.509  87.136  1.00  0.00     0.054 A 
ENDROOT
BRANCH   1   7
HETATM    7  N2  UNL     1      12.469  51.863  84.861  1.00  0.00    -0.342 N 
ATOM      8  H2  UNL     1      13.173  51.461  85.481  1.00  0.00     0.167 HD
BRANCH   7   9
HETATM    9  C5  UNL     1      12.875  51.496  83.795  1.00  0.00     0.119 A 
HETATM   10  N1  UNL     1      12.087  50.667  82.998  1.00  0.00    -0.329 N 
HETATM   11  C4  UNL     1      12.437  50.208  81.816  1.00  0.00     0.111 A 
ATOM     12  H1  UNL     1      11.172  50.396  83.358  1.00  0.00     0.168 HD
HETATM   13  N4  UNL     1      13.633  50.554  81.329  1.00  0.00    -0.211 N 
HETATM   14  C23 UNL     1      14.457  51.357  82.047  1.00  0.00     0.078 A 
HETATM   15  C18 UNL     1      14.133  51.859  83.284  1.00  0.00     0.037 A 
HETATM   16  C22 UNL     1      15.702  51.700  81.509  1.00  0.00     0.033 A 
HETATM   17  C19 UNL     1      14.970  52.675  84.010  1.00  0.00     0.017 A 
HETATM   18  C20 UNL     1      16.208  52.997  83.442  1.00  0.00     0.001 A 
HETATM   19  C21 UNL     1      16.571  52.515  82.202  1.00  0.00     0.002 A 
BRANCH  11  20
HETATM   20  C3  UNL     1      11.517  49.311  81.016  1.00  0.00     0.079 C 
BRANCH  20  21
HETATM   21  C2  UNL     1      11.451  47.975  81.754  1.00  0.00     0.003 C 
HETATM   22  C1  UNL     1      12.519  47.034  81.287  1.00  0.00     0.005 C 
ENDBRANCH  20  21
ENDBRANCH  11  20
BRANCH  13  23
HETATM   23  O6  UNL     1      14.045  50.105  80.105  1.00  0.00    -0.281 OA
ATOM     24  H6  UNL     1      14.721  50.564  79.622  1.00  0.00     0.245 HD
ENDBRANCH  13  23
ENDBRANCH   7   9
ENDBRANCH   1   7
BRANCH   5  25
HETATM   25  S1  UNL     1      11.568  53.105  89.762  1.00  0.00     0.263 S 
HETATM   26  O1  UNL     1      12.541  51.972  89.974  1.00  0.00    -0.200 OA
HETATM   27  O2  UNL     1      10.345  52.732  90.587  1.00  0.00    -0.200 OA
BRANCH  25  28
HETATM   28  N3  UNL     1      12.269  54.541  90.328  1.00  0.00    -0.279 N 
ATOM     29  H3  UNL     1      12.487  55.257  89.634  1.00  0.00     0.179 HD
BRANCH  28  30
HETATM   30  C11 UNL     1      12.578  54.836  91.676  1.00  0.00     0.067 A 
HETATM   31  C12 UNL     1      11.763  54.512  92.732  1.00  0.00     0.032 A 
HETATM   32  C13 UNL     1      12.094  54.838  94.036  1.00  0.00     0.002 A 
HETATM   33  C14 UNL     1      13.260  55.499  94.269  1.00  0.00     0.002 A 
HETATM   34  C15 UNL     1      14.088  55.834  93.233  1.00  0.00     0.028 A 
HETATM   35  C16 UNL     1      13.772  55.516  91.944  1.00  0.00     0.107 A 
BRANCH  35  36
HETATM   36  S2  UNL     1      14.837  55.952  90.613  1.00  0.00     0.140 S 
HETATM   37  O3  UNL     1      15.913  54.893  90.488  1.00  0.00    -0.591 OA
HETATM   38  O4  UNL     1      15.554  57.234  90.942  1.00  0.00    -0.591 OA
HETATM   39  O5  UNL     1      14.045  56.029  89.159  1.00  0.00    -0.591 OA
ENDBRANCH  35  36
ENDBRANCH  28  30
ENDBRANCH  25  28
ENDBRANCH   5  25
TORSDOF 9
ENDMDL
MODEL 3
REMARK VINA RESULT: -7.797977076      2.508      4.565
REMARK  9 active torsions:
REMARK  status: ('A' for Active; 'I' for Inactive)
REMARK    1  A    between atoms: C2_2  and  C3_3 
REMARK    2  A    between atoms: C3_3  and  C4_4 
REMARK    3  A    between atoms: C5_7  and  N2_8 
REMARK    4  A    between atoms: N2_8  and  C6_10 
REMARK    5  A    between atoms: C10_14  and  S1_15 
REMARK    6  A    between atoms: S1_15  and  N3_18 
REMARK    7  A    between atoms: N3_18  and  C11_20 
REMARK    8  A    between atoms: C16_25  and  S2_26 
REMARK    9  A    between atoms: N4_37  and  O6_38 
ROOT
HETATM    1  C6  UNL     1      13.834  55.129  92.382  1.00  0.00     0.035 A 
HETATM    2  C7  UNL     1      14.790  55.954  91.741  1.00  0.00     0.029 A 
HETATM    3  C8  UNL     1      14.846  56.008  90.377  1.00  0.00     0.004 A 
HETATM    4  C9  UNL     1      13.992  55.278  89.582  1.00  0.00     0.025 A 
HETATM    5  C10 UNL     1      13.028  54.448  90.165  1.00  0.00     0.082 A 
HETATM    6  C17 UNL     1      12.991  54.408  91.510  1.00  0.00     0.054 A 
ENDROOT
BRANCH   1   7
HETATM    7  N2  UNL     1      13.758  55.068  93.714  1.00  0.00    -0.342 N 
ATOM      8  H2  UNL     1      14.643  54.609  93.933  1.00  0.00     0.167 HD
BRANCH   7   9
HETATM    9  C5  UNL     1      13.304  55.212  94.814  1.00  0.00     0.119 A 
HETATM   10  N1  UNL     1      12.618  56.383  95.135  1.00  0.00    -0.329 N 
HETATM   11  C4  UNL     1      12.083  56.642  96.308  1.00  0.00     0.111 A 
ATOM     12  H1  UNL     1      12.524  57.091  94.407  1.00  0.00     0.168 HD
HETATM   13  N4  UNL     1      12.197  55.725  97.274  1.00  0.00    -0.211 N 
HETATM   14  C23 UNL     1      12.851  54.561  97.038  1.00  0.00     0.078 A 
HETATM   15  C18 UNL     1      13.425  54.248  95.829  1.00  0.00     0.037 A 
HETATM   16  C22 UNL     1      12.952  53.622  98.070  1.00  0.00     0.033 A 
HETATM   17  C19 UNL     1      14.087  53.066  95.591  1.00  0.00     0.017 A 
HETATM   18  C20 UNL     1      14.170  52.150  96.647  1.00  0.00     0.001 A 
HETATM   19  C21 UNL     1      13.608  52.425  97.876  1.00  0.00     0.002 A 
BRANCH  11  20
HETATM   20  C3  UNL     1      11.353  57.941  96.571  1.00  0.00     0.079 C 
BRANCH  20  21
HETATM   21  C2  UNL     1       9.859  57.630  96.512  1.00  0.00     0.003 C 
HETATM   22  C1  UNL     1       9.121  58.249  97.659  1.00  0.00     0.005 C 
ENDBRANCH  20  21
ENDBRANCH  11  20
BRANCH  13  23
HETATM   23  O6  UNL     1      11.658  55.944  98.512  1.00  0.00    -0.281 OA
ATOM     24  H6  UNL     1      10.720  55.892  98.649  1.00  0.00     0.245 HD
ENDBRANCH  13  23
ENDBRANCH   7   9
ENDBRANCH   1   7
BRANCH   5  25
HETATM   25  S1  UNL     1      11.932  53.511  89.173  1.00  0.00     0.263 S 
HETATM   26  O1  UNL     1      10.570  53.608  89.814  1.00  0.00    -0.200 OA
HETATM   27  O2  UNL     1      12.298  52.036  89.247  1.00  0.00    -0.200 OA
BRANCH  25  28
HETATM   28  N3  UNL     1      11.818  54.030  87.563  1.00  0.00    -0.279 N 
ATOM     29  H3  UNL     1      11.016  54.611  87.318  1.00  0.00     0.179 HD
BRANCH  28  30
HETATM   30  C11 UNL     1      12.737  53.730  86.530  1.00  0.00     0.067 A 
HETATM   31  C12 UNL     1      13.949  54.356  86.386  1.00  0.00     0.032 A 
HETATM   32  C13 UNL     1      14.811  54.047  85.347  1.00  0.00     0.002 A 
HETATM   33  C14 UNL     1      14.436  53.097  84.448  1.00  0.00     0.002 A 
HETATM   34  C15 UNL     1      13.232  52.460  84.571  1.00  0.00     0.028 A 
HETATM   35  C16 UNL     1      12.376  52.757  85.591  1.00  0.00     0.107 A 
BRANCH  35  36
HETATM   36  S2  UNL     1      10.825  51.940  85.744  1.00  0.00     0.140 S 
HETATM   37  O3  UNL     1      10.942  50.877  86.817  1.00  0.00    -0.591 OA
HETATM   38  O4  UNL     1      10.516  51.206  84.467  1.00  0.00    -0.591 OA
HETATM   39  O5  UNL     1       9.603  52.965  86.193  1.00  0.00    -0.591 OA
ENDBRANCH  35  36
ENDBRANCH  28  30
ENDBRANCH  25  28
ENDBRANCH   5  25
TORSDOF 9
ENDMDL
MODEL 4
REMARK VINA RESULT: -7.790941508      3.406      9.509
REMARK  9 active torsions:
REMARK  status: ('A' for Active; 'I' for Inactive)
REMARK    1  A    between atoms: C2_2  and  C3_3 
REMARK    2  A    between atoms: C3_3  and  C4_4 
REMARK    3  A    between atoms: C5_7  and  N2_8 
REMARK    4  A    between atoms: N2_8  and  C6_10 
REMARK    5  A    between atoms: C10_14  and  S1_15 
REMARK    6  A    between atoms: S1_15  and  N3_18 
REMARK    7  A    between atoms: N3_18  and  C11_20 
REMARK    8  A    between atoms: C16_25  and  S2_26 
REMARK    9  A    between atoms: N4_37  and  O6_38 
ROOT
HETATM    1  C6  UNL     1      11.465  52.235  85.305  1.00  0.00     0.035 A 
HETATM    2  C7  UNL     1      10.418  53.057  84.823  1.00  0.00     0.029 A 
HETATM    3  C8  UNL     1       9.662  53.788  85.696  1.00  0.00     0.004 A 
HETATM    4  C9  UNL     1       9.882  53.757  87.054  1.00  0.00     0.025 A 
HETATM    5  C10 UNL     1      10.904  52.961  87.582  1.00  0.00     0.082 A 
HETATM    6  C17 UNL     1      11.636  52.249  86.705  1.00  0.00     0.054 A 
ENDROOT
BRANCH   1   7
HETATM    7  N2  UNL     1      12.221  51.519  84.468  1.00  0.00    -0.342 N 
ATOM      8  H2  UNL     1      12.475  50.733  85.067  1.00  0.00     0.167 HD
BRANCH   7   9
HETATM    9  C5  UNL     1      12.788  51.219  83.456  1.00  0.00     0.119 A 
HETATM   10  N1  UNL     1      12.176  50.360  82.543  1.00  0.00    -0.329 N 
HETATM   11  C4  UNL     1      12.709  49.968  81.407  1.00  0.00     0.111 A 
ATOM     12  H1  UNL     1      11.247  50.009  82.775  1.00  0.00     0.168 HD
HETATM   13  N4  UNL     1      13.927  50.418  81.088  1.00  0.00    -0.211 N 
HETATM   14  C23 UNL     1      14.586  51.257  81.925  1.00  0.00     0.078 A 
HETATM   15  C18 UNL     1      14.068  51.692  83.121  1.00  0.00     0.037 A 
HETATM   16  C22 UNL     1      15.859  51.710  81.562  1.00  0.00     0.033 A 
HETATM   17  C19 UNL     1      14.738  52.544  83.969  1.00  0.00     0.017 A 
HETATM   18  C20 UNL     1      16.010  52.977  83.574  1.00  0.00     0.001 A 
HETATM   19  C21 UNL     1      16.565  52.564  82.382  1.00  0.00     0.002 A 
BRANCH  11  20
HETATM   20  C3  UNL     1      11.973  49.031  80.474  1.00  0.00     0.079 C 
BRANCH  20  21
HETATM   21  C2  UNL     1      12.095  47.628  81.067  1.00  0.00     0.003 C 
HETATM   22  C1  UNL     1      13.041  46.776  80.278  1.00  0.00     0.005 C 
ENDBRANCH  20  21
ENDBRANCH  11  20
BRANCH  13  23
HETATM   23  O6  UNL     1      14.526  50.042  79.919  1.00  0.00    -0.281 OA
ATOM     24  H6  UNL     1      15.331  49.538  79.926  1.00  0.00     0.245 HD
ENDBRANCH  13  23
ENDBRANCH   7   9
ENDBRANCH   1   7
BRANCH   5  25
HETATM   25  S1  UNL     1      11.200  52.908  89.306  1.00  0.00     0.263 S 
HETATM   26  O1  UNL     1      12.432  52.062  89.512  1.00  0.00    -0.200 OA
HETATM   27  O2  UNL     1      10.080  52.149  90.001  1.00  0.00    -0.200 OA
BRANCH  25  28
HETATM   28  N3  UNL     1      11.449  54.422  90.027  1.00  0.00    -0.279 N 
ATOM     29  H3  UNL     1      10.671  55.082  90.004  1.00  0.00     0.179 HD
BRANCH  28  30
HETATM   30  C11 UNL     1      12.640  54.853  90.658  1.00  0.00     0.067 A 
HETATM   31  C12 UNL     1      13.749  55.284  89.975  1.00  0.00     0.032 A 
HETATM   32  C13 UNL     1      14.903  55.677  90.631  1.00  0.00     0.002 A 
HETATM   33  C14 UNL     1      14.930  55.631  91.990  1.00  0.00     0.002 A 
HETATM   34  C15 UNL     1      13.837  55.203  92.693  1.00  0.00     0.028 A 
HETATM   35  C16 UNL     1      12.695  54.814  92.056  1.00  0.00     0.107 A 
BRANCH  35  36
HETATM   36  S2  UNL     1      11.292  54.260  92.962  1.00  0.00     0.140 S 
HETATM   37  O3  UNL     1      11.445  54.697  94.404  1.00  0.00    -0.591 OA
HETATM   38  O4  UNL     1      11.272  52.755  92.985  1.00  0.00    -0.591 OA
HETATM   39  O5  UNL     1       9.872  54.901  92.398  1.00  0.00    -0.591 OA
ENDBRANCH  35  36
ENDBRANCH  28  30
ENDBRANCH  25  28
ENDBRANCH   5  25
TORSDOF 9
ENDMDL
MODEL 5
REMARK VINA RESULT: -7.790431428      3.144      8.820
REMARK  9 active torsions:
REMARK  status: ('A' for Active; 'I' for Inactive)
REMARK    1  A    between atoms: C2_2  and  C3_3 
REMARK    2  A    between atoms: C3_3  and  C4_4 
REMARK    3  A    between atoms: C5_7  and  N2_8 
REMARK    4  A    between atoms: N2_8  and  C6_10 
REMARK    5  A    between atoms: C10_14  and  S1_15 
REMARK    6  A    between atoms: S1_15  and  N3_18 
REMARK    7  A    between atoms: N3_18  and  C11_20 
REMARK    8  A    between atoms: C16_25  and  S2_26 
REMARK    9  A    between atoms: N4_37  and  O6_38 
ROOT
HETATM    1  C6  UNL     1      12.001  53.716  88.246  1.00  0.00     0.035 A 
HETATM    2  C7  UNL     1      10.730  53.679  88.872  1.00  0.00     0.029 A 
HETATM    3  C8  UNL     1      10.593  54.082  90.171  1.00  0.00     0.004 A 
HETATM    4  C9  UNL     1      11.661  54.534  90.912  1.00  0.00     0.025 A 
HETATM    5  C10 UNL     1      12.937  54.590  90.341  1.00  0.00     0.082 A 
HETATM    6  C17 UNL     1      13.051  54.188  89.062  1.00  0.00     0.054 A 
ENDROOT
BRANCH   1   7
HETATM    7  N2  UNL     1      12.155  53.334  86.976  1.00  0.00    -0.342 N 
ATOM      8  H2  UNL     1      11.920  54.199  86.489  1.00  0.00     0.167 HD
BRANCH   7   9
HETATM    9  C5  UNL     1      12.397  52.614  86.049  1.00  0.00     0.119 A 
HETATM   10  N1  UNL     1      11.544  51.552  85.752  1.00  0.00    -0.329 N 
HETATM   11  C4  UNL     1      11.716  50.705  84.761  1.00  0.00     0.111 A 
ATOM     12  H1  UNL     1      10.726  51.421  86.348  1.00  0.00     0.168 HD
HETATM   13  N4  UNL     1      12.782  50.861  83.970  1.00  0.00    -0.211 N 
HETATM   14  C23 UNL     1      13.658  51.872  84.196  1.00  0.00     0.078 A 
HETATM   15  C18 UNL     1      13.518  52.779  85.218  1.00  0.00     0.037 A 
HETATM   16  C22 UNL     1      14.764  52.008  83.349  1.00  0.00     0.033 A 
HETATM   17  C19 UNL     1      14.407  53.804  85.445  1.00  0.00     0.017 A 
HETATM   18  C20 UNL     1      15.503  53.910  84.579  1.00  0.00     0.001 A 
HETATM   19  C21 UNL     1      15.679  53.020  83.541  1.00  0.00     0.002 A 
BRANCH  11  20
HETATM   20  C3  UNL     1      10.738  49.577  84.510  1.00  0.00     0.079 C 
BRANCH  20  21
HETATM   21  C2  UNL     1       9.388  50.222  84.198  1.00  0.00     0.003 C 
HETATM   22  C1  UNL     1       9.374  50.836  82.832  1.00  0.00     0.005 C 
ENDBRANCH  20  21
ENDBRANCH  11  20
BRANCH  13  23
HETATM   23  O6  UNL     1      13.007  50.009  82.925  1.00  0.00    -0.281 OA
ATOM     24  H6  UNL     1      13.889  49.846  82.613  1.00  0.00     0.245 HD
ENDBRANCH  13  23
ENDBRANCH   7   9
ENDBRANCH   1   7
BRANCH   5  25
HETATM   25  S1  UNL     1      14.309  55.161  91.266  1.00  0.00     0.263 S 
HETATM   26  O1  UNL     1      14.024  56.597  91.631  1.00  0.00    -0.200 OA
HETATM   27  O2  UNL     1      15.544  55.218  90.380  1.00  0.00    -0.200 OA
BRANCH  25  28
HETATM   28  N3  UNL     1      14.617  54.286  92.685  1.00  0.00    -0.279 N 
ATOM     29  H3  UNL     1      15.418  53.655  92.677  1.00  0.00     0.179 HD
BRANCH  28  30
HETATM   30  C11 UNL     1      13.862  54.355  93.880  1.00  0.00     0.067 A 
HETATM   31  C12 UNL     1      13.612  55.523  94.555  1.00  0.00     0.032 A 
HETATM   32  C13 UNL     1      12.885  55.543  95.733  1.00  0.00     0.002 A 
HETATM   33  C14 UNL     1      12.411  54.368  96.229  1.00  0.00     0.002 A 
HETATM   34  C15 UNL     1      12.649  53.191  95.574  1.00  0.00     0.028 A 
HETATM   35  C16 UNL     1      13.363  53.160  94.412  1.00  0.00     0.107 A 
BRANCH  35  36
HETATM   36  S2  UNL     1      13.672  51.644  93.574  1.00  0.00     0.140 S 
HETATM   37  O3  UNL     1      13.061  50.515  94.378  1.00  0.00    -0.591 OA
HETATM   38  O4  UNL     1      15.153  51.378  93.547  1.00  0.00    -0.591 OA
HETATM   39  O5  UNL     1      12.996  51.599  92.062  1.00  0.00    -0.591 OA
ENDBRANCH  35  36
ENDBRANCH  28  30
ENDBRANCH  25  28
ENDBRANCH   5  25
TORSDOF 9
ENDMDL
