MODEL 1
REMARK VINA RESULT: -5.352707178      0.000      0.000
REMARK  12 active torsions:
REMARK  status: ('A' for Active; 'I' for Inactive)
REMARK    1  A    between atoms: N2_3  and  C2_5 
REMARK    2  A    between atoms: C3_6  and  O1_7 
REMARK    3  A    between atoms: C4_9  and  C5_10 
REMARK    4  A    between atoms: C5_10  and  O2_11 
REMARK    5  A    between atoms: C6_14  and  C7_15 
REMARK    6  A    between atoms: C7_15  and  N3_16 
REMARK    7  A    between atoms: C7_15  and  C8_20 
REMARK    8  A    between atoms: C8_20  and  O4_21 
REMARK    9  A    between atoms: C8_20  and  C9_23 
REMARK   10  A    between atoms: C8_20  and  C10_28 
REMARK   11  A    between atoms: C9_23  and  N4_24 
REMARK   12  A    between atoms: C10_28  and  N5_29 
ROOT
HETATM    1  C7  UNL     1      20.557  15.750   9.195  1.00  0.00     0.251 C 
ENDROOT
BRANCH   1   2
HETATM    2  C6  UNL     1      21.486  16.464  10.103  1.00  0.00     0.180 C 
HETATM    3  C2  UNL     1      20.895  17.810  10.471  1.00  0.00     0.144 C 
HETATM    4  C3  UNL     1      22.130  18.720  10.383  1.00  0.00     0.174 C 
HETATM    5  C4  UNL     1      23.221  17.674  10.492  1.00  0.00     0.176 C 
HETATM    6  O3  UNL     1      22.743  16.702   9.618  1.00  0.00    -0.371 OA
BRANCH   3   7
HETATM    7  N2  UNL     1      20.440  17.840  11.844  1.00  0.00    -0.378 N 
HETATM    8  C1  UNL     1      19.649  18.715  12.316  1.00  0.00     0.185 C 
HETATM    9  N1  UNL     1      19.143  19.758  11.493  1.00  0.00    -0.097 NA
ATOM     10  H2  UNL     1      20.775  17.111  12.473  1.00  0.00     0.160 HD
ENDBRANCH   3   7
BRANCH   4  11
HETATM   11  O1  UNL     1      22.141  19.291   9.121  1.00  0.00    -0.391 OA
ATOM     12  H1  UNL     1      22.717  18.769   8.575  1.00  0.00     0.210 HD
ENDBRANCH   4  11
BRANCH   5  13
HETATM   13  C5  UNL     1      24.571  18.199  10.117  1.00  0.00     0.198 C 
BRANCH  13  14
HETATM   14  O2  UNL     1      24.798  18.264   8.770  1.00  0.00    -0.398 OA
ATOM     15  H2  UNL     1      25.383  17.595   8.437  1.00  0.00     0.209 HD
ENDBRANCH  13  14
ENDBRANCH   5  13
ENDBRANCH   1   2
BRANCH   1  16
HETATM   16  N3  UNL     1      20.107  16.705   8.183  1.00  0.00    -0.070 N 
ATOM     17  H33 UNL     1      19.091  16.737   8.092  1.00  0.00     0.275 HD
ATOM     18  H32 UNL     1      20.247  17.676   8.463  1.00  0.00     0.275 HD
ATOM     19  H31 UNL     1      20.577  16.473   7.309  1.00  0.00     0.275 HD
ENDBRANCH   1  16
BRANCH   1  20
HETATM   20  C8  UNL     1      19.350  15.140   9.796  1.00  0.00     0.135 C 
BRANCH  20  21
HETATM   21  O4  UNL     1      18.498  16.220  10.151  1.00  0.00    -0.384 OA
ATOM     22  H4  UNL     1      17.669  15.830  10.401  1.00  0.00     0.210 HD
ENDBRANCH  20  21
BRANCH  20  23
HETATM   23  C9  UNL     1      19.585  14.349  11.042  1.00  0.00     0.271 C 
BRANCH  23  24
HETATM   24  N4  UNL     1      20.110  13.026  10.776  1.00  0.00    -0.076 N 
ATOM     25  H43 UNL     1      20.731  13.035   9.967  1.00  0.00     0.274 HD
ATOM     26  H42 UNL     1      20.778  12.747  11.494  1.00  0.00     0.274 HD
ATOM     27  H41 UNL     1      19.377  12.325  10.666  1.00  0.00     0.274 HD
ENDBRANCH  23  24
ENDBRANCH  20  23
BRANCH  20  28
HETATM   28  C10 UNL     1      18.507  14.335   8.818  1.00  0.00     0.271 C 
BRANCH  28  29
HETATM   29  N5  UNL     1      17.114  14.312   9.220  1.00  0.00    -0.076 N 
ATOM     30  H53 UNL     1      17.013  14.073  10.207  1.00  0.00     0.274 HD
ATOM     31  H52 UNL     1      16.715  15.250   9.244  1.00  0.00     0.274 HD
ATOM     32  H51 UNL     1      16.567  13.687   8.626  1.00  0.00     0.274 HD
ENDBRANCH  28  29
ENDBRANCH  20  28
ENDBRANCH   1  20
TORSDOF 12
ENDMDL
MODEL 2
REMARK VINA RESULT: -5.227841127      2.383      3.716
REMARK  12 active torsions:
REMARK  status: ('A' for Active; 'I' for Inactive)
REMARK    1  A    between atoms: N2_3  and  C2_5 
REMARK    2  A    between atoms: C3_6  and  O1_7 
REMARK    3  A    between atoms: C4_9  and  C5_10 
REMARK    4  A    between atoms: C5_10  and  O2_11 
REMARK    5  A    between atoms: C6_14  and  C7_15 
REMARK    6  A    between atoms: C7_15  and  N3_16 
REMARK    7  A    between atoms: C7_15  and  C8_20 
REMARK    8  A    between atoms: C8_20  and  O4_21 
REMARK    9  A    between atoms: C8_20  and  C9_23 
REMARK   10  A    between atoms: C8_20  and  C10_28 
REMARK   11  A    between atoms: C9_23  and  N4_24 
REMARK   12  A    between atoms: C10_28  and  N5_29 
ROOT
HETATM    1  C7  UNL     1      19.245  16.155  10.550  1.00  0.00     0.251 C 
ENDROOT
BRANCH   1   2
HETATM    2  C6  UNL     1      19.932  17.457  10.380  1.00  0.00     0.180 C 
HETATM    3  C2  UNL     1      21.367  17.334  10.850  1.00  0.00     0.144 C 
HETATM    4  C3  UNL     1      21.554  18.653  11.614  1.00  0.00     0.174 C 
HETATM    5  C4  UNL     1      20.417  19.456  11.012  1.00  0.00     0.176 C 
HETATM    6  O3  UNL     1      19.387  18.520  11.048  1.00  0.00    -0.371 OA
BRANCH   3   7
HETATM    7  N2  UNL     1      22.297  17.348   9.742  1.00  0.00    -0.378 N 
HETATM    8  C1  UNL     1      23.281  16.552   9.624  1.00  0.00     0.185 C 
HETATM    9  N1  UNL     1      23.537  15.561  10.612  1.00  0.00    -0.097 NA
ATOM     10  H2  UNL     1      22.154  18.040   9.007  1.00  0.00     0.160 HD
ENDBRANCH   3   7
BRANCH   4  11
HETATM   11  O1  UNL     1      21.302  18.401  12.953  1.00  0.00    -0.391 OA
ATOM     12  H1  UNL     1      22.006  18.792  13.457  1.00  0.00     0.210 HD
ENDBRANCH   4  11
BRANCH   5  13
HETATM   13  C5  UNL     1      20.115  20.703  11.780  1.00  0.00     0.198 C 
BRANCH  13  14
HETATM   14  O2  UNL     1      19.244  20.531  12.820  1.00  0.00    -0.398 OA
ATOM     15  H2  UNL     1      19.657  20.461  13.672  1.00  0.00     0.209 HD
ENDBRANCH  13  14
ENDBRANCH   5  13
ENDBRANCH   1   2
BRANCH   1  16
HETATM   16  N3  UNL     1      19.692  15.580  11.818  1.00  0.00    -0.070 N 
ATOM     17  H33 UNL     1      20.397  14.853  11.697  1.00  0.00     0.275 HD
ATOM     18  H32 UNL     1      20.258  16.226  12.369  1.00  0.00     0.275 HD
ATOM     19  H31 UNL     1      18.866  15.253  12.317  1.00  0.00     0.275 HD
ENDBRANCH   1  16
BRANCH   1  20
HETATM   20  C8  UNL     1      19.454  15.132   9.502  1.00  0.00     0.135 C 
BRANCH  20  21
HETATM   21  O4  UNL     1      20.012  15.817   8.389  1.00  0.00    -0.384 OA
ATOM     22  H4  UNL     1      19.893  15.244   7.640  1.00  0.00     0.210 HD
ENDBRANCH  20  21
BRANCH  20  23
HETATM   23  C9  UNL     1      18.216  14.453   9.013  1.00  0.00     0.271 C 
BRANCH  23  24
HETATM   24  N4  UNL     1      17.056  14.744   9.830  1.00  0.00    -0.076 N 
ATOM     25  H43 UNL     1      17.322  15.253  10.673  1.00  0.00     0.274 HD
ATOM     26  H42 UNL     1      16.467  15.450   9.389  1.00  0.00     0.274 HD
ATOM     27  H41 UNL     1      16.517  13.911  10.062  1.00  0.00     0.274 HD
ENDBRANCH  23  24
ENDBRANCH  20  23
BRANCH  20  28
HETATM   28  C10 UNL     1      20.516  14.098   9.845  1.00  0.00     0.271 C 
BRANCH  28  29
HETATM   29  N5  UNL     1      20.215  12.814   9.241  1.00  0.00    -0.076 N 
ATOM     30  H53 UNL     1      19.917  12.133   9.940  1.00  0.00     0.274 HD
ATOM     31  H52 UNL     1      19.361  12.853   8.685  1.00  0.00     0.274 HD
ATOM     32  H51 UNL     1      21.004  12.468   8.693  1.00  0.00     0.274 HD
ENDBRANCH  28  29
ENDBRANCH  20  28
ENDBRANCH   1  20
TORSDOF 12
ENDMDL
MODEL 3
REMARK VINA RESULT: -4.992393384      2.578      4.620
REMARK  12 active torsions:
REMARK  status: ('A' for Active; 'I' for Inactive)
REMARK    1  A    between atoms: N2_3  and  C2_5 
REMARK    2  A    between atoms: C3_6  and  O1_7 
REMARK    3  A    between atoms: C4_9  and  C5_10 
REMARK    4  A    between atoms: C5_10  and  O2_11 
REMARK    5  A    between atoms: C6_14  and  C7_15 
REMARK    6  A    between atoms: C7_15  and  N3_16 
REMARK    7  A    between atoms: C7_15  and  C8_20 
REMARK    8  A    between atoms: C8_20  and  O4_21 
REMARK    9  A    between atoms: C8_20  and  C9_23 
REMARK   10  A    between atoms: C8_20  and  C10_28 
REMARK   11  A    between atoms: C9_23  and  N4_24 
REMARK   12  A    between atoms: C10_28  and  N5_29 
ROOT
HETATM    1  C7  UNL     1      21.725  18.385   9.544  1.00  0.00     0.251 C 
ENDROOT
BRANCH   1   2
HETATM    2  C6  UNL     1      21.334  18.694  10.940  1.00  0.00     0.180 C 
HETATM    3  C2  UNL     1      19.967  18.105  11.223  1.00  0.00     0.144 C 
HETATM    4  C3  UNL     1      19.302  19.241  12.015  1.00  0.00     0.174 C 
HETATM    5  C4  UNL     1      20.539  19.998  12.455  1.00  0.00     0.176 C 
HETATM    6  O3  UNL     1      21.270  20.021  11.270  1.00  0.00    -0.371 OA
BRANCH   3   7
HETATM    7  N2  UNL     1      20.048  16.961  12.104  1.00  0.00    -0.378 N 
HETATM    8  C1  UNL     1      19.780  15.769  11.754  1.00  0.00     0.185 C 
HETATM    9  N1  UNL     1      19.370  15.476  10.425  1.00  0.00    -0.097 NA
ATOM     10  H2  UNL     1      20.339  17.121  13.069  1.00  0.00     0.160 HD
ENDBRANCH   3   7
BRANCH   4  11
HETATM   11  O1  UNL     1      18.570  20.003  11.119  1.00  0.00    -0.391 OA
ATOM     12  H1  UNL     1      17.653  19.790  11.243  1.00  0.00     0.210 HD
ENDBRANCH   4  11
BRANCH   5  13
HETATM   13  C5  UNL     1      20.228  21.361  12.988  1.00  0.00     0.198 C 
BRANCH  13  14
HETATM   14  O2  UNL     1      19.009  21.466  13.599  1.00  0.00    -0.398 OA
ATOM     15  H2  UNL     1      18.992  21.163  14.499  1.00  0.00     0.209 HD
ENDBRANCH  13  14
ENDBRANCH   5  13
ENDBRANCH   1   2
BRANCH   1  16
HETATM   16  N3  UNL     1      20.569  17.779   8.885  1.00  0.00    -0.070 N 
ATOM     17  H33 UNL     1      20.830  17.093   8.178  1.00  0.00     0.275 HD
ATOM     18  H32 UNL     1      20.048  17.150   9.497  1.00  0.00     0.275 HD
ATOM     19  H31 UNL     1      19.994  18.534   8.512  1.00  0.00     0.275 HD
ENDBRANCH   1  16
BRANCH   1  20
HETATM   20  C8  UNL     1      22.875  17.477   9.344  1.00  0.00     0.135 C 
BRANCH  20  21
HETATM   21  O4  UNL     1      22.585  16.726   8.172  1.00  0.00    -0.384 OA
ATOM     22  H4  UNL     1      23.294  16.101   8.077  1.00  0.00     0.210 HD
ENDBRANCH  20  21
BRANCH  20  23
HETATM   23  C9  UNL     1      23.110  16.489  10.440  1.00  0.00     0.271 C 
BRANCH  23  24
HETATM   24  N4  UNL     1      22.665  15.154  10.097  1.00  0.00    -0.076 N 
ATOM     25  H43 UNL     1      22.316  14.663  10.920  1.00  0.00     0.274 HD
ATOM     26  H42 UNL     1      21.806  15.185   9.548  1.00  0.00     0.274 HD
ATOM     27  H41 UNL     1      23.383  14.608   9.623  1.00  0.00     0.274 HD
ENDBRANCH  23  24
ENDBRANCH  20  23
BRANCH  20  28
HETATM   28  C10 UNL     1      24.175  18.185   8.992  1.00  0.00     0.271 C 
BRANCH  28  29
HETATM   29  N5  UNL     1      25.211  17.898   9.965  1.00  0.00    -0.076 N 
ATOM     30  H53 UNL     1      25.334  18.670  10.620  1.00  0.00     0.274 HD
ATOM     31  H52 UNL     1      24.915  17.179  10.625  1.00  0.00     0.274 HD
ATOM     32  H51 UNL     1      26.089  17.650   9.509  1.00  0.00     0.274 HD
ENDBRANCH  28  29
ENDBRANCH  20  28
ENDBRANCH   1  20
TORSDOF 12
ENDMDL
MODEL 4
REMARK VINA RESULT: -4.935842537      2.150      4.997
REMARK  12 active torsions:
REMARK  status: ('A' for Active; 'I' for Inactive)
REMARK    1  A    between atoms: N2_3  and  C2_5 
REMARK    2  A    between atoms: C3_6  and  O1_7 
REMARK    3  A    between atoms: C4_9  and  C5_10 
REMARK    4  A    between atoms: C5_10  and  O2_11 
REMARK    5  A    between atoms: C6_14  and  C7_15 
REMARK    6  A    between atoms: C7_15  and  N3_16 
REMARK    7  A    between atoms: C7_15  and  C8_20 
REMARK    8  A    between atoms: C8_20  and  O4_21 
REMARK    9  A    between atoms: C8_20  and  C9_23 
REMARK   10  A    between atoms: C8_20  and  C10_28 
REMARK   11  A    between atoms: C9_23  and  N4_24 
REMARK   12  A    between atoms: C10_28  and  N5_29 
ROOT
HETATM    1  C7  UNL     1      22.097  16.199   9.542  1.00  0.00     0.251 C 
ENDROOT
BRANCH   1   2
HETATM    2  C6  UNL     1      20.620  16.114   9.453  1.00  0.00     0.180 C 
HETATM    3  C2  UNL     1      20.034  16.067  10.849  1.00  0.00     0.144 C 
HETATM    4  C3  UNL     1      18.943  14.998  10.687  1.00  0.00     0.174 C 
HETATM    5  C4  UNL     1      18.784  15.028   9.179  1.00  0.00     0.176 C 
HETATM    6  O3  UNL     1      20.116  15.038   8.774  1.00  0.00    -0.371 OA
BRANCH   3   7
HETATM    7  N2  UNL     1      19.370  17.306  11.194  1.00  0.00    -0.378 N 
HETATM    8  C1  UNL     1      19.833  18.161  12.012  1.00  0.00     0.185 C 
HETATM    9  N1  UNL     1      21.079  17.946  12.661  1.00  0.00    -0.097 NA
ATOM     10  H2  UNL     1      18.472  17.505  10.752  1.00  0.00     0.160 HD
ENDBRANCH   3   7
BRANCH   4  11
HETATM   11  O1  UNL     1      19.481  13.786  11.085  1.00  0.00    -0.391 OA
ATOM     12  H1  UNL     1      18.854  13.106  10.867  1.00  0.00     0.210 HD
ENDBRANCH   4  11
BRANCH   5  13
HETATM   13  C5  UNL     1      18.012  13.860   8.652  1.00  0.00     0.198 C 
BRANCH  13  14
HETATM   14  O2  UNL     1      18.785  12.819   8.218  1.00  0.00    -0.398 OA
ATOM     15  H2  UNL     1      19.035  12.869   7.304  1.00  0.00     0.209 HD
ENDBRANCH  13  14
ENDBRANCH   5  13
ENDBRANCH   1   2
BRANCH   1  16
HETATM   16  N3  UNL     1      22.488  15.737  10.873  1.00  0.00    -0.070 N 
ATOM     17  H33 UNL     1      22.277  16.415  11.606  1.00  0.00     0.275 HD
ATOM     18  H32 UNL     1      21.899  14.979  11.218  1.00  0.00     0.275 HD
ATOM     19  H31 UNL     1      23.475  15.487  10.836  1.00  0.00     0.275 HD
ENDBRANCH   1  16
BRANCH   1  20
HETATM   20  C8  UNL     1      22.718  17.526   9.334  1.00  0.00     0.135 C 
BRANCH  20  21
HETATM   21  O4  UNL     1      23.375  17.462   8.076  1.00  0.00    -0.384 OA
ATOM     22  H4  UNL     1      24.282  17.690   8.240  1.00  0.00     0.210 HD
ENDBRANCH  20  21
BRANCH  20  23
HETATM   23  C9  UNL     1      23.752  17.914  10.341  1.00  0.00     0.271 C 
BRANCH  23  24
HETATM   24  N4  UNL     1      25.089  17.947   9.786  1.00  0.00    -0.076 N 
ATOM     25  H43 UNL     1      25.585  18.790  10.076  1.00  0.00     0.274 HD
ATOM     26  H42 UNL     1      25.685  17.246  10.227  1.00  0.00     0.274 HD
ATOM     27  H41 UNL     1      25.099  17.849   8.772  1.00  0.00     0.274 HD
ENDBRANCH  23  24
ENDBRANCH  20  23
BRANCH  20  28
HETATM   28  C10 UNL     1      21.718  18.659   9.150  1.00  0.00     0.271 C 
BRANCH  28  29
HETATM   29  N5  UNL     1      21.800  19.616  10.237  1.00  0.00    -0.076 N 
ATOM     30  H53 UNL     1      22.727  19.619  10.663  1.00  0.00     0.274 HD
ATOM     31  H52 UNL     1      21.781  20.575   9.893  1.00  0.00     0.274 HD
ATOM     32  H51 UNL     1      21.069  19.451  10.930  1.00  0.00     0.274 HD
ENDBRANCH  28  29
ENDBRANCH  20  28
ENDBRANCH   1  20
TORSDOF 12
ENDMDL
MODEL 5
REMARK VINA RESULT: -4.933799303      0.983      1.538
REMARK  12 active torsions:
REMARK  status: ('A' for Active; 'I' for Inactive)
REMARK    1  A    between atoms: N2_3  and  C2_5 
REMARK    2  A    between atoms: C3_6  and  O1_7 
REMARK    3  A    between atoms: C4_9  and  C5_10 
REMARK    4  A    between atoms: C5_10  and  O2_11 
REMARK    5  A    between atoms: C6_14  and  C7_15 
REMARK    6  A    between atoms: C7_15  and  N3_16 
REMARK    7  A    between atoms: C7_15  and  C8_20 
REMARK    8  A    between atoms: C8_20  and  O4_21 
REMARK    9  A    between atoms: C8_20  and  C9_23 
REMARK   10  A    between atoms: C8_20  and  C10_28 
REMARK   11  A    between atoms: C9_23  and  N4_24 
REMARK   12  A    between atoms: C10_28  and  N5_29 
ROOT
HETATM    1  C7  UNL     1      20.431  15.922   8.807  1.00  0.00     0.251 C 
ENDROOT
BRANCH   1   2
HETATM    2  C6  UNL     1      21.386  16.442   9.814  1.00  0.00     0.180 C 
HETATM    3  C2  UNL     1      20.890  17.774  10.339  1.00  0.00     0.144 C 
HETATM    4  C3  UNL     1      22.191  18.588  10.388  1.00  0.00     0.174 C 
HETATM    5  C4  UNL     1      23.198  17.454  10.382  1.00  0.00     0.176 C 
HETATM    6  O3  UNL     1      22.670  16.639   9.384  1.00  0.00    -0.371 OA
BRANCH   3   7
HETATM    7  N2  UNL     1      20.401  17.667  11.696  1.00  0.00    -0.378 N 
HETATM    8  C1  UNL     1      19.622  18.509  12.244  1.00  0.00     0.185 C 
HETATM    9  N1  UNL     1      19.164  19.649  11.528  1.00  0.00    -0.097 NA
ATOM     10  H2  UNL     1      20.702  16.865  12.250  1.00  0.00     0.160 HD
ENDBRANCH   3   7
BRANCH   4  11
HETATM   11  O1  UNL     1      22.279  19.309   9.208  1.00  0.00    -0.391 OA
ATOM     12  H1  UNL     1      22.949  19.973   9.326  1.00  0.00     0.210 HD
ENDBRANCH   4  11
BRANCH   5  13
HETATM   13  C5  UNL     1      24.592  17.915  10.099  1.00  0.00     0.198 C 
BRANCH  13  14
HETATM   14  O2  UNL     1      24.958  19.053  10.763  1.00  0.00    -0.398 OA
ATOM     15  H2  UNL     1      25.595  19.589  10.305  1.00  0.00     0.209 HD
ENDBRANCH  13  14
ENDBRANCH   5  13
ENDBRANCH   1   2
BRANCH   1  16
HETATM   16  N3  UNL     1      19.679  17.061   8.281  1.00  0.00    -0.070 N 
ATOM     17  H33 UNL     1      19.675  17.860   8.915  1.00  0.00     0.275 HD
ATOM     18  H32 UNL     1      20.144  17.515   7.495  1.00  0.00     0.275 HD
ATOM     19  H31 UNL     1      18.742  16.732   8.052  1.00  0.00     0.275 HD
ENDBRANCH   1  16
BRANCH   1  20
HETATM   20  C8  UNL     1      19.448  14.913   9.258  1.00  0.00     0.135 C 
BRANCH  20  21
HETATM   21  O4  UNL     1      18.751  14.493   8.093  1.00  0.00    -0.384 OA
ATOM     22  H4  UNL     1      17.960  14.065   8.398  1.00  0.00     0.210 HD
ENDBRANCH  20  21
BRANCH  20  23
HETATM   23  C9  UNL     1      18.418  15.406  10.221  1.00  0.00     0.271 C 
BRANCH  23  24
HETATM   24  N4  UNL     1      17.082  14.955   9.894  1.00  0.00    -0.076 N 
ATOM     25  H43 UNL     1      16.548  15.693   9.435  1.00  0.00     0.274 HD
ATOM     26  H42 UNL     1      17.102  14.270   9.138  1.00  0.00     0.274 HD
ATOM     27  H41 UNL     1      16.579  14.590  10.703  1.00  0.00     0.274 HD
ENDBRANCH  23  24
ENDBRANCH  20  23
BRANCH  20  28
HETATM   28  C10 UNL     1      20.071  13.624   9.775  1.00  0.00     0.271 C 
BRANCH  28  29
HETATM   29  N5  UNL     1      19.647  13.343  11.133  1.00  0.00    -0.076 N 
ATOM     30  H53 UNL     1      20.412  12.966  11.693  1.00  0.00     0.274 HD
ATOM     31  H52 UNL     1      19.476  14.201  11.657  1.00  0.00     0.274 HD
ATOM     32  H51 UNL     1      18.834  12.726  11.147  1.00  0.00     0.274 HD
ENDBRANCH  28  29
ENDBRANCH  20  28
ENDBRANCH   1  20
TORSDOF 12
ENDMDL
