MODEL 1
REMARK VINA RESULT: -6.311665177      0.000      0.000
REMARK  13 active torsions:
REMARK  status: ('A' for Active; 'I' for Inactive)
REMARK    1  A    between atoms: N1_1  and  N2_4 
REMARK    2  A    between atoms: C1_6  and  C2_7 
REMARK    3  A    between atoms: C1_6  and  N5_12 
REMARK    4  A    between atoms: C2_7  and  N3_8 
REMARK    5  A    between atoms: N3_8  and  N4_9 
REMARK    6  A    between atoms: N5_12  and  C3_14 
REMARK    7  A    between atoms: C3_14  and  C4_15 
REMARK    8  A    between atoms: C6_18  and  C7_19 
REMARK    9  A    between atoms: C7_19  and  N6_20 
REMARK   10  A    between atoms: C7_19  and  C8_24 
REMARK   11  A    between atoms: C7_19  and  C9_27 
REMARK   12  A    between atoms: C8_24  and  O2_25 
REMARK   13  A    between atoms: C9_27  and  O3_28 
ROOT
HETATM    1  C4  UNL     1      20.479  19.930  10.738  1.00  0.00     0.277 C 
HETATM    2  O1  UNL     1      21.856  19.723  10.734  1.00  0.00    -0.357 OA
HETATM    3  C5  UNL     1      21.973  18.390  11.097  1.00  0.00     0.205 C 
HETATM    4  C6  UNL     1      20.684  17.719  10.787  1.00  0.00     0.188 C 
HETATM    5  O4  UNL     1      19.936  18.761  10.242  1.00  0.00    -0.350 OA
ENDROOT
BRANCH   1   6
HETATM    6  C3  UNL     1      20.055  20.202  12.165  1.00  0.00     0.181 C 
BRANCH   6   7
HETATM    7  N5  UNL     1      20.050  21.612  12.440  1.00  0.00    -0.373 N 
ATOM      8  H5  UNL     1      20.184  22.290  11.690  1.00  0.00     0.161 HD
BRANCH   7   9
HETATM    9  C1  UNL     1      19.848  22.051  13.813  1.00  0.00     0.107 C 
HETATM   10  N2  UNL     1      18.723  22.517  14.110  1.00  0.00    -0.295 N 
ATOM     11  H2  UNL     1      18.066  22.561  13.331  1.00  0.00     0.187 HD
BRANCH  10  12
HETATM   12  N1  UNL     1      18.220  22.980  15.300  1.00  0.00    -0.344 N 
ATOM     13  H12 UNL     1      17.953  22.232  15.939  1.00  0.00     0.176 HD
ATOM     14  H11 UNL     1      18.073  23.929  15.646  1.00  0.00     0.176 HD
ENDBRANCH  10  12
BRANCH   9  15
HETATM   15  C2  UNL     1      20.938  21.905  14.793  1.00  0.00     0.211 C 
BRANCH  15  16
HETATM   16  N3  UNL     1      21.120  23.119  15.530  1.00  0.00    -0.141 NA
BRANCH  16  17
HETATM   17  N4  UNL     1      22.282  23.042  16.350  1.00  0.00    -0.348 N 
ATOM     18  H42 UNL     1      23.140  22.562  16.075  1.00  0.00     0.172 HD
ATOM     19  H41 UNL     1      22.134  23.526  17.235  1.00  0.00     0.172 HD
ENDBRANCH  16  17
ENDBRANCH  15  16
ENDBRANCH   9  15
ENDBRANCH   7   9
ENDBRANCH   6   7
ENDBRANCH   1   6
BRANCH   4  20
HETATM   20  C7  UNL     1      20.755  16.580   9.829  1.00  0.00     0.193 C 
BRANCH  20  21
HETATM   21  N6  UNL     1      20.594  17.160   8.482  1.00  0.00    -0.064 N 
ATOM     22  H63 UNL     1      20.332  16.474   7.775  1.00  0.00     0.275 HD
ATOM     23  H62 UNL     1      19.769  17.754   8.393  1.00  0.00     0.275 HD
ATOM     24  H61 UNL     1      21.466  17.645   8.272  1.00  0.00     0.275 HD
ENDBRANCH  20  21
BRANCH  20  25
HETATM   25  C8  UNL     1      22.120  15.921   9.841  1.00  0.00     0.207 C 
BRANCH  25  26
HETATM   26  O2  UNL     1      22.210  14.912   8.885  1.00  0.00    -0.398 OA
ATOM     27  H2  UNL     1      22.119  14.051   9.277  1.00  0.00     0.209 HD
ENDBRANCH  25  26
ENDBRANCH  20  25
BRANCH  20  28
HETATM   28  C9  UNL     1      19.655  15.587   9.983  1.00  0.00     0.207 C 
BRANCH  28  29
HETATM   29  O3  UNL     1      19.190  15.012   8.833  1.00  0.00    -0.398 OA
ATOM     30  H3  UNL     1      19.465  14.117   8.669  1.00  0.00     0.209 HD
ENDBRANCH  28  29
ENDBRANCH  20  28
ENDBRANCH   4  20
TORSDOF 13
ENDMDL
MODEL 2
REMARK VINA RESULT: -6.249741219      1.078      1.601
REMARK  13 active torsions:
REMARK  status: ('A' for Active; 'I' for Inactive)
REMARK    1  A    between atoms: N1_1  and  N2_4 
REMARK    2  A    between atoms: C1_6  and  C2_7 
REMARK    3  A    between atoms: C1_6  and  N5_12 
REMARK    4  A    between atoms: C2_7  and  N3_8 
REMARK    5  A    between atoms: N3_8  and  N4_9 
REMARK    6  A    between atoms: N5_12  and  C3_14 
REMARK    7  A    between atoms: C3_14  and  C4_15 
REMARK    8  A    between atoms: C6_18  and  C7_19 
REMARK    9  A    between atoms: C7_19  and  N6_20 
REMARK   10  A    between atoms: C7_19  and  C8_24 
REMARK   11  A    between atoms: C7_19  and  C9_27 
REMARK   12  A    between atoms: C8_24  and  O2_25 
REMARK   13  A    between atoms: C9_27  and  O3_28 
ROOT
HETATM    1  C4  UNL     1      19.656  19.737  11.364  1.00  0.00     0.277 C 
HETATM    2  O1  UNL     1      20.128  20.051  10.093  1.00  0.00    -0.357 OA
HETATM    3  C5  UNL     1      21.230  19.221   9.954  1.00  0.00     0.205 C 
HETATM    4  C6  UNL     1      21.067  18.086  10.897  1.00  0.00     0.188 C 
HETATM    5  O4  UNL     1      19.839  18.373  11.491  1.00  0.00    -0.350 OA
ENDROOT
BRANCH   1   6
HETATM    6  C3  UNL     1      20.470  20.523  12.368  1.00  0.00     0.181 C 
BRANCH   6   7
HETATM    7  N5  UNL     1      19.847  21.783  12.662  1.00  0.00    -0.373 N 
ATOM      8  H5  UNL     1      19.521  22.392  11.911  1.00  0.00     0.161 HD
BRANCH   7   9
HETATM    9  C1  UNL     1      19.689  22.172  14.056  1.00  0.00     0.107 C 
HETATM   10  N2  UNL     1      18.574  22.624  14.407  1.00  0.00    -0.295 N 
ATOM     11  H2  UNL     1      17.892  22.693  13.652  1.00  0.00     0.187 HD
BRANCH  10  12
HETATM   12  N1  UNL     1      18.110  23.042  15.628  1.00  0.00    -0.344 N 
ATOM     13  H12 UNL     1      18.843  23.103  16.335  1.00  0.00     0.176 HD
ATOM     14  H11 UNL     1      17.173  23.298  15.941  1.00  0.00     0.176 HD
ENDBRANCH  10  12
BRANCH   9  15
HETATM   15  C2  UNL     1      20.812  21.996  14.993  1.00  0.00     0.211 C 
BRANCH  15  16
HETATM   16  N3  UNL     1      21.187  23.250  15.573  1.00  0.00    -0.141 NA
BRANCH  16  17
HETATM   17  N4  UNL     1      22.341  23.100  16.396  1.00  0.00    -0.348 N 
ATOM     18  H42 UNL     1      22.341  22.608  17.290  1.00  0.00     0.172 HD
ATOM     19  H41 UNL     1      23.151  23.548  15.967  1.00  0.00     0.172 HD
ENDBRANCH  16  17
ENDBRANCH  15  16
ENDBRANCH   9  15
ENDBRANCH   7   9
ENDBRANCH   6   7
ENDBRANCH   1   6
BRANCH   4  20
HETATM   20  C7  UNL     1      21.037  16.728  10.285  1.00  0.00     0.193 C 
BRANCH  20  21
HETATM   21  N6  UNL     1      20.040  15.951  11.046  1.00  0.00    -0.064 N 
ATOM     22  H63 UNL     1      20.389  15.050  11.368  1.00  0.00     0.275 HD
ATOM     23  H62 UNL     1      19.836  16.344  11.965  1.00  0.00     0.275 HD
ATOM     24  H61 UNL     1      19.217  15.876  10.447  1.00  0.00     0.275 HD
ENDBRANCH  20  21
BRANCH  20  25
HETATM   25  C8  UNL     1      20.536  16.767   8.856  1.00  0.00     0.207 C 
BRANCH  25  26
HETATM   26  O2  UNL     1      19.804  15.626   8.538  1.00  0.00    -0.398 OA
ATOM     27  H2  UNL     1      19.031  15.837   8.027  1.00  0.00     0.209 HD
ENDBRANCH  25  26
ENDBRANCH  20  25
BRANCH  20  28
HETATM   28  C9  UNL     1      22.320  15.979  10.407  1.00  0.00     0.207 C 
BRANCH  28  29
HETATM   29  O3  UNL     1      22.594  15.079   9.414  1.00  0.00    -0.398 OA
ATOM     30  H3  UNL     1      22.747  14.183   9.689  1.00  0.00     0.209 HD
ENDBRANCH  28  29
ENDBRANCH  20  28
ENDBRANCH   4  20
TORSDOF 13
ENDMDL
MODEL 3
REMARK VINA RESULT: -6.080955094      4.241      5.515
REMARK  13 active torsions:
REMARK  status: ('A' for Active; 'I' for Inactive)
REMARK    1  A    between atoms: N1_1  and  N2_4 
REMARK    2  A    between atoms: C1_6  and  C2_7 
REMARK    3  A    between atoms: C1_6  and  N5_12 
REMARK    4  A    between atoms: C2_7  and  N3_8 
REMARK    5  A    between atoms: N3_8  and  N4_9 
REMARK    6  A    between atoms: N5_12  and  C3_14 
REMARK    7  A    between atoms: C3_14  and  C4_15 
REMARK    8  A    between atoms: C6_18  and  C7_19 
REMARK    9  A    between atoms: C7_19  and  N6_20 
REMARK   10  A    between atoms: C7_19  and  C8_24 
REMARK   11  A    between atoms: C7_19  and  C9_27 
REMARK   12  A    between atoms: C8_24  and  O2_25 
REMARK   13  A    between atoms: C9_27  and  O3_28 
ROOT
HETATM    1  C4  UNL     1      20.089  18.024  10.179  1.00  0.00     0.277 C 
HETATM    2  O1  UNL     1      20.457  17.674   8.883  1.00  0.00    -0.357 OA
HETATM    3  C5  UNL     1      20.698  16.312   8.983  1.00  0.00     0.205 C 
HETATM    4  C6  UNL     1      19.966  15.806  10.172  1.00  0.00     0.188 C 
HETATM    5  O4  UNL     1      19.340  16.959  10.642  1.00  0.00    -0.350 OA
ENDROOT
BRANCH   1   6
HETATM    6  C3  UNL     1      21.355  18.230  10.981  1.00  0.00     0.181 C 
BRANCH   6   7
HETATM    7  N5  UNL     1      22.436  18.654  10.135  1.00  0.00    -0.373 N 
ATOM      8  H5  UNL     1      22.381  19.531   9.618  1.00  0.00     0.161 HD
BRANCH   7   9
HETATM    9  C1  UNL     1      23.613  17.803  10.034  1.00  0.00     0.107 C 
HETATM   10  N2  UNL     1      23.485  16.600  10.358  1.00  0.00    -0.295 N 
ATOM     11  H2  UNL     1      22.553  16.349  10.688  1.00  0.00     0.187 HD
BRANCH  10  12
HETATM   12  N1  UNL     1      24.379  15.558  10.347  1.00  0.00    -0.344 N 
ATOM     13  H12 UNL     1      24.406  15.046  11.229  1.00  0.00     0.176 HD
ATOM     14  H11 UNL     1      25.008  15.218   9.619  1.00  0.00     0.176 HD
ENDBRANCH  10  12
BRANCH   9  15
HETATM   15  C2  UNL     1      24.879  18.368   9.535  1.00  0.00     0.211 C 
BRANCH  15  16
HETATM   16  N3  UNL     1      25.634  18.942  10.609  1.00  0.00    -0.141 NA
BRANCH  16  17
HETATM   17  N4  UNL     1      27.006  18.569  10.516  1.00  0.00    -0.348 N 
ATOM     18  H42 UNL     1      27.594  18.765   9.705  1.00  0.00     0.172 HD
ATOM     19  H41 UNL     1      27.308  18.087  11.362  1.00  0.00     0.172 HD
ENDBRANCH  16  17
ENDBRANCH  15  16
ENDBRANCH   9  15
ENDBRANCH   7   9
ENDBRANCH   6   7
ENDBRANCH   1   6
BRANCH   4  20
HETATM   20  C7  UNL     1      18.956  14.742   9.913  1.00  0.00     0.193 C 
BRANCH  20  21
HETATM   21  N6  UNL     1      19.350  13.586  10.740  1.00  0.00    -0.064 N 
ATOM     22  H63 UNL     1      19.723  12.808  10.196  1.00  0.00     0.275 HD
ATOM     23  H62 UNL     1      20.182  13.756  11.304  1.00  0.00     0.275 HD
ATOM     24  H61 UNL     1      18.530  13.336  11.293  1.00  0.00     0.275 HD
ENDBRANCH  20  21
BRANCH  20  25
HETATM   25  C8  UNL     1      17.577  15.149  10.392  1.00  0.00     0.207 C 
BRANCH  25  26
HETATM   26  O2  UNL     1      16.590  14.791   9.475  1.00  0.00    -0.398 OA
ATOM     27  H2  UNL     1      16.350  13.876   9.559  1.00  0.00     0.209 HD
ENDBRANCH  25  26
ENDBRANCH  20  25
BRANCH  20  28
HETATM   28  C9  UNL     1      18.936  14.253   8.505  1.00  0.00     0.207 C 
BRANCH  28  29
HETATM   29  O3  UNL     1      18.551  12.954   8.319  1.00  0.00    -0.398 OA
ATOM     30  H3  UNL     1      18.533  12.645   7.421  1.00  0.00     0.209 HD
ENDBRANCH  28  29
ENDBRANCH  20  28
ENDBRANCH   4  20
TORSDOF 13
ENDMDL
MODEL 4
REMARK VINA RESULT: -5.753668503      1.542      1.723
REMARK  13 active torsions:
REMARK  status: ('A' for Active; 'I' for Inactive)
REMARK    1  A    between atoms: N1_1  and  N2_4 
REMARK    2  A    between atoms: C1_6  and  C2_7 
REMARK    3  A    between atoms: C1_6  and  N5_12 
REMARK    4  A    between atoms: C2_7  and  N3_8 
REMARK    5  A    between atoms: N3_8  and  N4_9 
REMARK    6  A    between atoms: N5_12  and  C3_14 
REMARK    7  A    between atoms: C3_14  and  C4_15 
REMARK    8  A    between atoms: C6_18  and  C7_19 
REMARK    9  A    between atoms: C7_19  and  N6_20 
REMARK   10  A    between atoms: C7_19  and  C8_24 
REMARK   11  A    between atoms: C7_19  and  C9_27 
REMARK   12  A    between atoms: C8_24  and  O2_25 
REMARK   13  A    between atoms: C9_27  and  O3_28 
ROOT
HETATM    1  C4  UNL     1      20.250  19.494  11.850  1.00  0.00     0.277 C 
HETATM    2  O1  UNL     1      19.581  19.526  10.630  1.00  0.00    -0.357 OA
HETATM    3  C5  UNL     1      20.606  19.394   9.707  1.00  0.00     0.205 C 
HETATM    4  C6  UNL     1      21.761  18.763  10.395  1.00  0.00     0.188 C 
HETATM    5  O4  UNL     1      21.264  18.570  11.682  1.00  0.00    -0.350 OA
ENDROOT
BRANCH   1   6
HETATM    6  C3  UNL     1      20.779  20.885  12.125  1.00  0.00     0.181 C 
BRANCH   6   7
HETATM    7  N5  UNL     1      19.721  21.766  12.534  1.00  0.00    -0.373 N 
ATOM      8  H5  UNL     1      19.042  22.115  11.857  1.00  0.00     0.161 HD
BRANCH   7   9
HETATM    9  C1  UNL     1      19.640  22.150  13.935  1.00  0.00     0.107 C 
HETATM   10  N2  UNL     1      18.547  22.605  14.346  1.00  0.00    -0.295 N 
ATOM     11  H2  UNL     1      17.826  22.681  13.629  1.00  0.00     0.187 HD
BRANCH  10  12
HETATM   12  N1  UNL     1      18.150  23.021  15.592  1.00  0.00    -0.344 N 
ATOM     13  H12 UNL     1      18.756  22.681  16.339  1.00  0.00     0.176 HD
ATOM     14  H11 UNL     1      17.365  23.601  15.891  1.00  0.00     0.176 HD
ENDBRANCH  10  12
BRANCH   9  15
HETATM   15  C2  UNL     1      20.809  21.964  14.811  1.00  0.00     0.211 C 
BRANCH  15  16
HETATM   16  N3  UNL     1      21.098  23.168  15.530  1.00  0.00    -0.141 NA
BRANCH  16  17
HETATM   17  N4  UNL     1      22.242  22.997  16.362  1.00  0.00    -0.348 N 
ATOM     18  H42 UNL     1      22.846  22.175  16.335  1.00  0.00     0.172 HD
ATOM     19  H41 UNL     1      22.365  23.801  16.977  1.00  0.00     0.172 HD
ENDBRANCH  16  17
ENDBRANCH  15  16
ENDBRANCH   9  15
ENDBRANCH   7   9
ENDBRANCH   6   7
ENDBRANCH   1   6
BRANCH   4  20
HETATM   20  C7  UNL     1      22.232  17.469   9.826  1.00  0.00     0.193 C 
BRANCH  20  21
HETATM   21  N6  UNL     1      23.649  17.666   9.465  1.00  0.00    -0.064 N 
ATOM     22  H63 UNL     1      23.906  17.223   8.584  1.00  0.00     0.275 HD
ATOM     23  H62 UNL     1      23.867  18.624   9.193  1.00  0.00     0.275 HD
ATOM     24  H61 UNL     1      24.197  17.336  10.259  1.00  0.00     0.275 HD
ENDBRANCH  20  21
BRANCH  20  25
HETATM   25  C8  UNL     1      22.214  16.361  10.861  1.00  0.00     0.207 C 
BRANCH  25  26
HETATM   26  O2  UNL     1      22.991  15.276  10.463  1.00  0.00    -0.398 OA
ATOM     27  H2  UNL     1      22.952  15.144   9.523  1.00  0.00     0.209 HD
ENDBRANCH  25  26
ENDBRANCH  20  25
BRANCH  20  28
HETATM   28  C9  UNL     1      21.539  17.069   8.569  1.00  0.00     0.207 C 
BRANCH  28  29
HETATM   29  O3  UNL     1      22.190  16.164   7.778  1.00  0.00    -0.398 OA
ATOM     30  H3  UNL     1      23.064  16.405   7.494  1.00  0.00     0.209 HD
ENDBRANCH  28  29
ENDBRANCH  20  28
ENDBRANCH   4  20
TORSDOF 13
ENDMDL
MODEL 5
REMARK VINA RESULT: -5.734347867      1.021      2.173
REMARK  13 active torsions:
REMARK  status: ('A' for Active; 'I' for Inactive)
REMARK    1  A    between atoms: N1_1  and  N2_4 
REMARK    2  A    between atoms: C1_6  and  C2_7 
REMARK    3  A    between atoms: C1_6  and  N5_12 
REMARK    4  A    between atoms: C2_7  and  N3_8 
REMARK    5  A    between atoms: N3_8  and  N4_9 
REMARK    6  A    between atoms: N5_12  and  C3_14 
REMARK    7  A    between atoms: C3_14  and  C4_15 
REMARK    8  A    between atoms: C6_18  and  C7_19 
REMARK    9  A    between atoms: C7_19  and  N6_20 
REMARK   10  A    between atoms: C7_19  and  C8_24 
REMARK   11  A    between atoms: C7_19  and  C9_27 
REMARK   12  A    between atoms: C8_24  and  O2_25 
REMARK   13  A    between atoms: C9_27  and  O3_28 
ROOT
HETATM    1  C4  UNL     1      20.531  19.698  10.572  1.00  0.00     0.277 C 
HETATM    2  O1  UNL     1      21.919  19.608  10.509  1.00  0.00    -0.357 OA
HETATM    3  C5  UNL     1      22.166  18.304  10.908  1.00  0.00     0.205 C 
HETATM    4  C6  UNL     1      20.927  17.516  10.683  1.00  0.00     0.188 C 
HETATM    5  O4  UNL     1      20.069  18.470  10.140  1.00  0.00    -0.350 OA
ENDROOT
BRANCH   1   6
HETATM    6  C3  UNL     1      20.150  19.986  12.008  1.00  0.00     0.181 C 
BRANCH   6   7
HETATM    7  N5  UNL     1      20.121  21.399  12.260  1.00  0.00    -0.373 N 
ATOM      8  H5  UNL     1      20.234  22.067  11.497  1.00  0.00     0.161 HD
BRANCH   7   9
HETATM    9  C1  UNL     1      19.925  21.857  13.627  1.00  0.00     0.107 C 
HETATM   10  N2  UNL     1      20.898  22.401  14.199  1.00  0.00    -0.295 N 
ATOM     11  H2  UNL     1      21.748  22.440  13.637  1.00  0.00     0.187 HD
BRANCH  10  12
HETATM   12  N1  UNL     1      21.022  22.952  15.449  1.00  0.00    -0.344 N 
ATOM     13  H12 UNL     1      20.143  23.321  15.812  1.00  0.00     0.176 HD
ATOM     14  H11 UNL     1      21.830  23.052  16.065  1.00  0.00     0.176 HD
ENDBRANCH  10  12
BRANCH   9  15
HETATM   15  C2  UNL     1      18.607  21.699  14.266  1.00  0.00     0.211 C 
BRANCH  15  16
HETATM   16  N3  UNL     1      18.185  22.931  14.863  1.00  0.00    -0.141 NA
BRANCH  16  17
HETATM   17  N4  UNL     1      17.668  22.706  16.172  1.00  0.00    -0.348 N 
ATOM     18  H42 UNL     1      16.707  22.914  16.446  1.00  0.00     0.172 HD
ATOM     19  H41 UNL     1      18.386  22.315  16.781  1.00  0.00     0.172 HD
ENDBRANCH  16  17
ENDBRANCH  15  16
ENDBRANCH   9  15
ENDBRANCH   7   9
ENDBRANCH   6   7
ENDBRANCH   1   6
BRANCH   4  20
HETATM   20  C7  UNL     1      21.053  16.352   9.760  1.00  0.00     0.193 C 
BRANCH  20  21
HETATM   21  N6  UNL     1      22.217  15.576  10.226  1.00  0.00    -0.064 N 
ATOM     22  H63 UNL     1      23.011  16.157  10.490  1.00  0.00     0.275 HD
ATOM     23  H62 UNL     1      22.073  15.139  11.137  1.00  0.00     0.275 HD
ATOM     24  H61 UNL     1      22.432  14.908   9.486  1.00  0.00     0.275 HD
ENDBRANCH  20  21
BRANCH  20  25
HETATM   25  C8  UNL     1      19.860  15.423   9.864  1.00  0.00     0.207 C 
BRANCH  25  26
HETATM   26  O2  UNL     1      19.308  15.156   8.614  1.00  0.00    -0.398 OA
ATOM     27  H2  UNL     1      19.611  14.325   8.268  1.00  0.00     0.209 HD
ENDBRANCH  25  26
ENDBRANCH  20  25
BRANCH  20  28
HETATM   28  C9  UNL     1      21.347  16.726   8.347  1.00  0.00     0.207 C 
BRANCH  28  29
HETATM   29  O3  UNL     1      22.172  15.884   7.656  1.00  0.00    -0.398 OA
ATOM     30  H3  UNL     1      21.987  14.955   7.733  1.00  0.00     0.209 HD
ENDBRANCH  28  29
ENDBRANCH  20  28
ENDBRANCH   4  20
TORSDOF 13
ENDMDL
