MODEL 1
REMARK VINA RESULT: -7.467034906      0.000      0.000
REMARK  6 active torsions:
REMARK  status: ('A' for Active; 'I' for Inactive)
REMARK    1  A    between atoms: C2_2  and  N1_3 
REMARK    2  A    between atoms: C3_4  and  O1_5 
REMARK    3  A    between atoms: O1_5  and  C4_6 
REMARK    4  A    between atoms: C4_6  and  C5_7 
REMARK       I    between atoms: C5_7  and  N2_9 
REMARK    5  A    between atoms: N2_9  and  C6_11 
REMARK    6  A    between atoms: C6_11  and  C7_12 
REMARK       I    between atoms: N4_22  and  C14_24 
ROOT
HETATM    1  N1  UNL     1      -3.415   3.917  11.947  1.00  0.00    -0.294 N 
HETATM    2  C3  UNL     1      -2.867   5.153  11.448  1.00  0.00     0.225 C 
HETATM    3  N3  UNL     1      -2.757   6.222  12.081  1.00  0.00    -0.338 N 
ATOM      4  H3  UNL     1      -2.340   6.980  11.540  1.00  0.00     0.164 HD
HETATM    5  C10 UNL     1      -3.102   6.586  13.411  1.00  0.00     0.082 C 
HETATM    6  C11 UNL     1      -3.572   8.013  13.487  1.00  0.00     0.051 C 
HETATM    7  C12 UNL     1      -1.870   6.350  14.286  1.00  0.00     0.051 C 
HETATM    8  S1  UNL     1      -4.439   5.448  13.950  1.00  0.00    -0.063 SA
HETATM    9  C13 UNL     1      -3.884   3.880  13.289  1.00  0.00     0.154 C 
HETATM   10  N4  UNL     1      -3.913   2.843  13.989  1.00  0.00    -0.307 N 
ATOM     11  H4  UNL     1      -3.579   1.978  13.566  1.00  0.00     0.171 HD
HETATM   12  C14 UNL     1      -4.376   2.782  15.326  1.00  0.00     0.219 C 
HETATM   13  C15 UNL     1      -5.516   3.540  15.866  1.00  0.00     0.117 C 
HETATM   14  O3  UNL     1      -3.744   2.004  16.115  1.00  0.00    -0.274 OA
ENDROOT
BRANCH   2  15
HETATM   15  O1  UNL     1      -2.429   5.071  10.098  1.00  0.00    -0.313 OA
BRANCH  15  16
HETATM   16  C4  UNL     1      -2.007   6.276   9.486  1.00  0.00     0.282 C 
BRANCH  16  17
HETATM   17  C5  UNL     1      -3.040   6.779   8.505  1.00  0.00     0.245 C 
HETATM   18  O2  UNL     1      -2.847   6.451   7.328  1.00  0.00    -0.271 OA
HETATM   19  N2  UNL     1      -4.116   7.549   8.919  1.00  0.00    -0.339 N 
ATOM     20  H2  UNL     1      -4.144   7.722   9.924  1.00  0.00     0.167 HD
BRANCH  19  21
HETATM   21  C6  UNL     1      -5.166   8.131   8.210  1.00  0.00     0.068 C 
BRANCH  21  22
HETATM   22  C7  UNL     1      -6.559   7.999   8.700  1.00  0.00     0.024 A 
HETATM   23  C8  UNL     1      -7.637   9.023   8.612  1.00  0.00     0.010 A 
HETATM   24  C9  UNL     1      -7.681   7.849   7.675  1.00  0.00     0.010 A 
ENDBRANCH  21  22
ENDBRANCH  19  21
ENDBRANCH  16  17
ENDBRANCH  15  16
ENDBRANCH   2  15
BRANCH   1  25
HETATM   25  C2  UNL     1      -3.477   2.750  11.092  1.00  0.00     0.130 C 
HETATM   26  C1  UNL     1      -2.251   1.931  11.011  1.00  0.00     0.027 C 
ENDBRANCH   1  25
TORSDOF 6
ENDMDL
MODEL 2
REMARK VINA RESULT: -7.397048030      1.441      1.717
REMARK  6 active torsions:
REMARK  status: ('A' for Active; 'I' for Inactive)
REMARK    1  A    between atoms: C2_2  and  N1_3 
REMARK    2  A    between atoms: C3_4  and  O1_5 
REMARK    3  A    between atoms: O1_5  and  C4_6 
REMARK    4  A    between atoms: C4_6  and  C5_7 
REMARK       I    between atoms: C5_7  and  N2_9 
REMARK    5  A    between atoms: N2_9  and  C6_11 
REMARK    6  A    between atoms: C6_11  and  C7_12 
REMARK       I    between atoms: N4_22  and  C14_24 
ROOT
HETATM    1  N1  UNL     1      -4.381   4.229  12.217  1.00  0.00    -0.294 N 
HETATM    2  C3  UNL     1      -3.839   5.449  11.672  1.00  0.00     0.225 C 
HETATM    3  N3  UNL     1      -3.399   6.418  12.322  1.00  0.00    -0.338 N 
ATOM      4  H3  UNL     1      -3.060   7.185  11.741  1.00  0.00     0.164 HD
HETATM    5  C10 UNL     1      -3.279   6.658  13.718  1.00  0.00     0.082 C 
HETATM    6  C11 UNL     1      -3.502   8.108  14.048  1.00  0.00     0.051 C 
HETATM    7  C12 UNL     1      -1.888   6.189  14.148  1.00  0.00     0.051 C 
HETATM    8  S1  UNL     1      -4.541   5.616  14.552  1.00  0.00    -0.063 SA
HETATM    9  C13 UNL     1      -4.431   4.086  13.631  1.00  0.00     0.154 C 
HETATM   10  N4  UNL     1      -4.396   2.983  14.221  1.00  0.00    -0.307 N 
ATOM     11  H4  UNL     1      -4.326   2.143  13.648  1.00  0.00     0.171 HD
HETATM   12  C14 UNL     1      -4.445   2.816  15.626  1.00  0.00     0.219 C 
HETATM   13  C15 UNL     1      -5.257   3.624  16.550  1.00  0.00     0.117 C 
HETATM   14  O3  UNL     1      -3.723   1.886  16.117  1.00  0.00    -0.274 OA
ENDROOT
BRANCH   2  15
HETATM   15  O1  UNL     1      -3.837   5.480  10.251  1.00  0.00    -0.313 OA
BRANCH  15  16
HETATM   16  C4  UNL     1      -3.650   6.742   9.636  1.00  0.00     0.282 C 
BRANCH  16  17
HETATM   17  C5  UNL     1      -4.975   7.359   9.250  1.00  0.00     0.245 C 
HETATM   18  O2  UNL     1      -5.953   6.612   9.368  1.00  0.00    -0.271 OA
HETATM   19  N2  UNL     1      -5.058   8.667   8.800  1.00  0.00    -0.339 N 
ATOM     20  H2  UNL     1      -4.164   9.158   8.772  1.00  0.00     0.167 HD
BRANCH  19  21
HETATM   21  C6  UNL     1      -6.143   9.434   8.377  1.00  0.00     0.068 C 
BRANCH  21  22
HETATM   22  C7  UNL     1      -7.089   9.998   9.370  1.00  0.00     0.024 A 
HETATM   23  C8  UNL     1      -7.014   9.866  10.852  1.00  0.00     0.010 A 
HETATM   24  C9  UNL     1      -6.630  11.178  10.226  1.00  0.00     0.010 A 
ENDBRANCH  21  22
ENDBRANCH  19  21
ENDBRANCH  16  17
ENDBRANCH  15  16
ENDBRANCH   2  15
BRANCH   1  25
HETATM   25  C2  UNL     1      -4.855   3.186  11.333  1.00  0.00     0.130 C 
HETATM   26  C1  UNL     1      -3.858   2.183  10.907  1.00  0.00     0.027 C 
ENDBRANCH   1  25
TORSDOF 6
ENDMDL
MODEL 3
REMARK VINA RESULT: -7.138086017      1.391      1.577
REMARK  6 active torsions:
REMARK  status: ('A' for Active; 'I' for Inactive)
REMARK    1  A    between atoms: C2_2  and  N1_3 
REMARK    2  A    between atoms: C3_4  and  O1_5 
REMARK    3  A    between atoms: O1_5  and  C4_6 
REMARK    4  A    between atoms: C4_6  and  C5_7 
REMARK       I    between atoms: C5_7  and  N2_9 
REMARK    5  A    between atoms: N2_9  and  C6_11 
REMARK    6  A    between atoms: C6_11  and  C7_12 
REMARK       I    between atoms: N4_22  and  C14_24 
ROOT
HETATM    1  N1  UNL     1      -4.354   4.254  12.237  1.00  0.00    -0.294 N 
HETATM    2  C3  UNL     1      -3.807   5.479  11.711  1.00  0.00     0.225 C 
HETATM    3  N3  UNL     1      -3.385   6.446  12.375  1.00  0.00    -0.338 N 
ATOM      4  H3  UNL     1      -3.037   7.217  11.805  1.00  0.00     0.164 HD
HETATM    5  C10 UNL     1      -3.296   6.679  13.774  1.00  0.00     0.082 C 
HETATM    6  C11 UNL     1      -3.532   8.126  14.107  1.00  0.00     0.051 C 
HETATM    7  C12 UNL     1      -1.912   6.213  14.230  1.00  0.00     0.051 C 
HETATM    8  S1  UNL     1      -4.569   5.627  14.576  1.00  0.00    -0.063 SA
HETATM    9  C13 UNL     1      -4.434   4.102  13.649  1.00  0.00     0.154 C 
HETATM   10  N4  UNL     1      -4.405   2.996  14.234  1.00  0.00    -0.307 N 
ATOM     11  H4  UNL     1      -4.319   2.159  13.658  1.00  0.00     0.171 HD
HETATM   12  C14 UNL     1      -4.483   2.821  15.637  1.00  0.00     0.219 C 
HETATM   13  C15 UNL     1      -5.317   3.621  16.549  1.00  0.00     0.117 C 
HETATM   14  O3  UNL     1      -3.767   1.892  16.138  1.00  0.00    -0.274 OA
ENDROOT
BRANCH   2  15
HETATM   15  O1  UNL     1      -3.776   5.517  10.290  1.00  0.00    -0.313 OA
BRANCH  15  16
HETATM   16  C4  UNL     1      -3.522   6.773   9.687  1.00  0.00     0.282 C 
BRANCH  16  17
HETATM   17  C5  UNL     1      -4.760   7.308   9.006  1.00  0.00     0.245 C 
HETATM   18  O2  UNL     1      -5.814   6.739   9.314  1.00  0.00    -0.271 OA
HETATM   19  N2  UNL     1      -4.692   8.360   8.105  1.00  0.00    -0.339 N 
ATOM     20  H2  UNL     1      -3.752   8.732   7.967  1.00  0.00     0.167 HD
BRANCH  19  21
HETATM   21  C6  UNL     1      -5.676   9.000   7.353  1.00  0.00     0.068 C 
BRANCH  21  22
HETATM   22  C7  UNL     1      -6.208   8.363   6.125  1.00  0.00     0.024 A 
HETATM   23  C8  UNL     1      -7.581   7.822   5.922  1.00  0.00     0.010 A 
HETATM   24  C9  UNL     1      -7.224   9.135   5.284  1.00  0.00     0.010 A 
ENDBRANCH  21  22
ENDBRANCH  19  21
ENDBRANCH  16  17
ENDBRANCH  15  16
ENDBRANCH   2  15
BRANCH   1  25
HETATM   25  C2  UNL     1      -4.806   3.212  11.339  1.00  0.00     0.130 C 
HETATM   26  C1  UNL     1      -3.797   2.214  10.932  1.00  0.00     0.027 C 
ENDBRANCH   1  25
TORSDOF 6
ENDMDL
MODEL 4
REMARK VINA RESULT: -7.006859747      2.953      4.742
REMARK  6 active torsions:
REMARK  status: ('A' for Active; 'I' for Inactive)
REMARK    1  A    between atoms: C2_2  and  N1_3 
REMARK    2  A    between atoms: C3_4  and  O1_5 
REMARK    3  A    between atoms: O1_5  and  C4_6 
REMARK    4  A    between atoms: C4_6  and  C5_7 
REMARK       I    between atoms: C5_7  and  N2_9 
REMARK    5  A    between atoms: N2_9  and  C6_11 
REMARK    6  A    between atoms: C6_11  and  C7_12 
REMARK       I    between atoms: N4_22  and  C14_24 
ROOT
HETATM    1  N1  UNL     1      -3.733   3.053  12.672  1.00  0.00    -0.294 N 
HETATM    2  C3  UNL     1      -3.104   4.147  11.975  1.00  0.00     0.225 C 
HETATM    3  N3  UNL     1      -3.080   5.340  12.339  1.00  0.00    -0.338 N 
ATOM      4  H3  UNL     1      -2.580   5.956  11.698  1.00  0.00     0.164 HD
HETATM    5  C10 UNL     1      -3.617   6.004  13.475  1.00  0.00     0.082 C 
HETATM    6  C11 UNL     1      -4.080   7.393  13.133  1.00  0.00     0.051 C 
HETATM    7  C12 UNL     1      -2.533   6.019  14.554  1.00  0.00     0.051 C 
HETATM    8  S1  UNL     1      -5.031   4.993  14.069  1.00  0.00    -0.063 SA
HETATM    9  C13 UNL     1      -4.399   3.328  13.898  1.00  0.00     0.154 C 
HETATM   10  N4  UNL     1      -4.543   2.490  14.816  1.00  0.00    -0.307 N 
ATOM     11  H4  UNL     1      -4.157   1.557  14.669  1.00  0.00     0.171 HD
HETATM   12  C14 UNL     1      -5.202   2.740  16.044  1.00  0.00     0.219 C 
HETATM   13  C15 UNL     1      -6.403   3.575  16.209  1.00  0.00     0.117 C 
HETATM   14  O3  UNL     1      -4.704   2.192  17.082  1.00  0.00    -0.274 OA
ENDROOT
BRANCH   2  15
HETATM   15  O1  UNL     1      -2.470   3.754  10.765  1.00  0.00    -0.313 OA
BRANCH  15  16
HETATM   16  C4  UNL     1      -1.070   3.542  10.814  1.00  0.00     0.282 C 
BRANCH  16  17
HETATM   17  C5  UNL     1      -0.317   4.792  10.421  1.00  0.00     0.245 C 
HETATM   18  O2  UNL     1      -0.427   5.117   9.232  1.00  0.00    -0.271 OA
HETATM   19  N2  UNL     1       0.434   5.504  11.343  1.00  0.00    -0.339 N 
ATOM     20  H2  UNL     1       0.413   5.117  12.287  1.00  0.00     0.167 HD
BRANCH  19  21
HETATM   21  C6  UNL     1       1.213   6.652  11.214  1.00  0.00     0.068 C 
BRANCH  21  22
HETATM   22  C7  UNL     1       2.692   6.556  11.242  1.00  0.00     0.024 A 
HETATM   23  C8  UNL     1       3.665   7.641  10.929  1.00  0.00     0.010 A 
HETATM   24  C9  UNL     1       3.448   7.262  12.367  1.00  0.00     0.010 A 
ENDBRANCH  21  22
ENDBRANCH  19  21
ENDBRANCH  16  17
ENDBRANCH  15  16
ENDBRANCH   2  15
BRANCH   1  25
HETATM   25  C2  UNL     1      -3.677   1.714  12.125  1.00  0.00     0.130 C 
HETATM   26  C1  UNL     1      -4.632   1.408  11.041  1.00  0.00     0.027 C 
ENDBRANCH   1  25
TORSDOF 6
ENDMDL
MODEL 5
REMARK VINA RESULT: -6.974084828      3.184      6.672
REMARK  6 active torsions:
REMARK  status: ('A' for Active; 'I' for Inactive)
REMARK    1  A    between atoms: C2_2  and  N1_3 
REMARK    2  A    between atoms: C3_4  and  O1_5 
REMARK    3  A    between atoms: O1_5  and  C4_6 
REMARK    4  A    between atoms: C4_6  and  C5_7 
REMARK       I    between atoms: C5_7  and  N2_9 
REMARK    5  A    between atoms: N2_9  and  C6_11 
REMARK    6  A    between atoms: C6_11  and  C7_12 
REMARK       I    between atoms: N4_22  and  C14_24 
ROOT
HETATM    1  N1  UNL     1      -3.952   6.520  13.471  1.00  0.00    -0.294 N 
HETATM    2  C3  UNL     1      -3.782   5.430  12.544  1.00  0.00     0.225 C 
HETATM    3  N3  UNL     1      -3.006   5.402  11.569  1.00  0.00    -0.338 N 
ATOM      4  H3  UNL     1      -3.040   4.531  11.039  1.00  0.00     0.164 HD
HETATM    5  C10 UNL     1      -2.082   6.353  11.054  1.00  0.00     0.082 C 
HETATM    6  C11 UNL     1      -2.010   6.294   9.553  1.00  0.00     0.051 C 
HETATM    7  C12 UNL     1      -0.723   6.068  11.696  1.00  0.00     0.051 C 
HETATM    8  S1  UNL     1      -2.659   8.010  11.597  1.00  0.00    -0.063 SA
HETATM    9  C13 UNL     1      -3.172   7.694  13.282  1.00  0.00     0.154 C 
HETATM   10  N4  UNL     1      -2.843   8.469  14.208  1.00  0.00    -0.307 N 
ATOM     11  H4  UNL     1      -3.156   8.238  15.151  1.00  0.00     0.171 HD
HETATM   12  C14 UNL     1      -2.068   9.642  14.044  1.00  0.00     0.219 C 
HETATM   13  C15 UNL     1      -2.151  10.563  12.899  1.00  0.00     0.117 C 
HETATM   14  O3  UNL     1      -1.234   9.910  14.971  1.00  0.00    -0.274 OA
ENDROOT
BRANCH   2  15
HETATM   15  O1  UNL     1      -4.611   4.311  12.832  1.00  0.00    -0.313 OA
BRANCH  15  16
HETATM   16  C4  UNL     1      -3.966   3.064  13.013  1.00  0.00     0.282 C 
BRANCH  16  17
HETATM   17  C5  UNL     1      -4.339   2.448  14.342  1.00  0.00     0.245 C 
HETATM   18  O2  UNL     1      -4.663   1.255  14.293  1.00  0.00    -0.271 OA
HETATM   19  N2  UNL     1      -4.312   3.187  15.514  1.00  0.00    -0.339 N 
ATOM     20  H2  UNL     1      -4.009   4.153  15.393  1.00  0.00     0.167 HD
BRANCH  19  21
HETATM   21  C6  UNL     1      -4.625   2.848  16.830  1.00  0.00     0.068 C 
BRANCH  21  22
HETATM   22  C7  UNL     1      -5.883   3.334  17.446  1.00  0.00     0.024 A 
HETATM   23  C8  UNL     1      -6.879   4.258  16.834  1.00  0.00     0.010 A 
HETATM   24  C9  UNL     1      -7.211   2.794  16.917  1.00  0.00     0.010 A 
ENDBRANCH  21  22
ENDBRANCH  19  21
ENDBRANCH  16  17
ENDBRANCH  15  16
ENDBRANCH   2  15
BRANCH   1  25
HETATM   25  C2  UNL     1      -4.896   6.407  14.562  1.00  0.00     0.130 C 
HETATM   26  C1  UNL     1      -6.216   7.038  14.356  1.00  0.00     0.027 C 
ENDBRANCH   1  25
TORSDOF 6
ENDMDL
