MODEL 1
REMARK VINA RESULT: -6.986121115      0.000      0.000
REMARK  7 active torsions:
REMARK  status: ('A' for Active; 'I' for Inactive)
REMARK    1  A    between atoms: C2_2  and  N1_3 
REMARK    2  A    between atoms: C2_2  and  C3_7 
REMARK    3  A    between atoms: C3_7  and  O1_8 
REMARK    4  A    between atoms: C3_7  and  N2_10 
REMARK    5  A    between atoms: C8_15  and  C9_16 
REMARK    6  A    between atoms: C9_16  and  C10_17 
REMARK    7  A    between atoms: C10_17  and  C11_18 
ROOT
HETATM    1  C10 UNL     1      -3.574   7.209  11.514  1.00  0.00     0.019 C 
HETATM    2  C12 UNL     1      -3.110   8.575  11.556  1.00  0.00     0.018 C 
HETATM    3  C13 UNL     1      -3.947   9.253  10.449  1.00  0.00     0.011 C 
HETATM    4  C14 UNL     1      -5.276   8.582  10.570  1.00  0.00    -0.030 C 
HETATM    5  C15 UNL     1      -6.283   9.475  11.308  1.00  0.00     0.054 C 
HETATM    6  C16 UNL     1      -6.555  10.739  10.583  1.00  0.00     0.063 C 
HETATM    7  N5  UNL     1      -6.691  10.660   9.189  1.00  0.00    -0.378 N 
HETATM    8  C17 UNL     1      -7.895  11.151   8.622  1.00  0.00     0.154 C 
HETATM    9  C18 UNL     1      -6.023   9.636   8.501  1.00  0.00     0.063 C 
HETATM   10  C19 UNL     1      -5.911   8.323   9.207  1.00  0.00     0.054 C 
HETATM   11  C20 UNL     1      -5.099   7.324  11.345  1.00  0.00     0.027 C 
ENDROOT
BRANCH   1  12
HETATM   12  C9  UNL     1      -3.260   6.219  12.587  1.00  0.00     0.042 C 
BRANCH  12  13
HETATM   13  C8  UNL     1      -4.187   6.000  13.682  1.00  0.00     0.087 C 
HETATM   14  N2  UNL     1      -5.041   4.805  13.550  1.00  0.00    -0.359 N 
HETATM   15  C4  UNL     1      -6.103   4.810  14.572  1.00  0.00     0.125 C 
HETATM   16  C5  UNL     1      -5.425   4.502  15.858  1.00  0.00     0.020 C 
HETATM   17  C6  UNL     1      -3.917   4.482  15.709  1.00  0.00     0.004 C 
HETATM   18  C7  UNL     1      -3.384   5.681  14.962  1.00  0.00     0.025 C 
BRANCH  14  19
HETATM   19  C3  UNL     1      -4.935   3.770  12.657  1.00  0.00     0.144 C 
BRANCH  19  20
HETATM   20  C2  UNL     1      -4.045   2.610  12.683  1.00  0.00     0.253 C 
HETATM   21  C1  UNL     1      -4.208   1.807  11.373  1.00  0.00     0.049 C 
BRANCH  20  22
HETATM   22  N1  UNL     1      -4.234   1.776  13.802  1.00  0.00    -0.068 N 
ATOM     23  H13 UNL     1      -5.097   1.999  14.298  1.00  0.00     0.275 HD
ATOM     24  H12 UNL     1      -4.459   0.819  13.528  1.00  0.00     0.275 HD
ATOM     25  H11 UNL     1      -3.422   1.812  14.418  1.00  0.00     0.275 HD
ENDBRANCH  20  22
ENDBRANCH  19  20
BRANCH  19  26
HETATM   26  O1  UNL     1      -5.726   3.779  11.615  1.00  0.00    -0.348 OA
ATOM     27  H1  UNL     1      -5.309   4.134  10.839  1.00  0.00     0.219 HD
ENDBRANCH  19  26
ENDBRANCH  14  19
ENDBRANCH  12  13
ENDBRANCH   1  12
BRANCH   1  28
HETATM   28  C11 UNL     1      -3.074   6.576  10.240  1.00  0.00     0.112 C 
HETATM   29  N3  UNL     1      -3.815   5.507   9.699  1.00  0.00    -0.086 NA
HETATM   30  N4  UNL     1      -2.015   6.977   9.667  1.00  0.00    -0.289 N 
HETATM   31 CL1  UNL     1      -1.488   6.214   8.206  1.00  0.00     0.011 Cl
ATOM     32  H4  UNL     1      -1.477   7.746  10.066  1.00  0.00     0.181 HD
ENDBRANCH   1  28
TORSDOF 7
ENDMDL
MODEL 2
REMARK VINA RESULT: -6.611378998      2.136      6.829
REMARK  7 active torsions:
REMARK  status: ('A' for Active; 'I' for Inactive)
REMARK    1  A    between atoms: C2_2  and  N1_3 
REMARK    2  A    between atoms: C2_2  and  C3_7 
REMARK    3  A    between atoms: C3_7  and  O1_8 
REMARK    4  A    between atoms: C3_7  and  N2_10 
REMARK    5  A    between atoms: C8_15  and  C9_16 
REMARK    6  A    between atoms: C9_16  and  C10_17 
REMARK    7  A    between atoms: C10_17  and  C11_18 
ROOT
HETATM    1  C10 UNL     1      -3.946   6.535  13.176  1.00  0.00     0.019 C 
HETATM    2  C12 UNL     1      -4.934   5.650  12.606  1.00  0.00     0.018 C 
HETATM    3  C13 UNL     1      -4.929   4.458  13.588  1.00  0.00     0.011 C 
HETATM    4  C14 UNL     1      -4.735   5.112  14.916  1.00  0.00    -0.030 C 
HETATM    5  C15 UNL     1      -6.061   5.210  15.684  1.00  0.00     0.054 C 
HETATM    6  C16 UNL     1      -6.635   3.879  15.992  1.00  0.00     0.063 C 
HETATM    7  N5  UNL     1      -5.744   2.877  16.405  1.00  0.00    -0.378 N 
HETATM    8  C17 UNL     1      -5.996   2.254  17.654  1.00  0.00     0.154 C 
HETATM    9  C18 UNL     1      -4.412   2.935  15.968  1.00  0.00     0.063 C 
HETATM   10  C19 UNL     1      -3.817   4.299  15.824  1.00  0.00     0.054 C 
HETATM   11  C20 UNL     1      -4.213   6.487  14.691  1.00  0.00     0.027 C 
ENDROOT
BRANCH   1  12
HETATM   12  C9  UNL     1      -3.787   7.953  12.738  1.00  0.00     0.042 C 
BRANCH  12  13
HETATM   13  C8  UNL     1      -3.245   8.264  11.429  1.00  0.00     0.087 C 
HETATM   14  N2  UNL     1      -4.248   8.522  10.380  1.00  0.00    -0.359 N 
HETATM   15  C4  UNL     1      -3.611   8.580   9.053  1.00  0.00     0.125 C 
HETATM   16  C5  UNL     1      -2.867   9.865   9.019  1.00  0.00     0.020 C 
HETATM   17  C6  UNL     1      -2.864  10.550  10.372  1.00  0.00     0.004 C 
HETATM   18  C7  UNL     1      -2.502   9.616  11.502  1.00  0.00     0.025 C 
BRANCH  14  19
HETATM   19  C3  UNL     1      -5.600   8.718  10.516  1.00  0.00     0.144 C 
BRANCH  19  20
HETATM   20  C2  UNL     1      -6.325   9.915  10.941  1.00  0.00     0.253 C 
HETATM   21  C1  UNL     1      -7.648   9.499  11.621  1.00  0.00     0.049 C 
BRANCH  20  22
HETATM   22  N1  UNL     1      -6.570  10.828   9.898  1.00  0.00    -0.068 N 
ATOM     23  H13 UNL     1      -7.366  10.546   9.327  1.00  0.00     0.275 HD
ATOM     24  H12 UNL     1      -6.940  11.712  10.247  1.00  0.00     0.275 HD
ATOM     25  H11 UNL     1      -5.730  10.965   9.335  1.00  0.00     0.275 HD
ENDBRANCH  20  22
ENDBRANCH  19  20
BRANCH  19  26
HETATM   26  O1  UNL     1      -6.393   7.717  10.236  1.00  0.00    -0.348 OA
ATOM     27  H1  UNL     1      -5.923   6.905  10.085  1.00  0.00     0.219 HD
ENDBRANCH  19  26
ENDBRANCH  14  19
ENDBRANCH  12  13
ENDBRANCH   1  12
BRANCH   1  28
HETATM   28  C11 UNL     1      -2.585   5.912  12.987  1.00  0.00     0.112 C 
HETATM   29  N3  UNL     1      -1.613   6.137  13.982  1.00  0.00    -0.086 NA
HETATM   30  N4  UNL     1      -2.307   5.214  11.966  1.00  0.00    -0.289 N 
HETATM   31 CL1  UNL     1      -0.729   4.523  11.801  1.00  0.00     0.011 Cl
ATOM     32  H4  UNL     1      -3.011   5.060  11.243  1.00  0.00     0.181 HD
ENDBRANCH   1  28
TORSDOF 7
ENDMDL
MODEL 3
REMARK VINA RESULT: -6.572936742      2.565      3.618
REMARK  7 active torsions:
REMARK  status: ('A' for Active; 'I' for Inactive)
REMARK    1  A    between atoms: C2_2  and  N1_3 
REMARK    2  A    between atoms: C2_2  and  C3_7 
REMARK    3  A    between atoms: C3_7  and  O1_8 
REMARK    4  A    between atoms: C3_7  and  N2_10 
REMARK    5  A    between atoms: C8_15  and  C9_16 
REMARK    6  A    between atoms: C9_16  and  C10_17 
REMARK    7  A    between atoms: C10_17  and  C11_18 
ROOT
HETATM    1  C10 UNL     1      -2.292   7.277  12.532  1.00  0.00     0.019 C 
HETATM    2  C12 UNL     1      -0.924   7.465  12.957  1.00  0.00     0.018 C 
HETATM    3  C13 UNL     1      -0.743   8.995  12.850  1.00  0.00     0.011 C 
HETATM    4  C14 UNL     1      -2.069   9.526  13.286  1.00  0.00    -0.030 C 
HETATM    5  C15 UNL     1      -2.014  10.033  14.733  1.00  0.00     0.054 C 
HETATM    6  C16 UNL     1      -1.074  11.166  14.900  1.00  0.00     0.063 C 
HETATM    7  N5  UNL     1      -1.064  12.143  13.893  1.00  0.00    -0.378 N 
HETATM    8  C17 UNL     1      -1.305  13.485  14.283  1.00  0.00     0.154 C 
HETATM    9  C18 UNL     1      -1.426  11.773  12.589  1.00  0.00     0.063 C 
HETATM   10  C19 UNL     1      -2.497  10.738  12.464  1.00  0.00     0.054 C 
HETATM   11  C20 UNL     1      -3.067   8.424  13.205  1.00  0.00     0.027 C 
ENDROOT
BRANCH   1  12
HETATM   12  C9  UNL     1      -3.026   5.991  12.728  1.00  0.00     0.042 C 
BRANCH  12  13
HETATM   13  C8  UNL     1      -4.027   5.866  13.771  1.00  0.00     0.087 C 
HETATM   14  N2  UNL     1      -4.992   4.767  13.584  1.00  0.00    -0.359 N 
HETATM   15  C4  UNL     1      -6.100   4.878  14.549  1.00  0.00     0.125 C 
HETATM   16  C5  UNL     1      -5.527   4.496  15.866  1.00  0.00     0.020 C 
HETATM   17  C6  UNL     1      -4.023   4.320  15.795  1.00  0.00     0.004 C 
HETATM   18  C7  UNL     1      -3.330   5.460  15.089  1.00  0.00     0.025 C 
BRANCH  14  19
HETATM   19  C3  UNL     1      -4.947   3.730  12.687  1.00  0.00     0.144 C 
BRANCH  19  20
HETATM   20  C2  UNL     1      -4.106   2.533  12.695  1.00  0.00     0.253 C 
HETATM   21  C1  UNL     1      -4.381   1.703  11.421  1.00  0.00     0.049 C 
BRANCH  20  22
HETATM   22  N1  UNL     1      -4.261   1.739  13.847  1.00  0.00    -0.068 N 
ATOM     23  H13 UNL     1      -4.798   2.220  14.569  1.00  0.00     0.275 HD
ATOM     24  H12 UNL     1      -4.894   0.956  13.684  1.00  0.00     0.275 HD
ATOM     25  H11 UNL     1      -3.354   1.427  14.194  1.00  0.00     0.275 HD
ENDBRANCH  20  22
ENDBRANCH  19  20
BRANCH  19  26
HETATM   26  O1  UNL     1      -5.756   3.774  11.661  1.00  0.00    -0.348 OA
ATOM     27  H1  UNL     1      -6.052   4.655  11.462  1.00  0.00     0.219 HD
ENDBRANCH  19  26
ENDBRANCH  14  19
ENDBRANCH  12  13
ENDBRANCH   1  12
BRANCH   1  28
HETATM   28  C11 UNL     1      -2.371   7.551  11.051  1.00  0.00     0.112 C 
HETATM   29  N3  UNL     1      -3.602   7.995  10.528  1.00  0.00    -0.086 NA
HETATM   30  N4  UNL     1      -1.373   7.382  10.287  1.00  0.00    -0.289 N 
HETATM   31 CL1  UNL     1      -1.521   7.713   8.595  1.00  0.00     0.011 Cl
ATOM     32  H4  UNL     1      -0.486   7.053  10.668  1.00  0.00     0.181 HD
ENDBRANCH   1  28
TORSDOF 7
ENDMDL
MODEL 4
REMARK VINA RESULT: -6.549645289      3.399      6.631
REMARK  7 active torsions:
REMARK  status: ('A' for Active; 'I' for Inactive)
REMARK    1  A    between atoms: C2_2  and  N1_3 
REMARK    2  A    between atoms: C2_2  and  C3_7 
REMARK    3  A    between atoms: C3_7  and  O1_8 
REMARK    4  A    between atoms: C3_7  and  N2_10 
REMARK    5  A    between atoms: C8_15  and  C9_16 
REMARK    6  A    between atoms: C9_16  and  C10_17 
REMARK    7  A    between atoms: C10_17  and  C11_18 
ROOT
HETATM    1  C10 UNL     1      -3.177   5.872  12.986  1.00  0.00     0.019 C 
HETATM    2  C12 UNL     1      -2.601   5.876  14.310  1.00  0.00     0.018 C 
HETATM    3  C13 UNL     1      -3.827   5.621  15.214  1.00  0.00     0.011 C 
HETATM    4  C14 UNL     1      -4.642   4.655  14.418  1.00  0.00    -0.030 C 
HETATM    5  C15 UNL     1      -4.471   3.223  14.942  1.00  0.00     0.054 C 
HETATM    6  C16 UNL     1      -4.951   3.071  16.336  1.00  0.00     0.063 C 
HETATM    7  N5  UNL     1      -6.143   3.725  16.678  1.00  0.00    -0.378 N 
HETATM    8  C17 UNL     1      -7.195   2.933  17.205  1.00  0.00     0.154 C 
HETATM    9  C18 UNL     1      -6.497   4.892  15.983  1.00  0.00     0.063 C 
HETATM   10  C19 UNL     1      -6.136   4.938  14.533  1.00  0.00     0.054 C 
HETATM   11  C20 UNL     1      -4.178   4.703  13.004  1.00  0.00     0.027 C 
ENDROOT
BRANCH   1  12
HETATM   12  C9  UNL     1      -2.346   5.802  11.747  1.00  0.00     0.042 C 
BRANCH  12  13
HETATM   13  C8  UNL     1      -0.932   6.125  11.788  1.00  0.00     0.087 C 
HETATM   14  N2  UNL     1      -0.161   5.718  10.599  1.00  0.00    -0.359 N 
HETATM   15  C4  UNL     1       1.285   5.863  10.841  1.00  0.00     0.125 C 
HETATM   16  C5  UNL     1       1.550   7.324  10.832  1.00  0.00     0.020 C 
HETATM   17  C6  UNL     1       0.267   8.129  10.772  1.00  0.00     0.004 C 
HETATM   18  C7  UNL     1      -0.767   7.661  11.767  1.00  0.00     0.025 C 
BRANCH  14  19
HETATM   19  C3  UNL     1      -0.626   5.276   9.386  1.00  0.00     0.144 C 
BRANCH  19  20
HETATM   20  C2  UNL     1      -0.471   5.873   8.060  1.00  0.00     0.253 C 
HETATM   21  C1  UNL     1      -1.793   6.558   7.646  1.00  0.00     0.049 C 
BRANCH  20  22
HETATM   22  N1  UNL     1      -0.056   4.960   7.072  1.00  0.00    -0.068 N 
ATOM     23  H13 UNL     1      -0.703   4.176   6.986  1.00  0.00     0.275 HD
ATOM     24  H12 UNL     1      -0.157   5.345   6.133  1.00  0.00     0.275 HD
ATOM     25  H11 UNL     1       0.898   4.646   7.251  1.00  0.00     0.275 HD
ENDBRANCH  20  22
ENDBRANCH  19  20
BRANCH  19  26
HETATM   26  O1  UNL     1      -1.313   4.163   9.364  1.00  0.00    -0.348 OA
ATOM     27  H1  UNL     1      -0.768   3.397   9.231  1.00  0.00     0.219 HD
ENDBRANCH  19  26
ENDBRANCH  14  19
ENDBRANCH  12  13
ENDBRANCH   1  12
BRANCH   1  28
HETATM   28  C11 UNL     1      -4.013   7.116  12.826  1.00  0.00     0.112 C 
HETATM   29  N3  UNL     1      -3.749   8.203  13.683  1.00  0.00    -0.086 NA
HETATM   30  N4  UNL     1      -4.936   7.193  11.959  1.00  0.00    -0.289 N 
HETATM   31 CL1  UNL     1      -5.864   8.647  11.820  1.00  0.00     0.011 Cl
ATOM     32  H4  UNL     1      -5.130   6.401  11.346  1.00  0.00     0.181 HD
ENDBRANCH   1  28
TORSDOF 7
ENDMDL
MODEL 5
REMARK VINA RESULT: -6.479063105      3.219      5.017
REMARK  7 active torsions:
REMARK  status: ('A' for Active; 'I' for Inactive)
REMARK    1  A    between atoms: C2_2  and  N1_3 
REMARK    2  A    between atoms: C2_2  and  C3_7 
REMARK    3  A    between atoms: C3_7  and  O1_8 
REMARK    4  A    between atoms: C3_7  and  N2_10 
REMARK    5  A    between atoms: C8_15  and  C9_16 
REMARK    6  A    between atoms: C9_16  and  C10_17 
REMARK    7  A    between atoms: C10_17  and  C11_18 
ROOT
HETATM    1  C10 UNL     1      -1.622   5.177  11.104  1.00  0.00     0.019 C 
HETATM    2  C12 UNL     1      -1.298   4.234  10.060  1.00  0.00     0.018 C 
HETATM    3  C13 UNL     1      -0.595   5.120   9.009  1.00  0.00     0.011 C 
HETATM    4  C14 UNL     1       0.184   6.084   9.842  1.00  0.00    -0.030 C 
HETATM    5  C15 UNL     1       1.666   5.691   9.905  1.00  0.00     0.054 C 
HETATM    6  C16 UNL     1       2.315   5.725   8.573  1.00  0.00     0.063 C 
HETATM    7  N5  UNL     1       1.985   6.793   7.726  1.00  0.00    -0.378 N 
HETATM    8  C17 UNL     1       3.049   7.598   7.244  1.00  0.00     0.154 C 
HETATM    9  C18 UNL     1       0.726   7.397   7.861  1.00  0.00     0.063 C 
HETATM   10  C19 UNL     1       0.176   7.489   9.248  1.00  0.00     0.054 C 
HETATM   11  C20 UNL     1      -0.371   6.065  11.224  1.00  0.00     0.027 C 
ENDROOT
BRANCH   1  12
HETATM   12  C9  UNL     1      -2.067   4.750  12.464  1.00  0.00     0.042 C 
BRANCH  12  13
HETATM   13  C8  UNL     1      -3.266   5.313  13.058  1.00  0.00     0.087 C 
HETATM   14  N2  UNL     1      -4.391   4.372  13.207  1.00  0.00    -0.359 N 
HETATM   15  C4  UNL     1      -5.623   5.090  13.582  1.00  0.00     0.125 C 
HETATM   16  C5  UNL     1      -5.437   5.497  14.998  1.00  0.00     0.020 C 
HETATM   17  C6  UNL     1      -4.030   5.214  15.486  1.00  0.00     0.004 C 
HETATM   18  C7  UNL     1      -2.968   5.693  14.525  1.00  0.00     0.025 C 
BRANCH  14  19
HETATM   19  C3  UNL     1      -4.394   3.008  13.064  1.00  0.00     0.144 C 
BRANCH  19  20
HETATM   20  C2  UNL     1      -4.639   2.202  11.868  1.00  0.00     0.253 C 
HETATM   21  C1  UNL     1      -3.359   1.414  11.509  1.00  0.00     0.049 C 
BRANCH  20  22
HETATM   22  N1  UNL     1      -5.087   2.949  10.763  1.00  0.00    -0.068 N 
ATOM     23  H13 UNL     1      -5.216   3.933  10.999  1.00  0.00     0.275 HD
ATOM     24  H12 UNL     1      -4.357   3.057  10.058  1.00  0.00     0.275 HD
ATOM     25  H11 UNL     1      -5.935   2.539  10.372  1.00  0.00     0.275 HD
ENDBRANCH  20  22
ENDBRANCH  19  20
BRANCH  19  26
HETATM   26  O1  UNL     1      -4.146   2.283  14.123  1.00  0.00    -0.348 OA
ATOM     27  H1  UNL     1      -3.252   1.965  14.151  1.00  0.00     0.219 HD
ENDBRANCH  19  26
ENDBRANCH  14  19
ENDBRANCH  12  13
ENDBRANCH   1  12
BRANCH   1  28
HETATM   28  C11 UNL     1      -2.716   6.085  10.602  1.00  0.00     0.112 C 
HETATM   29  N3  UNL     1      -3.713   5.526   9.779  1.00  0.00    -0.086 NA
HETATM   30  N4  UNL     1      -2.745   7.319  10.894  1.00  0.00    -0.289 N 
HETATM   31 CL1  UNL     1      -4.024   8.316  10.290  1.00  0.00     0.011 Cl
ATOM     32  H4  UNL     1      -2.017   7.723  11.484  1.00  0.00     0.181 HD
ENDBRANCH   1  28
TORSDOF 7
ENDMDL
