MODEL 1
REMARK VINA RESULT: -7.371113168      0.000      0.000
REMARK  5 active torsions:
REMARK  status: ('A' for Active; 'I' for Inactive)
REMARK    1  A    between atoms: O1_2  and  C2_3 
REMARK    2  A    between atoms: C2_3  and  C3_5 
REMARK    3  A    between atoms: C8_11  and  N1_12 
REMARK    4  A    between atoms: N1_12  and  C9_14 
REMARK    5  A    between atoms: C9_14  and  C10_15 
ROOT
HETATM    1  C3  UNL     1      -3.118   3.104  11.308  1.00  0.00     0.077 C 
HETATM    2  C4  UNL     1      -1.594   3.020  11.276  1.00  0.00     0.188 C 
HETATM    3  O3  UNL     1      -1.160   3.805  10.243  1.00  0.00    -0.389 OA
HETATM    4  C5  UNL     1      -2.140   4.672   9.859  1.00  0.00     0.173 C 
HETATM    5  C6  UNL     1      -3.324   4.497  10.755  1.00  0.00     0.032 C 
HETATM    6  C7  UNL     1      -3.154   5.330  12.035  1.00  0.00     0.033 C 
HETATM    7  C8  UNL     1      -4.112   4.604  12.947  1.00  0.00     0.082 C 
HETATM    8  C17 UNL     1      -3.647   3.158  12.705  1.00  0.00     0.047 C 
ENDROOT
BRANCH   7   9
HETATM    9  N1  UNL     1      -3.985   4.858  14.311  1.00  0.00    -0.397 N 
ATOM     10  H1  UNL     1      -3.055   4.921  14.726  1.00  0.00     0.159 HD
BRANCH   9  11
HETATM   11  C9  UNL     1      -5.110   5.027  15.117  1.00  0.00     0.061 C 
BRANCH  11  12
HETATM   12  C10 UNL     1      -5.807   3.838  15.618  1.00  0.00     0.028 C 
HETATM   13  C11 UNL     1      -5.084   3.022  16.635  1.00  0.00     0.014 C 
HETATM   14  C12 UNL     1      -6.175   2.571  17.612  1.00  0.00    -0.013 C 
HETATM   15  C13 UNL     1      -6.279   3.670  18.644  1.00  0.00     0.005 C 
HETATM   16  C16 UNL     1      -7.480   2.842  16.842  1.00  0.00     0.010 C 
HETATM   17  C14 UNL     1      -6.709   4.841  17.744  1.00  0.00     0.005 C 
HETATM   18  C15 UNL     1      -7.051   4.262  16.410  1.00  0.00    -0.005 C 
ENDBRANCH  11  12
ENDBRANCH   9  11
ENDBRANCH   7   9
BRANCH   1  19
HETATM   19  C2  UNL     1      -3.753   2.059  10.514  1.00  0.00     0.270 C 
HETATM   20  O2  UNL     1      -4.853   2.282   9.959  1.00  0.00    -0.264 OA
BRANCH  19  21
HETATM   21  O1  UNL     1      -3.179   0.814  10.346  1.00  0.00    -0.326 OA
HETATM   22  C1  UNL     1      -3.340  -0.237  11.291  1.00  0.00     0.213 C 
ENDBRANCH  19  21
ENDBRANCH   1  19
TORSDOF 5
ENDMDL
MODEL 2
REMARK VINA RESULT: -7.213009388      0.875      2.572
REMARK  5 active torsions:
REMARK  status: ('A' for Active; 'I' for Inactive)
REMARK    1  A    between atoms: O1_2  and  C2_3 
REMARK    2  A    between atoms: C2_3  and  C3_5 
REMARK    3  A    between atoms: C8_11  and  N1_12 
REMARK    4  A    between atoms: N1_12  and  C9_14 
REMARK    5  A    between atoms: C9_14  and  C10_15 
ROOT
HETATM    1  C3  UNL     1      -3.249   3.707  11.203  1.00  0.00     0.077 C 
HETATM    2  C4  UNL     1      -4.229   3.395  10.077  1.00  0.00     0.188 C 
HETATM    3  O3  UNL     1      -4.343   2.034   9.995  1.00  0.00    -0.389 OA
HETATM    4  C5  UNL     1      -3.886   1.448  11.139  1.00  0.00     0.173 C 
HETATM    5  C6  UNL     1      -3.483   2.515  12.105  1.00  0.00     0.032 C 
HETATM    6  C7  UNL     1      -4.704   3.007  12.899  1.00  0.00     0.033 C 
HETATM    7  C8  UNL     1      -4.196   4.354  13.351  1.00  0.00     0.082 C 
HETATM    8  C17 UNL     1      -3.677   4.893  12.007  1.00  0.00     0.047 C 
ENDROOT
BRANCH   7   9
HETATM    9  N1  UNL     1      -5.151   5.254  13.818  1.00  0.00    -0.397 N 
ATOM     10  H1  UNL     1      -5.561   5.931  13.174  1.00  0.00     0.159 HD
BRANCH   9  11
HETATM   11  C9  UNL     1      -5.554   5.243  15.153  1.00  0.00     0.061 C 
BRANCH  11  12
HETATM   12  C10 UNL     1      -6.012   3.982  15.743  1.00  0.00     0.028 C 
HETATM   13  C11 UNL     1      -5.116   3.355  16.757  1.00  0.00     0.014 C 
HETATM   14  C12 UNL     1      -6.068   2.779  17.809  1.00  0.00    -0.013 C 
HETATM   15  C13 UNL     1      -6.315   3.898  18.794  1.00  0.00     0.005 C 
HETATM   16  C16 UNL     1      -7.433   2.783  17.098  1.00  0.00     0.010 C 
HETATM   17  C14 UNL     1      -6.979   4.929  17.867  1.00  0.00     0.005 C 
HETATM   18  C15 UNL     1      -7.275   4.229  16.580  1.00  0.00    -0.005 C 
ENDBRANCH  11  12
ENDBRANCH   9  11
ENDBRANCH   7   9
BRANCH   1  19
HETATM   19  C2  UNL     1      -1.874   3.822  10.733  1.00  0.00     0.270 C 
HETATM   20  O2  UNL     1      -0.929   3.768  11.553  1.00  0.00    -0.264 OA
BRANCH  19  21
HETATM   21  O1  UNL     1      -1.567   3.991   9.396  1.00  0.00    -0.326 OA
HETATM   22  C1  UNL     1      -0.811   5.098   8.918  1.00  0.00     0.213 C 
ENDBRANCH  19  21
ENDBRANCH   1  19
TORSDOF 5
ENDMDL
MODEL 3
REMARK VINA RESULT: -7.186634028      1.316      2.991
REMARK  5 active torsions:
REMARK  status: ('A' for Active; 'I' for Inactive)
REMARK    1  A    between atoms: O1_2  and  C2_3 
REMARK    2  A    between atoms: C2_3  and  C3_5 
REMARK    3  A    between atoms: C8_11  and  N1_12 
REMARK    4  A    between atoms: N1_12  and  C9_14 
REMARK    5  A    between atoms: C9_14  and  C10_15 
ROOT
HETATM    1  C3  UNL     1      -4.156   3.191  11.266  1.00  0.00     0.077 C 
HETATM    2  C4  UNL     1      -5.285   2.624  10.411  1.00  0.00     0.188 C 
HETATM    3  O3  UNL     1      -4.748   1.654   9.608  1.00  0.00    -0.389 OA
HETATM    4  C5  UNL     1      -3.537   1.254  10.090  1.00  0.00     0.173 C 
HETATM    5  C6  UNL     1      -3.258   1.976  11.369  1.00  0.00     0.032 C 
HETATM    6  C7  UNL     1      -3.918   1.247  12.550  1.00  0.00     0.033 C 
HETATM    7  C8  UNL     1      -3.977   2.374  13.552  1.00  0.00     0.082 C 
HETATM    8  C17 UNL     1      -4.597   3.468  12.667  1.00  0.00     0.047 C 
ENDROOT
BRANCH   7   9
HETATM    9  N1  UNL     1      -4.825   2.192  14.642  1.00  0.00    -0.397 N 
ATOM     10  H1  UNL     1      -5.788   1.895  14.486  1.00  0.00     0.159 HD
BRANCH   9  11
HETATM   11  C9  UNL     1      -4.376   2.410  15.944  1.00  0.00     0.061 C 
BRANCH  11  12
HETATM   12  C10 UNL     1      -4.974   3.497  16.726  1.00  0.00     0.028 C 
HETATM   13  C11 UNL     1      -5.855   4.444  15.984  1.00  0.00     0.014 C 
HETATM   14  C12 UNL     1      -6.992   4.758  16.962  1.00  0.00    -0.013 C 
HETATM   15  C13 UNL     1      -8.035   3.689  16.733  1.00  0.00     0.005 C 
HETATM   16  C16 UNL     1      -6.445   4.270  18.316  1.00  0.00     0.010 C 
HETATM   17  C14 UNL     1      -7.226   2.439  17.116  1.00  0.00     0.005 C 
HETATM   18  C15 UNL     1      -5.960   2.918  17.750  1.00  0.00    -0.005 C 
ENDBRANCH  11  12
ENDBRANCH   9  11
ENDBRANCH   7   9
BRANCH   1  19
HETATM   19  C2  UNL     1      -3.510   4.343  10.648  1.00  0.00     0.270 C 
HETATM   20  O2  UNL     1      -4.173   5.106   9.910  1.00  0.00    -0.264 OA
BRANCH  19  21
HETATM   21  O1  UNL     1      -2.174   4.631  10.850  1.00  0.00    -0.326 OA
HETATM   22  C1  UNL     1      -1.219   4.612   9.795  1.00  0.00     0.213 C 
ENDBRANCH  19  21
ENDBRANCH   1  19
TORSDOF 5
ENDMDL
MODEL 4
REMARK VINA RESULT: -7.057848346      1.079      1.478
REMARK  5 active torsions:
REMARK  status: ('A' for Active; 'I' for Inactive)
REMARK    1  A    between atoms: O1_2  and  C2_3 
REMARK    2  A    between atoms: C2_3  and  C3_5 
REMARK    3  A    between atoms: C8_11  and  N1_12 
REMARK    4  A    between atoms: N1_12  and  C9_14 
REMARK    5  A    between atoms: C9_14  and  C10_15 
ROOT
HETATM    1  C3  UNL     1      -2.974   4.419  11.600  1.00  0.00     0.077 C 
HETATM    2  C4  UNL     1      -1.704   5.262  11.676  1.00  0.00     0.188 C 
HETATM    3  O3  UNL     1      -1.626   5.994  10.522  1.00  0.00    -0.389 OA
HETATM    4  C5  UNL     1      -2.839   6.033   9.900  1.00  0.00     0.173 C 
HETATM    5  C6  UNL     1      -3.843   5.313  10.742  1.00  0.00     0.032 C 
HETATM    6  C7  UNL     1      -4.414   6.252  11.815  1.00  0.00     0.033 C 
HETATM    7  C8  UNL     1      -4.923   5.236  12.808  1.00  0.00     0.082 C 
HETATM    8  C17 UNL     1      -3.676   4.342  12.918  1.00  0.00     0.047 C 
ENDROOT
BRANCH   7   9
HETATM    9  N1  UNL     1      -5.211   5.707  14.087  1.00  0.00    -0.397 N 
ATOM     10  H1  UNL     1      -5.699   6.595  14.198  1.00  0.00     0.159 HD
BRANCH   9  11
HETATM   11  C9  UNL     1      -4.840   4.980  15.218  1.00  0.00     0.061 C 
BRANCH  11  12
HETATM   12  C10 UNL     1      -5.675   3.850  15.637  1.00  0.00     0.028 C 
HETATM   13  C11 UNL     1      -5.098   2.942  16.670  1.00  0.00     0.014 C 
HETATM   14  C12 UNL     1      -6.286   2.572  17.563  1.00  0.00    -0.013 C 
HETATM   15  C13 UNL     1      -6.352   3.648  18.622  1.00  0.00     0.005 C 
HETATM   16  C16 UNL     1      -7.509   2.986  16.725  1.00  0.00     0.010 C 
HETATM   17  C14 UNL     1      -6.613   4.878  17.736  1.00  0.00     0.005 C 
HETATM   18  C15 UNL     1      -6.923   4.369  16.366  1.00  0.00    -0.005 C 
ENDBRANCH  11  12
ENDBRANCH   9  11
ENDBRANCH   7   9
BRANCH   1  19
HETATM   19  C2  UNL     1      -2.738   3.102  11.020  1.00  0.00     0.270 C 
HETATM   20  O2  UNL     1      -1.684   2.483  11.290  1.00  0.00    -0.264 OA
BRANCH  19  21
HETATM   21  O1  UNL     1      -3.646   2.502  10.169  1.00  0.00    -0.326 OA
HETATM   22  C1  UNL     1      -4.660   1.618  10.632  1.00  0.00     0.213 C 
ENDBRANCH  19  21
ENDBRANCH   1  19
TORSDOF 5
ENDMDL
MODEL 5
REMARK VINA RESULT: -7.049836863      1.380      1.819
REMARK  5 active torsions:
REMARK  status: ('A' for Active; 'I' for Inactive)
REMARK    1  A    between atoms: O1_2  and  C2_3 
REMARK    2  A    between atoms: C2_3  and  C3_5 
REMARK    3  A    between atoms: C8_11  and  N1_12 
REMARK    4  A    between atoms: N1_12  and  C9_14 
REMARK    5  A    between atoms: C9_14  and  C10_15 
ROOT
HETATM    1  C3  UNL     1      -3.181   5.224  11.719  1.00  0.00     0.077 C 
HETATM    2  C4  UNL     1      -1.693   5.475  11.949  1.00  0.00     0.188 C 
HETATM    3  O3  UNL     1      -1.323   6.521  11.148  1.00  0.00    -0.389 OA
HETATM    4  C5  UNL     1      -2.420   7.217  10.736  1.00  0.00     0.173 C 
HETATM    5  C6  UNL     1      -3.639   6.623  11.365  1.00  0.00     0.032 C 
HETATM    6  C7  UNL     1      -3.855   7.205  12.771  1.00  0.00     0.033 C 
HETATM    7  C8  UNL     1      -4.726   6.128  13.369  1.00  0.00     0.082 C 
HETATM    8  C17 UNL     1      -3.896   4.890  12.988  1.00  0.00     0.047 C 
ENDROOT
BRANCH   7   9
HETATM    9  N1  UNL     1      -4.854   6.131  14.756  1.00  0.00    -0.397 N 
ATOM     10  H1  UNL     1      -4.049   6.371  15.335  1.00  0.00     0.159 HD
BRANCH   9  11
HETATM   11  C9  UNL     1      -6.067   5.810  15.364  1.00  0.00     0.061 C 
BRANCH  11  12
HETATM   12  C10 UNL     1      -6.357   4.405  15.668  1.00  0.00     0.028 C 
HETATM   13  C11 UNL     1      -5.246   3.611  16.267  1.00  0.00     0.014 C 
HETATM   14  C12 UNL     1      -5.933   2.703  17.292  1.00  0.00    -0.013 C 
HETATM   15  C13 UNL     1      -5.984   3.501  18.575  1.00  0.00     0.005 C 
HETATM   16  C16 UNL     1      -7.420   2.782  16.903  1.00  0.00     0.010 C 
HETATM   17  C14 UNL     1      -6.858   4.682  18.120  1.00  0.00     0.005 C 
HETATM   18  C15 UNL     1      -7.412   4.321  16.779  1.00  0.00    -0.005 C 
ENDBRANCH  11  12
ENDBRANCH   9  11
ENDBRANCH   7   9
BRANCH   1  19
HETATM   19  C2  UNL     1      -3.428   4.245  10.667  1.00  0.00     0.270 C 
HETATM   20  O2  UNL     1      -4.515   4.259  10.047  1.00  0.00    -0.264 OA
BRANCH  19  21
HETATM   21  O1  UNL     1      -2.493   3.287  10.323  1.00  0.00    -0.326 OA
HETATM   22  C1  UNL     1      -2.551   1.952  10.810  1.00  0.00     0.213 C 
ENDBRANCH  19  21
ENDBRANCH   1  19
TORSDOF 5
ENDMDL
