MODEL 1
REMARK VINA RESULT: -6.971958376      0.000      0.000
REMARK  6 active torsions:
REMARK  status: ('A' for Active; 'I' for Inactive)
REMARK    1  A    between atoms: C2_2  and  N1_3 
REMARK    2  A    between atoms: C2_2  and  C3_8 
REMARK    3  A    between atoms: C3_8  and  N2_9 
REMARK       I    between atoms: N2_9  and  C4_10 
REMARK    4  A    between atoms: N2_9  and  C15_24 
REMARK       I    between atoms: C4_10  and  N3_12 
REMARK    5  A    between atoms: N3_12  and  C5_14 
REMARK    6  A    between atoms: C5_14  and  C6_15 
ROOT
HETATM    1  N2  UNL     1      -3.180   4.786  11.470  1.00  0.00    -0.324 N 
HETATM    2  C4  UNL     1      -3.070   5.117  12.878  1.00  0.00     0.318 C 
HETATM    3  O1  UNL     1      -2.026   5.793  13.185  1.00  0.00    -0.247 OA
HETATM    4  N3  UNL     1      -3.962   4.789  13.894  1.00  0.00    -0.343 N 
ATOM      5  H3  UNL     1      -4.814   4.266  13.695  1.00  0.00     0.164 HD
ENDROOT
BRANCH   1   6
HETATM    6  C3  UNL     1      -4.225   3.888  11.102  1.00  0.00     0.183 C 
BRANCH   6   7
HETATM    7  C2  UNL     1      -4.023   2.428  11.193  1.00  0.00     0.211 C 
HETATM    8  C1  UNL     1      -2.734   1.854  10.695  1.00  0.00     0.066 C 
HETATM    9 CL1  UNL     1      -4.349   1.747  12.832  1.00  0.00    -0.087 Cl
BRANCH   7  10
HETATM   10  N1  UNL     1      -5.093   1.816  10.352  1.00  0.00    -0.056 N 
ATOM     11  H13 UNL     1      -5.444   2.437   9.624  1.00  0.00     0.276 HD
ATOM     12  H12 UNL     1      -4.753   1.080   9.733  1.00  0.00     0.276 HD
ATOM     13  H11 UNL     1      -5.812   1.502  11.003  1.00  0.00     0.276 HD
ENDBRANCH   7  10
ENDBRANCH   6   7
ENDBRANCH   1   6
BRANCH   1  14
HETATM   14  C15 UNL     1      -2.281   5.479  10.635  1.00  0.00     0.116 C 
HETATM   15  C16 UNL     1      -3.071   6.179   9.455  1.00  0.00     0.054 C 
HETATM   16  C17 UNL     1      -1.884   6.870   8.824  1.00  0.00     0.234 C 
HETATM   17  N4  UNL     1      -0.828   5.897   8.870  1.00  0.00    -0.073 N 
HETATM   18  C18 UNL     1      -1.294   4.807   9.769  1.00  0.00     0.257 C 
ATOM     19  H42 UNL     1      -0.544   5.566   7.949  1.00  0.00     0.277 HD
ATOM     20  H41 UNL     1       0.072   6.291   9.146  1.00  0.00     0.277 HD
ENDBRANCH   1  14
BRANCH   4  21
HETATM   21  C5  UNL     1      -3.643   5.214  15.251  1.00  0.00     0.129 C 
BRANCH  21  22
HETATM   22  C6  UNL     1      -4.748   4.915  16.218  1.00  0.00     0.009 C 
HETATM   23  C7  UNL     1      -6.077   5.521  15.767  1.00  0.00     0.011 C 
HETATM   24  C8  UNL     1      -7.113   4.808  16.650  1.00  0.00    -0.013 C 
HETATM   25  C9  UNL     1      -6.572   4.547  18.029  1.00  0.00     0.010 C 
HETATM   26  C13 UNL     1      -7.274   3.446  15.964  1.00  0.00     0.010 C 
HETATM   27  C10 UNL     1      -5.505   3.491  18.032  1.00  0.00    -0.009 C 
HETATM   28  C11 UNL     1      -6.076   2.134  17.599  1.00  0.00     0.010 C 
HETATM   29  C14 UNL     1      -4.851   3.508  16.642  1.00  0.00    -0.001 C 
HETATM   30  C12 UNL     1      -5.991   2.708  16.171  1.00  0.00    -0.009 C 
ENDBRANCH  21  22
ENDBRANCH   4  21
TORSDOF 6
ENDMDL
MODEL 2
REMARK VINA RESULT: -6.742646730      3.870      7.378
REMARK  6 active torsions:
REMARK  status: ('A' for Active; 'I' for Inactive)
REMARK    1  A    between atoms: C2_2  and  N1_3 
REMARK    2  A    between atoms: C2_2  and  C3_8 
REMARK    3  A    between atoms: C3_8  and  N2_9 
REMARK       I    between atoms: N2_9  and  C4_10 
REMARK    4  A    between atoms: N2_9  and  C15_24 
REMARK       I    between atoms: C4_10  and  N3_12 
REMARK    5  A    between atoms: N3_12  and  C5_14 
REMARK    6  A    between atoms: C5_14  and  C6_15 
ROOT
HETATM    1  N2  UNL     1      -4.141   4.877  11.806  1.00  0.00    -0.324 N 
HETATM    2  C4  UNL     1      -4.166   5.873  10.752  1.00  0.00     0.318 C 
HETATM    3  O1  UNL     1      -3.714   5.467   9.625  1.00  0.00    -0.247 OA
HETATM    4  N3  UNL     1      -4.624   7.184  10.841  1.00  0.00    -0.343 N 
ATOM      5  H3  UNL     1      -5.007   7.548  11.714  1.00  0.00     0.164 HD
ENDROOT
BRANCH   1   6
HETATM    6  C3  UNL     1      -4.464   5.325  13.120  1.00  0.00     0.183 C 
BRANCH   6   7
HETATM    7  C2  UNL     1      -3.433   5.948  13.973  1.00  0.00     0.211 C 
HETATM    8  C1  UNL     1      -2.055   6.119  13.416  1.00  0.00     0.066 C 
HETATM    9 CL1  UNL     1      -3.943   7.513  14.710  1.00  0.00    -0.087 Cl
BRANCH   7  10
HETATM   10  N1  UNL     1      -3.284   5.049  15.155  1.00  0.00    -0.056 N 
ATOM     11  H13 UNL     1      -4.104   4.468  15.331  1.00  0.00     0.276 HD
ATOM     12  H12 UNL     1      -2.624   4.286  15.007  1.00  0.00     0.276 HD
ATOM     13  H11 UNL     1      -3.039   5.656  15.937  1.00  0.00     0.276 HD
ENDBRANCH   7  10
ENDBRANCH   6   7
ENDBRANCH   1   6
BRANCH   1  14
HETATM   14  C15 UNL     1      -3.883   3.564  11.362  1.00  0.00     0.116 C 
HETATM   15  C16 UNL     1      -4.481   2.520  12.392  1.00  0.00     0.054 C 
HETATM   16  C17 UNL     1      -4.124   1.273  11.616  1.00  0.00     0.234 C 
HETATM   17  N4  UNL     1      -2.802   1.522  11.110  1.00  0.00    -0.073 N 
HETATM   18  C18 UNL     1      -2.534   2.971  11.321  1.00  0.00     0.257 C 
ATOM     19  H42 UNL     1      -2.093   0.917  11.521  1.00  0.00     0.277 HD
ATOM     20  H41 UNL     1      -2.678   1.225  10.142  1.00  0.00     0.277 HD
ENDBRANCH   1  14
BRANCH   4  21
HETATM   21  C5  UNL     1      -4.540   8.023   9.653  1.00  0.00     0.129 C 
BRANCH  21  22
HETATM   22  C6  UNL     1      -5.890   8.402   9.125  1.00  0.00     0.009 C 
HETATM   23  C7  UNL     1      -6.750   9.076  10.194  1.00  0.00     0.011 C 
HETATM   24  C8  UNL     1      -7.895   9.707   9.387  1.00  0.00    -0.013 C 
HETATM   25  C9  UNL     1      -8.282   8.845   8.217  1.00  0.00     0.010 C 
HETATM   26  C13 UNL     1      -7.256  10.980   8.818  1.00  0.00     0.010 C 
HETATM   27  C10 UNL     1      -7.230   8.831   7.146  1.00  0.00    -0.009 C 
HETATM   28  C11 UNL     1      -7.055  10.227   6.532  1.00  0.00     0.010 C 
HETATM   29  C14 UNL     1      -5.885   9.113   7.833  1.00  0.00    -0.001 C 
HETATM   30  C12 UNL     1      -6.247  10.537   7.808  1.00  0.00    -0.009 C 
ENDBRANCH  21  22
ENDBRANCH   4  21
TORSDOF 6
ENDMDL
MODEL 3
REMARK VINA RESULT: -6.717421904      2.274      3.752
REMARK  6 active torsions:
REMARK  status: ('A' for Active; 'I' for Inactive)
REMARK    1  A    between atoms: C2_2  and  N1_3 
REMARK    2  A    between atoms: C2_2  and  C3_8 
REMARK    3  A    between atoms: C3_8  and  N2_9 
REMARK       I    between atoms: N2_9  and  C4_10 
REMARK    4  A    between atoms: N2_9  and  C15_24 
REMARK       I    between atoms: C4_10  and  N3_12 
REMARK    5  A    between atoms: N3_12  and  C5_14 
REMARK    6  A    between atoms: C5_14  and  C6_15 
ROOT
HETATM    1  N2  UNL     1      -2.459   5.508  10.478  1.00  0.00    -0.324 N 
HETATM    2  C4  UNL     1      -3.367   4.506  11.002  1.00  0.00     0.318 C 
HETATM    3  O1  UNL     1      -4.486   4.428  10.385  1.00  0.00    -0.247 OA
HETATM    4  N3  UNL     1      -3.146   3.645  12.072  1.00  0.00    -0.343 N 
ATOM      5  H3  UNL     1      -2.264   3.661  12.585  1.00  0.00     0.164 HD
ENDROOT
BRANCH   1   6
HETATM    6  C3  UNL     1      -1.276   5.761  11.233  1.00  0.00     0.183 C 
BRANCH   6   7
HETATM    7  C2  UNL     1      -1.279   6.768  12.313  1.00  0.00     0.211 C 
HETATM    8  C1  UNL     1      -0.255   7.859  12.274  1.00  0.00     0.066 C 
HETATM    9 CL1  UNL     1      -2.893   7.519  12.606  1.00  0.00    -0.087 Cl
BRANCH   7  10
HETATM   10  N1  UNL     1      -1.022   6.014  13.574  1.00  0.00    -0.056 N 
ATOM     11  H13 UNL     1      -0.215   5.392  13.520  1.00  0.00     0.276 HD
ATOM     12  H12 UNL     1      -0.675   6.598  14.335  1.00  0.00     0.276 HD
ATOM     13  H11 UNL     1      -1.894   5.533  13.793  1.00  0.00     0.276 HD
ENDBRANCH   7  10
ENDBRANCH   6   7
ENDBRANCH   1   6
BRANCH   1  14
HETATM   14  C15 UNL     1      -2.833   6.039   9.227  1.00  0.00     0.116 C 
HETATM   15  C16 UNL     1      -1.542   6.350   8.365  1.00  0.00     0.054 C 
HETATM   16  C17 UNL     1      -2.261   6.804   7.115  1.00  0.00     0.234 C 
HETATM   17  N4  UNL     1      -3.352   7.608   7.593  1.00  0.00    -0.073 N 
HETATM   18  C18 UNL     1      -3.443   7.371   9.059  1.00  0.00     0.257 C 
ATOM     19  H42 UNL     1      -3.264   8.594   7.349  1.00  0.00     0.277 HD
ATOM     20  H41 UNL     1      -4.229   7.433   7.100  1.00  0.00     0.277 HD
ENDBRANCH   1  14
BRANCH   4  21
HETATM   21  C5  UNL     1      -4.211   2.721  12.441  1.00  0.00     0.129 C 
BRANCH  21  22
HETATM   22  C6  UNL     1      -4.921   3.137  13.693  1.00  0.00     0.009 C 
HETATM   23  C7  UNL     1      -4.513   2.279  14.890  1.00  0.00     0.011 C 
HETATM   24  C8  UNL     1      -5.034   3.076  16.096  1.00  0.00    -0.013 C 
HETATM   25  C9  UNL     1      -6.334   3.763  15.780  1.00  0.00     0.010 C 
HETATM   26  C13 UNL     1      -3.975   4.173  16.269  1.00  0.00     0.010 C 
HETATM   27  C10 UNL     1      -6.159   4.899  14.814  1.00  0.00    -0.009 C 
HETATM   28  C11 UNL     1      -5.296   6.011  15.428  1.00  0.00     0.010 C 
HETATM   29  C14 UNL     1      -4.914   4.585  13.970  1.00  0.00    -0.001 C 
HETATM   30  C12 UNL     1      -4.109   5.086  15.093  1.00  0.00    -0.009 C 
ENDBRANCH  21  22
ENDBRANCH   4  21
TORSDOF 6
ENDMDL
MODEL 4
REMARK VINA RESULT: -6.686741968      3.543      6.662
REMARK  6 active torsions:
REMARK  status: ('A' for Active; 'I' for Inactive)
REMARK    1  A    between atoms: C2_2  and  N1_3 
REMARK    2  A    between atoms: C2_2  and  C3_8 
REMARK    3  A    between atoms: C3_8  and  N2_9 
REMARK       I    between atoms: N2_9  and  C4_10 
REMARK    4  A    between atoms: N2_9  and  C15_24 
REMARK       I    between atoms: C4_10  and  N3_12 
REMARK    5  A    between atoms: N3_12  and  C5_14 
REMARK    6  A    between atoms: C5_14  and  C6_15 
ROOT
HETATM    1  N2  UNL     1      -4.715   4.436  12.843  1.00  0.00    -0.324 N 
HETATM    2  C4  UNL     1      -4.133   5.638  12.276  1.00  0.00     0.318 C 
HETATM    3  O1  UNL     1      -3.079   5.439  11.578  1.00  0.00    -0.247 OA
HETATM    4  N3  UNL     1      -4.598   6.942  12.408  1.00  0.00    -0.343 N 
ATOM      5  H3  UNL     1      -5.443   7.147  12.942  1.00  0.00     0.164 HD
ENDROOT
BRANCH   1   6
HETATM    6  C3  UNL     1      -5.783   4.616  13.772  1.00  0.00     0.183 C 
BRANCH   6   7
HETATM    7  C2  UNL     1      -5.500   4.982  15.174  1.00  0.00     0.211 C 
HETATM    8  C1  UNL     1      -4.120   4.757  15.706  1.00  0.00     0.066 C 
HETATM    9 CL1  UNL     1      -6.006   6.659  15.606  1.00  0.00    -0.087 Cl
BRANCH   7  10
HETATM   10  N1  UNL     1      -6.401   4.131  16.006  1.00  0.00    -0.056 N 
ATOM     11  H13 UNL     1      -6.051   3.184  16.147  1.00  0.00     0.276 HD
ATOM     12  H12 UNL     1      -6.422   4.401  16.989  1.00  0.00     0.276 HD
ATOM     13  H11 UNL     1      -7.313   4.166  15.552  1.00  0.00     0.276 HD
ENDBRANCH   7  10
ENDBRANCH   6   7
ENDBRANCH   1   6
BRANCH   1  14
HETATM   14  C15 UNL     1      -4.197   3.233  12.322  1.00  0.00     0.116 C 
HETATM   15  C16 UNL     1      -5.063   2.765  11.082  1.00  0.00     0.054 C 
HETATM   16  C17 UNL     1      -4.232   1.554  10.724  1.00  0.00     0.234 C 
HETATM   17  N4  UNL     1      -3.900   0.953  11.987  1.00  0.00    -0.073 N 
HETATM   18  C18 UNL     1      -4.259   1.945  13.037  1.00  0.00     0.257 C 
ATOM     19  H42 UNL     1      -4.337   0.043  12.127  1.00  0.00     0.277 HD
ATOM     20  H41 UNL     1      -2.931   0.639  12.042  1.00  0.00     0.277 HD
ENDBRANCH   1  14
BRANCH   4  21
HETATM   21  C5  UNL     1      -3.843   8.008  11.762  1.00  0.00     0.129 C 
BRANCH  21  22
HETATM   22  C6  UNL     1      -4.721   9.126  11.290  1.00  0.00     0.009 C 
HETATM   23  C7  UNL     1      -3.952  10.130  10.430  1.00  0.00     0.011 C 
HETATM   24  C8  UNL     1      -5.063  10.950   9.757  1.00  0.00    -0.013 C 
HETATM   25  C9  UNL     1      -6.237  11.144  10.677  1.00  0.00     0.010 C 
HETATM   26  C13 UNL     1      -5.529  10.033   8.619  1.00  0.00     0.010 C 
HETATM   27  C10 UNL     1      -6.999   9.871  10.904  1.00  0.00    -0.009 C 
HETATM   28  C11 UNL     1      -7.635   9.373   9.599  1.00  0.00     0.010 C 
HETATM   29  C14 UNL     1      -6.010   8.712  10.707  1.00  0.00    -0.001 C 
HETATM   30  C12 UNL     1      -6.217   8.872   9.261  1.00  0.00    -0.009 C 
ENDBRANCH  21  22
ENDBRANCH   4  21
TORSDOF 6
ENDMDL
MODEL 5
REMARK VINA RESULT: -6.665383572      4.009      7.127
REMARK  6 active torsions:
REMARK  status: ('A' for Active; 'I' for Inactive)
REMARK    1  A    between atoms: C2_2  and  N1_3 
REMARK    2  A    between atoms: C2_2  and  C3_8 
REMARK    3  A    between atoms: C3_8  and  N2_9 
REMARK       I    between atoms: N2_9  and  C4_10 
REMARK    4  A    between atoms: N2_9  and  C15_24 
REMARK       I    between atoms: C4_10  and  N3_12 
REMARK    5  A    between atoms: N3_12  and  C5_14 
REMARK    6  A    between atoms: C5_14  and  C6_15 
ROOT
HETATM    1  N2  UNL     1      -3.436   5.406  11.450  1.00  0.00    -0.324 N 
HETATM    2  C4  UNL     1      -3.737   6.194  10.271  1.00  0.00     0.318 C 
HETATM    3  O1  UNL     1      -3.842   5.516   9.190  1.00  0.00    -0.247 OA
HETATM    4  N3  UNL     1      -3.924   7.571  10.201  1.00  0.00    -0.343 N 
ATOM      5  H3  UNL     1      -3.866   8.151  11.039  1.00  0.00     0.164 HD
ENDROOT
BRANCH   1   6
HETATM    6  C3  UNL     1      -3.134   6.126  12.644  1.00  0.00     0.183 C 
BRANCH   6   7
HETATM    7  C2  UNL     1      -1.752   6.565  12.923  1.00  0.00     0.211 C 
HETATM    8  C1  UNL     1      -0.683   6.230  11.931  1.00  0.00     0.066 C 
HETATM    9 CL1  UNL     1      -1.611   8.315  13.337  1.00  0.00    -0.087 Cl
BRANCH   7  10
HETATM   10  N1  UNL     1      -1.358   5.884  14.191  1.00  0.00    -0.056 N 
ATOM     11  H13 UNL     1      -0.392   5.554  14.193  1.00  0.00     0.276 HD
ATOM     12  H12 UNL     1      -1.271   6.518  14.985  1.00  0.00     0.276 HD
ATOM     13  H11 UNL     1      -2.043   5.142  14.333  1.00  0.00     0.276 HD
ENDBRANCH   7  10
ENDBRANCH   6   7
ENDBRANCH   1   6
BRANCH   1  14
HETATM   14  C15 UNL     1      -3.573   4.014  11.274  1.00  0.00     0.116 C 
HETATM   15  C16 UNL     1      -4.293   3.379  12.533  1.00  0.00     0.054 C 
HETATM   16  C17 UNL     1      -4.357   1.962  12.012  1.00  0.00     0.234 C 
HETATM   17  N4  UNL     1      -3.082   1.746  11.384  1.00  0.00    -0.073 N 
HETATM   18  C18 UNL     1      -2.433   3.080  11.272  1.00  0.00     0.257 C 
ATOM     19  H42 UNL     1      -2.507   1.056  11.866  1.00  0.00     0.277 HD
ATOM     20  H41 UNL     1      -3.150   1.253  10.492  1.00  0.00     0.277 HD
ENDBRANCH   1  14
BRANCH   4  21
HETATM   21  C5  UNL     1      -4.204   8.161   8.899  1.00  0.00     0.129 C 
BRANCH  21  22
HETATM   22  C6  UNL     1      -5.409   9.052   8.922  1.00  0.00     0.009 C 
HETATM   23  C7  UNL     1      -6.645   8.324   9.451  1.00  0.00     0.011 C 
HETATM   24  C8  UNL     1      -7.632   9.463   9.747  1.00  0.00    -0.013 C 
HETATM   25  C9  UNL     1      -7.504  10.576   8.743  1.00  0.00     0.010 C 
HETATM   26  C13 UNL     1      -7.136  10.009  11.092  1.00  0.00     0.010 C 
HETATM   27  C10 UNL     1      -6.221  11.339   8.900  1.00  0.00    -0.009 C 
HETATM   28  C11 UNL     1      -6.175  12.061  10.254  1.00  0.00     0.010 C 
HETATM   29  C14 UNL     1      -5.199  10.380   9.527  1.00  0.00    -0.001 C 
HETATM   30  C12 UNL     1      -5.823  10.672  10.826  1.00  0.00    -0.009 C 
ENDBRANCH  21  22
ENDBRANCH   4  21
TORSDOF 6
ENDMDL
