MODEL 1
REMARK VINA RESULT: -8.952181364      0.000      0.000
REMARK  5 active torsions:
REMARK  status: ('A' for Active; 'I' for Inactive)
REMARK    1  A    between atoms: C2_2  and  C3_4 
REMARK    2  A    between atoms: C11_12  and  O2_13 
REMARK    3  A    between atoms: C19_22  and  O3_23 
REMARK    4  A    between atoms: C20_25  and  O4_26 
REMARK    5  A    between atoms: O4_26  and  S1_27 
ROOT
HETATM    1  C3  UNL     1       4.377  41.496  25.550  1.00  0.00     0.022 C 
HETATM    2  C4  UNL     1       5.690  42.290  25.428  1.00  0.00     0.024 C 
HETATM    3  C5  UNL     1       4.795  40.061  25.633  1.00  0.00     0.018 C 
HETATM    4  C6  UNL     1       5.082  39.379  24.363  1.00  0.00     0.011 C 
HETATM    5  C7  UNL     1       4.766  40.046  23.083  1.00  0.00    -0.040 C 
HETATM    6  C8  UNL     1       6.045  40.027  22.218  1.00  0.00     0.015 C 
HETATM    7  C9  UNL     1       4.389  41.496  23.158  1.00  0.00     0.018 C 
HETATM    8  C10 UNL     1       3.533  41.816  24.364  1.00  0.00     0.030 C 
HETATM    9  C11 UNL     1       2.184  41.209  24.323  1.00  0.00     0.123 C 
HETATM   10  C12 UNL     1       1.809  40.595  22.981  1.00  0.00     0.038 C 
HETATM   11  C13 UNL     1       2.404  39.231  22.840  1.00  0.00     0.001 C 
HETATM   12  C14 UNL     1       3.767  39.250  22.231  1.00  0.00    -0.002 C 
HETATM   13  C15 UNL     1       3.829  39.623  20.790  1.00  0.00     0.006 C 
HETATM   14  C16 UNL     1       2.516  39.244  20.097  1.00  0.00     0.006 C 
HETATM   15  C17 UNL     1       2.049  37.994  20.765  1.00  0.00    -0.003 C 
HETATM   16  C18 UNL     1       1.031  37.204  20.025  1.00  0.00     0.039 C 
HETATM   17  C19 UNL     1       1.001  35.823  20.629  1.00  0.00     0.148 C 
HETATM   18  C20 UNL     1       0.984  35.767  22.094  1.00  0.00     0.171 C 
HETATM   19  C22 UNL     1       1.635  36.867  22.843  1.00  0.00     0.046 C 
HETATM   20  C23 UNL     1       1.533  38.220  22.160  1.00  0.00    -0.034 C 
HETATM   21  C24 UNL     1       0.058  38.583  22.183  1.00  0.00     0.016 C 
ENDROOT
BRANCH  18  22
HETATM   22  O4  UNL     1       1.616  34.567  22.499  1.00  0.00    -0.268 OA
BRANCH  22  23
HETATM   23  S1  UNL     1       0.555  33.488  23.166  1.00  0.00     0.261 S 
HETATM   24  C21 UNL     1       1.320  32.189  24.063  1.00  0.00     0.194 C 
HETATM   25  O5  UNL     1      -0.481  34.189  24.028  1.00  0.00    -0.199 OA
HETATM   26  O6  UNL     1      -0.236  32.862  22.027  1.00  0.00    -0.199 OA
ENDBRANCH  22  23
ENDBRANCH  18  22
BRANCH  17  27
HETATM   27  O3  UNL     1      -0.146  35.186  20.118  1.00  0.00    -0.393 OA
ATOM     28  H3  UNL     1       0.056  34.259  20.074  1.00  0.00     0.210 HD
ENDBRANCH  17  27
BRANCH   9  29
HETATM   29  O2  UNL     1       1.960  40.199  25.261  1.00  0.00    -0.395 OA
ATOM     30  H2  UNL     1       1.121  40.239  25.705  1.00  0.00     0.210 HD
ENDBRANCH   9  29
BRANCH   1  31
HETATM   31  C2  UNL     1       3.763  41.944  26.816  1.00  0.00     0.131 C 
HETATM   32  C1  UNL     1       3.413  43.368  27.086  1.00  0.00     0.091 C 
HETATM   33  O1  UNL     1       3.531  41.118  27.679  1.00  0.00    -0.298 OA
ENDBRANCH   1  31
TORSDOF 5
ENDMDL
MODEL 2
REMARK VINA RESULT: -8.769395746      3.473      4.872
REMARK  5 active torsions:
REMARK  status: ('A' for Active; 'I' for Inactive)
REMARK    1  A    between atoms: C2_2  and  C3_4 
REMARK    2  A    between atoms: C11_12  and  O2_13 
REMARK    3  A    between atoms: C19_22  and  O3_23 
REMARK    4  A    between atoms: C20_25  and  O4_26 
REMARK    5  A    between atoms: O4_26  and  S1_27 
ROOT
HETATM    1  C3  UNL     1       3.538  41.692  21.742  1.00  0.00     0.022 C 
HETATM    2  C4  UNL     1       3.075  42.184  20.360  1.00  0.00     0.024 C 
HETATM    3  C5  UNL     1       4.745  40.848  21.473  1.00  0.00     0.018 C 
HETATM    4  C6  UNL     1       4.504  39.456  21.065  1.00  0.00     0.011 C 
HETATM    5  C7  UNL     1       3.137  38.899  21.128  1.00  0.00    -0.040 C 
HETATM    6  C8  UNL     1       2.813  38.298  19.743  1.00  0.00     0.015 C 
HETATM    7  C9  UNL     1       2.026  39.874  21.379  1.00  0.00     0.018 C 
HETATM    8  C10 UNL     1       2.407  40.952  22.370  1.00  0.00     0.030 C 
HETATM    9  C11 UNL     1       2.618  40.455  23.748  1.00  0.00     0.123 C 
HETATM   10  C12 UNL     1       2.172  39.017  23.976  1.00  0.00     0.038 C 
HETATM   11  C13 UNL     1       3.212  38.058  23.493  1.00  0.00     0.001 C 
HETATM   12  C14 UNL     1       3.036  37.682  22.059  1.00  0.00    -0.002 C 
HETATM   13  C15 UNL     1       1.852  36.831  21.753  1.00  0.00     0.006 C 
HETATM   14  C16 UNL     1       1.485  35.989  22.979  1.00  0.00     0.006 C 
HETATM   15  C17 UNL     1       2.776  35.662  23.650  1.00  0.00    -0.003 C 
HETATM   16  C18 UNL     1       2.739  34.532  24.615  1.00  0.00     0.039 C 
HETATM   17  C19 UNL     1       4.161  34.096  24.859  1.00  0.00     0.148 C 
HETATM   18  C20 UNL     1       5.128  35.173  25.096  1.00  0.00     0.171 C 
HETATM   19  C22 UNL     1       4.877  36.489  24.465  1.00  0.00     0.046 C 
HETATM   20  C23 UNL     1       3.404  36.841  24.342  1.00  0.00    -0.034 C 
HETATM   21  C24 UNL     1       2.902  37.014  25.766  1.00  0.00     0.016 C 
ENDROOT
BRANCH  18  22
HETATM   22  O4  UNL     1       6.396  34.737  24.641  1.00  0.00    -0.268 OA
BRANCH  22  23
HETATM   23  S1  UNL     1       7.327  34.122  25.862  1.00  0.00     0.261 S 
HETATM   24  C21 UNL     1       7.055  34.877  27.422  1.00  0.00     0.194 C 
HETATM   25  O5  UNL     1       7.176  32.614  25.970  1.00  0.00    -0.199 OA
HETATM   26  O6  UNL     1       8.783  34.348  25.485  1.00  0.00    -0.199 OA
ENDBRANCH  22  23
ENDBRANCH  18  22
BRANCH  17  27
HETATM   27  O3  UNL     1       4.131  33.234  25.971  1.00  0.00    -0.393 OA
ATOM     28  H3  UNL     1       4.694  33.623  26.631  1.00  0.00     0.210 HD
ENDBRANCH  17  27
BRANCH   9  29
HETATM   29  O2  UNL     1       3.940  40.502  24.198  1.00  0.00    -0.395 OA
ATOM     30  H2  UNL     1       4.052  40.381  25.134  1.00  0.00     0.210 HD
ENDBRANCH   9  29
BRANCH   1  31
HETATM   31  C2  UNL     1       3.899  42.911  22.492  1.00  0.00     0.131 C 
HETATM   32  C1  UNL     1       3.002  44.098  22.591  1.00  0.00     0.091 C 
HETATM   33  O1  UNL     1       4.976  42.953  23.058  1.00  0.00    -0.298 OA
ENDBRANCH   1  31
TORSDOF 5
ENDMDL
MODEL 3
REMARK VINA RESULT: -8.765615022      3.048      4.392
REMARK  5 active torsions:
REMARK  status: ('A' for Active; 'I' for Inactive)
REMARK    1  A    between atoms: C2_2  and  C3_4 
REMARK    2  A    between atoms: C11_12  and  O2_13 
REMARK    3  A    between atoms: C19_22  and  O3_23 
REMARK    4  A    between atoms: C20_25  and  O4_26 
REMARK    5  A    between atoms: O4_26  and  S1_27 
ROOT
HETATM    1  C3  UNL     1       3.380  41.900  21.627  1.00  0.00     0.022 C 
HETATM    2  C4  UNL     1       3.173  42.462  20.209  1.00  0.00     0.024 C 
HETATM    3  C5  UNL     1       4.518  40.935  21.503  1.00  0.00     0.018 C 
HETATM    4  C6  UNL     1       4.192  39.584  21.022  1.00  0.00     0.011 C 
HETATM    5  C7  UNL     1       2.780  39.177  20.876  1.00  0.00    -0.040 C 
HETATM    6  C8  UNL     1       2.595  38.637  19.442  1.00  0.00     0.015 C 
HETATM    7  C9  UNL     1       1.753  40.263  21.000  1.00  0.00     0.018 C 
HETATM    8  C10 UNL     1       2.100  41.278  22.067  1.00  0.00     0.030 C 
HETATM    9  C11 UNL     1       2.060  40.739  23.445  1.00  0.00     0.123 C 
HETATM   10  C12 UNL     1       1.437  39.355  23.564  1.00  0.00     0.038 C 
HETATM   11  C13 UNL     1       2.429  38.297  23.201  1.00  0.00     0.001 C 
HETATM   12  C14 UNL     1       2.420  37.964  21.746  1.00  0.00    -0.002 C 
HETATM   13  C15 UNL     1       1.209  37.252  21.251  1.00  0.00     0.006 C 
HETATM   14  C16 UNL     1       0.584  36.435  22.387  1.00  0.00     0.006 C 
HETATM   15  C17 UNL     1       1.726  35.959  23.222  1.00  0.00    -0.003 C 
HETATM   16  C18 UNL     1       1.433  34.825  24.137  1.00  0.00     0.039 C 
HETATM   17  C19 UNL     1       2.752  34.234  24.563  1.00  0.00     0.148 C 
HETATM   18  C20 UNL     1       3.783  35.195  24.966  1.00  0.00     0.171 C 
HETATM   19  C22 UNL     1       3.764  36.540  24.348  1.00  0.00     0.046 C 
HETATM   20  C23 UNL     1       2.369  37.052  24.031  1.00  0.00    -0.034 C 
HETATM   21  C24 UNL     1       1.690  37.256  25.375  1.00  0.00     0.016 C 
ENDROOT
BRANCH  18  22
HETATM   22  O4  UNL     1       5.050  34.632  24.680  1.00  0.00    -0.268 OA
BRANCH  22  23
HETATM   23  S1  UNL     1       6.098  34.755  25.954  1.00  0.00     0.261 S 
HETATM   24  C21 UNL     1       7.185  33.389  26.124  1.00  0.00     0.194 C 
HETATM   25  O5  UNL     1       6.884  36.054  25.902  1.00  0.00    -0.199 OA
HETATM   26  O6  UNL     1       5.265  34.846  27.223  1.00  0.00    -0.199 OA
ENDBRANCH  22  23
ENDBRANCH  18  22
BRANCH  17  27
HETATM   27  O3  UNL     1       2.474  33.362  25.633  1.00  0.00    -0.393 OA
ATOM     28  H3  UNL     1       3.193  33.450  26.248  1.00  0.00     0.210 HD
ENDBRANCH  17  27
BRANCH   9  29
HETATM   29  O2  UNL     1       3.301  40.635  24.077  1.00  0.00    -0.395 OA
ATOM     30  H2  UNL     1       3.302  40.848  25.003  1.00  0.00     0.210 HD
ENDBRANCH   9  29
BRANCH   1  31
HETATM   31  C2  UNL     1       3.758  43.061  22.457  1.00  0.00     0.131 C 
HETATM   32  C1  UNL     1       2.965  44.323  22.493  1.00  0.00     0.091 C 
HETATM   33  O1  UNL     1       4.759  42.989  23.146  1.00  0.00    -0.298 OA
ENDBRANCH   1  31
TORSDOF 5
ENDMDL
MODEL 4
REMARK VINA RESULT: -8.480744551      2.360      3.557
REMARK  5 active torsions:
REMARK  status: ('A' for Active; 'I' for Inactive)
REMARK    1  A    between atoms: C2_2  and  C3_4 
REMARK    2  A    between atoms: C11_12  and  O2_13 
REMARK    3  A    between atoms: C19_22  and  O3_23 
REMARK    4  A    between atoms: C20_25  and  O4_26 
REMARK    5  A    between atoms: O4_26  and  S1_27 
ROOT
HETATM    1  C3  UNL     1       4.137  41.719  22.349  1.00  0.00     0.022 C 
HETATM    2  C4  UNL     1       4.180  42.536  21.046  1.00  0.00     0.024 C 
HETATM    3  C5  UNL     1       5.013  40.532  22.097  1.00  0.00     0.018 C 
HETATM    4  C6  UNL     1       4.408  39.402  21.375  1.00  0.00     0.011 C 
HETATM    5  C7  UNL     1       2.954  39.393  21.113  1.00  0.00    -0.040 C 
HETATM    6  C8  UNL     1       2.753  39.156  19.601  1.00  0.00     0.015 C 
HETATM    7  C9  UNL     1       2.214  40.668  21.391  1.00  0.00     0.018 C 
HETATM    8  C10 UNL     1       2.714  41.376  22.631  1.00  0.00     0.030 C 
HETATM    9  C11 UNL     1       2.441  40.649  23.891  1.00  0.00     0.123 C 
HETATM   10  C12 UNL     1       1.494  39.466  23.744  1.00  0.00     0.038 C 
HETATM   11  C13 UNL     1       2.225  38.265  23.235  1.00  0.00     0.001 C 
HETATM   12  C14 UNL     1       2.246  38.185  21.744  1.00  0.00    -0.002 C 
HETATM   13  C15 UNL     1       0.940  37.890  21.092  1.00  0.00     0.006 C 
HETATM   14  C16 UNL     1       0.052  37.084  22.045  1.00  0.00     0.006 C 
HETATM   15  C17 UNL     1       0.977  36.208  22.821  1.00  0.00    -0.003 C 
HETATM   16  C18 UNL     1       0.350  35.052  23.513  1.00  0.00     0.039 C 
HETATM   17  C19 UNL     1       1.451  34.087  23.872  1.00  0.00     0.148 C 
HETATM   18  C20 UNL     1       2.651  34.680  24.472  1.00  0.00     0.171 C 
HETATM   19  C22 UNL     1       3.004  36.068  24.099  1.00  0.00     0.046 C 
HETATM   20  C23 UNL     1       1.803  36.958  23.831  1.00  0.00    -0.034 C 
HETATM   21  C24 UNL     1       1.094  37.107  25.167  1.00  0.00     0.016 C 
ENDROOT
BRANCH  18  22
HETATM   22  O4  UNL     1       3.761  33.869  24.134  1.00  0.00    -0.268 OA
BRANCH  22  23
HETATM   23  S1  UNL     1       4.467  33.180  25.461  1.00  0.00     0.261 S 
HETATM   24  C21 UNL     1       5.815  32.121  25.089  1.00  0.00     0.194 C 
HETATM   25  O5  UNL     1       4.884  34.230  26.477  1.00  0.00    -0.199 OA
HETATM   26  O6  UNL     1       3.405  32.349  26.164  1.00  0.00    -0.199 OA
ENDBRANCH  22  23
ENDBRANCH  18  22
BRANCH  17  27
HETATM   27  O3  UNL     1       0.890  33.152  24.763  1.00  0.00    -0.393 OA
ATOM     28  H3  UNL     1       1.109  32.291  24.427  1.00  0.00     0.210 HD
ENDBRANCH  17  27
BRANCH   9  29
HETATM   29  O2  UNL     1       3.569  40.136  24.535  1.00  0.00    -0.395 OA
ATOM     30  H2  UNL     1       4.299  40.739  24.612  1.00  0.00     0.210 HD
ENDBRANCH   9  29
BRANCH   1  31
HETATM   31  C2  UNL     1       4.720  42.598  23.383  1.00  0.00     0.131 C 
HETATM   32  C1  UNL     1       6.172  42.599  23.720  1.00  0.00     0.091 C 
HETATM   33  O1  UNL     1       3.986  43.358  23.988  1.00  0.00    -0.298 OA
ENDBRANCH   1  31
TORSDOF 5
ENDMDL
MODEL 5
REMARK VINA RESULT: -8.291544256      3.833      7.126
REMARK  5 active torsions:
REMARK  status: ('A' for Active; 'I' for Inactive)
REMARK    1  A    between atoms: C2_2  and  C3_4 
REMARK    2  A    between atoms: C11_12  and  O2_13 
REMARK    3  A    between atoms: C19_22  and  O3_23 
REMARK    4  A    between atoms: C20_25  and  O4_26 
REMARK    5  A    between atoms: O4_26  and  S1_27 
ROOT
HETATM    1  C3  UNL     1       1.395  36.157  22.494  1.00  0.00     0.022 C 
HETATM    2  C4  UNL     1       2.018  35.000  21.694  1.00  0.00     0.024 C 
HETATM    3  C5  UNL     1       0.361  36.747  21.587  1.00  0.00     0.018 C 
HETATM    4  C6  UNL     1       0.835  37.708  20.579  1.00  0.00     0.011 C 
HETATM    5  C7  UNL     1       2.229  38.193  20.625  1.00  0.00    -0.040 C 
HETATM    6  C8  UNL     1       2.850  37.964  19.230  1.00  0.00     0.015 C 
HETATM    7  C9  UNL     1       3.156  37.483  21.566  1.00  0.00     0.018 C 
HETATM    8  C10 UNL     1       2.486  37.100  22.868  1.00  0.00     0.030 C 
HETATM    9  C11 UNL     1       2.110  38.254  23.713  1.00  0.00     0.123 C 
HETATM   10  C12 UNL     1       2.683  39.588  23.254  1.00  0.00     0.038 C 
HETATM   11  C13 UNL     1       1.863  40.160  22.142  1.00  0.00     0.001 C 
HETATM   12  C14 UNL     1       2.320  39.717  20.792  1.00  0.00    -0.002 C 
HETATM   13  C15 UNL     1       3.634  40.258  20.343  1.00  0.00     0.006 C 
HETATM   14  C16 UNL     1       3.891  41.617  21.003  1.00  0.00     0.006 C 
HETATM   15  C17 UNL     1       2.555  42.269  21.126  1.00  0.00    -0.003 C 
HETATM   16  C18 UNL     1       2.568  43.738  21.354  1.00  0.00     0.039 C 
HETATM   17  C19 UNL     1       1.189  44.258  21.038  1.00  0.00     0.148 C 
HETATM   18  C20 UNL     1       0.072  43.485  21.592  1.00  0.00     0.171 C 
HETATM   19  C22 UNL     1       0.263  42.032  21.798  1.00  0.00     0.046 C 
HETATM   20  C23 UNL     1       1.682  41.646  22.181  1.00  0.00    -0.034 C 
HETATM   21  C24 UNL     1       1.914  42.245  23.558  1.00  0.00     0.016 C 
ENDROOT
BRANCH  18  22
HETATM   22  O4  UNL     1      -1.040  43.633  20.728  1.00  0.00    -0.268 OA
BRANCH  22  23
HETATM   23  S1  UNL     1      -2.346  44.303  21.489  1.00  0.00     0.261 S 
HETATM   24  C21 UNL     1      -3.473  45.105  20.410  1.00  0.00     0.194 C 
HETATM   25  O5  UNL     1      -3.072  43.283  22.349  1.00  0.00    -0.199 OA
HETATM   26  O6  UNL     1      -1.821  45.343  22.467  1.00  0.00    -0.199 OA
ENDBRANCH  22  23
ENDBRANCH  18  22
BRANCH  17  27
HETATM   27  O3  UNL     1       1.137  45.578  21.525  1.00  0.00    -0.393 OA
ATOM     28  H3  UNL     1       1.595  46.119  20.892  1.00  0.00     0.210 HD
ENDBRANCH  17  27
BRANCH   9  29
HETATM   29  O2  UNL     1       0.736  38.473  23.839  1.00  0.00    -0.395 OA
ATOM     30  H2  UNL     1       0.350  38.160  24.650  1.00  0.00     0.210 HD
ENDBRANCH   9  29
BRANCH   1  31
HETATM   31  C2  UNL     1       0.767  35.525  23.672  1.00  0.00     0.131 C 
HETATM   32  C1  UNL     1       1.550  34.812  24.722  1.00  0.00     0.091 C 
HETATM   33  O1  UNL     1      -0.442  35.589  23.797  1.00  0.00    -0.298 OA
ENDBRANCH   1  31
TORSDOF 5
ENDMDL
