MODEL 1
REMARK VINA RESULT: -6.622008918      0.000      0.000
REMARK  9 active torsions:
REMARK  status: ('A' for Active; 'I' for Inactive)
REMARK    1  A    between atoms: N1_1  and  C1_4 
REMARK    2  A    between atoms: N3_10  and  C5_11 
REMARK    3  A    between atoms: C5_11  and  C6_12 
REMARK    4  A    between atoms: C6_12  and  O1_13 
REMARK    5  A    between atoms: O1_13  and  C7_14 
REMARK    6  A    between atoms: C7_14  and  C8_15 
REMARK    7  A    between atoms: C9_16  and  C10_17 
REMARK    8  A    between atoms: C14_21  and  C15_22 
REMARK    9  A    between atoms: C15_22  and  N4_23 
ROOT
HETATM    1  C7  UNL     1     -27.715 -56.850  18.078  1.00  0.00     0.261 C 
ENDROOT
BRANCH   1   2
HETATM    2  O1  UNL     1     -27.781 -57.418  19.335  1.00  0.00    -0.378 OA
BRANCH   2   3
HETATM    3  C6  UNL     1     -26.687 -57.168  20.122  1.00  0.00     0.189 C 
BRANCH   3   4
HETATM    4  C5  UNL     1     -27.029 -56.395  21.377  1.00  0.00     0.173 C 
BRANCH   4   5
HETATM    5  N3  UNL     1     -26.710 -54.989  21.240  1.00  0.00    -0.192 N 
HETATM    6  C1  UNL     1     -27.594 -54.068  21.658  1.00  0.00     0.677 A 
HETATM    7  N2  UNL     1     -27.273 -52.773  21.519  1.00  0.00    -0.202 N 
HETATM    8  C2  UNL     1     -26.101 -52.348  20.978  1.00  0.00     0.107 A 
ATOM      9  H2  UNL     1     -27.941 -52.072  21.837  1.00  0.00     0.183 HD
HETATM   10  C3  UNL     1     -25.188 -53.286  20.548  1.00  0.00     0.035 A 
HETATM   11  C4  UNL     1     -25.521 -54.615  20.692  1.00  0.00     0.110 A 
BRANCH   6  12
HETATM   12  N1  UNL     1     -28.737 -54.419  22.186  1.00  0.00    -0.234 N 
ATOM     13  H12 UNL     1     -29.420 -53.720  22.478  1.00  0.00     0.174 HD
ATOM     14  H11 UNL     1     -28.970 -55.403  22.316  1.00  0.00     0.174 HD
ENDBRANCH   6  12
ENDBRANCH   4   5
ENDBRANCH   3   4
ENDBRANCH   2   3
ENDBRANCH   1   2
BRANCH   1  15
HETATM   15  C8  UNL     1     -28.443 -55.566  18.150  1.00  0.00    -0.075 C 
HETATM   16  C9  UNL     1     -29.027 -54.510  18.197  1.00  0.00    -0.065 C 
BRANCH  16  17
HETATM   17  C10 UNL     1     -29.709 -53.243  18.241  1.00  0.00     0.018 A 
HETATM   18  C11 UNL     1     -30.914 -53.070  17.553  1.00  0.00     0.020 A 
HETATM   19  C12 UNL     1     -31.561 -51.854  17.600  1.00  0.00     0.002 A 
HETATM   20  C13 UNL     1     -31.009 -50.807  18.331  1.00  0.00     0.009 A 
HETATM   21  C14 UNL     1     -29.826 -50.951  19.015  1.00  0.00    -0.032 A 
HETATM   22  C16 UNL     1     -29.199 -52.166  18.957  1.00  0.00     0.029 A 
BRANCH  21  23
HETATM   23  C15 UNL     1     -29.192 -49.868  19.811  1.00  0.00     0.268 C 
BRANCH  23  24
HETATM   24  N4  UNL     1     -29.948 -48.625  19.738  1.00  0.00    -0.075 N 
ATOM     25  H43 UNL     1     -30.478 -48.565  18.869  1.00  0.00     0.274 HD
ATOM     26  H42 UNL     1     -30.724 -48.624  20.400  1.00  0.00     0.274 HD
ATOM     27  H41 UNL     1     -29.351 -47.808  19.865  1.00  0.00     0.274 HD
ENDBRANCH  23  24
ENDBRANCH  21  23
ENDBRANCH  16  17
ENDBRANCH   1  15
TORSDOF 9
ENDMDL
MODEL 2
REMARK VINA RESULT: -6.472957295      1.694      2.108
REMARK  9 active torsions:
REMARK  status: ('A' for Active; 'I' for Inactive)
REMARK    1  A    between atoms: N1_1  and  C1_4 
REMARK    2  A    between atoms: N3_10  and  C5_11 
REMARK    3  A    between atoms: C5_11  and  C6_12 
REMARK    4  A    between atoms: C6_12  and  O1_13 
REMARK    5  A    between atoms: O1_13  and  C7_14 
REMARK    6  A    between atoms: C7_14  and  C8_15 
REMARK    7  A    between atoms: C9_16  and  C10_17 
REMARK    8  A    between atoms: C14_21  and  C15_22 
REMARK    9  A    between atoms: C15_22  and  N4_23 
ROOT
HETATM    1  C7  UNL     1     -27.552 -56.966  18.260  1.00  0.00     0.261 C 
ENDROOT
BRANCH   1   2
HETATM    2  O1  UNL     1     -26.532 -56.722  19.158  1.00  0.00    -0.378 OA
BRANCH   2   3
HETATM    3  C6  UNL     1     -26.942 -56.641  20.464  1.00  0.00     0.189 C 
BRANCH   3   4
HETATM    4  C5  UNL     1     -26.211 -55.570  21.245  1.00  0.00     0.173 C 
BRANCH   4   5
HETATM    5  N3  UNL     1     -26.553 -54.243  20.777  1.00  0.00    -0.192 N 
HETATM    6  C1  UNL     1     -27.595 -53.597  21.328  1.00  0.00     0.677 A 
HETATM    7  N2  UNL     1     -27.889 -52.369  20.875  1.00  0.00    -0.202 N 
HETATM    8  C2  UNL     1     -27.188 -51.748  19.891  1.00  0.00     0.107 A 
ATOM      9  H2  UNL     1     -28.678 -51.875  21.292  1.00  0.00     0.183 HD
HETATM   10  C3  UNL     1     -26.118 -52.403  19.321  1.00  0.00     0.035 A 
HETATM   11  C4  UNL     1     -25.819 -53.664  19.788  1.00  0.00     0.110 A 
BRANCH   6  12
HETATM   12  N1  UNL     1     -28.305 -54.145  22.278  1.00  0.00    -0.234 N 
ATOM     13  H12 UNL     1     -28.894 -53.581  22.889  1.00  0.00     0.174 HD
ATOM     14  H11 UNL     1     -28.284 -55.154  22.427  1.00  0.00     0.174 HD
ENDBRANCH   6  12
ENDBRANCH   4   5
ENDBRANCH   3   4
ENDBRANCH   2   3
ENDBRANCH   1   2
BRANCH   1  15
HETATM   15  C8  UNL     1     -28.429 -55.777  18.277  1.00  0.00    -0.075 C 
HETATM   16  C9  UNL     1     -29.158 -54.814  18.301  1.00  0.00    -0.065 C 
BRANCH  16  17
HETATM   17  C10 UNL     1     -30.041 -53.678  18.339  1.00  0.00     0.018 A 
HETATM   18  C11 UNL     1     -29.874 -52.629  17.430  1.00  0.00     0.020 A 
HETATM   19  C12 UNL     1     -30.724 -51.544  17.472  1.00  0.00     0.002 A 
HETATM   20  C13 UNL     1     -31.742 -51.502  18.420  1.00  0.00     0.009 A 
HETATM   21  C14 UNL     1     -31.926 -52.520  19.325  1.00  0.00    -0.032 A 
HETATM   22  C16 UNL     1     -31.073 -53.588  19.267  1.00  0.00     0.029 A 
BRANCH  21  23
HETATM   23  C15 UNL     1     -32.995 -52.527  20.357  1.00  0.00     0.268 C 
BRANCH  23  24
HETATM   24  N4  UNL     1     -33.645 -53.827  20.459  1.00  0.00    -0.075 N 
ATOM     25  H43 UNL     1     -34.596 -53.795  20.092  1.00  0.00     0.274 HD
ATOM     26  H42 UNL     1     -33.242 -54.495  19.803  1.00  0.00     0.274 HD
ATOM     27  H41 UNL     1     -33.628 -54.188  21.413  1.00  0.00     0.274 HD
ENDBRANCH  23  24
ENDBRANCH  21  23
ENDBRANCH  16  17
ENDBRANCH   1  15
TORSDOF 9
ENDMDL
MODEL 3
REMARK VINA RESULT: -6.384128573      2.353      3.691
REMARK  9 active torsions:
REMARK  status: ('A' for Active; 'I' for Inactive)
REMARK    1  A    between atoms: N1_1  and  C1_4 
REMARK    2  A    between atoms: N3_10  and  C5_11 
REMARK    3  A    between atoms: C5_11  and  C6_12 
REMARK    4  A    between atoms: C6_12  and  O1_13 
REMARK    5  A    between atoms: O1_13  and  C7_14 
REMARK    6  A    between atoms: C7_14  and  C8_15 
REMARK    7  A    between atoms: C9_16  and  C10_17 
REMARK    8  A    between atoms: C14_21  and  C15_22 
REMARK    9  A    between atoms: C15_22  and  N4_23 
ROOT
HETATM    1  C7  UNL     1     -26.471 -51.230  20.894  1.00  0.00     0.261 C 
ENDROOT
BRANCH   1   2
HETATM    2  O1  UNL     1     -26.057 -52.421  21.456  1.00  0.00    -0.378 OA
BRANCH   2   3
HETATM    3  C6  UNL     1     -25.140 -53.108  20.703  1.00  0.00     0.189 C 
BRANCH   3   4
HETATM    4  C5  UNL     1     -25.438 -54.589  20.619  1.00  0.00     0.173 C 
BRANCH   4   5
HETATM    5  N3  UNL     1     -26.676 -54.844  19.910  1.00  0.00    -0.192 N 
HETATM    6  C1  UNL     1     -27.769 -55.206  20.602  1.00  0.00     0.677 A 
HETATM    7  N2  UNL     1     -28.902 -55.435  19.920  1.00  0.00    -0.202 N 
HETATM    8  C2  UNL     1     -28.997 -55.320  18.571  1.00  0.00     0.107 A 
ATOM      9  H2  UNL     1     -29.734 -55.709  20.443  1.00  0.00     0.183 HD
HETATM   10  C3  UNL     1     -27.881 -54.948  17.854  1.00  0.00     0.035 A 
HETATM   11  C4  UNL     1     -26.720 -54.713  18.556  1.00  0.00     0.110 A 
BRANCH   6  12
HETATM   12  N1  UNL     1     -27.736 -55.334  21.902  1.00  0.00    -0.234 N 
ATOM     13  H12 UNL     1     -28.573 -55.577  22.430  1.00  0.00     0.174 HD
ATOM     14  H11 UNL     1     -26.866 -55.192  22.417  1.00  0.00     0.174 HD
ENDBRANCH   6  12
ENDBRANCH   4   5
ENDBRANCH   3   4
ENDBRANCH   2   3
ENDBRANCH   1   2
BRANCH   1  15
HETATM   15  C8  UNL     1     -27.759 -51.499  20.223  1.00  0.00    -0.075 C 
HETATM   16  C9  UNL     1     -28.817 -51.731  19.686  1.00  0.00    -0.065 C 
BRANCH  16  17
HETATM   17  C10 UNL     1     -30.078 -52.024  19.060  1.00  0.00     0.018 A 
HETATM   18  C11 UNL     1     -30.269 -51.748  17.702  1.00  0.00     0.020 A 
HETATM   19  C12 UNL     1     -31.481 -52.031  17.109  1.00  0.00     0.002 A 
HETATM   20  C13 UNL     1     -32.506 -52.591  17.866  1.00  0.00     0.009 A 
HETATM   21  C14 UNL     1     -32.343 -52.871  19.202  1.00  0.00    -0.032 A 
HETATM   22  C16 UNL     1     -31.134 -52.583  19.773  1.00  0.00     0.029 A 
BRANCH  21  23
HETATM   23  C15 UNL     1     -33.402 -53.468  20.058  1.00  0.00     0.268 C 
BRANCH  23  24
HETATM   24  N4  UNL     1     -34.393 -52.481  20.465  1.00  0.00    -0.075 N 
ATOM     25  H43 UNL     1     -34.392 -52.352  21.477  1.00  0.00     0.274 HD
ATOM     26  H42 UNL     1     -34.117 -51.541  20.182  1.00  0.00     0.274 HD
ATOM     27  H41 UNL     1     -35.325 -52.713  20.122  1.00  0.00     0.274 HD
ENDBRANCH  23  24
ENDBRANCH  21  23
ENDBRANCH  16  17
ENDBRANCH   1  15
TORSDOF 9
ENDMDL
MODEL 4
REMARK VINA RESULT: -6.057329120      1.767      2.514
REMARK  9 active torsions:
REMARK  status: ('A' for Active; 'I' for Inactive)
REMARK    1  A    between atoms: N1_1  and  C1_4 
REMARK    2  A    between atoms: N3_10  and  C5_11 
REMARK    3  A    between atoms: C5_11  and  C6_12 
REMARK    4  A    between atoms: C6_12  and  O1_13 
REMARK    5  A    between atoms: O1_13  and  C7_14 
REMARK    6  A    between atoms: C7_14  and  C8_15 
REMARK    7  A    between atoms: C9_16  and  C10_17 
REMARK    8  A    between atoms: C14_21  and  C15_22 
REMARK    9  A    between atoms: C15_22  and  N4_23 
ROOT
HETATM    1  C7  UNL     1     -28.983 -55.918  22.522  1.00  0.00     0.261 C 
ENDROOT
BRANCH   1   2
HETATM    2  O1  UNL     1     -27.604 -55.852  22.540  1.00  0.00    -0.378 OA
BRANCH   2   3
HETATM    3  C6  UNL     1     -26.996 -56.532  21.516  1.00  0.00     0.189 C 
BRANCH   3   4
HETATM    4  C5  UNL     1     -25.817 -55.785  20.932  1.00  0.00     0.173 C 
BRANCH   4   5
HETATM    5  N3  UNL     1     -26.224 -54.906  19.855  1.00  0.00    -0.192 N 
HETATM    6  C1  UNL     1     -25.851 -53.615  19.881  1.00  0.00     0.677 A 
HETATM    7  N2  UNL     1     -26.243 -52.824  18.870  1.00  0.00    -0.202 N 
HETATM    8  C2  UNL     1     -26.995 -53.261  17.827  1.00  0.00     0.107 A 
ATOM      9  H2  UNL     1     -25.960 -51.844  18.886  1.00  0.00     0.183 HD
HETATM   10  C3  UNL     1     -27.380 -54.583  17.793  1.00  0.00     0.035 A 
HETATM   11  C4  UNL     1     -26.977 -55.393  18.831  1.00  0.00     0.110 A 
BRANCH   6  12
HETATM   12  N1  UNL     1     -25.129 -53.139  20.859  1.00  0.00    -0.234 N 
ATOM     13  H12 UNL     1     -24.121 -53.020  20.761  1.00  0.00     0.174 HD
ATOM     14  H11 UNL     1     -25.561 -52.875  21.745  1.00  0.00     0.174 HD
ENDBRANCH   6  12
ENDBRANCH   4   5
ENDBRANCH   3   4
ENDBRANCH   2   3
ENDBRANCH   1   2
BRANCH   1  15
HETATM   15  C8  UNL     1     -29.443 -54.965  21.491  1.00  0.00    -0.075 C 
HETATM   16  C9  UNL     1     -29.813 -54.171  20.658  1.00  0.00    -0.065 C 
BRANCH  16  17
HETATM   17  C10 UNL     1     -30.250 -53.211  19.679  1.00  0.00     0.018 A 
HETATM   18  C11 UNL     1     -30.987 -53.629  18.566  1.00  0.00     0.020 A 
HETATM   19  C12 UNL     1     -31.402 -52.704  17.633  1.00  0.00     0.002 A 
HETATM   20  C13 UNL     1     -31.085 -51.360  17.805  1.00  0.00     0.009 A 
HETATM   21  C14 UNL     1     -30.362 -50.924  18.890  1.00  0.00    -0.032 A 
HETATM   22  C16 UNL     1     -29.959 -51.857  19.806  1.00  0.00     0.029 A 
BRANCH  21  23
HETATM   23  C15 UNL     1     -29.996 -49.503  19.124  1.00  0.00     0.268 C 
BRANCH  23  24
HETATM   24  N4  UNL     1     -29.669 -49.248  20.520  1.00  0.00    -0.075 N 
ATOM     25  H43 UNL     1     -30.492 -48.949  21.045  1.00  0.00     0.274 HD
ATOM     26  H42 UNL     1     -29.468 -50.115  21.018  1.00  0.00     0.274 HD
ATOM     27  H41 UNL     1     -28.905 -48.579  20.617  1.00  0.00     0.274 HD
ENDBRANCH  23  24
ENDBRANCH  21  23
ENDBRANCH  16  17
ENDBRANCH   1  15
TORSDOF 9
ENDMDL
MODEL 5
REMARK VINA RESULT: -6.034315017      2.203      3.105
REMARK  9 active torsions:
REMARK  status: ('A' for Active; 'I' for Inactive)
REMARK    1  A    between atoms: N1_1  and  C1_4 
REMARK    2  A    between atoms: N3_10  and  C5_11 
REMARK    3  A    between atoms: C5_11  and  C6_12 
REMARK    4  A    between atoms: C6_12  and  O1_13 
REMARK    5  A    between atoms: O1_13  and  C7_14 
REMARK    6  A    between atoms: C7_14  and  C8_15 
REMARK    7  A    between atoms: C9_16  and  C10_17 
REMARK    8  A    between atoms: C14_21  and  C15_22 
REMARK    9  A    between atoms: C15_22  and  N4_23 
ROOT
HETATM    1  C7  UNL     1     -27.023 -53.404  16.470  1.00  0.00     0.261 C 
ENDROOT
BRANCH   1   2
HETATM    2  O1  UNL     1     -26.067 -53.795  17.387  1.00  0.00    -0.378 OA
BRANCH   2   3
HETATM    3  C6  UNL     1     -25.859 -52.893  18.399  1.00  0.00     0.189 C 
BRANCH   3   4
HETATM    4  C5  UNL     1     -25.433 -53.550  19.694  1.00  0.00     0.173 C 
BRANCH   4   5
HETATM    5  N3  UNL     1     -26.573 -54.042  20.441  1.00  0.00    -0.192 N 
HETATM    6  C1  UNL     1     -27.104 -53.281  21.412  1.00  0.00     0.677 A 
HETATM    7  N2  UNL     1     -28.159 -53.762  22.087  1.00  0.00    -0.202 N 
HETATM    8  C2  UNL     1     -28.713 -54.976  21.839  1.00  0.00     0.107 A 
ATOM      9  H2  UNL     1     -28.565 -53.185  22.824  1.00  0.00     0.183 HD
HETATM   10  C3  UNL     1     -28.175 -55.763  20.845  1.00  0.00     0.035 A 
HETATM   11  C4  UNL     1     -27.093 -55.267  20.153  1.00  0.00     0.110 A 
BRANCH   6  12
HETATM   12  N1  UNL     1     -26.611 -52.104  21.694  1.00  0.00    -0.234 N 
ATOM     13  H12 UNL     1     -27.045 -51.252  21.341  1.00  0.00     0.174 HD
ATOM     14  H11 UNL     1     -25.779 -52.015  22.277  1.00  0.00     0.174 HD
ENDBRANCH   6  12
ENDBRANCH   4   5
ENDBRANCH   3   4
ENDBRANCH   2   3
ENDBRANCH   1   2
BRANCH   1  15
HETATM   15  C8  UNL     1     -28.299 -53.286  17.207  1.00  0.00    -0.075 C 
HETATM   16  C9  UNL     1     -29.347 -53.176  17.798  1.00  0.00    -0.065 C 
BRANCH  16  17
HETATM   17  C10 UNL     1     -30.599 -53.029  18.491  1.00  0.00     0.018 A 
HETATM   18  C11 UNL     1     -31.803 -53.287  17.829  1.00  0.00     0.020 A 
HETATM   19  C12 UNL     1     -32.999 -53.144  18.500  1.00  0.00     0.002 A 
HETATM   20  C13 UNL     1     -32.998 -52.743  19.832  1.00  0.00     0.009 A 
HETATM   21  C14 UNL     1     -31.828 -52.482  20.505  1.00  0.00    -0.032 A 
HETATM   22  C16 UNL     1     -30.652 -52.630  19.823  1.00  0.00     0.029 A 
BRANCH  21  23
HETATM   23  C15 UNL     1     -31.769 -52.051  21.926  1.00  0.00     0.268 C 
BRANCH  23  24
HETATM   24  N4  UNL     1     -31.544 -53.174  22.827  1.00  0.00    -0.075 N 
ATOM     25  H43 UNL     1     -32.093 -53.988  22.549  1.00  0.00     0.274 HD
ATOM     26  H42 UNL     1     -30.609 -53.563  22.707  1.00  0.00     0.274 HD
ATOM     27  H41 UNL     1     -31.719 -52.924  23.800  1.00  0.00     0.274 HD
ENDBRANCH  23  24
ENDBRANCH  21  23
ENDBRANCH  16  17
ENDBRANCH   1  15
TORSDOF 9
ENDMDL
