MODEL 1
REMARK VINA RESULT: -7.381737511      0.000      0.000
REMARK  7 active torsions:
REMARK  status: ('A' for Active; 'I' for Inactive)
REMARK    1  A    between atoms: C4_5  and  O1_6 
REMARK    2  A    between atoms: O1_6  and  C5_7 
REMARK    3  A    between atoms: C8_10  and  C9_11 
REMARK    4  A    between atoms: C9_11  and  N1_12 
REMARK    5  A    between atoms: N1_12  and  C10_14 
REMARK    6  A    between atoms: C13_19  and  N3_20 
REMARK    7  A    between atoms: N3_20  and  C14_22 
ROOT
HETATM    1  N1  UNL     1      91.270  95.606 -40.965  1.00  0.00    -0.222 N 
ATOM      2  H1  UNL     1      90.430  95.530 -40.392  1.00  0.00     0.178 HD
ENDROOT
BRANCH   1   3
HETATM    3  C9  UNL     1      91.793  96.899 -41.363  1.00  0.00     0.176 C 
BRANCH   3   4
HETATM    4  C8  UNL     1      91.120  97.314 -42.619  1.00  0.00    -0.040 A 
HETATM    5  C7  UNL     1      90.271  98.403 -42.591  1.00  0.00     0.011 A 
HETATM    6  C6  UNL     1      89.626  98.823 -43.733  1.00  0.00     0.038 A 
HETATM    7  C5  UNL     1      89.806  98.171 -44.935  1.00  0.00     0.076 A 
HETATM    8  C20 UNL     1      90.651  97.081 -44.977  1.00  0.00     0.038 A 
HETATM    9  C19 UNL     1      91.297  96.665 -43.823  1.00  0.00     0.011 A 
BRANCH   7  10
HETATM   10  O1  UNL     1      89.181  98.553 -46.113  1.00  0.00    -0.311 OA
BRANCH  10  11
HETATM   11  C4  UNL     1      88.276  97.750 -46.782  1.00  0.00     0.076 A 
HETATM   12  C3  UNL     1      86.983  97.634 -46.321  1.00  0.00     0.039 A 
HETATM   13  C2  UNL     1      86.080  96.837 -46.983  1.00  0.00     0.026 A 
HETATM   14  C1  UNL     1      86.424  96.126 -48.122  1.00  0.00     0.034 A 
HETATM   15 CL1  UNL     1      85.285  95.106 -48.976  1.00  0.00    -0.084 Cl
HETATM   16  C22 UNL     1      87.726  96.255 -48.568  1.00  0.00     0.026 A 
HETATM   17  C21 UNL     1      88.636  97.053 -47.910  1.00  0.00     0.039 A 
ENDBRANCH  10  11
ENDBRANCH   7  10
ENDBRANCH   3   4
ENDBRANCH   1   3
BRANCH   1  18
HETATM   18  C10 UNL     1      91.905  94.553 -41.364  1.00  0.00     0.679 A 
HETATM   19  N2  UNL     1      93.148  94.336 -40.858  1.00  0.00    -0.202 N 
HETATM   20  C11 UNL     1      93.855  93.254 -41.238  1.00  0.00     0.110 A 
ATOM     21  H2  UNL     1      93.546  94.994 -40.188  1.00  0.00     0.183 HD
HETATM   22  C12 UNL     1      93.337  92.342 -42.150  1.00  0.00     0.066 A 
HETATM   23  C13 UNL     1      92.093  92.570 -42.649  1.00  0.00     0.122 A 
HETATM   24  N4  UNL     1      91.416  93.671 -42.239  1.00  0.00    -0.177 N 
ATOM     25  H4  UNL     1      90.484  93.835 -42.620  1.00  0.00     0.186 HD
BRANCH  23  26
HETATM   26  N3  UNL     1      91.499  91.803 -43.499  1.00  0.00    -0.344 N 
ATOM     27  H3  UNL     1      91.146  90.908 -43.159  1.00  0.00     0.167 HD
BRANCH  26  28
HETATM   28  C14 UNL     1      91.299  92.102 -44.854  1.00  0.00     0.030 C 
HETATM   29  C15 UNL     1      90.938  93.322 -45.212  1.00  0.00     0.003 C 
HETATM   30  C16 UNL     1      90.705  93.724 -46.623  1.00  0.00     0.055 C 
HETATM   31  C17 UNL     1      90.679  92.555 -47.551  1.00  0.00     0.172 C 
HETATM   32  O2  UNL     1      90.480  91.351 -46.905  1.00  0.00    -0.385 OA
HETATM   33  C18 UNL     1      91.472  91.098 -45.947  1.00  0.00     0.224 C 
ENDBRANCH  26  28
ENDBRANCH  23  26
ENDBRANCH   1  18
TORSDOF 7
ENDMDL
MODEL 2
REMARK VINA RESULT: -7.347255808      4.042      6.476
REMARK  7 active torsions:
REMARK  status: ('A' for Active; 'I' for Inactive)
REMARK    1  A    between atoms: C4_5  and  O1_6 
REMARK    2  A    between atoms: O1_6  and  C5_7 
REMARK    3  A    between atoms: C8_10  and  C9_11 
REMARK    4  A    between atoms: C9_11  and  N1_12 
REMARK    5  A    between atoms: N1_12  and  C10_14 
REMARK    6  A    between atoms: C13_19  and  N3_20 
REMARK    7  A    between atoms: N3_20  and  C14_22 
ROOT
HETATM    1  N1  UNL     1      91.138  95.514 -45.912  1.00  0.00    -0.222 N 
ATOM      2  H1  UNL     1      92.015  96.022 -46.024  1.00  0.00     0.178 HD
ENDROOT
BRANCH   1   3
HETATM    3  C9  UNL     1      89.870  96.213 -45.837  1.00  0.00     0.176 C 
BRANCH   3   4
HETATM    4  C8  UNL     1      89.989  97.301 -44.836  1.00  0.00    -0.040 A 
HETATM    5  C7  UNL     1      89.143  98.389 -44.930  1.00  0.00     0.011 A 
HETATM    6  C6  UNL     1      89.220  99.421 -44.022  1.00  0.00     0.038 A 
HETATM    7  C5  UNL     1      90.140  99.402 -42.995  1.00  0.00     0.076 A 
HETATM    8  C20 UNL     1      90.992  98.322 -42.890  1.00  0.00     0.038 A 
HETATM    9  C19 UNL     1      90.909  97.287 -43.808  1.00  0.00     0.011 A 
BRANCH   7  10
HETATM   10  O1  UNL     1      90.258 100.416 -42.055  1.00  0.00    -0.311 OA
BRANCH  10  11
HETATM   11  C4  UNL     1      91.407 101.170 -41.898  1.00  0.00     0.076 A 
HETATM   12  C3  UNL     1      92.054 101.680 -43.002  1.00  0.00     0.039 A 
HETATM   13  C2  UNL     1      93.195 102.430 -42.850  1.00  0.00     0.026 A 
HETATM   14  C1  UNL     1      93.738 102.700 -41.603  1.00  0.00     0.034 A 
HETATM   15 CL1  UNL     1      95.192 103.653 -41.395  1.00  0.00    -0.084 Cl
HETATM   16  C22 UNL     1      93.075 102.178 -40.509  1.00  0.00     0.026 A 
HETATM   17  C21 UNL     1      91.929 101.426 -40.653  1.00  0.00     0.039 A 
ENDBRANCH  10  11
ENDBRANCH   7  10
ENDBRANCH   3   4
ENDBRANCH   1   3
BRANCH   1  18
HETATM   18  C10 UNL     1      91.118  94.224 -45.832  1.00  0.00     0.679 A 
HETATM   19  N2  UNL     1      90.778  93.527 -46.949  1.00  0.00    -0.202 N 
HETATM   20  C11 UNL     1      90.741  92.180 -46.922  1.00  0.00     0.110 A 
ATOM     21  H2  UNL     1      90.551  94.025 -47.809  1.00  0.00     0.183 HD
HETATM   22  C12 UNL     1      91.046  91.476 -45.763  1.00  0.00     0.066 A 
HETATM   23  C13 UNL     1      91.384  92.185 -44.653  1.00  0.00     0.122 A 
HETATM   24  N4  UNL     1      91.408  93.539 -44.724  1.00  0.00    -0.177 N 
ATOM     25  H4  UNL     1      91.662  94.062 -43.885  1.00  0.00     0.186 HD
BRANCH  23  26
HETATM   26  N3  UNL     1      91.687  91.654 -43.517  1.00  0.00    -0.344 N 
ATOM     27  H3  UNL     1      91.097  90.892 -43.182  1.00  0.00     0.167 HD
BRANCH  26  28
HETATM   28  C14 UNL     1      92.763  92.041 -42.707  1.00  0.00     0.030 C 
HETATM   29  C15 UNL     1      93.681  91.152 -42.364  1.00  0.00     0.003 C 
HETATM   30  C16 UNL     1      94.853  91.476 -41.510  1.00  0.00     0.055 C 
HETATM   31  C17 UNL     1      94.745  92.828 -40.885  1.00  0.00     0.172 C 
HETATM   32  O2  UNL     1      93.460  93.331 -40.892  1.00  0.00    -0.385 OA
HETATM   33  C18 UNL     1      92.941  93.431 -42.192  1.00  0.00     0.224 C 
ENDBRANCH  26  28
ENDBRANCH  23  26
ENDBRANCH   1  18
TORSDOF 7
ENDMDL
MODEL 3
REMARK VINA RESULT: -7.245631630      4.324      6.705
REMARK  7 active torsions:
REMARK  status: ('A' for Active; 'I' for Inactive)
REMARK    1  A    between atoms: C4_5  and  O1_6 
REMARK    2  A    between atoms: O1_6  and  C5_7 
REMARK    3  A    between atoms: C8_10  and  C9_11 
REMARK    4  A    between atoms: C9_11  and  N1_12 
REMARK    5  A    between atoms: N1_12  and  C10_14 
REMARK    6  A    between atoms: C13_19  and  N3_20 
REMARK    7  A    between atoms: N3_20  and  C14_22 
ROOT
HETATM    1  N1  UNL     1      90.965  96.321 -45.896  1.00  0.00    -0.222 N 
ATOM      2  H1  UNL     1      91.584  96.752 -46.582  1.00  0.00     0.178 HD
ENDROOT
BRANCH   1   3
HETATM    3  C9  UNL     1      89.985  97.106 -45.171  1.00  0.00     0.176 C 
BRANCH   3   4
HETATM    4  C8  UNL     1      90.684  98.228 -44.497  1.00  0.00    -0.040 A 
HETATM    5  C7  UNL     1      91.000  99.353 -45.232  1.00  0.00     0.011 A 
HETATM    6  C6  UNL     1      91.649 100.418 -44.646  1.00  0.00     0.038 A 
HETATM    7  C5  UNL     1      92.002 100.393 -43.313  1.00  0.00     0.076 A 
HETATM    8  C20 UNL     1      91.692  99.274 -42.568  1.00  0.00     0.038 A 
HETATM    9  C19 UNL     1      91.039  98.207 -43.164  1.00  0.00     0.011 A 
BRANCH   7  10
HETATM   10  O1  UNL     1      92.655 101.437 -42.676  1.00  0.00    -0.311 OA
BRANCH  10  11
HETATM   11  C4  UNL     1      92.211 101.996 -41.491  1.00  0.00     0.076 A 
HETATM   12  C3  UNL     1      93.009 101.959 -40.369  1.00  0.00     0.039 A 
HETATM   13  C2  UNL     1      92.572 102.512 -39.190  1.00  0.00     0.026 A 
HETATM   14  C1  UNL     1      91.330 103.120 -39.079  1.00  0.00     0.034 A 
HETATM   15 CL1  UNL     1      90.760 103.830 -37.583  1.00  0.00    -0.084 Cl
HETATM   16  C22 UNL     1      90.545 103.147 -40.215  1.00  0.00     0.026 A 
HETATM   17  C21 UNL     1      90.977 102.595 -41.402  1.00  0.00     0.039 A 
ENDBRANCH  10  11
ENDBRANCH   7  10
ENDBRANCH   3   4
ENDBRANCH   1   3
BRANCH   1  18
HETATM   18  C10 UNL     1      91.027  95.055 -45.642  1.00  0.00     0.679 A 
HETATM   19  N2  UNL     1      90.996  94.198 -46.697  1.00  0.00    -0.202 N 
HETATM   20  C11 UNL     1      91.057  92.867 -46.491  1.00  0.00     0.110 A 
ATOM     21  H2  UNL     1      90.926  94.562 -47.647  1.00  0.00     0.183 HD
HETATM   22  C12 UNL     1      91.152  92.343 -45.207  1.00  0.00     0.066 A 
HETATM   23  C13 UNL     1      91.182  93.211 -44.161  1.00  0.00     0.122 A 
HETATM   24  N4  UNL     1      91.118  94.542 -44.414  1.00  0.00    -0.177 N 
ATOM     25  H4  UNL     1      91.140  95.185 -43.622  1.00  0.00     0.186 HD
BRANCH  23  26
HETATM   26  N3  UNL     1      91.268  92.855 -42.924  1.00  0.00    -0.344 N 
ATOM     27  H3  UNL     1      90.415  92.891 -42.364  1.00  0.00     0.167 HD
BRANCH  26  28
HETATM   28  C14 UNL     1      92.440  92.423 -42.287  1.00  0.00     0.030 C 
HETATM   29  C15 UNL     1      93.213  93.299 -41.668  1.00  0.00     0.003 C 
HETATM   30  C16 UNL     1      94.470  92.928 -40.969  1.00  0.00     0.055 C 
HETATM   31  C17 UNL     1      94.886  91.523 -41.254  1.00  0.00     0.172 C 
HETATM   32  O2  UNL     1      94.279  90.991 -42.374  1.00  0.00    -0.385 OA
HETATM   33  C18 UNL     1      92.880  90.996 -42.266  1.00  0.00     0.224 C 
ENDBRANCH  26  28
ENDBRANCH  23  26
ENDBRANCH   1  18
TORSDOF 7
ENDMDL
MODEL 4
REMARK VINA RESULT: -7.243417434      3.795      7.095
REMARK  7 active torsions:
REMARK  status: ('A' for Active; 'I' for Inactive)
REMARK    1  A    between atoms: C4_5  and  O1_6 
REMARK    2  A    between atoms: O1_6  and  C5_7 
REMARK    3  A    between atoms: C8_10  and  C9_11 
REMARK    4  A    between atoms: C9_11  and  N1_12 
REMARK    5  A    between atoms: N1_12  and  C10_14 
REMARK    6  A    between atoms: C13_19  and  N3_20 
REMARK    7  A    between atoms: N3_20  and  C14_22 
ROOT
HETATM    1  N1  UNL     1      91.938  91.890 -44.741  1.00  0.00    -0.222 N 
ATOM      2  H1  UNL     1      91.955  90.914 -45.036  1.00  0.00     0.178 HD
ENDROOT
BRANCH   1   3
HETATM    3  C9  UNL     1      91.310  92.910 -45.558  1.00  0.00     0.176 C 
BRANCH   3   4
HETATM    4  C8  UNL     1      90.717  92.259 -46.752  1.00  0.00    -0.040 A 
HETATM    5  C7  UNL     1      90.902  90.903 -46.932  1.00  0.00     0.011 A 
HETATM    6  C6  UNL     1      90.369  90.259 -48.027  1.00  0.00     0.038 A 
HETATM    7  C5  UNL     1      89.637  90.945 -48.973  1.00  0.00     0.076 A 
HETATM    8  C20 UNL     1      89.445  92.301 -48.805  1.00  0.00     0.038 A 
HETATM    9  C19 UNL     1      89.985  92.942 -47.701  1.00  0.00     0.011 A 
BRANCH   7  10
HETATM   10  O1  UNL     1      89.080  90.344 -50.092  1.00  0.00    -0.311 OA
BRANCH  10  11
HETATM   11  C4  UNL     1      88.441  89.118 -50.052  1.00  0.00     0.076 A 
HETATM   12  C3  UNL     1      87.240  88.988 -49.390  1.00  0.00     0.039 A 
HETATM   13  C2  UNL     1      86.601  87.772 -49.347  1.00  0.00     0.026 A 
HETATM   14  C1  UNL     1      87.128  86.642 -49.955  1.00  0.00     0.034 A 
HETATM   15 CL1  UNL     1      86.326  85.087 -49.909  1.00  0.00    -0.084 Cl
HETATM   16  C22 UNL     1      88.334  86.794 -50.614  1.00  0.00     0.026 A 
HETATM   17  C21 UNL     1      88.979  88.011 -50.662  1.00  0.00     0.039 A 
ENDBRANCH  10  11
ENDBRANCH   7  10
ENDBRANCH   3   4
ENDBRANCH   1   3
BRANCH   1  18
HETATM   18  C10 UNL     1      92.475  92.260 -43.625  1.00  0.00     0.679 A 
HETATM   19  N2  UNL     1      93.658  91.689 -43.274  1.00  0.00    -0.202 N 
HETATM   20  C11 UNL     1      94.264  92.038 -42.122  1.00  0.00     0.110 A 
ATOM     21  H2  UNL     1      94.089  90.995 -43.885  1.00  0.00     0.183 HD
HETATM   22  C12 UNL     1      93.699  92.981 -41.271  1.00  0.00     0.066 A 
HETATM   23  C13 UNL     1      92.516  93.544 -41.633  1.00  0.00     0.122 A 
HETATM   24  N4  UNL     1      91.941  93.164 -42.801  1.00  0.00    -0.177 N 
ATOM     25  H4  UNL     1      91.053  93.592 -43.064  1.00  0.00     0.186 HD
BRANCH  23  26
HETATM   26  N3  UNL     1      91.888  94.429 -40.934  1.00  0.00    -0.344 N 
ATOM     27  H3  UNL     1      91.468  94.122 -40.056  1.00  0.00     0.167 HD
BRANCH  26  28
HETATM   28  C14 UNL     1      91.739  95.777 -41.285  1.00  0.00     0.030 C 
HETATM   29  C15 UNL     1      91.347  96.100 -42.506  1.00  0.00     0.003 C 
HETATM   30  C16 UNL     1      91.163  97.502 -42.961  1.00  0.00     0.055 C 
HETATM   31  C17 UNL     1      91.702  98.493 -41.984  1.00  0.00     0.172 C 
HETATM   32  O2  UNL     1      92.587  97.941 -41.079  1.00  0.00    -0.385 OA
HETATM   33  C18 UNL     1      92.002  96.903 -40.339  1.00  0.00     0.224 C 
ENDBRANCH  26  28
ENDBRANCH  23  26
ENDBRANCH   1  18
TORSDOF 7
ENDMDL
MODEL 5
REMARK VINA RESULT: -7.230043207      4.414      6.724
REMARK  7 active torsions:
REMARK  status: ('A' for Active; 'I' for Inactive)
REMARK    1  A    between atoms: C4_5  and  O1_6 
REMARK    2  A    between atoms: O1_6  and  C5_7 
REMARK    3  A    between atoms: C8_10  and  C9_11 
REMARK    4  A    between atoms: C9_11  and  N1_12 
REMARK    5  A    between atoms: N1_12  and  C10_14 
REMARK    6  A    between atoms: C13_19  and  N3_20 
REMARK    7  A    between atoms: N3_20  and  C14_22 
ROOT
HETATM    1  N1  UNL     1      91.827  91.146 -47.070  1.00  0.00    -0.222 N 
ATOM      2  H1  UNL     1      92.827  91.335 -47.130  1.00  0.00     0.178 HD
ENDROOT
BRANCH   1   3
HETATM    3  C9  UNL     1      91.096  91.356 -45.835  1.00  0.00     0.176 C 
BRANCH   3   4
HETATM    4  C8  UNL     1      91.187  92.791 -45.471  1.00  0.00    -0.040 A 
HETATM    5  C7  UNL     1      90.862  93.741 -46.419  1.00  0.00     0.011 A 
HETATM    6  C6  UNL     1      90.933  95.085 -46.124  1.00  0.00     0.038 A 
HETATM    7  C5  UNL     1      91.329  95.522 -44.877  1.00  0.00     0.076 A 
HETATM    8  C20 UNL     1      91.658  94.583 -43.921  1.00  0.00     0.038 A 
HETATM    9  C19 UNL     1      91.584  93.233 -44.226  1.00  0.00     0.011 A 
BRANCH   7  10
HETATM   10  O1  UNL     1      91.417  96.861 -44.530  1.00  0.00    -0.311 OA
BRANCH  10  11
HETATM   11  C4  UNL     1      90.313  97.638 -44.232  1.00  0.00     0.076 A 
HETATM   12  C3  UNL     1      90.279  98.373 -43.068  1.00  0.00     0.039 A 
HETATM   13  C2  UNL     1      89.184  99.147 -42.768  1.00  0.00     0.026 A 
HETATM   14  C1  UNL     1      88.083  99.219 -43.608  1.00  0.00     0.034 A 
HETATM   15 CL1  UNL     1      86.680 100.200 -43.239  1.00  0.00    -0.084 Cl
HETATM   16  C22 UNL     1      88.136  98.475 -44.771  1.00  0.00     0.026 A 
HETATM   17  C21 UNL     1      89.231  97.698 -45.078  1.00  0.00     0.039 A 
ENDBRANCH  10  11
ENDBRANCH   7  10
ENDBRANCH   3   4
ENDBRANCH   1   3
BRANCH   1  18
HETATM   18  C10 UNL     1      91.167  90.710 -48.092  1.00  0.00     0.679 A 
HETATM   19  N2  UNL     1      91.228  91.436 -49.240  1.00  0.00    -0.202 N 
HETATM   20  C11 UNL     1      90.559  91.028 -50.336  1.00  0.00     0.110 A 
ATOM     21  H2  UNL     1      91.782  92.291 -49.271  1.00  0.00     0.183 HD
HETATM   22  C12 UNL     1      89.797  89.866 -50.322  1.00  0.00     0.066 A 
HETATM   23  C13 UNL     1      89.743  89.149 -49.168  1.00  0.00     0.122 A 
HETATM   24  N4  UNL     1      90.431  89.596 -48.088  1.00  0.00    -0.177 N 
ATOM     25  H4  UNL     1      90.384  89.052 -47.226  1.00  0.00     0.186 HD
BRANCH  23  26
HETATM   26  N3  UNL     1      89.073  88.056 -49.022  1.00  0.00    -0.344 N 
ATOM     27  H3  UNL     1      88.256  88.084 -48.411  1.00  0.00     0.167 HD
BRANCH  26  28
HETATM   28  C14 UNL     1      89.378  86.834 -49.635  1.00  0.00     0.030 C 
HETATM   29  C15 UNL     1      89.954  85.872 -48.933  1.00  0.00     0.003 C 
HETATM   30  C16 UNL     1      90.311  84.547 -49.504  1.00  0.00     0.055 C 
HETATM   31  C17 UNL     1      90.182  84.515 -50.991  1.00  0.00     0.172 C 
HETATM   32  O2  UNL     1      90.149  85.770 -51.563  1.00  0.00    -0.385 OA
HETATM   33  C18 UNL     1      89.087  86.544 -51.071  1.00  0.00     0.224 C 
ENDBRANCH  26  28
ENDBRANCH  23  26
ENDBRANCH   1  18
TORSDOF 7
ENDMDL
