MODEL 1
REMARK VINA RESULT: -5.607267943      0.000      0.000
REMARK  4 active torsions:
REMARK  status: ('A' for Active; 'I' for Inactive)
REMARK    1  A    between atoms: N1_1  and  C1_5 
REMARK    2  A    between atoms: C1_5  and  C2_6 
REMARK    3  A    between atoms: C2_6  and  S1_7 
REMARK    4  A    between atoms: S1_7  and  N2_8 
ROOT
HETATM    1  C1  UNL     1      15.894  68.824  23.636  1.00  0.00     0.310 C 
HETATM    2  C3  UNL     1      16.428  67.442  23.378  1.00  0.00     0.180 C 
HETATM    3  S2  UNL     1      16.820  66.913  25.052  1.00  0.00     0.045 S 
HETATM    4  O3  UNL     1      18.465  66.537  25.147  1.00  0.00    -0.256 OA
HETATM    5  C4  UNL     1      16.543  68.499  25.856  1.00  0.00     0.343 C 
HETATM    6  N3  UNL     1      16.589  69.379  24.754  1.00  0.00    -0.028 N 
ATOM      7  H31 UNL     1      16.238  70.305  24.996  1.00  0.00     0.281 HD
ATOM      8  H32 UNL     1      17.546  69.635  24.515  1.00  0.00     0.281 HD
ENDROOT
BRANCH   1   9
HETATM    9  N1  UNL     1      14.493  68.752  23.924  1.00  0.00    -0.043 N 
ATOM     10  H13 UNL     1      14.268  69.245  24.787  1.00  0.00     0.277 HD
ATOM     11  H12 UNL     1      13.953  69.316  23.268  1.00  0.00     0.277 HD
ATOM     12  H11 UNL     1      14.151  67.791  23.951  1.00  0.00     0.277 HD
ENDBRANCH   1   9
BRANCH   1  13
HETATM   13  C2  UNL     1      16.201  69.774  22.494  1.00  0.00     0.233 C 
BRANCH  13  14
HETATM   14  S1  UNL     1      15.591  71.397  22.739  1.00  0.00     0.228 S 
HETATM   15  O1  UNL     1      14.811  71.583  23.982  1.00  0.00    -0.206 OA
HETATM   16  O2  UNL     1      14.826  71.879  21.539  1.00  0.00    -0.206 OA
BRANCH  14  17
HETATM   17  N2  UNL     1      16.985  72.438  22.866  1.00  0.00    -0.328 N 
ATOM     18  H22 UNL     1      17.739  72.515  22.184  1.00  0.00     0.168 HD
ATOM     19  H21 UNL     1      16.892  72.943  23.748  1.00  0.00     0.168 HD
ENDBRANCH  14  17
ENDBRANCH  13  14
ENDBRANCH   1  13
TORSDOF 4
ENDMDL
MODEL 2
REMARK VINA RESULT: -5.561610532      1.732      4.807
REMARK  4 active torsions:
REMARK  status: ('A' for Active; 'I' for Inactive)
REMARK    1  A    between atoms: N1_1  and  C1_5 
REMARK    2  A    between atoms: C1_5  and  C2_6 
REMARK    3  A    between atoms: C2_6  and  S1_7 
REMARK    4  A    between atoms: S1_7  and  N2_8 
ROOT
HETATM    1  C1  UNL     1      15.744  68.816  24.079  1.00  0.00     0.310 C 
HETATM    2  C3  UNL     1      15.430  70.286  24.065  1.00  0.00     0.180 C 
HETATM    3  S2  UNL     1      15.494  70.629  22.300  1.00  0.00     0.045 S 
HETATM    4  O3  UNL     1      16.668  71.809  22.004  1.00  0.00    -0.256 OA
HETATM    5  C4  UNL     1      16.143  69.030  21.788  1.00  0.00     0.343 C 
HETATM    6  N3  UNL     1      16.645  68.532  23.008  1.00  0.00    -0.028 N 
ATOM      7  H31 UNL     1      16.862  67.538  22.950  1.00  0.00     0.281 HD
ATOM      8  H32 UNL     1      17.583  68.883  23.201  1.00  0.00     0.281 HD
ENDROOT
BRANCH   1   9
HETATM    9  N1  UNL     1      14.535  68.066  23.906  1.00  0.00    -0.043 N 
ATOM     10  H13 UNL     1      14.554  67.206  24.453  1.00  0.00     0.277 HD
ATOM     11  H12 UNL     1      13.747  68.529  24.357  1.00  0.00     0.277 HD
ATOM     12  H11 UNL     1      14.335  67.872  22.924  1.00  0.00     0.277 HD
ENDBRANCH   1   9
BRANCH   1  13
HETATM   13  C2  UNL     1      16.502  68.409  25.328  1.00  0.00     0.233 C 
BRANCH  13  14
HETATM   14  S1  UNL     1      17.056  66.748  25.310  1.00  0.00     0.228 S 
HETATM   15  O1  UNL     1      18.518  66.585  25.166  1.00  0.00    -0.206 OA
HETATM   16  O2  UNL     1      16.315  65.937  24.285  1.00  0.00    -0.206 OA
BRANCH  14  17
HETATM   17  N2  UNL     1      16.629  66.065  26.858  1.00  0.00    -0.328 N 
ATOM     18  H22 UNL     1      15.690  65.810  27.162  1.00  0.00     0.168 HD
ATOM     19  H21 UNL     1      17.498  65.975  27.386  1.00  0.00     0.168 HD
ENDBRANCH  14  17
ENDBRANCH  13  14
ENDBRANCH   1  13
TORSDOF 4
ENDMDL
MODEL 3
REMARK VINA RESULT: -5.463935436      2.072      2.210
REMARK  4 active torsions:
REMARK  status: ('A' for Active; 'I' for Inactive)
REMARK    1  A    between atoms: N1_1  and  C1_5 
REMARK    2  A    between atoms: C1_5  and  C2_6 
REMARK    3  A    between atoms: C2_6  and  S1_7 
REMARK    4  A    between atoms: S1_7  and  N2_8 
ROOT
HETATM    1  C1  UNL     1      16.165  68.293  22.592  1.00  0.00     0.310 C 
HETATM    2  C3  UNL     1      16.101  67.413  21.374  1.00  0.00     0.180 C 
HETATM    3  S2  UNL     1      16.798  65.887  22.021  1.00  0.00     0.045 S 
HETATM    4  O3  UNL     1      18.168  65.474  21.121  1.00  0.00    -0.256 OA
HETATM    5  C4  UNL     1      17.330  66.543  23.610  1.00  0.00     0.343 C 
HETATM    6  N3  UNL     1      17.317  67.930  23.354  1.00  0.00    -0.028 N 
ATOM      7  H31 UNL     1      17.388  68.474  24.214  1.00  0.00     0.281 HD
ATOM      8  H32 UNL     1      18.180  68.239  22.906  1.00  0.00     0.281 HD
ENDROOT
BRANCH   1   9
HETATM    9  N1  UNL     1      14.984  68.107  23.381  1.00  0.00    -0.043 N 
ATOM     10  H13 UNL     1      14.903  68.828  24.097  1.00  0.00     0.277 HD
ATOM     11  H12 UNL     1      14.145  68.317  22.841  1.00  0.00     0.277 HD
ATOM     12  H11 UNL     1      14.933  67.174  23.791  1.00  0.00     0.277 HD
ENDBRANCH   1   9
BRANCH   1  13
HETATM   13  C2  UNL     1      16.395  69.747  22.230  1.00  0.00     0.233 C 
BRANCH  13  14
HETATM   14  S1  UNL     1      16.022  70.866  23.525  1.00  0.00     0.228 S 
HETATM   15  O1  UNL     1      16.425  70.410  24.872  1.00  0.00    -0.206 OA
HETATM   16  O2  UNL     1      14.575  71.268  23.497  1.00  0.00    -0.206 OA
BRANCH  14  17
HETATM   17  N2  UNL     1      16.928  72.322  23.201  1.00  0.00    -0.328 N 
ATOM     18  H22 UNL     1      17.942  72.389  23.110  1.00  0.00     0.168 HD
ATOM     19  H21 UNL     1      16.247  73.077  23.122  1.00  0.00     0.168 HD
ENDBRANCH  14  17
ENDBRANCH  13  14
ENDBRANCH   1  13
TORSDOF 4
ENDMDL
MODEL 4
REMARK VINA RESULT: -5.440396149      2.191      4.628
REMARK  4 active torsions:
REMARK  status: ('A' for Active; 'I' for Inactive)
REMARK    1  A    between atoms: N1_1  and  C1_5 
REMARK    2  A    between atoms: C1_5  and  C2_6 
REMARK    3  A    between atoms: C2_6  and  S1_7 
REMARK    4  A    between atoms: S1_7  and  N2_8 
ROOT
HETATM    1  C1  UNL     1      15.480  67.956  24.157  1.00  0.00     0.310 C 
HETATM    2  C3  UNL     1      14.820  69.113  23.460  1.00  0.00     0.180 C 
HETATM    3  S2  UNL     1      15.835  69.241  21.980  1.00  0.00     0.045 S 
HETATM    4  O3  UNL     1      16.528  70.781  21.912  1.00  0.00    -0.256 OA
HETATM    5  C4  UNL     1      17.099  68.061  22.477  1.00  0.00     0.343 C 
HETATM    6  N3  UNL     1      16.879  67.989  23.868  1.00  0.00    -0.028 N 
ATOM      7  H31 UNL     1      17.370  67.200  24.289  1.00  0.00     0.281 HD
ATOM      8  H32 UNL     1      17.349  68.745  24.365  1.00  0.00     0.281 HD
ENDROOT
BRANCH   1   9
HETATM    9  N1  UNL     1      14.917  66.726  23.684  1.00  0.00    -0.043 N 
ATOM     10  H13 UNL     1      15.016  65.986  24.378  1.00  0.00     0.277 HD
ATOM     11  H12 UNL     1      13.900  66.779  23.646  1.00  0.00     0.277 HD
ATOM     12  H11 UNL     1      15.305  66.441  22.785  1.00  0.00     0.277 HD
ENDBRANCH   1   9
BRANCH   1  13
HETATM   13  C2  UNL     1      15.404  68.083  25.666  1.00  0.00     0.233 C 
BRANCH  13  14
HETATM   14  S1  UNL     1      16.842  67.529  26.497  1.00  0.00     0.228 S 
HETATM   15  O1  UNL     1      17.955  68.502  26.523  1.00  0.00    -0.206 OA
HETATM   16  O2  UNL     1      17.296  66.197  25.972  1.00  0.00    -0.206 OA
BRANCH  14  17
HETATM   17  N2  UNL     1      16.382  67.256  28.158  1.00  0.00    -0.328 N 
ATOM     18  H22 UNL     1      17.005  66.968  28.913  1.00  0.00     0.168 HD
ATOM     19  H21 UNL     1      15.381  67.440  28.217  1.00  0.00     0.168 HD
ENDBRANCH  14  17
ENDBRANCH  13  14
ENDBRANCH   1  13
TORSDOF 4
ENDMDL
MODEL 5
REMARK VINA RESULT: -5.412507406      1.855      2.068
REMARK  4 active torsions:
REMARK  status: ('A' for Active; 'I' for Inactive)
REMARK    1  A    between atoms: N1_1  and  C1_5 
REMARK    2  A    between atoms: C1_5  and  C2_6 
REMARK    3  A    between atoms: C2_6  and  S1_7 
REMARK    4  A    between atoms: S1_7  and  N2_8 
ROOT
HETATM    1  C1  UNL     1      16.033  67.397  23.978  1.00  0.00     0.310 C 
HETATM    2  C3  UNL     1      17.241  67.095  24.821  1.00  0.00     0.180 C 
HETATM    3  S2  UNL     1      16.462  66.599  26.364  1.00  0.00     0.045 S 
HETATM    4  O3  UNL     1      16.985  67.619  27.606  1.00  0.00    -0.256 OA
HETATM    5  C4  UNL     1      14.778  67.052  25.917  1.00  0.00     0.343 C 
HETATM    6  N3  UNL     1      15.005  67.914  24.824  1.00  0.00    -0.028 N 
ATOM      7  H31 UNL     1      14.147  68.101  24.305  1.00  0.00     0.281 HD
ATOM      8  H32 UNL     1      15.210  68.865  25.129  1.00  0.00     0.281 HD
ENDROOT
BRANCH   1   9
HETATM    9  N1  UNL     1      15.579  66.195  23.343  1.00  0.00    -0.043 N 
ATOM     10  H13 UNL     1      14.723  66.359  22.814  1.00  0.00     0.277 HD
ATOM     11  H12 UNL     1      16.196  65.928  22.577  1.00  0.00     0.277 HD
ATOM     12  H11 UNL     1      15.460  65.427  24.005  1.00  0.00     0.277 HD
ENDBRANCH   1   9
BRANCH   1  13
HETATM   13  C2  UNL     1      16.298  68.510  22.983  1.00  0.00     0.233 C 
BRANCH  13  14
HETATM   14  S1  UNL     1      15.860  70.101  23.569  1.00  0.00     0.228 S 
HETATM   15  O1  UNL     1      16.367  70.424  24.919  1.00  0.00    -0.206 OA
HETATM   16  O2  UNL     1      14.377  70.327  23.475  1.00  0.00    -0.206 OA
BRANCH  14  17
HETATM   17  N2  UNL     1      16.587  71.251  22.476  1.00  0.00    -0.328 N 
ATOM     18  H22 UNL     1      17.548  71.227  22.134  1.00  0.00     0.168 HD
ATOM     19  H21 UNL     1      15.867  71.939  22.255  1.00  0.00     0.168 HD
ENDBRANCH  14  17
ENDBRANCH  13  14
ENDBRANCH   1  13
TORSDOF 4
ENDMDL
