MODEL 1
REMARK VINA RESULT: -4.387990063      0.000      0.000
REMARK  1 active torsions:
REMARK  status: ('A' for Active; 'I' for Inactive)
REMARK    1  A    between atoms: O1_2  and  C2_3 
ROOT
HETATM    1  C2  UNL     1      24.708  16.879  -7.770  1.00  0.00     0.240 C 
HETATM    2  N1  UNL     1      24.123  17.832  -6.883  1.00  0.00    -0.056 NA
HETATM    3  N2  UNL     1      24.047  15.846  -8.162  1.00  0.00    -0.262 N 
ATOM      4  H2  UNL     1      24.497  15.186  -8.796  1.00  0.00     0.181 HD
HETATM    5  C3  UNL     1      22.726  15.595  -7.748  1.00  0.00     0.184 C 
HETATM    6  N3  UNL     1      21.628  15.378  -7.418  1.00  0.00    -0.172 NA
ENDROOT
BRANCH   1   7
HETATM    7  O1  UNL     1      25.989  17.039  -8.226  1.00  0.00    -0.329 OA
HETATM    8  C1  UNL     1      26.487  18.298  -8.695  1.00  0.00     0.213 C 
ENDBRANCH   1   7
TORSDOF 1
ENDMDL
MODEL 2
REMARK VINA RESULT: -4.344655173      1.439      1.703
REMARK  1 active torsions:
REMARK  status: ('A' for Active; 'I' for Inactive)
REMARK    1  A    between atoms: O1_2  and  C2_3 
ROOT
HETATM    1  C2  UNL     1      24.427  17.372  -7.217  1.00  0.00     0.240 C 
HETATM    2  N1  UNL     1      25.005  16.545  -8.228  1.00  0.00    -0.056 NA
HETATM    3  N2  UNL     1      23.256  17.120  -6.745  1.00  0.00    -0.262 N 
ATOM      4  H2  UNL     1      22.875  17.732  -6.024  1.00  0.00     0.181 HD
HETATM    5  C3  UNL     1      22.483  16.031  -7.187  1.00  0.00     0.184 C 
HETATM    6  N3  UNL     1      21.834  15.127  -7.539  1.00  0.00    -0.172 NA
ENDROOT
BRANCH   1   7
HETATM    7  O1  UNL     1      25.105  18.455  -6.725  1.00  0.00    -0.329 OA
HETATM    8  C1  UNL     1      26.490  18.397  -6.363  1.00  0.00     0.213 C 
ENDBRANCH   1   7
TORSDOF 1
ENDMDL
MODEL 3
REMARK VINA RESULT: -4.072556111      1.297      1.297
REMARK  1 active torsions:
REMARK  status: ('A' for Active; 'I' for Inactive)
REMARK    1  A    between atoms: O1_2  and  C2_3 
ROOT
HETATM    1  C2  UNL     1      25.326  17.722  -7.639  1.00  0.00     0.240 C 
HETATM    2  N1  UNL     1      25.208  18.757  -6.663  1.00  0.00    -0.056 NA
HETATM    3  N2  UNL     1      24.416  16.819  -7.760  1.00  0.00    -0.262 N 
ATOM      4  H2  UNL     1      24.534  16.095  -8.469  1.00  0.00     0.181 HD
HETATM    5  C3  UNL     1      23.266  16.794  -6.950  1.00  0.00     0.184 C 
HETATM    6  N3  UNL     1      22.304  16.766  -6.290  1.00  0.00    -0.172 NA
ENDROOT
BRANCH   1   7
HETATM    7  O1  UNL     1      26.411  17.665  -8.472  1.00  0.00    -0.329 OA
HETATM    8  C1  UNL     1      26.798  18.762  -9.309  1.00  0.00     0.213 C 
ENDBRANCH   1   7
TORSDOF 1
ENDMDL
MODEL 4
REMARK VINA RESULT: -3.883728824      2.328      4.336
REMARK  1 active torsions:
REMARK  status: ('A' for Active; 'I' for Inactive)
REMARK    1  A    between atoms: O1_2  and  C2_3 
ROOT
HETATM    1  C2  UNL     1      25.081  17.715  -7.314  1.00  0.00     0.240 C 
HETATM    2  N1  UNL     1      25.569  16.654  -8.134  1.00  0.00    -0.056 NA
HETATM    3  N2  UNL     1      25.829  18.719  -7.014  1.00  0.00    -0.262 N 
ATOM      4  H2  UNL     1      25.446  19.459  -6.425  1.00  0.00     0.181 HD
HETATM    5  C3  UNL     1      27.156  18.833  -7.468  1.00  0.00     0.184 C 
HETATM    6  N3  UNL     1      28.255  18.943  -7.844  1.00  0.00    -0.172 NA
ENDROOT
BRANCH   1   7
HETATM    7  O1  UNL     1      23.802  17.692  -6.824  1.00  0.00    -0.329 OA
HETATM    8  C1  UNL     1      22.944  16.552  -6.967  1.00  0.00     0.213 C 
ENDBRANCH   1   7
TORSDOF 1
ENDMDL
MODEL 5
REMARK VINA RESULT: -3.829950696      2.134      2.610
REMARK  1 active torsions:
REMARK  status: ('A' for Active; 'I' for Inactive)
REMARK    1  A    between atoms: O1_2  and  C2_3 
ROOT
HETATM    1  C2  UNL     1      26.396  18.794  -6.831  1.00  0.00     0.240 C 
HETATM    2  N1  UNL     1      25.587  19.883  -6.389  1.00  0.00    -0.056 NA
HETATM    3  N2  UNL     1      25.883  17.635  -7.055  1.00  0.00    -0.262 N 
ATOM      4  H2  UNL     1      26.493  16.880  -7.370  1.00  0.00     0.181 HD
HETATM    5  C3  UNL     1      24.512  17.371  -6.880  1.00  0.00     0.184 C 
HETATM    6  N3  UNL     1      23.377  17.140  -6.746  1.00  0.00    -0.172 NA
ENDROOT
BRANCH   1   7
HETATM    7  O1  UNL     1      27.742  18.956  -7.029  1.00  0.00    -0.329 OA
HETATM    8  C1  UNL     1      28.327  19.007  -8.337  1.00  0.00     0.213 C 
ENDBRANCH   1   7
TORSDOF 1
ENDMDL
