MODEL 1
REMARK VINA RESULT: -4.835398118      0.000      0.000
REMARK  2 active torsions:
REMARK  status: ('A' for Active; 'I' for Inactive)
REMARK    1  A    between atoms: C4_4  and  N1_5 
REMARK    2  A    between atoms: C5_9  and  O1_10 
ROOT
HETATM    1  C1  UNL     1      22.473  16.419  -6.718  1.00  0.00     0.012 C 
HETATM    2  C2  UNL     1      23.456  17.085  -6.937  1.00  0.00    -0.108 C 
HETATM    3  C3  UNL     1      24.635  17.910  -7.201  1.00  0.00     0.128 A 
HETATM    4  C4  UNL     1      25.868  17.512  -6.473  1.00  0.00     0.231 A 
HETATM    5  C5  UNL     1      25.791  17.232  -7.917  1.00  0.00     0.167 A 
ENDROOT
BRANCH   4   6
HETATM    6  N1  UNL     1      26.752  18.571  -6.072  1.00  0.00    -0.071 N 
ATOM      7  H13 UNL     1      26.835  19.252  -6.827  1.00  0.00     0.274 HD
ATOM      8  H12 UNL     1      26.302  19.141  -5.356  1.00  0.00     0.274 HD
ATOM      9  H11 UNL     1      27.683  18.298  -5.755  1.00  0.00     0.274 HD
ENDBRANCH   4   6
BRANCH   5  10
HETATM   10  O1  UNL     1      25.639  15.907  -8.325  1.00  0.00    -0.392 OA
ATOM     11  H1  UNL     1      26.396  15.446  -8.667  1.00  0.00     0.210 HD
ENDBRANCH   5  10
TORSDOF 2
ENDMDL
MODEL 2
REMARK VINA RESULT: -4.474443381      2.195      3.070
REMARK  2 active torsions:
REMARK  status: ('A' for Active; 'I' for Inactive)
REMARK    1  A    between atoms: C4_4  and  N1_5 
REMARK    2  A    between atoms: C5_9  and  O1_10 
ROOT
HETATM    1  C1  UNL     1      26.284  18.992  -7.446  1.00  0.00     0.012 C 
HETATM    2  C2  UNL     1      25.546  18.095  -7.118  1.00  0.00    -0.108 C 
HETATM    3  C3  UNL     1      24.659  17.008  -6.702  1.00  0.00     0.128 A 
HETATM    4  C4  UNL     1      23.250  17.123  -7.160  1.00  0.00     0.231 A 
HETATM    5  C5  UNL     1      24.112  16.118  -7.805  1.00  0.00     0.167 A 
ENDROOT
BRANCH   4   6
HETATM    6  N1  UNL     1      22.238  16.623  -6.270  1.00  0.00    -0.071 N 
ATOM      7  H13 UNL     1      22.316  15.609  -6.199  1.00  0.00     0.274 HD
ATOM      8  H12 UNL     1      22.461  16.894  -5.312  1.00  0.00     0.274 HD
ATOM      9  H11 UNL     1      21.274  16.878  -6.482  1.00  0.00     0.274 HD
ENDBRANCH   4   6
BRANCH   5  10
HETATM   10  O1  UNL     1      24.526  16.349  -9.116  1.00  0.00    -0.392 OA
ATOM     11  H1  UNL     1      23.875  16.333  -9.809  1.00  0.00     0.210 HD
ENDBRANCH   5  10
TORSDOF 2
ENDMDL
MODEL 3
REMARK VINA RESULT: -4.336827505      2.295      2.577
REMARK  2 active torsions:
REMARK  status: ('A' for Active; 'I' for Inactive)
REMARK    1  A    between atoms: C4_4  and  N1_5 
REMARK    2  A    between atoms: C5_9  and  O1_10 
ROOT
HETATM    1  C1  UNL     1      23.622  17.086  -6.941  1.00  0.00     0.012 C 
HETATM    2  C2  UNL     1      24.773  17.451  -6.920  1.00  0.00    -0.108 C 
HETATM    3  C3  UNL     1      26.173  17.874  -6.892  1.00  0.00     0.128 A 
HETATM    4  C4  UNL     1      26.582  18.802  -7.978  1.00  0.00     0.231 A 
HETATM    5  C5  UNL     1      26.432  19.345  -6.616  1.00  0.00     0.167 A 
ENDROOT
BRANCH   4   6
HETATM    6  N1  UNL     1      27.926  18.669  -8.470  1.00  0.00    -0.071 N 
ATOM      7  H13 UNL     1      28.362  19.589  -8.527  1.00  0.00     0.274 HD
ATOM      8  H12 UNL     1      28.509  18.230  -7.758  1.00  0.00     0.274 HD
ATOM      9  H11 UNL     1      28.043  18.180  -9.357  1.00  0.00     0.274 HD
ENDBRANCH   4   6
BRANCH   5  10
HETATM   10  O1  UNL     1      25.344  20.177  -6.355  1.00  0.00    -0.392 OA
ATOM     11  H1  UNL     1      24.486  19.784  -6.248  1.00  0.00     0.210 HD
ENDBRANCH   5  10
TORSDOF 2
ENDMDL
MODEL 4
REMARK VINA RESULT: -4.060680739      1.935      2.111
REMARK  2 active torsions:
REMARK  status: ('A' for Active; 'I' for Inactive)
REMARK    1  A    between atoms: C4_4  and  N1_5 
REMARK    2  A    between atoms: C5_9  and  O1_10 
ROOT
HETATM    1  C1  UNL     1      23.463  16.961  -6.822  1.00  0.00     0.012 C 
HETATM    2  C2  UNL     1      24.449  17.585  -7.135  1.00  0.00    -0.108 C 
HETATM    3  C3  UNL     1      25.637  18.339  -7.534  1.00  0.00     0.128 A 
HETATM    4  C4  UNL     1      25.932  19.544  -6.716  1.00  0.00     0.231 A 
HETATM    5  C5  UNL     1      26.791  18.359  -6.545  1.00  0.00     0.167 A 
ENDROOT
BRANCH   4   6
HETATM    6  N1  UNL     1      26.515  20.665  -7.402  1.00  0.00    -0.071 N 
ATOM      7  H13 UNL     1      27.530  20.570  -7.411  1.00  0.00     0.274 HD
ATOM      8  H12 UNL     1      26.313  20.597  -8.400  1.00  0.00     0.274 HD
ATOM      9  H11 UNL     1      26.261  21.593  -7.064  1.00  0.00     0.274 HD
ENDBRANCH   4   6
BRANCH   5  10
HETATM   10  O1  UNL     1      26.674  17.624  -5.367  1.00  0.00    -0.392 OA
ATOM     11  H1  UNL     1      27.280  17.802  -4.657  1.00  0.00     0.210 HD
ENDBRANCH   5  10
TORSDOF 2
ENDMDL
MODEL 5
REMARK VINA RESULT: -4.007179606      2.063      2.294
REMARK  2 active torsions:
REMARK  status: ('A' for Active; 'I' for Inactive)
REMARK    1  A    between atoms: C4_4  and  N1_5 
REMARK    2  A    between atoms: C5_9  and  O1_10 
ROOT
HETATM    1  C1  UNL     1      22.430  15.741  -7.429  1.00  0.00     0.012 C 
HETATM    2  C2  UNL     1      23.566  15.916  -7.799  1.00  0.00    -0.108 C 
HETATM    3  C3  UNL     1      24.941  16.109  -8.257  1.00  0.00     0.128 A 
HETATM    4  C4  UNL     1      25.249  17.456  -8.803  1.00  0.00     0.231 A 
HETATM    5  C5  UNL     1      25.783  17.104  -7.476  1.00  0.00     0.167 A 
ENDROOT
BRANCH   4   6
HETATM    6  N1  UNL     1      26.198  17.516  -9.881  1.00  0.00    -0.071 N 
ATOM      7  H13 UNL     1      26.537  16.577 -10.090  1.00  0.00     0.274 HD
ATOM      8  H12 UNL     1      25.715  17.738 -10.751  1.00  0.00     0.274 HD
ATOM      9  H11 UNL     1      26.991  18.146  -9.760  1.00  0.00     0.274 HD
ENDBRANCH   4   6
BRANCH   5  10
HETATM   10  O1  UNL     1      25.223  17.718  -6.356  1.00  0.00    -0.392 OA
ATOM     11  H1  UNL     1      24.626  17.217  -5.813  1.00  0.00     0.210 HD
ENDBRANCH   5  10
TORSDOF 2
ENDMDL
