MODEL 1
REMARK VINA RESULT: -5.670844191      0.000      0.000
REMARK  3 active torsions:
REMARK  status: ('A' for Active; 'I' for Inactive)
REMARK    1  A    between atoms: C4_4  and  C5_5 
REMARK    2  A    between atoms: C5_5  and  O1_6 
REMARK    3  A    between atoms: N1_8  and  O2_10 
ROOT
HETATM    1  C1  UNL     1      27.575  19.629  -7.179  1.00  0.00     0.027 C 
HETATM    2  C2  UNL     1      26.588  18.931  -7.172  1.00  0.00    -0.026 C 
HETATM    3  C3  UNL     1      25.443  18.117  -7.140  1.00  0.00    -0.007 C 
HETATM    4  C4  UNL     1      24.454  17.435  -7.108  1.00  0.00    -0.007 C 
ENDROOT
BRANCH   4   5
HETATM    5  C5  UNL     1      23.265  16.644  -7.068  1.00  0.00     0.218 C 
HETATM    6  N1  UNL     1      23.095  15.653  -7.867  1.00  0.00    -0.240 N 
ATOM      7  H1  UNL     1      23.833  15.439  -8.537  1.00  0.00     0.197 HD
BRANCH   5   8
HETATM    8  O1  UNL     1      22.256  16.921  -6.162  1.00  0.00    -0.338 OA
ATOM      9  H1  UNL     1      21.407  17.231  -6.456  1.00  0.00     0.220 HD
ENDBRANCH   5   8
BRANCH   6  10
HETATM   10  O2  UNL     1      21.981  14.876  -7.862  1.00  0.00    -0.287 OA
ATOM     11  H2  UNL     1      21.428  14.755  -8.625  1.00  0.00     0.244 HD
ENDBRANCH   6  10
ENDBRANCH   4   5
TORSDOF 3
ENDMDL
MODEL 2
REMARK VINA RESULT: -5.408387402      1.084      1.375
REMARK  3 active torsions:
REMARK  status: ('A' for Active; 'I' for Inactive)
REMARK    1  A    between atoms: C4_4  and  C5_5 
REMARK    2  A    between atoms: C5_5  and  O1_6 
REMARK    3  A    between atoms: N1_8  and  O2_10 
ROOT
HETATM    1  C1  UNL     1      26.873  20.332  -6.520  1.00  0.00     0.027 C 
HETATM    2  C2  UNL     1      26.140  19.392  -6.728  1.00  0.00    -0.026 C 
HETATM    3  C3  UNL     1      25.271  18.312  -6.958  1.00  0.00    -0.007 C 
HETATM    4  C4  UNL     1      24.522  17.396  -7.170  1.00  0.00    -0.007 C 
ENDROOT
BRANCH   4   5
HETATM    5  C5  UNL     1      23.627  16.317  -7.444  1.00  0.00     0.218 C 
HETATM    6  N1  UNL     1      22.423  16.320  -6.997  1.00  0.00    -0.240 N 
ATOM      7  H1  UNL     1      22.115  17.115  -6.437  1.00  0.00     0.197 HD
BRANCH   5   8
HETATM    8  O1  UNL     1      24.030  15.233  -8.203  1.00  0.00    -0.338 OA
ATOM      9  H1  UNL     1      24.915  14.894  -8.140  1.00  0.00     0.220 HD
ENDBRANCH   5   8
BRANCH   6  10
HETATM   10  O2  UNL     1      21.539  15.315  -7.233  1.00  0.00    -0.287 OA
ATOM     11  H2  UNL     1      21.519  14.511  -6.728  1.00  0.00     0.244 HD
ENDBRANCH   6  10
ENDBRANCH   4   5
TORSDOF 3
ENDMDL
MODEL 3
REMARK VINA RESULT: -5.361794057      3.614      4.979
REMARK  3 active torsions:
REMARK  status: ('A' for Active; 'I' for Inactive)
REMARK    1  A    between atoms: C4_4  and  C5_5 
REMARK    2  A    between atoms: C5_5  and  O1_6 
REMARK    3  A    between atoms: N1_8  and  O2_10 
ROOT
HETATM    1  C1  UNL     1      22.309  15.613  -7.478  1.00  0.00     0.027 C 
HETATM    2  C2  UNL     1      23.253  16.351  -7.317  1.00  0.00    -0.026 C 
HETATM    3  C3  UNL     1      24.338  17.221  -7.114  1.00  0.00    -0.007 C 
HETATM    4  C4  UNL     1      25.271  17.955  -6.927  1.00  0.00    -0.007 C 
ENDROOT
BRANCH   4   5
HETATM    5  C5  UNL     1      26.389  18.812  -6.687  1.00  0.00     0.218 C 
HETATM    6  N1  UNL     1      27.424  18.786  -7.448  1.00  0.00    -0.240 N 
ATOM      7  H1  UNL     1      27.432  18.136  -8.233  1.00  0.00     0.197 HD
BRANCH   5   8
HETATM    8  O1  UNL     1      26.391  19.700  -5.626  1.00  0.00    -0.338 OA
ATOM      9  H1  UNL     1      27.036  20.394  -5.571  1.00  0.00     0.220 HD
ENDBRANCH   5   8
BRANCH   6  10
HETATM   10  O2  UNL     1      28.507  19.583  -7.257  1.00  0.00    -0.287 OA
ATOM     11  H2  UNL     1      29.091  19.844  -7.960  1.00  0.00     0.244 HD
ENDBRANCH   6  10
ENDBRANCH   4   5
TORSDOF 3
ENDMDL
MODEL 4
REMARK VINA RESULT: -5.235467471      3.855      5.188
REMARK  3 active torsions:
REMARK  status: ('A' for Active; 'I' for Inactive)
REMARK    1  A    between atoms: C4_4  and  C5_5 
REMARK    2  A    between atoms: C5_5  and  O1_6 
REMARK    3  A    between atoms: N1_8  and  O2_10 
ROOT
HETATM    1  C1  UNL     1      22.413  15.787  -7.451  1.00  0.00     0.027 C 
HETATM    2  C2  UNL     1      23.404  16.458  -7.280  1.00  0.00    -0.026 C 
HETATM    3  C3  UNL     1      24.556  17.232  -7.057  1.00  0.00    -0.007 C 
HETATM    4  C4  UNL     1      25.551  17.879  -6.868  1.00  0.00    -0.007 C 
ENDROOT
BRANCH   4   5
HETATM    5  C5  UNL     1      26.747  18.629  -6.648  1.00  0.00     0.218 C 
HETATM    6  N1  UNL     1      26.926  19.298  -5.567  1.00  0.00    -0.240 N 
ATOM      7  H1  UNL     1      26.191  19.283  -4.860  1.00  0.00     0.197 HD
BRANCH   5   8
HETATM    8  O1  UNL     1      27.754  18.657  -7.597  1.00  0.00    -0.338 OA
ATOM      9  H1  UNL     1      28.641  18.902  -7.362  1.00  0.00     0.220 HD
ENDBRANCH   5   8
BRANCH   6  10
HETATM   10  O2  UNL     1      28.047  20.024  -5.317  1.00  0.00    -0.287 OA
ATOM     11  H2  UNL     1      28.031  20.880  -4.908  1.00  0.00     0.244 HD
ENDBRANCH   6  10
ENDBRANCH   4   5
TORSDOF 3
ENDMDL
MODEL 5
REMARK VINA RESULT: -5.123359374      3.817      5.147
REMARK  3 active torsions:
REMARK  status: ('A' for Active; 'I' for Inactive)
REMARK    1  A    between atoms: C4_4  and  C5_5 
REMARK    2  A    between atoms: C5_5  and  O1_6 
REMARK    3  A    between atoms: N1_8  and  O2_10 
ROOT
HETATM    1  C1  UNL     1      22.456  15.664  -7.465  1.00  0.00     0.027 C 
HETATM    2  C2  UNL     1      23.342  16.470  -7.300  1.00  0.00    -0.026 C 
HETATM    3  C3  UNL     1      24.380  17.403  -7.130  1.00  0.00    -0.007 C 
HETATM    4  C4  UNL     1      25.258  18.213  -6.992  1.00  0.00    -0.007 C 
ENDROOT
BRANCH   4   5
HETATM    5  C5  UNL     1      26.286  19.193  -6.836  1.00  0.00     0.218 C 
HETATM    6  N1  UNL     1      26.003  20.434  -6.668  1.00  0.00    -0.240 N 
ATOM      7  H1  UNL     1      25.022  20.710  -6.648  1.00  0.00     0.197 HD
BRANCH   5   8
HETATM    8  O1  UNL     1      27.621  18.833  -6.860  1.00  0.00    -0.338 OA
ATOM      9  H1  UNL     1      28.304  19.479  -6.723  1.00  0.00     0.220 HD
ENDBRANCH   5   8
BRANCH   6  10
HETATM   10  O2  UNL     1      26.948  21.398  -6.515  1.00  0.00    -0.287 OA
ATOM     11  H2  UNL     1      27.578  21.620  -7.191  1.00  0.00     0.244 HD
ENDBRANCH   6  10
ENDBRANCH   4   5
TORSDOF 3
ENDMDL
