MODEL 1
REMARK VINA RESULT: -7.709819433      0.000      0.000
REMARK  6 active torsions:
REMARK  status: ('A' for Active; 'I' for Inactive)
REMARK    1  A    between atoms: O1_2  and  C2_3 
REMARK    2  A    between atoms: C4_5  and  C5_6 
REMARK    3  A    between atoms: C5_6  and  C6_8 
REMARK    4  A    between atoms: N1_12  and  O3_13 
REMARK    5  A    between atoms: C23_30  and  O6_31 
REMARK    6  A    between atoms: C25_33  and  O7_34 
ROOT
HETATM    1  C6  UNL     1      23.845 -34.635  -5.957  1.00  0.00     0.116 A 
HETATM    2  C7  UNL     1      23.743 -35.569  -4.959  1.00  0.00     0.075 A 
HETATM    3  C8  UNL     1      22.541 -35.328  -4.298  1.00  0.00     0.100 A 
HETATM    4  C9  UNL     1      21.949 -34.260  -4.914  1.00  0.00     0.075 A 
HETATM    5  N1  UNL     1      22.732 -33.836  -5.917  1.00  0.00    -0.222 N 
HETATM    6  C10 UNL     1      20.639 -33.781  -4.409  1.00  0.00     0.072 C 
HETATM    7  C11 UNL     1      19.873 -34.823  -3.648  1.00  0.00     0.054 C 
HETATM    8  C12 UNL     1      18.602 -34.260  -3.184  1.00  0.00     0.019 C 
HETATM    9  C13 UNL     1      18.449 -33.739  -1.807  1.00  0.00    -0.041 C 
HETATM   10  C14 UNL     1      16.925 -33.485  -1.675  1.00  0.00     0.015 C 
HETATM   11  C15 UNL     1      19.102 -32.455  -1.474  1.00  0.00     0.009 C 
HETATM   12  C16 UNL     1      20.411 -32.511  -0.753  1.00  0.00     0.003 C 
HETATM   13  C17 UNL     1      20.515 -33.586   0.297  1.00  0.00     0.032 C 
HETATM   14  C18 UNL     1      20.170 -34.886  -0.472  1.00  0.00     0.126 C 
HETATM   15  C19 UNL     1      18.702 -34.773  -0.729  1.00  0.00     0.041 C 
HETATM   16  O4  UNL     1      20.972 -34.820  -1.567  1.00  0.00    -0.349 OA
HETATM   17  C20 UNL     1      20.684 -35.583  -2.657  1.00  0.00     0.171 C 
HETATM   18  C21 UNL     1      20.036 -36.912  -2.325  1.00  0.00     0.080 C 
HETATM   19  O5  UNL     1      21.918 -35.919  -3.249  1.00  0.00    -0.312 OA
ENDROOT
BRANCH   1  20
HETATM   20  C5  UNL     1      24.925 -34.550  -6.916  1.00  0.00     0.211 C 
HETATM   21  O2  UNL     1      25.812 -33.640  -6.837  1.00  0.00    -0.285 OA
BRANCH  20  22
HETATM   22  C4  UNL     1      25.058 -35.486  -8.012  1.00  0.00     0.022 A 
HETATM   23  C3  UNL     1      26.346 -35.724  -8.466  1.00  0.00     0.055 A 
HETATM   24  C2  UNL     1      26.545 -36.623  -9.477  1.00  0.00     0.105 A 
HETATM   25  C25 UNL     1      25.514 -37.307 -10.067  1.00  0.00     0.135 A 
HETATM   26  C23 UNL     1      24.244 -37.064  -9.608  1.00  0.00     0.105 A 
HETATM   27  C22 UNL     1      24.013 -36.165  -8.592  1.00  0.00     0.055 A 
BRANCH  24  28
HETATM   28  O1  UNL     1      27.852 -36.861  -9.935  1.00  0.00    -0.353 OA
HETATM   29  C1  UNL     1      28.558 -35.929 -10.722  1.00  0.00     0.210 C 
ENDBRANCH  24  28
BRANCH  25  30
HETATM   30  O7  UNL     1      25.712 -38.221 -11.093  1.00  0.00    -0.351 OA
HETATM   31  C26 UNL     1      25.798 -37.838 -12.456  1.00  0.00     0.210 C 
ENDBRANCH  25  30
BRANCH  26  32
HETATM   32  O6  UNL     1      23.157 -37.741 -10.179  1.00  0.00    -0.353 OA
HETATM   33  C24 UNL     1      21.833 -37.509  -9.781  1.00  0.00     0.210 C 
ENDBRANCH  26  32
ENDBRANCH  20  22
ENDBRANCH   1  20
BRANCH   5  34
HETATM   34  O3  UNL     1      22.552 -32.807  -6.800  1.00  0.00    -0.282 OA
ATOM     35  H3  UNL     1      21.914 -32.121  -6.645  1.00  0.00     0.245 HD
ENDBRANCH   5  34
TORSDOF 6
ENDMDL
MODEL 2
REMARK VINA RESULT: -7.662162457      0.196      2.203
REMARK  6 active torsions:
REMARK  status: ('A' for Active; 'I' for Inactive)
REMARK    1  A    between atoms: O1_2  and  C2_3 
REMARK    2  A    between atoms: C4_5  and  C5_6 
REMARK    3  A    between atoms: C5_6  and  C6_8 
REMARK    4  A    between atoms: N1_12  and  O3_13 
REMARK    5  A    between atoms: C23_30  and  O6_31 
REMARK    6  A    between atoms: C25_33  and  O7_34 
ROOT
HETATM    1  C6  UNL     1      23.882 -34.661  -5.956  1.00  0.00     0.116 A 
HETATM    2  C7  UNL     1      23.790 -35.583  -4.946  1.00  0.00     0.075 A 
HETATM    3  C8  UNL     1      22.581 -35.351  -4.293  1.00  0.00     0.100 A 
HETATM    4  C9  UNL     1      21.978 -34.299  -4.925  1.00  0.00     0.075 A 
HETATM    5  N1  UNL     1      22.758 -33.877  -5.931  1.00  0.00    -0.222 N 
HETATM    6  C10 UNL     1      20.659 -33.831  -4.432  1.00  0.00     0.072 C 
HETATM    7  C11 UNL     1      19.904 -34.875  -3.660  1.00  0.00     0.054 C 
HETATM    8  C12 UNL     1      18.623 -34.323  -3.208  1.00  0.00     0.019 C 
HETATM    9  C13 UNL     1      18.458 -33.787  -1.839  1.00  0.00    -0.041 C 
HETATM   10  C14 UNL     1      16.930 -33.553  -1.716  1.00  0.00     0.015 C 
HETATM   11  C15 UNL     1      19.092 -32.490  -1.520  1.00  0.00     0.009 C 
HETATM   12  C16 UNL     1      20.399 -32.518  -0.793  1.00  0.00     0.003 C 
HETATM   13  C17 UNL     1      20.513 -33.578   0.271  1.00  0.00     0.032 C 
HETATM   14  C18 UNL     1      20.189 -34.893  -0.483  1.00  0.00     0.126 C 
HETATM   15  C19 UNL     1      18.721 -34.803  -0.747  1.00  0.00     0.041 C 
HETATM   16  O4  UNL     1      20.995 -34.829  -1.575  1.00  0.00    -0.349 OA
HETATM   17  C20 UNL     1      20.722 -35.610  -2.656  1.00  0.00     0.171 C 
HETATM   18  C21 UNL     1      20.091 -36.944  -2.310  1.00  0.00     0.080 C 
HETATM   19  O5  UNL     1      21.963 -35.936  -3.239  1.00  0.00    -0.312 OA
ENDROOT
BRANCH   1  20
HETATM   20  C5  UNL     1      24.965 -34.573  -6.912  1.00  0.00     0.211 C 
HETATM   21  O2  UNL     1      25.814 -33.626  -6.867  1.00  0.00    -0.285 OA
BRANCH  20  22
HETATM   22  C4  UNL     1      25.143 -35.549  -7.966  1.00  0.00     0.022 A 
HETATM   23  C3  UNL     1      23.987 -36.070  -8.524  1.00  0.00     0.055 A 
HETATM   24  C2  UNL     1      24.084 -36.971  -9.547  1.00  0.00     0.105 A 
HETATM   25  C25 UNL     1      25.289 -37.386 -10.052  1.00  0.00     0.135 A 
HETATM   26  C23 UNL     1      26.427 -36.861  -9.493  1.00  0.00     0.105 A 
HETATM   27  C22 UNL     1      26.360 -35.952  -8.462  1.00  0.00     0.055 A 
BRANCH  24  28
HETATM   28  O1  UNL     1      22.908 -37.499 -10.110  1.00  0.00    -0.353 OA
HETATM   29  C1  UNL     1      21.632 -36.975  -9.823  1.00  0.00     0.210 C 
ENDBRANCH  24  28
BRANCH  25  30
HETATM   30  O7  UNL     1      25.391 -38.300 -11.092  1.00  0.00    -0.351 OA
HETATM   31  C26 UNL     1      25.571 -37.910 -12.443  1.00  0.00     0.210 C 
ENDBRANCH  25  30
BRANCH  26  32
HETATM   32  O6  UNL     1      27.683 -37.253  -9.976  1.00  0.00    -0.353 OA
HETATM   33  C24 UNL     1      28.534 -36.374 -10.660  1.00  0.00     0.210 C 
ENDBRANCH  26  32
ENDBRANCH  20  22
ENDBRANCH   1  20
BRANCH   5  34
HETATM   34  O3  UNL     1      22.567 -32.862  -6.828  1.00  0.00    -0.282 OA
ATOM     35  H3  UNL     1      23.267 -32.263  -7.061  1.00  0.00     0.245 HD
ENDBRANCH   5  34
TORSDOF 6
ENDMDL
MODEL 3
REMARK VINA RESULT: -7.647810407      1.371      2.558
REMARK  6 active torsions:
REMARK  status: ('A' for Active; 'I' for Inactive)
REMARK    1  A    between atoms: O1_2  and  C2_3 
REMARK    2  A    between atoms: C4_5  and  C5_6 
REMARK    3  A    between atoms: C5_6  and  C6_8 
REMARK    4  A    between atoms: N1_12  and  O3_13 
REMARK    5  A    between atoms: C23_30  and  O6_31 
REMARK    6  A    between atoms: C25_33  and  O7_34 
ROOT
HETATM    1  C6  UNL     1      23.812 -34.445  -6.182  1.00  0.00     0.116 A 
HETATM    2  C7  UNL     1      22.660 -33.705  -6.250  1.00  0.00     0.075 A 
HETATM    3  C8  UNL     1      21.884 -34.060  -5.149  1.00  0.00     0.100 A 
HETATM    4  C9  UNL     1      22.585 -35.001  -4.447  1.00  0.00     0.075 A 
HETATM    5  N1  UNL     1      23.751 -35.239  -5.066  1.00  0.00    -0.222 N 
HETATM    6  C10 UNL     1      21.987 -35.562  -3.212  1.00  0.00     0.072 C 
HETATM    7  C11 UNL     1      20.949 -34.673  -2.591  1.00  0.00     0.054 C 
HETATM    8  C12 UNL     1      20.411 -35.310  -1.385  1.00  0.00     0.019 C 
HETATM    9  C13 UNL     1      19.141 -36.068  -1.419  1.00  0.00    -0.041 C 
HETATM   10  C14 UNL     1      18.834 -36.342   0.076  1.00  0.00     0.015 C 
HETATM   11  C15 UNL     1      19.139 -37.392  -2.080  1.00  0.00     0.009 C 
HETATM   12  C16 UNL     1      18.619 -37.466  -3.480  1.00  0.00     0.003 C 
HETATM   13  C17 UNL     1      17.423 -36.595  -3.762  1.00  0.00     0.032 C 
HETATM   14  C18 UNL     1      17.891 -35.178  -3.344  1.00  0.00     0.126 C 
HETATM   15  C19 UNL     1      17.946 -35.244  -1.852  1.00  0.00     0.041 C 
HETATM   16  O4  UNL     1      19.085 -35.048  -3.978  1.00  0.00    -0.349 OA
HETATM   17  C20 UNL     1      19.969 -34.103  -3.556  1.00  0.00     0.171 C 
HETATM   18  C21 UNL     1      19.316 -32.854  -2.997  1.00  0.00     0.080 C 
HETATM   19  O5  UNL     1      20.667 -33.666  -4.701  1.00  0.00    -0.312 OA
ENDROOT
BRANCH   1  20
HETATM   20  C5  UNL     1      24.919 -34.357  -7.110  1.00  0.00     0.211 C 
HETATM   21  O2  UNL     1      25.769 -33.412  -7.041  1.00  0.00    -0.285 OA
BRANCH  20  22
HETATM   22  C4  UNL     1      25.119 -35.329  -8.164  1.00  0.00     0.022 A 
HETATM   23  C3  UNL     1      26.406 -35.432  -8.669  1.00  0.00     0.055 A 
HETATM   24  C2  UNL     1      26.671 -36.355  -9.642  1.00  0.00     0.105 A 
HETATM   25  C25 UNL     1      25.710 -37.193 -10.145  1.00  0.00     0.135 A 
HETATM   26  C23 UNL     1      24.440 -37.082  -9.635  1.00  0.00     0.105 A 
HETATM   27  C22 UNL     1      24.143 -36.163  -8.655  1.00  0.00     0.055 A 
BRANCH  24  28
HETATM   28  O1  UNL     1      27.977 -36.456 -10.154  1.00  0.00    -0.353 OA
HETATM   29  C1  UNL     1      28.582 -35.418 -10.889  1.00  0.00     0.210 C 
ENDBRANCH  24  28
BRANCH  25  30
HETATM   30  O7  UNL     1      25.976 -38.131 -11.133  1.00  0.00    -0.351 OA
HETATM   31  C26 UNL     1      25.886 -37.835 -12.517  1.00  0.00     0.210 C 
ENDBRANCH  25  30
BRANCH  26  32
HETATM   32  O6  UNL     1      23.423 -37.918 -10.117  1.00  0.00    -0.353 OA
HETATM   33  C24 UNL     1      22.071 -37.716  -9.802  1.00  0.00     0.210 C 
ENDBRANCH  26  32
ENDBRANCH  20  22
ENDBRANCH   1  20
BRANCH   5  34
HETATM   34  O3  UNL     1      24.767 -36.092  -4.733  1.00  0.00    -0.282 OA
ATOM     35  H3  UNL     1      24.626 -36.836  -4.160  1.00  0.00     0.245 HD
ENDBRANCH   5  34
TORSDOF 6
ENDMDL
MODEL 4
REMARK VINA RESULT: -7.569670415      1.351      3.347
REMARK  6 active torsions:
REMARK  status: ('A' for Active; 'I' for Inactive)
REMARK    1  A    between atoms: O1_2  and  C2_3 
REMARK    2  A    between atoms: C4_5  and  C5_6 
REMARK    3  A    between atoms: C5_6  and  C6_8 
REMARK    4  A    between atoms: N1_12  and  O3_13 
REMARK    5  A    between atoms: C23_30  and  O6_31 
REMARK    6  A    between atoms: C25_33  and  O7_34 
ROOT
HETATM    1  C6  UNL     1      23.968 -34.433  -6.305  1.00  0.00     0.116 A 
HETATM    2  C7  UNL     1      22.837 -33.664  -6.409  1.00  0.00     0.075 A 
HETATM    3  C8  UNL     1      22.042 -33.959  -5.303  1.00  0.00     0.100 A 
HETATM    4  C9  UNL     1      22.712 -34.894  -4.563  1.00  0.00     0.075 A 
HETATM    5  N1  UNL     1      23.876 -35.185  -5.162  1.00  0.00    -0.222 N 
HETATM    6  C10 UNL     1      22.088 -35.396  -3.315  1.00  0.00     0.072 C 
HETATM    7  C11 UNL     1      21.070 -34.457  -2.734  1.00  0.00     0.054 C 
HETATM    8  C12 UNL     1      20.505 -35.038  -1.512  1.00  0.00     0.019 C 
HETATM    9  C13 UNL     1      19.214 -35.762  -1.532  1.00  0.00    -0.041 C 
HETATM   10  C14 UNL     1      18.888 -35.975  -0.030  1.00  0.00     0.015 C 
HETATM   11  C15 UNL     1      19.182 -37.107  -2.146  1.00  0.00     0.009 C 
HETATM   12  C16 UNL     1      18.671 -37.215  -3.547  1.00  0.00     0.003 C 
HETATM   13  C17 UNL     1      17.502 -36.323  -3.870  1.00  0.00     0.032 C 
HETATM   14  C18 UNL     1      18.005 -34.905  -3.497  1.00  0.00     0.126 C 
HETATM   15  C19 UNL     1      18.047 -34.921  -2.003  1.00  0.00     0.041 C 
HETATM   16  O4  UNL     1      19.208 -34.830  -4.124  1.00  0.00    -0.349 OA
HETATM   17  C20 UNL     1      20.114 -33.895  -3.727  1.00  0.00     0.171 C 
HETATM   18  C21 UNL     1      19.491 -32.610  -3.218  1.00  0.00     0.080 C 
HETATM   19  O5  UNL     1      20.833 -33.517  -4.880  1.00  0.00    -0.312 OA
ENDROOT
BRANCH   1  20
HETATM   20  C5  UNL     1      25.083 -34.407  -7.226  1.00  0.00     0.211 C 
HETATM   21  O2  UNL     1      25.932 -33.459  -7.213  1.00  0.00    -0.285 OA
BRANCH  20  22
HETATM   22  C4  UNL     1      25.296 -35.450  -8.207  1.00  0.00     0.022 A 
HETATM   23  C3  UNL     1      24.158 -36.039  -8.735  1.00  0.00     0.055 A 
HETATM   24  C2  UNL     1      24.288 -37.008  -9.692  1.00  0.00     0.105 A 
HETATM   25  C25 UNL     1      25.508 -37.425 -10.156  1.00  0.00     0.135 A 
HETATM   26  C23 UNL     1      26.627 -36.833  -9.626  1.00  0.00     0.105 A 
HETATM   27  C22 UNL     1      26.528 -35.856  -8.663  1.00  0.00     0.055 A 
BRANCH  24  28
HETATM   28  O1  UNL     1      23.132 -37.604 -10.225  1.00  0.00    -0.353 OA
HETATM   29  C1  UNL     1      21.835 -37.153  -9.908  1.00  0.00     0.210 C 
ENDBRANCH  24  28
BRANCH  25  30
HETATM   30  O7  UNL     1      25.643 -38.408 -11.127  1.00  0.00    -0.351 OA
HETATM   31  C26 UNL     1      25.628 -38.122 -12.517  1.00  0.00     0.210 C 
ENDBRANCH  25  30
BRANCH  26  32
HETATM   32  O6  UNL     1      27.897 -37.226 -10.070  1.00  0.00    -0.353 OA
HETATM   33  C24 UNL     1      28.690 -36.416 -10.896  1.00  0.00     0.210 C 
ENDBRANCH  26  32
ENDBRANCH  20  22
ENDBRANCH   1  20
BRANCH   5  34
HETATM   34  O3  UNL     1      24.864 -36.054  -4.792  1.00  0.00    -0.282 OA
ATOM     35  H3  UNL     1      25.257 -36.657  -5.411  1.00  0.00     0.245 HD
ENDBRANCH   5  34
TORSDOF 6
ENDMDL
MODEL 5
REMARK VINA RESULT: -7.550316452      1.643      2.939
REMARK  6 active torsions:
REMARK  status: ('A' for Active; 'I' for Inactive)
REMARK    1  A    between atoms: O1_2  and  C2_3 
REMARK    2  A    between atoms: C4_5  and  C5_6 
REMARK    3  A    between atoms: C5_6  and  C6_8 
REMARK    4  A    between atoms: N1_12  and  O3_13 
REMARK    5  A    between atoms: C23_30  and  O6_31 
REMARK    6  A    between atoms: C25_33  and  O7_34 
ROOT
HETATM    1  C6  UNL     1      21.936 -35.303  -7.291  1.00  0.00     0.116 A 
HETATM    2  C7  UNL     1      22.469 -35.653  -6.078  1.00  0.00     0.075 A 
HETATM    3  C8  UNL     1      21.767 -34.945  -5.105  1.00  0.00     0.100 A 
HETATM    4  C9  UNL     1      20.831 -34.188  -5.755  1.00  0.00     0.075 A 
HETATM    5  N1  UNL     1      20.927 -34.399  -7.075  1.00  0.00    -0.222 N 
HETATM    6  C10 UNL     1      19.931 -33.323  -4.953  1.00  0.00     0.072 C 
HETATM    7  C11 UNL     1      19.789 -33.766  -3.525  1.00  0.00     0.054 C 
HETATM    8  C12 UNL     1      18.892 -32.852  -2.812  1.00  0.00     0.019 C 
HETATM    9  C13 UNL     1      19.422 -31.749  -1.981  1.00  0.00    -0.041 C 
HETATM   10  C14 UNL     1      18.171 -31.214  -1.236  1.00  0.00     0.015 C 
HETATM   11  C15 UNL     1      20.011 -30.580  -2.671  1.00  0.00     0.009 C 
HETATM   12  C16 UNL     1      21.501 -30.521  -2.781  1.00  0.00     0.003 C 
HETATM   13  C17 UNL     1      22.249 -31.006  -1.568  1.00  0.00     0.032 C 
HETATM   14  C18 UNL     1      21.697 -32.437  -1.343  1.00  0.00     0.126 C 
HETATM   15  C19 UNL     1      20.308 -32.210  -0.842  1.00  0.00     0.041 C 
HETATM   16  O4  UNL     1      21.802 -33.005  -2.572  1.00  0.00    -0.349 OA
HETATM   17  C20 UNL     1      21.074 -34.119  -2.860  1.00  0.00     0.171 C 
HETATM   18  C21 UNL     1      20.839 -35.027  -1.669  1.00  0.00     0.080 C 
HETATM   19  O5  UNL     1      21.848 -34.886  -3.754  1.00  0.00    -0.312 OA
ENDROOT
BRANCH   1  20
HETATM   20  C5  UNL     1      22.344 -35.840  -8.571  1.00  0.00     0.211 C 
HETATM   21  O2  UNL     1      21.491 -36.143  -9.466  1.00  0.00    -0.285 OA
BRANCH  20  22
HETATM   22  C4  UNL     1      23.735 -36.064  -8.904  1.00  0.00     0.022 A 
HETATM   23  C3  UNL     1      23.996 -37.085  -9.804  1.00  0.00     0.055 A 
HETATM   24  C2  UNL     1      25.286 -37.327 -10.187  1.00  0.00     0.105 A 
HETATM   25  C25 UNL     1      26.344 -36.595  -9.715  1.00  0.00     0.135 A 
HETATM   26  C23 UNL     1      26.073 -35.586  -8.825  1.00  0.00     0.105 A 
HETATM   27  C22 UNL     1      24.785 -35.319  -8.421  1.00  0.00     0.055 A 
BRANCH  24  28
HETATM   28  O1  UNL     1      25.547 -38.364 -11.099  1.00  0.00    -0.353 OA
HETATM   29  C1  UNL     1      25.487 -38.175 -12.495  1.00  0.00     0.210 C 
ENDBRANCH  24  28
BRANCH  25  30
HETATM   30  O7  UNL     1      27.655 -36.838 -10.101  1.00  0.00    -0.351 OA
HETATM   31  C26 UNL     1      28.489 -37.778  -9.443  1.00  0.00     0.210 C 
ENDBRANCH  25  30
BRANCH  26  32
HETATM   32  O6  UNL     1      27.122 -34.809  -8.314  1.00  0.00    -0.353 OA
HETATM   33  C24 UNL     1      27.615 -33.679  -8.983  1.00  0.00     0.210 C 
ENDBRANCH  26  32
ENDBRANCH  20  22
ENDBRANCH   1  20
BRANCH   5  34
HETATM   34  O3  UNL     1      20.205 -33.867  -8.108  1.00  0.00    -0.282 OA
ATOM     35  H3  UNL     1      19.690 -34.413  -8.690  1.00  0.00     0.245 HD
ENDBRANCH   5  34
TORSDOF 6
ENDMDL
