MODEL 1
REMARK VINA RESULT: -8.189806083      0.000      0.000
REMARK  8 active torsions:
REMARK  status: ('A' for Active; 'I' for Inactive)
REMARK    1  A    between atoms: O1_1  and  C1_3 
REMARK    2  A    between atoms: C1_3  and  C2_4 
REMARK    3  A    between atoms: C1_3  and  C12_26 
REMARK    4  A    between atoms: C1_3  and  C18_33 
REMARK    5  A    between atoms: C2_4  and  N1_5 
REMARK    6  A    between atoms: C4_7  and  C5_8 
REMARK    7  A    between atoms: C7_10  and  C8_11 
REMARK    8  A    between atoms: C8_11  and  N2_12 
ROOT
HETATM    1  N1  UNL     1       7.016  -3.972  18.218  1.00  0.00    -0.283 N 
HETATM    2  C3  UNL     1       5.748  -4.294  18.593  1.00  0.00     0.145 A 
HETATM    3  C4  UNL     1       5.112  -3.180  19.090  1.00  0.00     0.094 A 
HETATM    4  N6  UNL     1       6.021  -2.195  19.007  1.00  0.00    -0.283 N 
ATOM      5  H6  UNL     1       5.877  -1.228  19.297  1.00  0.00     0.188 HD
HETATM    6  N7  UNL     1       7.143  -2.690  18.485  1.00  0.00    -0.240 N 
ATOM      7  H7  UNL     1       7.989  -2.145  18.315  1.00  0.00     0.208 HD
ENDROOT
BRANCH   1   8
HETATM    8  C2  UNL     1       7.923  -4.890  17.637  1.00  0.00     0.202 C 
BRANCH   8   9
HETATM    9  C1  UNL     1       8.207  -4.842  16.186  1.00  0.00     0.201 C 
BRANCH   9  10
HETATM   10  O1  UNL     1       8.268  -3.503  15.760  1.00  0.00    -0.375 OA
ATOM     11  H1  UNL     1       8.999  -3.067  16.181  1.00  0.00     0.211 HD
ENDBRANCH   9  10
BRANCH   9  12
HETATM   12  C12 UNL     1       6.974  -5.368  15.511  1.00  0.00    -0.013 A 
HETATM   13  C13 UNL     1       6.624  -6.660  15.882  1.00  0.00     0.012 A 
HETATM   14  C14 UNL     1       5.542  -7.288  15.319  1.00  0.00     0.024 A 
HETATM   15  C15 UNL     1       4.773  -6.641  14.366  1.00  0.00     0.034 A 
HETATM   16 CL1  UNL     1       3.383  -7.450  13.628  1.00  0.00    -0.084 Cl
HETATM   17  C16 UNL     1       5.140  -5.372  14.024  1.00  0.00     0.024 A 
HETATM   18  C17 UNL     1       6.236  -4.713  14.582  1.00  0.00     0.012 A 
ENDBRANCH   9  12
BRANCH   9  19
HETATM   19  C18 UNL     1       9.470  -5.480  15.742  1.00  0.00     0.424 C 
HETATM   20  F1  UNL     1      10.445  -4.646  15.294  1.00  0.00    -0.167 F 
HETATM   21  F2  UNL     1       9.241  -6.436  14.784  1.00  0.00    -0.167 F 
HETATM   22  F3  UNL     1       9.927  -6.223  16.856  1.00  0.00    -0.167 F 
ENDBRANCH   9  19
ENDBRANCH   8   9
ENDBRANCH   1   8
BRANCH   3  23
HETATM   23  C5  UNL     1       3.727  -3.120  19.542  1.00  0.00     0.079 A 
HETATM   24  C6  UNL     1       2.718  -4.026  19.285  1.00  0.00     0.061 A 
HETATM   25  C7  UNL     1       1.561  -3.527  19.883  1.00  0.00     0.047 A 
HETATM   26  N4  UNL     1       1.879  -2.370  20.469  1.00  0.00    -0.303 N 
HETATM   27  N5  UNL     1       3.149  -2.144  20.265  1.00  0.00    -0.298 N 
ATOM     28  H4  UNL     1       1.240  -1.767  20.987  1.00  0.00     0.186 HD
ATOM     29  H5  UNL     1       3.645  -1.324  20.615  1.00  0.00     0.187 HD
BRANCH  25  30
HETATM   30  C8  UNL     1       0.216  -4.140  19.878  1.00  0.00     0.206 C 
BRANCH  30  31
HETATM   31  N2  UNL     1      -0.052  -4.736  18.591  1.00  0.00    -0.298 N 
HETATM   32  C9  UNL     1       0.170  -4.326  17.337  1.00  0.00     0.112 A 
HETATM   33  C10 UNL     1      -0.307  -5.266  16.443  1.00  0.00     0.037 A 
HETATM   34  C11 UNL     1      -0.832  -6.273  17.201  1.00  0.00     0.108 A 
HETATM   35  N3  UNL     1      -0.665  -5.927  18.469  1.00  0.00    -0.310 N 
ATOM     36  H3  UNL     1      -0.967  -6.496  19.260  1.00  0.00     0.186 HD
ENDBRANCH  30  31
ENDBRANCH  25  30
ENDBRANCH   3  23
TORSDOF 8
ENDMDL
MODEL 2
REMARK VINA RESULT: -8.188457786      3.659      5.564
REMARK  8 active torsions:
REMARK  status: ('A' for Active; 'I' for Inactive)
REMARK    1  A    between atoms: O1_1  and  C1_3 
REMARK    2  A    between atoms: C1_3  and  C2_4 
REMARK    3  A    between atoms: C1_3  and  C12_26 
REMARK    4  A    between atoms: C1_3  and  C18_33 
REMARK    5  A    between atoms: C2_4  and  N1_5 
REMARK    6  A    between atoms: C4_7  and  C5_8 
REMARK    7  A    between atoms: C7_10  and  C8_11 
REMARK    8  A    between atoms: C8_11  and  N2_12 
ROOT
HETATM    1  N1  UNL     1       2.000  -5.449  17.083  1.00  0.00    -0.283 N 
HETATM    2  C3  UNL     1       1.822  -4.499  18.040  1.00  0.00     0.145 A 
HETATM    3  C4  UNL     1       0.646  -4.732  18.715  1.00  0.00     0.094 A 
HETATM    4  N6  UNL     1       0.129  -5.830  18.141  1.00  0.00    -0.283 N 
ATOM      5  H6  UNL     1      -0.750  -6.278  18.401  1.00  0.00     0.188 HD
HETATM    6  N7  UNL     1       0.951  -6.238  17.176  1.00  0.00    -0.240 N 
ATOM      7  H7  UNL     1       0.789  -7.055  16.586  1.00  0.00     0.208 HD
ENDROOT
BRANCH   1   8
HETATM    8  C2  UNL     1       3.131  -5.511  16.235  1.00  0.00     0.202 C 
BRANCH   8   9
HETATM    9  C1  UNL     1       4.357  -6.211  16.676  1.00  0.00     0.201 C 
BRANCH   9  10
HETATM   10  O1  UNL     1       4.112  -6.876  17.890  1.00  0.00    -0.375 OA
ATOM     11  H1  UNL     1       4.904  -7.311  18.183  1.00  0.00     0.211 HD
ENDBRANCH   9  10
BRANCH   9  12
HETATM   12  C12 UNL     1       5.329  -5.133  17.056  1.00  0.00    -0.013 A 
HETATM   13  C13 UNL     1       5.160  -4.636  18.343  1.00  0.00     0.012 A 
HETATM   14  C14 UNL     1       5.951  -3.620  18.816  1.00  0.00     0.024 A 
HETATM   15  C15 UNL     1       6.937  -3.068  18.018  1.00  0.00     0.034 A 
HETATM   16 CL1  UNL     1       7.952  -1.749  18.619  1.00  0.00    -0.084 Cl
HETATM   17  C16 UNL     1       7.080  -3.578  16.760  1.00  0.00     0.024 A 
HETATM   18  C17 UNL     1       6.289  -4.610  16.256  1.00  0.00     0.012 A 
ENDBRANCH   9  12
BRANCH   9  19
HETATM   19  C18 UNL     1       4.904  -7.230  15.745  1.00  0.00     0.424 C 
HETATM   20  F1  UNL     1       6.158  -7.682  16.011  1.00  0.00    -0.167 F 
HETATM   21  F2  UNL     1       4.863  -6.796  14.444  1.00  0.00    -0.167 F 
HETATM   22  F3  UNL     1       3.977  -8.299  15.773  1.00  0.00    -0.167 F 
ENDBRANCH   9  19
ENDBRANCH   8   9
ENDBRANCH   1   8
BRANCH   3  23
HETATM   23  C5  UNL     1       0.143  -3.958  19.844  1.00  0.00     0.079 A 
HETATM   24  C6  UNL     1      -0.834  -4.326  20.747  1.00  0.00     0.061 A 
HETATM   25  C7  UNL     1      -1.010  -3.249  21.617  1.00  0.00     0.047 A 
HETATM   26  N4  UNL     1      -0.167  -2.286  21.237  1.00  0.00    -0.303 N 
HETATM   27  N5  UNL     1       0.504  -2.712  20.202  1.00  0.00    -0.298 N 
ATOM     28  H4  UNL     1      -0.064  -1.373  21.681  1.00  0.00     0.186 HD
ATOM     29  H5  UNL     1       1.218  -2.166  19.721  1.00  0.00     0.187 HD
BRANCH  25  30
HETATM   30  C8  UNL     1      -1.953  -3.161  22.751  1.00  0.00     0.206 C 
BRANCH  30  31
HETATM   31  N2  UNL     1      -1.325  -2.497  23.868  1.00  0.00    -0.298 N 
HETATM   32  C9  UNL     1      -0.299  -2.828  24.660  1.00  0.00     0.112 A 
HETATM   33  C10 UNL     1      -0.106  -1.848  25.616  1.00  0.00     0.037 A 
HETATM   34  C11 UNL     1      -1.058  -0.899  25.376  1.00  0.00     0.108 A 
HETATM   35  N3  UNL     1      -1.763  -1.315  24.335  1.00  0.00    -0.310 N 
ATOM     36  H3  UNL     1      -2.546  -0.799  23.934  1.00  0.00     0.186 HD
ENDBRANCH  30  31
ENDBRANCH  25  30
ENDBRANCH   3  23
TORSDOF 8
ENDMDL
MODEL 3
REMARK VINA RESULT: -8.134173217      4.960      8.711
REMARK  8 active torsions:
REMARK  status: ('A' for Active; 'I' for Inactive)
REMARK    1  A    between atoms: O1_1  and  C1_3 
REMARK    2  A    between atoms: C1_3  and  C2_4 
REMARK    3  A    between atoms: C1_3  and  C12_26 
REMARK    4  A    between atoms: C1_3  and  C18_33 
REMARK    5  A    between atoms: C2_4  and  N1_5 
REMARK    6  A    between atoms: C4_7  and  C5_8 
REMARK    7  A    between atoms: C7_10  and  C8_11 
REMARK    8  A    between atoms: C8_11  and  N2_12 
ROOT
HETATM    1  N1  UNL     1       7.743  -5.040  16.098  1.00  0.00    -0.283 N 
HETATM    2  C3  UNL     1       7.540  -6.374  15.917  1.00  0.00     0.145 A 
HETATM    3  C4  UNL     1       8.714  -6.975  15.527  1.00  0.00     0.094 A 
HETATM    4  N6  UNL     1       9.614  -5.980  15.476  1.00  0.00    -0.283 N 
ATOM      5  H6  UNL     1      10.595  -6.079  15.215  1.00  0.00     0.188 HD
HETATM    6  N7  UNL     1       9.014  -4.841  15.821  1.00  0.00    -0.240 N 
ATOM      7  H7  UNL     1       9.479  -3.934  15.864  1.00  0.00     0.208 HD
ENDROOT
BRANCH   1   8
HETATM    8  C2  UNL     1       6.740  -4.142  16.532  1.00  0.00     0.202 C 
BRANCH   8   9
HETATM    9  C1  UNL     1       6.770  -3.597  17.907  1.00  0.00     0.201 C 
BRANCH   9  10
HETATM   10  O1  UNL     1       7.558  -4.424  18.727  1.00  0.00    -0.375 OA
ATOM     11  H1  UNL     1       7.348  -5.335  18.559  1.00  0.00     0.211 HD
ENDBRANCH   9  10
BRANCH   9  12
HETATM   12  C12 UNL     1       5.383  -3.784  18.450  1.00  0.00    -0.013 A 
HETATM   13  C13 UNL     1       4.598  -4.672  17.725  1.00  0.00     0.012 A 
HETATM   14  C14 UNL     1       3.295  -4.913  18.080  1.00  0.00     0.024 A 
HETATM   15  C15 UNL     1       2.735  -4.275  19.173  1.00  0.00     0.034 A 
HETATM   16 CL1  UNL     1       1.052  -4.573  19.629  1.00  0.00    -0.084 Cl
HETATM   17  C16 UNL     1       3.532  -3.411  19.867  1.00  0.00     0.024 A 
HETATM   18  C17 UNL     1       4.859  -3.149  19.526  1.00  0.00     0.012 A 
ENDBRANCH   9  12
BRANCH   9  19
HETATM   19  C18 UNL     1       7.308  -2.223  18.059  1.00  0.00     0.424 C 
HETATM   20  F1  UNL     1       6.394  -1.221  18.148  1.00  0.00    -0.167 F 
HETATM   21  F2  UNL     1       8.195  -1.916  17.057  1.00  0.00    -0.167 F 
HETATM   22  F3  UNL     1       8.114  -2.262  19.221  1.00  0.00    -0.167 F 
ENDBRANCH   9  19
ENDBRANCH   8   9
ENDBRANCH   1   8
BRANCH   3  23
HETATM   23  C5  UNL     1       8.903  -8.402  15.288  1.00  0.00     0.079 A 
HETATM   24  C6  UNL     1       9.403  -9.005  14.152  1.00  0.00     0.061 A 
HETATM   25  C7  UNL     1       9.354 -10.382  14.369  1.00  0.00     0.047 A 
HETATM   26  N4  UNL     1       8.845 -10.579  15.588  1.00  0.00    -0.303 N 
HETATM   27  N5  UNL     1       8.588  -9.414  16.117  1.00  0.00    -0.298 N 
ATOM     28  H4  UNL     1       8.685 -11.484  16.030  1.00  0.00     0.186 HD
ATOM     29  H5  UNL     1       8.195  -9.285  17.050  1.00  0.00     0.187 HD
BRANCH  25  30
HETATM   30  C8  UNL     1       9.774 -11.450  13.437  1.00  0.00     0.206 C 
BRANCH  30  31
HETATM   31  N2  UNL     1      11.213 -11.559  13.425  1.00  0.00    -0.298 N 
HETATM   32  C9  UNL     1      12.117 -11.524  12.440  1.00  0.00     0.112 A 
HETATM   33  C10 UNL     1      13.386 -11.708  12.957  1.00  0.00     0.037 A 
HETATM   34  C11 UNL     1      13.223 -11.856  14.305  1.00  0.00     0.108 A 
HETATM   35  N3  UNL     1      11.924 -11.764  14.548  1.00  0.00    -0.310 N 
ATOM     36  H3  UNL     1      11.511 -11.840  15.478  1.00  0.00     0.186 HD
ENDBRANCH  30  31
ENDBRANCH  25  30
ENDBRANCH   3  23
TORSDOF 8
ENDMDL
MODEL 4
REMARK VINA RESULT: -7.977374589      3.639      5.193
REMARK  8 active torsions:
REMARK  status: ('A' for Active; 'I' for Inactive)
REMARK    1  A    between atoms: O1_1  and  C1_3 
REMARK    2  A    between atoms: C1_3  and  C2_4 
REMARK    3  A    between atoms: C1_3  and  C12_26 
REMARK    4  A    between atoms: C1_3  and  C18_33 
REMARK    5  A    between atoms: C2_4  and  N1_5 
REMARK    6  A    between atoms: C4_7  and  C5_8 
REMARK    7  A    between atoms: C7_10  and  C8_11 
REMARK    8  A    between atoms: C8_11  and  N2_12 
ROOT
HETATM    1  N1  UNL     1       3.429  -5.067  17.749  1.00  0.00    -0.283 N 
HETATM    2  C3  UNL     1       3.019  -4.140  18.657  1.00  0.00     0.145 A 
HETATM    3  C4  UNL     1       1.757  -4.452  19.104  1.00  0.00     0.094 A 
HETATM    4  N6  UNL     1       1.423  -5.574  18.447  1.00  0.00    -0.283 N 
ATOM      5  H6  UNL     1       0.541  -6.078  18.542  1.00  0.00     0.188 HD
HETATM    6  N7  UNL     1       2.432  -5.921  17.649  1.00  0.00    -0.240 N 
ATOM      7  H7  UNL     1       2.432  -6.740  17.041  1.00  0.00     0.208 HD
ENDROOT
BRANCH   1   8
HETATM    8  C2  UNL     1       4.698  -5.050  17.123  1.00  0.00     0.202 C 
BRANCH   8   9
HETATM    9  C1  UNL     1       5.015  -6.020  16.052  1.00  0.00     0.201 C 
BRANCH   9  10
HETATM   10  O1  UNL     1       4.787  -7.328  16.515  1.00  0.00    -0.375 OA
ATOM     11  H1  UNL     1       3.870  -7.550  16.406  1.00  0.00     0.211 HD
ENDBRANCH   9  10
BRANCH   9  12
HETATM   12  C12 UNL     1       6.505  -5.964  15.879  1.00  0.00    -0.013 A 
HETATM   13  C13 UNL     1       7.048  -4.690  15.993  1.00  0.00     0.012 A 
HETATM   14  C14 UNL     1       8.392  -4.478  15.820  1.00  0.00     0.024 A 
HETATM   15  C15 UNL     1       9.237  -5.535  15.528  1.00  0.00     0.034 A 
HETATM   16 CL1  UNL     1      10.970  -5.266  15.292  1.00  0.00    -0.084 Cl
HETATM   17  C16 UNL     1       8.675  -6.774  15.425  1.00  0.00     0.024 A 
HETATM   18  C17 UNL     1       7.312  -7.015  15.596  1.00  0.00     0.012 A 
ENDBRANCH   9  12
BRANCH   9  19
HETATM   19  C18 UNL     1       4.245  -5.882  14.792  1.00  0.00     0.424 C 
HETATM   20  F1  UNL     1       2.978  -6.377  14.799  1.00  0.00    -0.167 F 
HETATM   21  F2  UNL     1       4.919  -6.426  13.727  1.00  0.00    -0.167 F 
HETATM   22  F3  UNL     1       4.232  -4.496  14.509  1.00  0.00    -0.167 F 
ENDBRANCH   9  19
ENDBRANCH   8   9
ENDBRANCH   1   8
BRANCH   3  23
HETATM   23  C5  UNL     1       1.007  -3.722  20.121  1.00  0.00     0.079 A 
HETATM   24  C6  UNL     1      -0.287  -3.955  20.541  1.00  0.00     0.061 A 
HETATM   25  C7  UNL     1      -0.587  -2.980  21.492  1.00  0.00     0.047 A 
HETATM   26  N4  UNL     1       0.492  -2.204  21.625  1.00  0.00    -0.303 N 
HETATM   27  N5  UNL     1       1.418  -2.649  20.821  1.00  0.00    -0.298 N 
ATOM     28  H4  UNL     1       0.577  -1.401  22.248  1.00  0.00     0.186 HD
ATOM     29  H5  UNL     1       2.346  -2.233  20.734  1.00  0.00     0.187 HD
BRANCH  25  30
HETATM   30  C8  UNL     1      -1.858  -2.809  22.226  1.00  0.00     0.206 C 
BRANCH  30  31
HETATM   31  N2  UNL     1      -1.594  -2.470  23.603  1.00  0.00    -0.298 N 
HETATM   32  C9  UNL     1      -1.046  -3.151  24.616  1.00  0.00     0.112 A 
HETATM   33  C10 UNL     1      -1.047  -2.375  25.760  1.00  0.00     0.037 A 
HETATM   34  C11 UNL     1      -1.618  -1.186  25.407  1.00  0.00     0.108 A 
HETATM   35  N3  UNL     1      -1.931  -1.276  24.123  1.00  0.00    -0.310 N 
ATOM     36  H3  UNL     1      -2.375  -0.528  23.591  1.00  0.00     0.186 HD
ENDBRANCH  30  31
ENDBRANCH  25  30
ENDBRANCH   3  23
TORSDOF 8
ENDMDL
MODEL 5
REMARK VINA RESULT: -7.895725282      3.500      5.220
REMARK  8 active torsions:
REMARK  status: ('A' for Active; 'I' for Inactive)
REMARK    1  A    between atoms: O1_1  and  C1_3 
REMARK    2  A    between atoms: C1_3  and  C2_4 
REMARK    3  A    between atoms: C1_3  and  C12_26 
REMARK    4  A    between atoms: C1_3  and  C18_33 
REMARK    5  A    between atoms: C2_4  and  N1_5 
REMARK    6  A    between atoms: C4_7  and  C5_8 
REMARK    7  A    between atoms: C7_10  and  C8_11 
REMARK    8  A    between atoms: C8_11  and  N2_12 
ROOT
HETATM    1  N1  UNL     1       4.781  -5.891  14.261  1.00  0.00    -0.283 N 
HETATM    2  C3  UNL     1       3.525  -6.022  14.767  1.00  0.00     0.145 A 
HETATM    3  C4  UNL     1       2.810  -6.924  14.014  1.00  0.00     0.094 A 
HETATM    4  N6  UNL     1       3.658  -7.322  13.052  1.00  0.00    -0.283 N 
ATOM      5  H6  UNL     1       3.446  -7.993  12.314  1.00  0.00     0.188 HD
HETATM    6  N7  UNL     1       4.822  -6.697  13.221  1.00  0.00    -0.240 N 
ATOM      7  H7  UNL     1       5.638  -6.825  12.622  1.00  0.00     0.208 HD
ENDROOT
BRANCH   1   8
HETATM    8  C2  UNL     1       5.777  -5.062  14.828  1.00  0.00     0.202 C 
BRANCH   8   9
HETATM    9  C1  UNL     1       6.585  -5.540  15.971  1.00  0.00     0.201 C 
BRANCH   9  10
HETATM   10  O1  UNL     1       6.237  -6.868  16.274  1.00  0.00    -0.375 OA
ATOM     11  H1  UNL     1       6.929  -7.453  15.988  1.00  0.00     0.211 HD
ENDBRANCH   9  10
BRANCH   9  12
HETATM   12  C12 UNL     1       6.099  -4.770  17.164  1.00  0.00    -0.013 A 
HETATM   13  C13 UNL     1       4.887  -5.213  17.679  1.00  0.00     0.012 A 
HETATM   14  C14 UNL     1       4.300  -4.581  18.746  1.00  0.00     0.024 A 
HETATM   15  C15 UNL     1       4.908  -3.485  19.333  1.00  0.00     0.034 A 
HETATM   16 CL1  UNL     1       4.150  -2.658  20.702  1.00  0.00    -0.084 Cl
HETATM   17  C16 UNL     1       6.099  -3.074  18.807  1.00  0.00     0.024 A 
HETATM   18  C17 UNL     1       6.715  -3.700  17.723  1.00  0.00     0.012 A 
ENDBRANCH   9  12
BRANCH   9  19
HETATM   19  C18 UNL     1       8.057  -5.525  15.788  1.00  0.00     0.424 C 
HETATM   20  F1  UNL     1       8.806  -5.819  16.884  1.00  0.00    -0.167 F 
HETATM   21  F2  UNL     1       8.489  -4.328  15.274  1.00  0.00    -0.167 F 
HETATM   22  F3  UNL     1       8.315  -6.451  14.750  1.00  0.00    -0.167 F 
ENDBRANCH   9  19
ENDBRANCH   8   9
ENDBRANCH   1   8
BRANCH   3  23
HETATM   23  C5  UNL     1       1.445  -7.364  14.279  1.00  0.00     0.079 A 
HETATM   24  C6  UNL     1       0.337  -6.573  14.510  1.00  0.00     0.061 A 
HETATM   25  C7  UNL     1      -0.732  -7.435  14.758  1.00  0.00     0.047 A 
HETATM   26  N4  UNL     1      -0.268  -8.684  14.674  1.00  0.00    -0.303 N 
HETATM   27  N5  UNL     1       1.005  -8.630  14.390  1.00  0.00    -0.298 N 
ATOM     28  H4  UNL     1      -0.814  -9.535  14.808  1.00  0.00     0.186 HD
ATOM     29  H5  UNL     1       1.597  -9.452  14.267  1.00  0.00     0.187 HD
BRANCH  25  30
HETATM   30  C8  UNL     1      -2.128  -7.062  15.066  1.00  0.00     0.206 C 
BRANCH  30  31
HETATM   31  N2  UNL     1      -2.212  -6.510  16.397  1.00  0.00    -0.298 N 
HETATM   32  C9  UNL     1      -1.827  -6.966  17.594  1.00  0.00     0.112 A 
HETATM   33  C10 UNL     1      -2.166  -6.055  18.577  1.00  0.00     0.037 A 
HETATM   34  C11 UNL     1      -2.775  -5.017  17.931  1.00  0.00     0.108 A 
HETATM   35  N3  UNL     1      -2.786  -5.319  16.642  1.00  0.00    -0.310 N 
ATOM     36  H3  UNL     1      -3.184  -4.718  15.920  1.00  0.00     0.186 HD
ENDBRANCH  30  31
ENDBRANCH  25  30
ENDBRANCH   3  23
TORSDOF 8
ENDMDL
