MODEL 1
REMARK VINA RESULT: -7.895927572      0.000      0.000
REMARK  4 active torsions:
REMARK  status: ('A' for Active; 'I' for Inactive)
REMARK    1  A    between atoms: O1_2  and  C2_3 
REMARK    2  A    between atoms: C2_3  and  C3_5 
REMARK    3  A    between atoms: C13_17  and  C14_18 
REMARK    4  A    between atoms: C14_18  and  O5_21 
ROOT
HETATM    1  C3  UNL     1       2.409  -4.011  19.376  1.00  0.00     0.086 C 
HETATM    2  C4  UNL     1       3.619  -3.137  19.711  1.00  0.00     0.022 C 
HETATM    3  C5  UNL     1       4.920  -3.927  19.746  1.00  0.00     0.088 C 
HETATM    4  C6  UNL     1       5.850  -3.674  18.633  1.00  0.00     0.195 C 
HETATM    5  O3  UNL     1       6.350  -2.476  18.639  1.00  0.00    -0.289 OA
HETATM    6  C7  UNL     1       6.302  -4.508  17.550  1.00  0.00     0.202 C 
HETATM    7  O4  UNL     1       7.571  -4.705  17.397  1.00  0.00    -0.288 OA
HETATM    8  C8  UNL     1       5.525  -5.236  16.504  1.00  0.00     0.021 C 
HETATM    9  C9  UNL     1       5.922  -4.624  15.151  1.00  0.00     0.023 C 
HETATM   10  C10 UNL     1       5.843  -6.708  16.484  1.00  0.00     0.023 C 
HETATM   11  C11 UNL     1       4.129  -5.006  16.856  1.00  0.00     0.017 C 
HETATM   12  C12 UNL     1       2.935  -5.352  16.123  1.00  0.00     0.009 C 
HETATM   13  C13 UNL     1       1.814  -5.188  17.195  1.00  0.00     0.020 C 
HETATM   14  C17 UNL     1       1.910  -3.914  17.968  1.00  0.00     0.022 C 
ENDROOT
BRANCH  13  15
HETATM   15  C14 UNL     1       0.493  -5.498  16.571  1.00  0.00     0.054 C 
HETATM   16  C15 UNL     1       0.605  -5.809  15.106  1.00  0.00     0.045 C 
HETATM   17  C16 UNL     1      -0.235  -6.635  17.234  1.00  0.00     0.045 C 
BRANCH  15  18
HETATM   18  O5  UNL     1      -0.300  -4.346  16.685  1.00  0.00    -0.390 OA
ATOM     19  H5  UNL     1      -1.202  -4.611  16.549  1.00  0.00     0.210 HD
ENDBRANCH  15  18
ENDBRANCH  13  15
BRANCH   1  20
HETATM   20  C2  UNL     1       1.366  -3.552  20.352  1.00  0.00     0.262 C 
HETATM   21  O2  UNL     1       1.621  -2.838  21.343  1.00  0.00    -0.265 OA
BRANCH  20  22
HETATM   22  O1  UNL     1       0.036  -3.920  20.181  1.00  0.00    -0.326 OA
HETATM   23  C1  UNL     1      -0.465  -5.176  20.590  1.00  0.00     0.213 C 
ENDBRANCH  20  22
ENDBRANCH   1  20
TORSDOF 4
ENDMDL
MODEL 2
REMARK VINA RESULT: -7.656119722      2.077      4.434
REMARK  4 active torsions:
REMARK  status: ('A' for Active; 'I' for Inactive)
REMARK    1  A    between atoms: O1_2  and  C2_3 
REMARK    2  A    between atoms: C2_3  and  C3_5 
REMARK    3  A    between atoms: C13_17  and  C14_18 
REMARK    4  A    between atoms: C14_18  and  O5_21 
ROOT
HETATM    1  C3  UNL     1       0.537  -5.052  16.844  1.00  0.00     0.086 C 
HETATM    2  C4  UNL     1       0.475  -6.371  16.070  1.00  0.00     0.022 C 
HETATM    3  C5  UNL     1       1.265  -6.324  14.770  1.00  0.00     0.088 C 
HETATM    4  C6  UNL     1       2.509  -7.110  14.751  1.00  0.00     0.195 C 
HETATM    5  O3  UNL     1       2.313  -8.391  14.812  1.00  0.00    -0.289 OA
HETATM    6  C7  UNL     1       3.893  -6.717  14.675  1.00  0.00     0.202 C 
HETATM    7  O4  UNL     1       4.627  -7.186  13.720  1.00  0.00    -0.288 OA
HETATM    8  C8  UNL     1       4.688  -5.809  15.553  1.00  0.00     0.021 C 
HETATM    9  C9  UNL     1       5.786  -6.666  16.200  1.00  0.00     0.023 C 
HETATM   10  C10 UNL     1       5.336  -4.693  14.776  1.00  0.00     0.023 C 
HETATM   11  C11 UNL     1       3.721  -5.286  16.513  1.00  0.00     0.017 C 
HETATM   12  C12 UNL     1       3.945  -4.472  17.682  1.00  0.00     0.009 C 
HETATM   13  C13 UNL     1       2.514  -3.957  18.023  1.00  0.00     0.020 C 
HETATM   14  C17 UNL     1       1.475  -5.030  18.011  1.00  0.00     0.022 C 
ENDROOT
BRANCH  13  15
HETATM   15  C14 UNL     1       2.581  -3.101  19.245  1.00  0.00     0.054 C 
HETATM   16  C15 UNL     1       1.676  -3.588  20.341  1.00  0.00     0.045 C 
HETATM   17  C16 UNL     1       3.968  -2.967  19.812  1.00  0.00     0.045 C 
BRANCH  15  18
HETATM   18  O5  UNL     1       2.132  -1.822  18.882  1.00  0.00    -0.390 OA
ATOM     19  H5  UNL     1       2.652  -1.542  18.138  1.00  0.00     0.210 HD
ENDBRANCH  15  18
ENDBRANCH  13  15
BRANCH   1  20
HETATM   20  C2  UNL     1      -0.880  -4.840  17.286  1.00  0.00     0.262 C 
HETATM   21  O2  UNL     1      -1.836  -4.722  16.493  1.00  0.00    -0.265 OA
BRANCH  20  22
HETATM   22  O1  UNL     1      -1.189  -4.765  18.640  1.00  0.00    -0.326 OA
HETATM   23  C1  UNL     1      -1.974  -5.737  19.298  1.00  0.00     0.213 C 
ENDBRANCH  20  22
ENDBRANCH   1  20
TORSDOF 4
ENDMDL
MODEL 3
REMARK VINA RESULT: -7.598356401      1.829      2.843
REMARK  4 active torsions:
REMARK  status: ('A' for Active; 'I' for Inactive)
REMARK    1  A    between atoms: O1_2  and  C2_3 
REMARK    2  A    between atoms: C2_3  and  C3_5 
REMARK    3  A    between atoms: C13_17  and  C14_18 
REMARK    4  A    between atoms: C14_18  and  O5_21 
ROOT
HETATM    1  C3  UNL     1       2.924  -4.740  18.673  1.00  0.00     0.086 C 
HETATM    2  C4  UNL     1       3.095  -3.358  19.307  1.00  0.00     0.022 C 
HETATM    3  C5  UNL     1       4.405  -3.223  20.071  1.00  0.00     0.088 C 
HETATM    4  C6  UNL     1       5.421  -2.359  19.448  1.00  0.00     0.195 C 
HETATM    5  O3  UNL     1       5.085  -1.106  19.416  1.00  0.00    -0.289 OA
HETATM    6  C7  UNL     1       6.710  -2.650  18.875  1.00  0.00     0.202 C 
HETATM    7  O4  UNL     1       7.753  -2.041  19.334  1.00  0.00    -0.288 OA
HETATM    8  C8  UNL     1       7.087  -3.587  17.776  1.00  0.00     0.021 C 
HETATM    9  C9  UNL     1       7.654  -2.728  16.636  1.00  0.00     0.023 C 
HETATM   10  C10 UNL     1       8.138  -4.575  18.209  1.00  0.00     0.023 C 
HETATM   11  C11 UNL     1       5.843  -4.265  17.427  1.00  0.00     0.017 C 
HETATM   12  C12 UNL     1       5.575  -5.175  16.340  1.00  0.00     0.009 C 
HETATM   13  C13 UNL     1       4.215  -5.815  16.756  1.00  0.00     0.020 C 
HETATM   14  C17 UNL     1       3.198  -4.817  17.203  1.00  0.00     0.022 C 
ENDROOT
BRANCH  13  15
HETATM   15  C14 UNL     1       3.788  -6.782  15.701  1.00  0.00     0.054 C 
HETATM   16  C15 UNL     1       2.424  -6.471  15.151  1.00  0.00     0.045 C 
HETATM   17  C16 UNL     1       4.746  -6.875  14.544  1.00  0.00     0.045 C 
BRANCH  15  18
HETATM   18  O5  UNL     1       3.707  -8.046  16.304  1.00  0.00    -0.390 OA
ATOM     19  H5  UNL     1       2.977  -8.504  15.902  1.00  0.00     0.210 HD
ENDBRANCH  15  18
ENDBRANCH  13  15
BRANCH   1  20
HETATM   20  C2  UNL     1       1.497  -5.088  18.975  1.00  0.00     0.262 C 
HETATM   21  O2  UNL     1       0.785  -5.782  18.221  1.00  0.00    -0.265 OA
BRANCH  20  22
HETATM   22  O1  UNL     1       0.897  -4.634  20.145  1.00  0.00    -0.326 OA
HETATM   23  C1  UNL     1      -0.392  -5.046  20.549  1.00  0.00     0.213 C 
ENDBRANCH  20  22
ENDBRANCH   1  20
TORSDOF 4
ENDMDL
MODEL 4
REMARK VINA RESULT: -7.585986686      1.700      4.184
REMARK  4 active torsions:
REMARK  status: ('A' for Active; 'I' for Inactive)
REMARK    1  A    between atoms: O1_2  and  C2_3 
REMARK    2  A    between atoms: C2_3  and  C3_5 
REMARK    3  A    between atoms: C13_17  and  C14_18 
REMARK    4  A    between atoms: C14_18  and  O5_21 
ROOT
HETATM    1  C3  UNL     1       3.216  -5.234  16.437  1.00  0.00     0.086 C 
HETATM    2  C4  UNL     1       4.227  -6.219  15.848  1.00  0.00     0.022 C 
HETATM    3  C5  UNL     1       5.421  -5.522  15.211  1.00  0.00     0.088 C 
HETATM    4  C6  UNL     1       6.693  -5.642  15.943  1.00  0.00     0.195 C 
HETATM    5  O3  UNL     1       7.165  -6.851  15.966  1.00  0.00    -0.289 OA
HETATM    6  C7  UNL     1       7.503  -4.667  16.628  1.00  0.00     0.202 C 
HETATM    7  O4  UNL     1       8.739  -4.522  16.279  1.00  0.00    -0.288 OA
HETATM    8  C8  UNL     1       7.155  -3.734  17.740  1.00  0.00     0.021 C 
HETATM    9  C9  UNL     1       8.020  -4.137  18.944  1.00  0.00     0.023 C 
HETATM   10  C10 UNL     1       7.448  -2.299  17.388  1.00  0.00     0.023 C 
HETATM   11  C11 UNL     1       5.727  -3.939  17.958  1.00  0.00     0.017 C 
HETATM   12  C12 UNL     1       4.879  -3.409  18.998  1.00  0.00     0.009 C 
HETATM   13  C13 UNL     1       3.446  -3.682  18.446  1.00  0.00     0.020 C 
HETATM   14  C17 UNL     1       3.263  -5.069  17.924  1.00  0.00     0.022 C 
ENDROOT
BRANCH  13  15
HETATM   15  C14 UNL     1       2.440  -3.199  19.438  1.00  0.00     0.054 C 
HETATM   16  C15 UNL     1       1.524  -4.292  19.910  1.00  0.00     0.045 C 
HETATM   17  C16 UNL     1       3.052  -2.550  20.650  1.00  0.00     0.045 C 
BRANCH  15  18
HETATM   18  O5  UNL     1       1.641  -2.247  18.789  1.00  0.00    -0.390 OA
ATOM     19  H5  UNL     1       1.237  -2.678  18.045  1.00  0.00     0.210 HD
ENDBRANCH  15  18
ENDBRANCH  13  15
BRANCH   1  20
HETATM   20  C2  UNL     1       1.893  -5.786  15.997  1.00  0.00     0.262 C 
HETATM   21  O2  UNL     1       1.703  -6.302  14.876  1.00  0.00    -0.265 OA
BRANCH  20  22
HETATM   22  O1  UNL     1       0.795  -5.741  16.849  1.00  0.00    -0.326 OA
HETATM   23  C1  UNL     1      -0.250  -4.802  16.697  1.00  0.00     0.213 C 
ENDBRANCH  20  22
ENDBRANCH   1  20
TORSDOF 4
ENDMDL
MODEL 5
REMARK VINA RESULT: -7.516793833      1.904      5.181
REMARK  4 active torsions:
REMARK  status: ('A' for Active; 'I' for Inactive)
REMARK    1  A    between atoms: O1_2  and  C2_3 
REMARK    2  A    between atoms: C2_3  and  C3_5 
REMARK    3  A    between atoms: C13_17  and  C14_18 
REMARK    4  A    between atoms: C14_18  and  O5_21 
ROOT
HETATM    1  C3  UNL     1       5.296  -5.196  16.317  1.00  0.00     0.086 C 
HETATM    2  C4  UNL     1       6.079  -4.770  17.560  1.00  0.00     0.022 C 
HETATM    3  C5  UNL     1       5.734  -3.358  18.013  1.00  0.00     0.088 C 
HETATM    4  C6  UNL     1       4.950  -3.261  19.255  1.00  0.00     0.195 C 
HETATM    5  O3  UNL     1       5.601  -3.649  20.309  1.00  0.00    -0.289 OA
HETATM    6  C7  UNL     1       3.604  -2.814  19.510  1.00  0.00     0.202 C 
HETATM    7  O4  UNL     1       3.411  -1.859  20.360  1.00  0.00    -0.288 OA
HETATM    8  C8  UNL     1       2.308  -3.281  18.937  1.00  0.00     0.021 C 
HETATM    9  C9  UNL     1       1.493  -3.864  20.101  1.00  0.00     0.023 C 
HETATM   10  C10 UNL     1       1.527  -2.156  18.311  1.00  0.00     0.023 C 
HETATM   11  C11 UNL     1       2.685  -4.276  17.939  1.00  0.00     0.017 C 
HETATM   12  C12 UNL     1       1.843  -5.159  17.169  1.00  0.00     0.009 C 
HETATM   13  C13 UNL     1       2.804  -5.663  16.050  1.00  0.00     0.020 C 
HETATM   14  C17 UNL     1       4.135  -6.108  16.563  1.00  0.00     0.022 C 
ENDROOT
BRANCH  13  15
HETATM   15  C14 UNL     1       2.070  -6.619  15.169  1.00  0.00     0.054 C 
HETATM   16  C15 UNL     1       1.905  -7.973  15.798  1.00  0.00     0.045 C 
HETATM   17  C16 UNL     1       0.710  -6.131  14.751  1.00  0.00     0.045 C 
BRANCH  15  18
HETATM   18  O5  UNL     1       2.844  -6.797  14.013  1.00  0.00    -0.390 OA
ATOM     19  H5  UNL     1       3.562  -6.176  14.056  1.00  0.00     0.210 HD
ENDBRANCH  15  18
ENDBRANCH  13  15
BRANCH   1  20
HETATM   20  C2  UNL     1       6.334  -5.862  15.463  1.00  0.00     0.262 C 
HETATM   21  O2  UNL     1       6.117  -6.252  14.297  1.00  0.00    -0.265 OA
BRANCH  20  22
HETATM   22  O1  UNL     1       7.616  -6.077  15.956  1.00  0.00    -0.326 OA
HETATM   23  C1  UNL     1       8.775  -5.624  15.288  1.00  0.00     0.213 C 
ENDBRANCH  20  22
ENDBRANCH   1  20
TORSDOF 4
ENDMDL
