MODEL 1
REMARK VINA RESULT: -7.094647978      0.000      0.000
REMARK  4 active torsions:
REMARK  status: ('A' for Active; 'I' for Inactive)
REMARK    1  A    between atoms: C2_2  and  C4_4 
REMARK    2  A    between atoms: C4_4  and  C5_5 
REMARK    3  A    between atoms: C9_9  and  C10_11 
REMARK    4  A    between atoms: C13_14  and  C14_15 
ROOT
HETATM    1  C5  UNL     1      -4.139 166.754 399.632  1.00  0.00     0.020 A 
HETATM    2  C6  UNL     1      -3.434 166.147 400.860  1.00  0.00     0.034 A 
HETATM    3  C7  UNL     1      -2.897 167.392 401.282  1.00  0.00    -0.021 C 
HETATM    4  C8  UNL     1      -2.523 168.119 400.238  1.00  0.00     0.014 C 
HETATM    5  C9  UNL     1      -2.861 167.277 399.051  1.00  0.00     0.134 C 
HETATM    6  F1  UNL     1      -3.068 168.065 397.927  1.00  0.00    -0.237 F 
HETATM    7  C13 UNL     1      -4.472 165.485 400.179  1.00  0.00     0.096 A 
ENDROOT
BRANCH   1   8
HETATM    8  C4  UNL     1      -5.212 167.774 399.826  1.00  0.00     0.018 C 
BRANCH   8   9
HETATM    9  C2  UNL     1      -5.991 168.196 398.651  1.00  0.00    -0.022 C 
HETATM   10  C1  UNL     1      -6.284 167.029 397.722  1.00  0.00     0.009 C 
HETATM   11  C3  UNL     1      -7.391 168.586 399.186  1.00  0.00     0.009 C 
ENDBRANCH   8   9
ENDBRANCH   1   8
BRANCH   5  12
HETATM   12  C10 UNL     1      -1.872 166.265 398.620  1.00  0.00     0.030 A 
HETATM   13  C11 UNL     1      -0.392 166.628 398.718  1.00  0.00     0.009 A 
HETATM   14  C12 UNL     1      -1.071 166.501 397.361  1.00  0.00     0.009 A 
ENDBRANCH   5  12
BRANCH   7  15
HETATM   15  C14 UNL     1      -5.610 165.077 401.010  1.00  0.00     0.236 C 
HETATM   16  N1  UNL     1      -5.356 164.553 402.325  1.00  0.00    -0.062 NA
HETATM   17  O1  UNL     1      -6.824 165.147 400.649  1.00  0.00    -0.276 OA
ENDBRANCH   7  15
TORSDOF 4
ENDMDL
MODEL 2
REMARK VINA RESULT: -6.890905465      1.294      1.627
REMARK  4 active torsions:
REMARK  status: ('A' for Active; 'I' for Inactive)
REMARK    1  A    between atoms: C2_2  and  C4_4 
REMARK    2  A    between atoms: C4_4  and  C5_5 
REMARK    3  A    between atoms: C9_9  and  C10_11 
REMARK    4  A    between atoms: C13_14  and  C14_15 
ROOT
HETATM    1  C5  UNL     1      -4.534 166.941 399.159  1.00  0.00     0.020 A 
HETATM    2  C6  UNL     1      -4.497 165.732 400.113  1.00  0.00     0.034 A 
HETATM    3  C7  UNL     1      -3.808 166.441 401.132  1.00  0.00    -0.021 C 
HETATM    4  C8  UNL     1      -2.909 167.262 400.606  1.00  0.00     0.014 C 
HETATM    5  C9  UNL     1      -3.043 167.074 399.130  1.00  0.00     0.134 C 
HETATM    6  F1  UNL     1      -2.620 168.206 398.447  1.00  0.00    -0.237 F 
HETATM    7  C13 UNL     1      -5.380 165.807 399.021  1.00  0.00     0.096 A 
ENDROOT
BRANCH   1   8
HETATM    8  C4  UNL     1      -5.274 168.175 399.561  1.00  0.00     0.018 C 
BRANCH   8   9
HETATM    9  C2  UNL     1      -6.025 168.904 398.527  1.00  0.00    -0.022 C 
HETATM   10  C1  UNL     1      -7.198 169.668 399.118  1.00  0.00     0.009 C 
HETATM   11  C3  UNL     1      -5.084 170.028 398.027  1.00  0.00     0.009 C 
ENDBRANCH   8   9
ENDBRANCH   1   8
BRANCH   5  12
HETATM   12  C10 UNL     1      -2.295 165.960 398.508  1.00  0.00     0.030 A 
HETATM   13  C11 UNL     1      -0.794 165.871 398.776  1.00  0.00     0.009 A 
HETATM   14  C12 UNL     1      -1.315 166.256 397.397  1.00  0.00     0.009 A 
ENDBRANCH   5  12
BRANCH   7  15
HETATM   15  C14 UNL     1      -6.799 165.633 399.346  1.00  0.00     0.236 C 
HETATM   16  N1  UNL     1      -7.157 165.161 400.656  1.00  0.00    -0.062 NA
HETATM   17  O1  UNL     1      -7.754 165.866 398.543  1.00  0.00    -0.276 OA
ENDBRANCH   7  15
TORSDOF 4
ENDMDL
MODEL 3
REMARK VINA RESULT: -6.279236474      1.141      1.288
REMARK  4 active torsions:
REMARK  status: ('A' for Active; 'I' for Inactive)
REMARK    1  A    between atoms: C2_2  and  C4_4 
REMARK    2  A    between atoms: C4_4  and  C5_5 
REMARK    3  A    between atoms: C9_9  and  C10_11 
REMARK    4  A    between atoms: C13_14  and  C14_15 
ROOT
HETATM    1  C5  UNL     1      -3.853 166.186 399.734  1.00  0.00     0.020 A 
HETATM    2  C6  UNL     1      -3.096 166.524 401.032  1.00  0.00     0.034 A 
HETATM    3  C7  UNL     1      -3.043 167.915 400.749  1.00  0.00    -0.021 C 
HETATM    4  C8  UNL     1      -2.845 168.122 399.454  1.00  0.00     0.014 C 
HETATM    5  C9  UNL     1      -2.779 166.753 398.858  1.00  0.00     0.134 C 
HETATM    6  F1  UNL     1      -3.139 166.779 397.518  1.00  0.00    -0.237 F 
HETATM    7  C13 UNL     1      -3.791 165.314 400.855  1.00  0.00     0.096 A 
ENDROOT
BRANCH   1   8
HETATM    8  C4  UNL     1      -5.219 166.749 399.508  1.00  0.00     0.018 C 
BRANCH   8   9
HETATM    9  C2  UNL     1      -6.089 166.089 398.523  1.00  0.00    -0.022 C 
HETATM   10  C1  UNL     1      -7.500 165.902 399.055  1.00  0.00     0.009 C 
HETATM   11  C3  UNL     1      -6.275 167.106 397.370  1.00  0.00     0.009 C 
ENDBRANCH   8   9
ENDBRANCH   1   8
BRANCH   5  12
HETATM   12  C10 UNL     1      -1.475 166.055 398.882  1.00  0.00     0.030 A 
HETATM   13  C11 UNL     1      -0.210 166.903 398.770  1.00  0.00     0.009 A 
HETATM   14  C12 UNL     1      -0.642 166.000 397.622  1.00  0.00     0.009 A 
ENDBRANCH   5  12
BRANCH   7  15
HETATM   15  C14 UNL     1      -4.794 165.008 401.880  1.00  0.00     0.236 C 
HETATM   16  N1  UNL     1      -4.414 165.081 403.264  1.00  0.00    -0.062 NA
HETATM   17  O1  UNL     1      -5.992 164.671 401.633  1.00  0.00    -0.276 OA
ENDBRANCH   7  15
TORSDOF 4
ENDMDL
MODEL 4
REMARK VINA RESULT: -6.135179928      1.287      4.269
REMARK  4 active torsions:
REMARK  status: ('A' for Active; 'I' for Inactive)
REMARK    1  A    between atoms: C2_2  and  C4_4 
REMARK    2  A    between atoms: C4_4  and  C5_5 
REMARK    3  A    between atoms: C9_9  and  C10_11 
REMARK    4  A    between atoms: C13_14  and  C14_15 
ROOT
HETATM    1  C5  UNL     1      -5.270 167.029 399.395  1.00  0.00     0.020 A 
HETATM    2  C6  UNL     1      -6.393 165.976 399.472  1.00  0.00     0.034 A 
HETATM    3  C7  UNL     1      -6.410 165.758 398.069  1.00  0.00    -0.021 C 
HETATM    4  C8  UNL     1      -6.220 166.896 397.415  1.00  0.00     0.014 C 
HETATM    5  C9  UNL     1      -6.054 167.924 398.487  1.00  0.00     0.134 C 
HETATM    6  F1  UNL     1      -5.311 169.003 398.027  1.00  0.00    -0.237 F 
HETATM    7  C13 UNL     1      -5.632 166.354 400.593  1.00  0.00     0.096 A 
ENDROOT
BRANCH   1   8
HETATM    8  C4  UNL     1      -3.921 166.633 398.887  1.00  0.00     0.018 C 
BRANCH   8   9
HETATM    9  C2  UNL     1      -2.821 167.601 399.011  1.00  0.00    -0.022 C 
HETATM   10  C1  UNL     1      -2.902 168.382 400.312  1.00  0.00     0.009 C 
HETATM   11  C3  UNL     1      -1.531 166.761 399.180  1.00  0.00     0.009 C 
ENDBRANCH   8   9
ENDBRANCH   1   8
BRANCH   5  12
HETATM   12  C10 UNL     1      -7.278 168.529 399.056  1.00  0.00     0.030 A 
HETATM   13  C11 UNL     1      -7.461 170.038 398.910  1.00  0.00     0.009 A 
HETATM   14  C12 UNL     1      -7.168 169.419 400.271  1.00  0.00     0.009 A 
ENDBRANCH   5  12
BRANCH   7  15
HETATM   15  C14 UNL     1      -4.970 165.256 401.304  1.00  0.00     0.236 C 
HETATM   16  N1  UNL     1      -3.842 165.553 402.144  1.00  0.00    -0.062 NA
HETATM   17  O1  UNL     1      -5.319 164.038 401.228  1.00  0.00    -0.276 OA
ENDBRANCH   7  15
TORSDOF 4
ENDMDL
MODEL 5
REMARK VINA RESULT: -5.931032939      1.257      4.170
REMARK  4 active torsions:
REMARK  status: ('A' for Active; 'I' for Inactive)
REMARK    1  A    between atoms: C2_2  and  C4_4 
REMARK    2  A    between atoms: C4_4  and  C5_5 
REMARK    3  A    between atoms: C9_9  and  C10_11 
REMARK    4  A    between atoms: C13_14  and  C14_15 
ROOT
HETATM    1  C5  UNL     1      -5.040 166.689 399.893  1.00  0.00     0.020 A 
HETATM    2  C6  UNL     1      -6.320 165.856 400.098  1.00  0.00     0.034 A 
HETATM    3  C7  UNL     1      -6.500 165.622 398.709  1.00  0.00    -0.021 C 
HETATM    4  C8  UNL     1      -6.171 166.698 398.006  1.00  0.00     0.014 C 
HETATM    5  C9  UNL     1      -5.731 167.696 399.027  1.00  0.00     0.134 C 
HETATM    6  F1  UNL     1      -4.853 168.617 398.472  1.00  0.00    -0.237 F 
HETATM    7  C13 UNL     1      -5.407 166.109 401.138  1.00  0.00     0.096 A 
ENDROOT
BRANCH   1   8
HETATM    8  C4  UNL     1      -3.833 166.051 399.286  1.00  0.00     0.018 C 
BRANCH   8   9
HETATM    9  C2  UNL     1      -2.520 166.336 399.885  1.00  0.00    -0.022 C 
HETATM   10  C1  UNL     1      -1.389 166.107 398.896  1.00  0.00     0.009 C 
HETATM   11  C3  UNL     1      -2.481 167.866 400.121  1.00  0.00     0.009 C 
ENDBRANCH   8   9
ENDBRANCH   1   8
BRANCH   5  12
HETATM   12  C10 UNL     1      -6.774 168.519 399.678  1.00  0.00     0.030 A 
HETATM   13  C11 UNL     1      -8.110 168.679 398.956  1.00  0.00     0.009 A 
HETATM   14  C12 UNL     1      -7.147 169.854 399.077  1.00  0.00     0.009 A 
ENDBRANCH   5  12
BRANCH   7  15
HETATM   15  C14 UNL     1      -4.889 164.921 401.824  1.00  0.00     0.236 C 
HETATM   16  N1  UNL     1      -4.186 165.090 403.067  1.00  0.00    -0.062 NA
HETATM   17  O1  UNL     1      -5.010 163.734 401.394  1.00  0.00    -0.276 OA
ENDBRANCH   7  15
TORSDOF 4
ENDMDL
