MODEL 1
REMARK VINA RESULT: -5.927497313      0.000      0.000
REMARK  5 active torsions:
REMARK  status: ('A' for Active; 'I' for Inactive)
REMARK    1  A    between atoms: C2_3  and  N3_6 
REMARK    2  A    between atoms: N3_6  and  N4_8 
REMARK    3  A    between atoms: N4_8  and  C4_10 
REMARK    4  A    between atoms: C7_13  and  N5_14 
REMARK    5  A    between atoms: N5_14  and  N6_16 
ROOT
HETATM    1  N1  UNL     1     -10.590  17.335 -17.520  1.00  0.00    -0.189 NA
HETATM    2  C1  UNL     1     -10.777  16.195 -17.551  1.00  0.00     0.130 C 
HETATM    3  C2  UNL     1     -11.006  14.786 -17.587  1.00  0.00     0.209 C 
HETATM    4  C3  UNL     1     -11.648  14.134 -18.688  1.00  0.00     0.130 C 
HETATM    5  N2  UNL     1     -12.194  13.605 -19.584  1.00  0.00    -0.189 NA
ENDROOT
BRANCH   3   6
HETATM    6  N3  UNL     1     -10.627  14.067 -16.600  1.00  0.00    -0.282 N 
ATOM      7  H3  UNL     1     -10.350  14.519 -15.729  1.00  0.00     0.188 HD
BRANCH   6   8
HETATM    8  N4  UNL     1     -10.584  12.684 -16.695  1.00  0.00    -0.299 N 
ATOM      9  H4  UNL     1     -10.369  12.222 -17.579  1.00  0.00     0.187 HD
BRANCH   8  10
HETATM   10  C4  UNL     1     -10.850  11.929 -15.517  1.00  0.00     0.048 A 
HETATM   11  C5  UNL     1     -11.574  12.485 -14.477  1.00  0.00     0.033 A 
HETATM   12  C6  UNL     1     -11.847  11.781 -13.320  1.00  0.00     0.033 A 
HETATM   13  C7  UNL     1     -11.414  10.486 -13.135  1.00  0.00     0.049 A 
HETATM   14  C8  UNL     1     -10.693   9.948 -14.182  1.00  0.00     0.033 A 
HETATM   15  C9  UNL     1     -10.414  10.630 -15.333  1.00  0.00     0.033 A 
BRANCH  13  16
HETATM   16  N5  UNL     1     -11.643   9.691 -11.995  1.00  0.00    -0.287 N 
ATOM     17  H5  UNL     1     -12.070  10.110 -11.169  1.00  0.00     0.188 HD
BRANCH  16  18
HETATM   18  N6  UNL     1     -11.331   8.480 -11.978  1.00  0.00    -0.249 N 
HETATM   19  N7  UNL     1     -10.644   7.542 -11.625  1.00  0.00    -0.331 N 
ATOM     20  H72 UNL     1      -9.969   8.011 -11.023  1.00  0.00     0.178 HD
ATOM     21  H71 UNL     1     -10.390   6.554 -11.612  1.00  0.00     0.178 HD
ATOM     22  H6  UNL     1     -12.025   8.048 -12.588  1.00  0.00     0.207 HD
ENDBRANCH  16  18
ENDBRANCH  13  16
ENDBRANCH   8  10
ENDBRANCH   6   8
ENDBRANCH   3   6
TORSDOF 5
ENDMDL
MODEL 2
REMARK VINA RESULT: -5.919446248      1.692      1.894
REMARK  5 active torsions:
REMARK  status: ('A' for Active; 'I' for Inactive)
REMARK    1  A    between atoms: C2_3  and  N3_6 
REMARK    2  A    between atoms: N3_6  and  N4_8 
REMARK    3  A    between atoms: N4_8  and  C4_10 
REMARK    4  A    between atoms: C7_13  and  N5_14 
REMARK    5  A    between atoms: N5_14  and  N6_16 
ROOT
HETATM    1  N1  UNL     1     -13.158  15.717 -16.921  1.00  0.00    -0.189 NA
HETATM    2  C1  UNL     1     -12.316  14.934 -16.804  1.00  0.00     0.130 C 
HETATM    3  C2  UNL     1     -11.277  13.966 -16.657  1.00  0.00     0.209 C 
HETATM    4  C3  UNL     1     -10.011  14.082 -17.315  1.00  0.00     0.130 C 
HETATM    5  N2  UNL     1      -8.981  14.171 -17.874  1.00  0.00    -0.189 NA
ENDROOT
BRANCH   3   6
HETATM    6  N3  UNL     1     -11.475  12.948 -15.909  1.00  0.00    -0.282 N 
ATOM      7  H3  UNL     1     -12.372  12.840 -15.437  1.00  0.00     0.188 HD
BRANCH   6   8
HETATM    8  N4  UNL     1     -10.490  11.988 -15.729  1.00  0.00    -0.299 N 
ATOM      9  H4  UNL     1      -9.636  11.998 -16.286  1.00  0.00     0.187 HD
BRANCH   8  10
HETATM   10  C4  UNL     1     -10.711  10.987 -14.740  1.00  0.00     0.048 A 
HETATM   11  C5  UNL     1     -11.256  11.323 -13.514  1.00  0.00     0.033 A 
HETATM   12  C6  UNL     1     -11.481  10.376 -12.531  1.00  0.00     0.033 A 
HETATM   13  C7  UNL     1     -11.174   9.046 -12.718  1.00  0.00     0.049 A 
HETATM   14  C8  UNL     1     -10.630   8.730 -13.946  1.00  0.00     0.033 A 
HETATM   15  C9  UNL     1     -10.402   9.653 -14.928  1.00  0.00     0.033 A 
BRANCH  13  16
HETATM   16  N5  UNL     1     -11.366   8.013 -11.779  1.00  0.00    -0.287 N 
ATOM     17  H5  UNL     1     -12.290   7.870 -11.373  1.00  0.00     0.188 HD
BRANCH  16  18
HETATM   18  N6  UNL     1     -10.422   7.268 -11.435  1.00  0.00    -0.249 N 
HETATM   19  N7  UNL     1      -9.682   6.763 -10.614  1.00  0.00    -0.331 N 
ATOM     20  H72 UNL     1     -10.034   7.181  -9.753  1.00  0.00     0.178 HD
ATOM     21  H71 UNL     1      -8.912   6.156 -10.334  1.00  0.00     0.178 HD
ATOM     22  H6  UNL     1     -10.100   6.872 -12.318  1.00  0.00     0.207 HD
ENDBRANCH  16  18
ENDBRANCH  13  16
ENDBRANCH   8  10
ENDBRANCH   6   8
ENDBRANCH   3   6
TORSDOF 5
ENDMDL
MODEL 3
REMARK VINA RESULT: -5.908137188      0.111      1.174
REMARK  5 active torsions:
REMARK  status: ('A' for Active; 'I' for Inactive)
REMARK    1  A    between atoms: C2_3  and  N3_6 
REMARK    2  A    between atoms: N3_6  and  N4_8 
REMARK    3  A    between atoms: N4_8  and  C4_10 
REMARK    4  A    between atoms: C7_13  and  N5_14 
REMARK    5  A    between atoms: N5_14  and  N6_16 
ROOT
HETATM    1  N1  UNL     1     -10.604  17.378 -17.595  1.00  0.00    -0.189 NA
HETATM    2  C1  UNL     1     -10.789  16.238 -17.613  1.00  0.00     0.130 C 
HETATM    3  C2  UNL     1     -11.016  14.828 -17.632  1.00  0.00     0.209 C 
HETATM    4  C3  UNL     1     -11.666  14.163 -18.721  1.00  0.00     0.130 C 
HETATM    5  N2  UNL     1     -12.219  13.624 -19.607  1.00  0.00    -0.189 NA
ENDROOT
BRANCH   3   6
HETATM    6  N3  UNL     1     -10.627  14.120 -16.641  1.00  0.00    -0.282 N 
ATOM      7  H3  UNL     1     -10.381  14.578 -15.764  1.00  0.00     0.188 HD
BRANCH   6   8
HETATM    8  N4  UNL     1     -10.532  12.739 -16.739  1.00  0.00    -0.299 N 
ATOM      9  H4  UNL     1     -10.277  12.289 -17.618  1.00  0.00     0.187 HD
BRANCH   8  10
HETATM   10  C4  UNL     1     -10.804  11.971 -15.571  1.00  0.00     0.048 A 
HETATM   11  C5  UNL     1     -10.383  10.656 -15.484  1.00  0.00     0.033 A 
HETATM   12  C6  UNL     1     -10.633   9.882 -14.366  1.00  0.00     0.033 A 
HETATM   13  C7  UNL     1     -11.316  10.376 -13.277  1.00  0.00     0.049 A 
HETATM   14  C8  UNL     1     -11.730  11.689 -13.381  1.00  0.00     0.033 A 
HETATM   15  C9  UNL     1     -11.491  12.467 -14.479  1.00  0.00     0.033 A 
BRANCH  13  16
HETATM   16  N5  UNL     1     -11.618   9.666 -12.097  1.00  0.00    -0.287 N 
ATOM     17  H5  UNL     1     -12.079  10.149 -11.326  1.00  0.00     0.188 HD
BRANCH  16  18
HETATM   18  N6  UNL     1     -11.328   8.455 -11.979  1.00  0.00    -0.249 N 
HETATM   19  N7  UNL     1     -10.598   7.542 -11.650  1.00  0.00    -0.331 N 
ATOM     20  H72 UNL     1      -9.803   8.056 -11.270  1.00  0.00     0.178 HD
ATOM     21  H71 UNL     1     -10.362   6.554 -11.555  1.00  0.00     0.178 HD
ATOM     22  H6  UNL     1     -12.142   7.979 -12.368  1.00  0.00     0.207 HD
ENDBRANCH  16  18
ENDBRANCH  13  16
ENDBRANCH   8  10
ENDBRANCH   6   8
ENDBRANCH   3   6
TORSDOF 5
ENDMDL
MODEL 4
REMARK VINA RESULT: -5.895231691      0.160      2.184
REMARK  5 active torsions:
REMARK  status: ('A' for Active; 'I' for Inactive)
REMARK    1  A    between atoms: C2_3  and  N3_6 
REMARK    2  A    between atoms: N3_6  and  N4_8 
REMARK    3  A    between atoms: N4_8  and  C4_10 
REMARK    4  A    between atoms: C7_13  and  N5_14 
REMARK    5  A    between atoms: N5_14  and  N6_16 
ROOT
HETATM    1  N1  UNL     1     -12.113  13.547 -19.657  1.00  0.00    -0.189 NA
HETATM    2  C1  UNL     1     -11.584  14.075 -18.776  1.00  0.00     0.130 C 
HETATM    3  C2  UNL     1     -10.932  14.727 -17.685  1.00  0.00     0.209 C 
HETATM    4  C3  UNL     1     -10.701  16.138 -17.652  1.00  0.00     0.130 C 
HETATM    5  N2  UNL     1     -10.494  17.296 -17.638  1.00  0.00    -0.189 NA
ENDROOT
BRANCH   3   6
HETATM    6  N3  UNL     1     -10.533  14.028 -16.691  1.00  0.00    -0.282 N 
ATOM      7  H3  UNL     1     -10.266  14.496 -15.825  1.00  0.00     0.188 HD
BRANCH   6   8
HETATM    8  N4  UNL     1     -10.456  12.645 -16.770  1.00  0.00    -0.299 N 
ATOM      9  H4  UNL     1     -10.202  12.181 -17.642  1.00  0.00     0.187 HD
BRANCH   8  10
HETATM   10  C4  UNL     1     -10.745  11.895 -15.595  1.00  0.00     0.048 A 
HETATM   11  C5  UNL     1     -10.362  10.569 -15.498  1.00  0.00     0.033 A 
HETATM   12  C6  UNL     1     -10.630   9.813 -14.373  1.00  0.00     0.033 A 
HETATM   13  C7  UNL     1     -11.293  10.336 -13.284  1.00  0.00     0.049 A 
HETATM   14  C8  UNL     1     -11.669  11.659 -13.399  1.00  0.00     0.033 A 
HETATM   15  C9  UNL     1     -11.411  12.421 -14.504  1.00  0.00     0.033 A 
BRANCH  13  16
HETATM   16  N5  UNL     1     -11.610   9.646 -12.097  1.00  0.00    -0.287 N 
ATOM     17  H5  UNL     1     -12.071  10.143 -11.336  1.00  0.00     0.188 HD
BRANCH  16  18
HETATM   18  N6  UNL     1     -11.334   8.433 -11.961  1.00  0.00    -0.249 N 
HETATM   19  N7  UNL     1     -10.612   7.517 -11.625  1.00  0.00    -0.331 N 
ATOM     20  H72 UNL     1      -9.806   8.027 -11.262  1.00  0.00     0.178 HD
ATOM     21  H71 UNL     1     -10.387   6.528 -11.514  1.00  0.00     0.178 HD
ATOM     22  H6  UNL     1     -12.158   7.960 -12.333  1.00  0.00     0.207 HD
ENDBRANCH  16  18
ENDBRANCH  13  16
ENDBRANCH   8  10
ENDBRANCH   6   8
ENDBRANCH   3   6
TORSDOF 5
ENDMDL
MODEL 5
REMARK VINA RESULT: -5.893601797      1.716      1.957
REMARK  5 active torsions:
REMARK  status: ('A' for Active; 'I' for Inactive)
REMARK    1  A    between atoms: C2_3  and  N3_6 
REMARK    2  A    between atoms: N3_6  and  N4_8 
REMARK    3  A    between atoms: N4_8  and  C4_10 
REMARK    4  A    between atoms: C7_13  and  N5_14 
REMARK    5  A    between atoms: N5_14  and  N6_16 
ROOT
HETATM    1  N1  UNL     1      -9.264  14.362 -17.931  1.00  0.00    -0.189 NA
HETATM    2  C1  UNL     1     -10.203  14.203 -17.276  1.00  0.00     0.130 C 
HETATM    3  C2  UNL     1     -11.362  14.004 -16.466  1.00  0.00     0.209 C 
HETATM    4  C3  UNL     1     -12.577  14.735 -16.660  1.00  0.00     0.130 C 
HETATM    5  N2  UNL     1     -13.566  15.352 -16.809  1.00  0.00    -0.189 NA
ENDROOT
BRANCH   3   6
HETATM    6  N3  UNL     1     -11.324  13.140 -15.524  1.00  0.00    -0.282 N 
ATOM      7  H3  UNL     1     -11.886  13.286 -14.686  1.00  0.00     0.188 HD
BRANCH   6   8
HETATM    8  N4  UNL     1     -10.530  12.006 -15.623  1.00  0.00    -0.299 N 
ATOM      9  H4  UNL     1      -9.832  11.914 -16.362  1.00  0.00     0.187 HD
BRANCH   8  10
HETATM   10  C4  UNL     1     -10.722  10.975 -14.660  1.00  0.00     0.048 A 
HETATM   11  C5  UNL     1     -11.258  11.267 -13.419  1.00  0.00     0.033 A 
HETATM   12  C6  UNL     1     -11.454  10.290 -12.460  1.00  0.00     0.033 A 
HETATM   13  C7  UNL     1     -11.126   8.972 -12.687  1.00  0.00     0.049 A 
HETATM   14  C8  UNL     1     -10.591   8.699 -13.930  1.00  0.00     0.033 A 
HETATM   15  C9  UNL     1     -10.391   9.653 -14.888  1.00  0.00     0.033 A 
BRANCH  13  16
HETATM   16  N5  UNL     1     -11.289   7.909 -11.775  1.00  0.00    -0.287 N 
ATOM     17  H5  UNL     1     -12.203   7.746 -11.354  1.00  0.00     0.188 HD
BRANCH  16  18
HETATM   18  N6  UNL     1     -10.331   7.163 -11.475  1.00  0.00    -0.249 N 
HETATM   19  N7  UNL     1      -9.577   6.632 -10.684  1.00  0.00    -0.331 N 
ATOM     20  H72 UNL     1      -9.927   7.005  -9.801  1.00  0.00     0.178 HD
ATOM     21  H71 UNL     1      -8.796   6.024 -10.439  1.00  0.00     0.178 HD
ATOM     22  H6  UNL     1     -10.012   6.813 -12.377  1.00  0.00     0.207 HD
ENDBRANCH  16  18
ENDBRANCH  13  16
ENDBRANCH   8  10
ENDBRANCH   6   8
ENDBRANCH   3   6
TORSDOF 5
ENDMDL
