MODEL 1
REMARK VINA RESULT: -5.520598619      0.000      0.000
REMARK  6 active torsions:
REMARK  status: ('A' for Active; 'I' for Inactive)
REMARK    1  A    between atoms: N1_2  and  C3_4 
REMARK    2  A    between atoms: C3_4  and  C4_5 
REMARK    3  A    between atoms: C4_5  and  C5_6 
REMARK    4  A    between atoms: C6_7  and  C7_8 
REMARK    5  A    between atoms: C10_14  and  N3_15 
REMARK    6  A    between atoms: N3_15  and  C12_17 
ROOT
HETATM    1  C7  UNL     1     -11.049  12.704 -15.926  1.00  0.00     0.106 A 
HETATM    2  C8  UNL     1     -10.408  12.013 -16.931  1.00  0.00     0.082 A 
HETATM    3  C9  UNL     1     -10.290  12.528 -18.190  1.00  0.00     0.122 A 
HETATM    4 CL1  UNL     1      -9.474  11.656 -19.493  1.00  0.00    -0.064 Cl
HETATM    5  N2  UNL     1     -10.818  13.741 -18.435  1.00  0.00    -0.181 N 
ATOM      6  H2  UNL     1     -10.741  14.144 -19.369  1.00  0.00     0.185 HD
HETATM    7  C10 UNL     1     -11.450  14.431 -17.461  1.00  0.00     0.682 A 
HETATM    8  N4  UNL     1     -11.559  13.910 -16.223  1.00  0.00    -0.184 N 
ATOM      9  H4  UNL     1     -12.040  14.442 -15.498  1.00  0.00     0.185 HD
ENDROOT
BRANCH   1  10
HETATM   10  C6  UNL     1     -11.166  12.158 -14.604  1.00  0.00    -0.048 C 
HETATM   11  C5  UNL     1     -11.287  11.701 -13.486  1.00  0.00    -0.098 C 
BRANCH  11  12
HETATM   12  C4  UNL     1     -11.461  11.131 -12.134  1.00  0.00     0.114 C 
BRANCH  12  13
HETATM   13  C3  UNL     1     -12.566  10.106 -12.112  1.00  0.00     0.133 C 
BRANCH  13  14
HETATM   14  N1  UNL     1     -12.181   8.887 -12.729  1.00  0.00    -0.403 N 
HETATM   15  C1  UNL     1     -12.938   8.339 -13.587  1.00  0.00     0.114 C 
HETATM   16  C2  UNL     1     -10.925   8.240 -12.406  1.00  0.00     0.148 C 
ENDBRANCH  13  14
ENDBRANCH  12  13
ENDBRANCH  11  12
ENDBRANCH   1  10
BRANCH   7  17
HETATM   17  N3  UNL     1     -11.972  15.710 -17.792  1.00  0.00    -0.218 N 
HETATM   18  C11 UNL     1     -13.342  15.977 -17.478  1.00  0.00     0.169 C 
BRANCH  17  19
HETATM   19  C12 UNL     1     -11.089  16.671 -18.418  1.00  0.00     0.093 C 
HETATM   20  C13 UNL     1     -10.469  17.603 -17.412  1.00  0.00     0.032 C 
HETATM   21  C14 UNL     1     -11.792  17.504 -19.463  1.00  0.00     0.032 C 
ENDBRANCH  17  19
ENDBRANCH   7  17
TORSDOF 6
ENDMDL
MODEL 2
REMARK VINA RESULT: -5.310996791      1.714      7.260
REMARK  6 active torsions:
REMARK  status: ('A' for Active; 'I' for Inactive)
REMARK    1  A    between atoms: N1_2  and  C3_4 
REMARK    2  A    between atoms: C3_4  and  C4_5 
REMARK    3  A    between atoms: C4_5  and  C5_6 
REMARK    4  A    between atoms: C6_7  and  C7_8 
REMARK    5  A    between atoms: C10_14  and  N3_15 
REMARK    6  A    between atoms: N3_15  and  C12_17 
ROOT
HETATM    1  C7  UNL     1     -10.367  12.597 -16.330  1.00  0.00     0.106 A 
HETATM    2  C8  UNL     1      -9.737  11.698 -17.163  1.00  0.00     0.082 A 
HETATM    3  C9  UNL     1      -9.587  10.387 -16.817  1.00  0.00     0.122 A 
HETATM    4 CL1  UNL     1      -8.780   9.219 -17.871  1.00  0.00    -0.064 Cl
HETATM    5  N2  UNL     1     -10.071   9.980 -15.629  1.00  0.00    -0.181 N 
ATOM      6  H2  UNL     1      -9.970   9.004 -15.351  1.00  0.00     0.185 HD
HETATM    7  C10 UNL     1     -10.691  10.848 -14.800  1.00  0.00     0.682 A 
HETATM    8  N4  UNL     1     -10.832  12.141 -15.155  1.00  0.00    -0.184 N 
ATOM      9  H4  UNL     1     -11.300  12.785 -14.518  1.00  0.00     0.185 HD
ENDROOT
BRANCH   1  10
HETATM   10  C6  UNL     1     -10.525  13.973 -16.702  1.00  0.00    -0.048 C 
HETATM   11  C5  UNL     1     -10.680  15.133 -17.025  1.00  0.00    -0.098 C 
BRANCH  11  12
HETATM   12  C4  UNL     1     -10.897  16.545 -17.405  1.00  0.00     0.114 C 
BRANCH  12  13
HETATM   13  C3  UNL     1     -12.286  16.755 -17.953  1.00  0.00     0.133 C 
BRANCH  13  14
HETATM   14  N1  UNL     1     -12.332  16.627 -19.365  1.00  0.00    -0.403 N 
HETATM   15  C1  UNL     1     -12.178  17.647 -20.104  1.00  0.00     0.114 C 
HETATM   16  C2  UNL     1     -12.550  15.343 -20.001  1.00  0.00     0.148 C 
ENDBRANCH  13  14
ENDBRANCH  12  13
ENDBRANCH  11  12
ENDBRANCH   1  10
BRANCH   7  17
HETATM   17  N3  UNL     1     -11.186  10.344 -13.568  1.00  0.00    -0.218 N 
HETATM   18  C11 UNL     1     -11.404  11.272 -12.502  1.00  0.00     0.169 C 
BRANCH  17  19
HETATM   19  C12 UNL     1     -11.450   8.924 -13.464  1.00  0.00     0.093 C 
HETATM   20  C13 UNL     1     -12.910   8.640 -13.233  1.00  0.00     0.032 C 
HETATM   21  C14 UNL     1     -10.660   8.271 -12.356  1.00  0.00     0.032 C 
ENDBRANCH  17  19
ENDBRANCH   7  17
TORSDOF 6
ENDMDL
MODEL 3
REMARK VINA RESULT: -5.154247106      0.889      1.451
REMARK  6 active torsions:
REMARK  status: ('A' for Active; 'I' for Inactive)
REMARK    1  A    between atoms: N1_2  and  C3_4 
REMARK    2  A    between atoms: C3_4  and  C4_5 
REMARK    3  A    between atoms: C4_5  and  C5_6 
REMARK    4  A    between atoms: C6_7  and  C7_8 
REMARK    5  A    between atoms: C10_14  and  N3_15 
REMARK    6  A    between atoms: N3_15  and  C12_17 
ROOT
HETATM    1  C7  UNL     1     -10.919  12.371 -16.379  1.00  0.00     0.106 A 
HETATM    2  C8  UNL     1     -10.421  11.467 -17.292  1.00  0.00     0.082 A 
HETATM    3  C9  UNL     1     -10.283  11.786 -18.611  1.00  0.00     0.122 A 
HETATM    4 CL1  UNL     1      -9.648  10.639 -19.797  1.00  0.00    -0.064 Cl
HETATM    5  N2  UNL     1     -10.648  13.017 -19.012  1.00  0.00    -0.181 N 
ATOM      6  H2  UNL     1     -10.553  13.276 -19.994  1.00  0.00     0.185 HD
HETATM    7  C10 UNL     1     -11.139  13.915 -18.131  1.00  0.00     0.682 A 
HETATM    8  N4  UNL     1     -11.270  13.586 -16.831  1.00  0.00    -0.184 N 
ATOM      9  H4  UNL     1     -11.644  14.274 -16.177  1.00  0.00     0.185 HD
ENDROOT
BRANCH   1  10
HETATM   10  C6  UNL     1     -11.058  12.030 -14.992  1.00  0.00    -0.048 C 
HETATM   11  C5  UNL     1     -11.179  11.720 -13.825  1.00  0.00    -0.098 C 
BRANCH  11  12
HETATM   12  C4  UNL     1     -11.309  11.317 -12.409  1.00  0.00     0.114 C 
BRANCH  12  13
HETATM   13  C3  UNL     1     -12.439  10.338 -12.222  1.00  0.00     0.133 C 
BRANCH  13  14
HETATM   14  N1  UNL     1     -12.118   9.045 -12.710  1.00  0.00    -0.403 N 
HETATM   15  C1  UNL     1     -11.076   8.449 -12.301  1.00  0.00     0.114 C 
HETATM   16  C2  UNL     1     -12.963   8.370 -13.675  1.00  0.00     0.148 C 
ENDBRANCH  13  14
ENDBRANCH  12  13
ENDBRANCH  11  12
ENDBRANCH   1  10
BRANCH   7  17
HETATM   17  N3  UNL     1     -11.492  15.199 -18.626  1.00  0.00    -0.218 N 
HETATM   18  C11 UNL     1     -11.689  15.344 -20.036  1.00  0.00     0.169 C 
BRANCH  17  19
HETATM   19  C12 UNL     1     -11.642  16.283 -17.679  1.00  0.00     0.093 C 
HETATM   20  C13 UNL     1     -12.746  17.226 -18.074  1.00  0.00     0.032 C 
HETATM   21  C14 UNL     1     -10.373  17.084 -17.514  1.00  0.00     0.032 C 
ENDBRANCH  17  19
ENDBRANCH   7  17
TORSDOF 6
ENDMDL
MODEL 4
REMARK VINA RESULT: -5.107438283      2.808      4.002
REMARK  6 active torsions:
REMARK  status: ('A' for Active; 'I' for Inactive)
REMARK    1  A    between atoms: N1_2  and  C3_4 
REMARK    2  A    between atoms: C3_4  and  C4_5 
REMARK    3  A    between atoms: C4_5  and  C5_6 
REMARK    4  A    between atoms: C6_7  and  C7_8 
REMARK    5  A    between atoms: C10_14  and  N3_15 
REMARK    6  A    between atoms: N3_15  and  C12_17 
ROOT
HETATM    1  C7  UNL     1     -11.227  11.048 -14.348  1.00  0.00     0.106 A 
HETATM    2  C8  UNL     1     -12.069  11.785 -13.543  1.00  0.00     0.082 A 
HETATM    3  C9  UNL     1     -12.525  13.014 -13.921  1.00  0.00     0.122 A 
HETATM    4 CL1  UNL     1     -13.604  13.975 -12.903  1.00  0.00    -0.064 Cl
HETATM    5  N2  UNL     1     -12.132  13.503 -15.112  1.00  0.00    -0.181 N 
ATOM      6  H2  UNL     1     -12.462  14.419 -15.414  1.00  0.00     0.185 HD
HETATM    7  C10 UNL     1     -11.307  12.794 -15.913  1.00  0.00     0.682 A 
HETATM    8  N4  UNL     1     -10.863  11.582 -15.526  1.00  0.00    -0.184 N 
ATOM      9  H4  UNL     1     -10.239  11.059 -16.140  1.00  0.00     0.185 HD
ENDROOT
BRANCH   1  10
HETATM   10  C6  UNL     1     -10.755   9.755 -13.946  1.00  0.00    -0.048 C 
HETATM   11  C5  UNL     1     -10.350   8.669 -13.584  1.00  0.00    -0.098 C 
BRANCH  11  12
HETATM   12  C4  UNL     1      -9.875   7.350 -13.118  1.00  0.00     0.114 C 
BRANCH  12  13
HETATM   13  C3  UNL     1      -9.994   7.225 -11.620  1.00  0.00     0.133 C 
BRANCH  13  14
HETATM   14  N1  UNL     1      -8.814   6.706 -11.027  1.00  0.00    -0.403 N 
HETATM   15  C1  UNL     1      -8.781   6.457  -9.784  1.00  0.00     0.114 C 
HETATM   16  C2  UNL     1      -7.626   6.442 -11.815  1.00  0.00     0.148 C 
ENDBRANCH  13  14
ENDBRANCH  12  13
ENDBRANCH  11  12
ENDBRANCH   1  10
BRANCH   7  17
HETATM   17  N3  UNL     1     -10.944  13.370 -17.160  1.00  0.00    -0.218 N 
HETATM   18  C11 UNL     1     -11.339  12.688 -18.354  1.00  0.00     0.169 C 
BRANCH  17  19
HETATM   19  C12 UNL     1     -10.206  14.615 -17.153  1.00  0.00     0.093 C 
HETATM   20  C13 UNL     1     -10.991  15.737 -17.776  1.00  0.00     0.032 C 
HETATM   21  C14 UNL     1      -8.885  14.506 -17.874  1.00  0.00     0.032 C 
ENDBRANCH  17  19
ENDBRANCH   7  17
TORSDOF 6
ENDMDL
MODEL 5
REMARK VINA RESULT: -4.997915684      2.622      3.796
REMARK  6 active torsions:
REMARK  status: ('A' for Active; 'I' for Inactive)
REMARK    1  A    between atoms: N1_2  and  C3_4 
REMARK    2  A    between atoms: C3_4  and  C4_5 
REMARK    3  A    between atoms: C4_5  and  C5_6 
REMARK    4  A    between atoms: C6_7  and  C7_8 
REMARK    5  A    between atoms: C10_14  and  N3_15 
REMARK    6  A    between atoms: N3_15  and  C12_17 
ROOT
HETATM    1  C7  UNL     1     -12.111  14.680 -17.883  1.00  0.00     0.106 A 
HETATM    2  C8  UNL     1     -11.320  15.663 -17.327  1.00  0.00     0.082 A 
HETATM    3  C9  UNL     1     -11.038  16.818 -17.997  1.00  0.00     0.122 A 
HETATM    4 CL1  UNL     1     -10.024  18.088 -17.302  1.00  0.00    -0.064 Cl
HETATM    5  N2  UNL     1     -11.554  16.984 -19.229  1.00  0.00    -0.181 N 
ATOM      6  H2  UNL     1     -11.356  17.840 -19.747  1.00  0.00     0.185 HD
HETATM    7  C10 UNL     1     -12.331  16.031 -19.788  1.00  0.00     0.682 A 
HETATM    8  N4  UNL     1     -12.600  14.894 -19.115  1.00  0.00    -0.184 N 
ATOM      9  H4  UNL     1     -13.187  14.183 -19.551  1.00  0.00     0.185 HD
ENDROOT
BRANCH   1  10
HETATM   10  C6  UNL     1     -12.406  13.471 -17.171  1.00  0.00    -0.048 C 
HETATM   11  C5  UNL     1     -12.645  12.455 -16.550  1.00  0.00    -0.098 C 
BRANCH  11  12
HETATM   12  C4  UNL     1     -12.945  11.236 -15.770  1.00  0.00     0.114 C 
BRANCH  12  13
HETATM   13  C3  UNL     1     -11.699  10.678 -15.130  1.00  0.00     0.133 C 
BRANCH  13  14
HETATM   14  N1  UNL     1     -11.825  10.558 -13.722  1.00  0.00    -0.403 N 
HETATM   15  C1  UNL     1     -11.395  11.478 -12.962  1.00  0.00     0.114 C 
HETATM   16  C2  UNL     1     -12.444   9.396 -13.115  1.00  0.00     0.148 C 
ENDBRANCH  13  14
ENDBRANCH  12  13
ENDBRANCH  11  12
ENDBRANCH   1  10
BRANCH   7  17
HETATM   17  N3  UNL     1     -12.848  16.281 -21.087  1.00  0.00    -0.218 N 
HETATM   18  C11 UNL     1     -13.395  15.178 -21.816  1.00  0.00     0.169 C 
BRANCH  17  19
HETATM   19  C12 UNL     1     -12.803  17.636 -21.595  1.00  0.00     0.093 C 
HETATM   20  C13 UNL     1     -13.969  18.456 -21.115  1.00  0.00     0.032 C 
HETATM   21  C14 UNL     1     -12.781  17.685 -23.104  1.00  0.00     0.032 C 
ENDBRANCH  17  19
ENDBRANCH   7  17
TORSDOF 6
ENDMDL
