MODEL 1
REMARK VINA RESULT: -5.897715860      0.000      0.000
REMARK  3 active torsions:
REMARK  status: ('A' for Active; 'I' for Inactive)
REMARK    1  A    between atoms: C2_2  and  N1_4 
REMARK       I    between atoms: N1_4  and  C4_6 
REMARK       I    between atoms: C4_6  and  N2_8 
REMARK    2  A    between atoms: C5_9  and  C6_10 
REMARK    3  A    between atoms: C7_13  and  C8_14 
ROOT
HETATM    1  N1  UNL     1     -10.807  14.971 -17.189  1.00  0.00    -0.339 N 
ATOM      2  H1  UNL     1     -11.722  14.802 -16.770  1.00  0.00     0.164 HD
HETATM    3  C4  UNL     1      -9.794  13.990 -17.043  1.00  0.00     0.319 C 
HETATM    4  O1  UNL     1      -8.672  14.258 -17.590  1.00  0.00    -0.247 OA
HETATM    5  N2  UNL     1     -10.007  12.780 -16.335  1.00  0.00    -0.311 N 
HETATM    6  C5  UNL     1      -9.405  11.500 -15.886  1.00  0.00     0.202 A 
HETATM    7  C7  UNL     1     -10.826  11.894 -15.573  1.00  0.00     0.125 A 
ENDROOT
BRANCH   6   8
HETATM    8  C6  UNL     1      -9.225  10.452 -16.921  1.00  0.00     0.256 C 
HETATM    9  N3  UNL     1      -8.926   9.141 -16.472  1.00  0.00    -0.060 NA
HETATM   10  O2  UNL     1      -9.343  10.765 -18.134  1.00  0.00    -0.274 OA
ENDBRANCH   6   8
BRANCH   7  11
HETATM   11  C8  UNL     1     -11.111  12.133 -14.129  1.00  0.00     0.003 C 
HETATM   12  C9  UNL     1     -11.267  10.831 -13.363  1.00  0.00     0.011 C 
HETATM   13  C10 UNL     1     -12.311  13.037 -13.922  1.00  0.00     0.011 C 
ENDBRANCH   7  11
BRANCH   1  14
HETATM   14  C2  UNL     1     -10.587  16.188 -17.903  1.00  0.00     0.078 C 
HETATM   15  C1  UNL     1     -10.312  17.368 -16.988  1.00  0.00     0.032 C 
HETATM   16  C3  UNL     1     -11.791  16.589 -18.761  1.00  0.00     0.032 C 
ENDBRANCH   1  14
TORSDOF 3
ENDMDL
MODEL 2
REMARK VINA RESULT: -5.418358556      2.620      5.421
REMARK  3 active torsions:
REMARK  status: ('A' for Active; 'I' for Inactive)
REMARK    1  A    between atoms: C2_2  and  N1_4 
REMARK       I    between atoms: N1_4  and  C4_6 
REMARK       I    between atoms: C4_6  and  N2_8 
REMARK    2  A    between atoms: C5_9  and  C6_10 
REMARK    3  A    between atoms: C7_13  and  C8_14 
ROOT
HETATM    1  N1  UNL     1     -11.687  13.273 -15.594  1.00  0.00    -0.339 N 
ATOM      2  H1  UNL     1     -10.937  13.952 -15.471  1.00  0.00     0.164 HD
HETATM    3  C4  UNL     1     -12.356  13.208 -16.843  1.00  0.00     0.319 C 
HETATM    4  O1  UNL     1     -13.285  12.337 -16.936  1.00  0.00    -0.247 OA
HETATM    5  N2  UNL     1     -12.019  14.056 -17.928  1.00  0.00    -0.311 N 
HETATM    6  C5  UNL     1     -12.319  14.426 -19.333  1.00  0.00     0.202 A 
HETATM    7  C7  UNL     1     -11.246  15.100 -18.517  1.00  0.00     0.125 A 
ENDROOT
BRANCH   6   8
HETATM    8  C6  UNL     1     -11.855  13.484 -20.382  1.00  0.00     0.256 C 
HETATM    9  N3  UNL     1     -12.210  12.120 -20.233  1.00  0.00    -0.060 NA
HETATM   10  O2  UNL     1     -11.176  13.928 -21.344  1.00  0.00    -0.274 OA
ENDBRANCH   6   8
BRANCH   7  11
HETATM   11  C8  UNL     1     -11.499  16.536 -18.206  1.00  0.00     0.003 C 
HETATM   12  C9  UNL     1     -11.592  17.378 -19.467  1.00  0.00     0.011 C 
HETATM   13  C10 UNL     1     -10.474  17.105 -17.243  1.00  0.00     0.011 C 
ENDBRANCH   7  11
BRANCH   1  14
HETATM   14  C2  UNL     1     -12.031  12.417 -14.504  1.00  0.00     0.078 C 
HETATM   15  C1  UNL     1     -12.687  13.161 -13.355  1.00  0.00     0.032 C 
HETATM   16  C3  UNL     1     -10.811  11.709 -13.908  1.00  0.00     0.032 C 
ENDBRANCH   1  14
TORSDOF 3
ENDMDL
MODEL 3
REMARK VINA RESULT: -5.193301966      2.129      4.926
REMARK  3 active torsions:
REMARK  status: ('A' for Active; 'I' for Inactive)
REMARK    1  A    between atoms: C2_2  and  N1_4 
REMARK       I    between atoms: N1_4  and  C4_6 
REMARK       I    between atoms: C4_6  and  N2_8 
REMARK    2  A    between atoms: C5_9  and  C6_10 
REMARK    3  A    between atoms: C7_13  and  C8_14 
ROOT
HETATM    1  N1  UNL     1     -11.478  13.175 -15.185  1.00  0.00    -0.339 N 
ATOM      2  H1  UNL     1     -10.958  14.013 -14.925  1.00  0.00     0.164 HD
HETATM    3  C4  UNL     1     -11.656  12.878 -16.560  1.00  0.00     0.319 C 
HETATM    4  O1  UNL     1     -12.314  11.815 -16.823  1.00  0.00    -0.247 OA
HETATM    5  N2  UNL     1     -11.139  13.706 -17.588  1.00  0.00    -0.311 N 
HETATM    6  C5  UNL     1     -11.009  13.905 -19.053  1.00  0.00     0.202 A 
HETATM    7  C7  UNL     1     -10.427  14.857 -18.039  1.00  0.00     0.125 A 
ENDROOT
BRANCH   6   8
HETATM    8  C6  UNL     1     -10.045  13.026 -19.760  1.00  0.00     0.256 C 
HETATM    9  N3  UNL     1      -9.868  13.241 -21.149  1.00  0.00    -0.060 NA
HETATM   10  O2  UNL     1      -9.435  12.140 -19.107  1.00  0.00    -0.274 OA
ENDBRANCH   6   8
BRANCH   7  11
HETATM   11  C8  UNL     1     -11.040  16.216 -18.025  1.00  0.00     0.003 C 
HETATM   12  C9  UNL     1     -10.170  17.219 -17.287  1.00  0.00     0.011 C 
HETATM   13  C10 UNL     1     -12.452  16.204 -17.470  1.00  0.00     0.011 C 
ENDBRANCH   7  11
BRANCH   1  14
HETATM   14  C2  UNL     1     -12.001  12.337 -14.154  1.00  0.00     0.078 C 
HETATM   15  C1  UNL     1     -12.735  13.116 -13.077  1.00  0.00     0.032 C 
HETATM   16  C3  UNL     1     -10.907  11.544 -13.432  1.00  0.00     0.032 C 
ENDBRANCH   1  14
TORSDOF 3
ENDMDL
MODEL 4
REMARK VINA RESULT: -5.144700261      2.484      3.469
REMARK  3 active torsions:
REMARK  status: ('A' for Active; 'I' for Inactive)
REMARK    1  A    between atoms: C2_2  and  N1_4 
REMARK       I    between atoms: N1_4  and  C4_6 
REMARK       I    between atoms: C4_6  and  N2_8 
REMARK    2  A    between atoms: C5_9  and  C6_10 
REMARK    3  A    between atoms: C7_13  and  C8_14 
ROOT
HETATM    1  N1  UNL     1     -10.924  15.285 -16.985  1.00  0.00    -0.339 N 
ATOM      2  H1  UNL     1      -9.975  14.958 -17.166  1.00  0.00     0.164 HD
HETATM    3  C4  UNL     1     -11.831  14.423 -16.319  1.00  0.00     0.319 C 
HETATM    4  O1  UNL     1     -13.004  14.889 -16.121  1.00  0.00    -0.247 OA
HETATM    5  N2  UNL     1     -11.466  13.120 -15.895  1.00  0.00    -0.311 N 
HETATM    6  C5  UNL     1     -11.921  11.879 -15.220  1.00  0.00     0.202 A 
HETATM    7  C7  UNL     1     -10.526  12.055 -15.765  1.00  0.00     0.125 A 
ENDROOT
BRANCH   6   8
HETATM    8  C6  UNL     1     -12.063  11.939 -13.744  1.00  0.00     0.256 C 
HETATM    9  N3  UNL     1     -11.519  10.866 -12.995  1.00  0.00    -0.060 NA
HETATM   10  O2  UNL     1     -12.651  12.924 -13.227  1.00  0.00    -0.274 OA
ENDBRANCH   6   8
BRANCH   7  11
HETATM   11  C8  UNL     1     -10.182  11.168 -16.913  1.00  0.00     0.003 C 
HETATM   12  C9  UNL     1      -9.221  10.064 -16.503  1.00  0.00     0.011 C 
HETATM   13  C10 UNL     1      -9.647  11.945 -18.100  1.00  0.00     0.011 C 
ENDBRANCH   7  11
BRANCH   1  14
HETATM   14  C2  UNL     1     -11.297  16.596 -17.411  1.00  0.00     0.078 C 
HETATM   15  C1  UNL     1     -11.535  16.684 -18.908  1.00  0.00     0.032 C 
HETATM   16  C3  UNL     1     -10.224  17.642 -17.091  1.00  0.00     0.032 C 
ENDBRANCH   1  14
TORSDOF 3
ENDMDL
MODEL 5
REMARK VINA RESULT: -5.049982764      2.918      5.912
REMARK  3 active torsions:
REMARK  status: ('A' for Active; 'I' for Inactive)
REMARK    1  A    between atoms: C2_2  and  N1_4 
REMARK       I    between atoms: N1_4  and  C4_6 
REMARK       I    between atoms: C4_6  and  N2_8 
REMARK    2  A    between atoms: C5_9  and  C6_10 
REMARK    3  A    between atoms: C7_13  and  C8_14 
ROOT
HETATM    1  N1  UNL     1     -11.818  10.823 -14.258  1.00  0.00    -0.339 N 
ATOM      2  H1  UNL     1     -11.332  10.362 -15.028  1.00  0.00     0.164 HD
HETATM    3  C4  UNL     1     -12.091  12.211 -14.352  1.00  0.00     0.319 C 
HETATM    4  O1  UNL     1     -12.702  12.730 -13.358  1.00  0.00    -0.247 OA
HETATM    5  N2  UNL     1     -11.713  12.983 -15.479  1.00  0.00    -0.311 N 
HETATM    6  C5  UNL     1     -11.720  14.332 -16.099  1.00  0.00     0.202 A 
HETATM    7  C7  UNL     1     -11.109  13.125 -16.764  1.00  0.00     0.125 A 
ENDROOT
BRANCH   6   8
HETATM    8  C6  UNL     1     -13.014  14.803 -16.651  1.00  0.00     0.256 C 
HETATM    9  N3  UNL     1     -14.099  13.892 -16.629  1.00  0.00    -0.060 NA
HETATM   10  O2  UNL     1     -13.093  15.972 -17.110  1.00  0.00    -0.274 OA
ENDBRANCH   6   8
BRANCH   7  11
HETATM   11  C8  UNL     1      -9.629  13.180 -16.934  1.00  0.00     0.003 C 
HETATM   12  C9  UNL     1      -9.236  13.394 -18.386  1.00  0.00     0.011 C 
HETATM   13  C10 UNL     1      -8.937  11.961 -16.355  1.00  0.00     0.011 C 
ENDBRANCH   7  11
BRANCH   1  14
HETATM   14  C2  UNL     1     -12.200  10.049 -13.120  1.00  0.00     0.078 C 
HETATM   15  C1  UNL     1     -11.132  10.017 -12.043  1.00  0.00     0.032 C 
HETATM   16  C3  UNL     1     -12.487   8.587 -13.476  1.00  0.00     0.032 C 
ENDBRANCH   1  14
TORSDOF 3
ENDMDL
