MODEL 1
REMARK VINA RESULT: -7.970719354      0.000      0.000
REMARK  5 active torsions:
REMARK  status: ('A' for Active; 'I' for Inactive)
REMARK    1  A    between atoms: C3_6  and  C4_7 
REMARK    2  A    between atoms: C5_8  and  C6_9 
REMARK    3  A    between atoms: C7_10  and  C8_11 
REMARK    4  A    between atoms: C8_11  and  C9_12 
REMARK    5  A    between atoms: C9_12  and  C12_15 
ROOT
HETATM    1  C6  UNL     1      -2.281 168.086 399.087  1.00  0.00    -0.004 C 
HETATM    2  C7  UNL     1      -3.503 168.393 399.501  1.00  0.00    -0.026 C 
ENDROOT
BRANCH   1   3
HETATM    3  C5  UNL     1      -1.941 167.934 397.704  1.00  0.00     0.002 C 
HETATM    4  C4  UNL     1      -1.004 167.309 397.128  1.00  0.00     0.031 C 
BRANCH   4   5
HETATM    5  C3  UNL     1       0.076 166.511 397.671  1.00  0.00     0.048 A 
HETATM    6  N2  UNL     1       0.194 165.737 398.744  1.00  0.00    -0.351 N 
HETATM    7  C2  UNL     1       1.457 165.197 398.800  1.00  0.00     0.182 A 
ATOM      8  H2  UNL     1      -0.545 165.568 399.427  1.00  0.00     0.166 HD
HETATM    9  N1  UNL     1       2.162 165.622 397.758  1.00  0.00    -0.355 N 
HETATM   10  C1  UNL     1       3.563 165.276 397.446  1.00  0.00     0.156 C 
HETATM   11  C16 UNL     1       1.356 166.416 397.061  1.00  0.00     0.120 A 
ENDBRANCH   4   5
ENDBRANCH   1   3
BRANCH   2  12
HETATM   12  C8  UNL     1      -4.638 168.618 398.673  1.00  0.00     0.036 C 
BRANCH  12  13
HETATM   13  C9  UNL     1      -5.781 167.646 398.702  1.00  0.00    -0.038 C 
HETATM   14  C10 UNL     1      -5.640 166.746 397.495  1.00  0.00     0.016 C 
HETATM   15  C11 UNL     1      -5.619 166.716 399.916  1.00  0.00     0.016 C 
BRANCH  13  16
HETATM   16  C12 UNL     1      -7.156 168.180 398.743  1.00  0.00    -0.044 C 
HETATM   17  C13 UNL     1      -7.870 167.612 397.500  1.00  0.00     0.015 C 
HETATM   18  C14 UNL     1      -8.005 167.720 399.902  1.00  0.00     0.015 C 
HETATM   19  C15 UNL     1      -7.243 169.681 398.600  1.00  0.00     0.015 C 
ENDBRANCH  13  16
ENDBRANCH  12  13
ENDBRANCH   2  12
TORSDOF 5
ENDMDL
MODEL 2
REMARK VINA RESULT: -7.498982173      0.765      1.461
REMARK  5 active torsions:
REMARK  status: ('A' for Active; 'I' for Inactive)
REMARK    1  A    between atoms: C3_6  and  C4_7 
REMARK    2  A    between atoms: C5_8  and  C6_9 
REMARK    3  A    between atoms: C7_10  and  C8_11 
REMARK    4  A    between atoms: C8_11  and  C9_12 
REMARK    5  A    between atoms: C9_12  and  C12_15 
ROOT
HETATM    1  C6  UNL     1      -2.977 165.814 397.449  1.00  0.00    -0.004 C 
HETATM    2  C7  UNL     1      -4.296 165.827 397.583  1.00  0.00    -0.026 C 
ENDROOT
BRANCH   1   3
HETATM    3  C5  UNL     1      -2.216 166.976 397.096  1.00  0.00     0.002 C 
HETATM    4  C4  UNL     1      -0.985 167.244 397.204  1.00  0.00     0.031 C 
BRANCH   4   5
HETATM    5  C3  UNL     1       0.113 166.460 397.731  1.00  0.00     0.048 A 
HETATM    6  N2  UNL     1       0.261 165.700 398.811  1.00  0.00    -0.351 N 
HETATM    7  C2  UNL     1       1.529 165.168 398.843  1.00  0.00     0.182 A 
ATOM      8  H2  UNL     1      -0.460 165.535 399.513  1.00  0.00     0.166 HD
HETATM    9  N1  UNL     1       2.205 165.584 397.780  1.00  0.00    -0.355 N 
HETATM   10  C1  UNL     1       3.601 165.242 397.438  1.00  0.00     0.156 C 
HETATM   11  C16 UNL     1       1.379 166.364 397.092  1.00  0.00     0.120 A 
ENDBRANCH   4   5
ENDBRANCH   1   3
BRANCH   2  12
HETATM   12  C8  UNL     1      -5.146 166.955 397.408  1.00  0.00     0.036 C 
BRANCH  12  13
HETATM   13  C9  UNL     1      -5.614 167.724 398.609  1.00  0.00    -0.038 C 
HETATM   14  C10 UNL     1      -5.273 166.903 399.833  1.00  0.00     0.016 C 
HETATM   15  C11 UNL     1      -4.775 169.007 398.741  1.00  0.00     0.016 C 
BRANCH  13  16
HETATM   16  C12 UNL     1      -7.033 168.122 398.679  1.00  0.00    -0.044 C 
HETATM   17  C13 UNL     1      -7.694 167.561 397.404  1.00  0.00     0.015 C 
HETATM   18  C14 UNL     1      -7.829 167.517 399.808  1.00  0.00     0.015 C 
HETATM   19  C15 UNL     1      -7.262 169.614 398.623  1.00  0.00     0.015 C 
ENDBRANCH  13  16
ENDBRANCH  12  13
ENDBRANCH   2  12
TORSDOF 5
ENDMDL
MODEL 3
REMARK VINA RESULT: -7.254575689      1.056      1.542
REMARK  5 active torsions:
REMARK  status: ('A' for Active; 'I' for Inactive)
REMARK    1  A    between atoms: C3_6  and  C4_7 
REMARK    2  A    between atoms: C5_8  and  C6_9 
REMARK    3  A    between atoms: C7_10  and  C8_11 
REMARK    4  A    between atoms: C8_11  and  C9_12 
REMARK    5  A    between atoms: C9_12  and  C12_15 
ROOT
HETATM    1  C6  UNL     1      -2.975 165.960 397.554  1.00  0.00    -0.004 C 
HETATM    2  C7  UNL     1      -4.048 166.066 398.326  1.00  0.00    -0.026 C 
ENDROOT
BRANCH   1   3
HETATM    3  C5  UNL     1      -2.179 167.086 397.165  1.00  0.00     0.002 C 
HETATM    4  C4  UNL     1      -0.935 167.305 397.233  1.00  0.00     0.031 C 
BRANCH   4   5
HETATM    5  C3  UNL     1       0.146 166.483 397.738  1.00  0.00     0.048 A 
HETATM    6  N2  UNL     1       0.285 165.710 398.808  1.00  0.00    -0.351 N 
HETATM    7  C2  UNL     1       1.536 165.139 398.818  1.00  0.00     0.182 A 
ATOM      8  H2  UNL     1      -0.431 165.560 399.519  1.00  0.00     0.166 HD
HETATM    9  N1  UNL     1       2.211 165.544 397.749  1.00  0.00    -0.355 N 
HETATM   10  C1  UNL     1       3.590 165.163 397.384  1.00  0.00     0.156 C 
HETATM   11  C16 UNL     1       1.399 166.355 397.079  1.00  0.00     0.120 A 
ENDBRANCH   4   5
ENDBRANCH   1   3
BRANCH   2  12
HETATM   12  C8  UNL     1      -4.568 167.269 398.879  1.00  0.00     0.036 C 
BRANCH  12  13
HETATM   13  C9  UNL     1      -5.926 167.752 398.460  1.00  0.00    -0.038 C 
HETATM   14  C10 UNL     1      -5.854 169.257 398.337  1.00  0.00     0.016 C 
HETATM   15  C11 UNL     1      -6.221 167.248 397.037  1.00  0.00     0.016 C 
BRANCH  13  16
HETATM   16  C12 UNL     1      -7.088 167.395 399.297  1.00  0.00    -0.044 C 
HETATM   17  C13 UNL     1      -7.952 166.446 398.442  1.00  0.00     0.015 C 
HETATM   18  C14 UNL     1      -6.780 166.598 400.540  1.00  0.00     0.015 C 
HETATM   19  C15 UNL     1      -7.990 168.558 399.635  1.00  0.00     0.015 C 
ENDBRANCH  13  16
ENDBRANCH  12  13
ENDBRANCH   2  12
TORSDOF 5
ENDMDL
MODEL 4
REMARK VINA RESULT: -7.145728666      0.732      1.175
REMARK  5 active torsions:
REMARK  status: ('A' for Active; 'I' for Inactive)
REMARK    1  A    between atoms: C3_6  and  C4_7 
REMARK    2  A    between atoms: C5_8  and  C6_9 
REMARK    3  A    between atoms: C7_10  and  C8_11 
REMARK    4  A    between atoms: C8_11  and  C9_12 
REMARK    5  A    between atoms: C9_12  and  C12_15 
ROOT
HETATM    1  C6  UNL     1      -2.519 168.031 399.007  1.00  0.00    -0.004 C 
HETATM    2  C7  UNL     1      -3.734 168.233 399.496  1.00  0.00    -0.026 C 
ENDROOT
BRANCH   1   3
HETATM    3  C5  UNL     1      -2.204 168.171 397.616  1.00  0.00     0.002 C 
HETATM    4  C4  UNL     1      -1.246 167.730 396.918  1.00  0.00     0.031 C 
BRANCH   4   5
HETATM    5  C3  UNL     1      -0.105 166.915 397.282  1.00  0.00     0.048 A 
HETATM    6  N2  UNL     1       1.038 166.614 396.675  1.00  0.00    -0.351 N 
HETATM    7  C2  UNL     1       1.790 165.782 397.471  1.00  0.00     0.182 A 
ATOM      8  H2  UNL     1       1.317 166.952 395.754  1.00  0.00     0.166 HD
HETATM    9  N1  UNL     1       1.132 165.542 398.598  1.00  0.00    -0.355 N 
HETATM   10  C1  UNL     1       1.590 164.697 399.720  1.00  0.00     0.156 C 
HETATM   11  C16 UNL     1      -0.013 166.210 398.513  1.00  0.00     0.120 A 
ENDBRANCH   4   5
ENDBRANCH   1   3
BRANCH   2  12
HETATM   12  C8  UNL     1      -4.887 168.610 398.752  1.00  0.00     0.036 C 
BRANCH  12  13
HETATM   13  C9  UNL     1      -6.074 167.692 398.709  1.00  0.00    -0.038 C 
HETATM   14  C10 UNL     1      -5.958 166.861 397.451  1.00  0.00     0.016 C 
HETATM   15  C11 UNL     1      -5.972 166.685 399.866  1.00  0.00     0.016 C 
BRANCH  13  16
HETATM   16  C12 UNL     1      -7.424 168.287 398.767  1.00  0.00    -0.044 C 
HETATM   17  C13 UNL     1      -8.188 167.724 397.551  1.00  0.00     0.015 C 
HETATM   18  C14 UNL     1      -8.266 167.889 399.953  1.00  0.00     0.015 C 
HETATM   19  C15 UNL     1      -7.448 169.787 398.592  1.00  0.00     0.015 C 
ENDBRANCH  13  16
ENDBRANCH  12  13
ENDBRANCH   2  12
TORSDOF 5
ENDMDL
MODEL 5
REMARK VINA RESULT: -7.122777815      0.811      1.583
REMARK  5 active torsions:
REMARK  status: ('A' for Active; 'I' for Inactive)
REMARK    1  A    between atoms: C3_6  and  C4_7 
REMARK    2  A    between atoms: C5_8  and  C6_9 
REMARK    3  A    between atoms: C7_10  and  C8_11 
REMARK    4  A    between atoms: C8_11  and  C9_12 
REMARK    5  A    between atoms: C9_12  and  C12_15 
ROOT
HETATM    1  C6  UNL     1      -2.294 168.174 398.971  1.00  0.00    -0.004 C 
HETATM    2  C7  UNL     1      -3.361 167.660 399.567  1.00  0.00    -0.026 C 
ENDROOT
BRANCH   1   3
HETATM    3  C5  UNL     1      -1.964 167.914 397.601  1.00  0.00     0.002 C 
HETATM    4  C4  UNL     1      -1.037 167.238 397.069  1.00  0.00     0.031 C 
BRANCH   4   5
HETATM    5  C3  UNL     1       0.039 166.473 397.664  1.00  0.00     0.048 A 
HETATM    6  N2  UNL     1       0.142 165.742 398.769  1.00  0.00    -0.351 N 
HETATM    7  C2  UNL     1       1.409 165.217 398.871  1.00  0.00     0.182 A 
ATOM      8  H2  UNL     1      -0.609 165.593 399.443  1.00  0.00     0.166 HD
HETATM    9  N1  UNL     1       2.130 165.608 397.828  1.00  0.00    -0.355 N 
HETATM   10  C1  UNL     1       3.541 165.264 397.557  1.00  0.00     0.156 C 
HETATM   11  C16 UNL     1       1.332 166.366 397.084  1.00  0.00     0.120 A 
ENDBRANCH   4   5
ENDBRANCH   1   3
BRANCH   2  12
HETATM   12  C8  UNL     1      -4.324 166.799 398.969  1.00  0.00     0.036 C 
BRANCH  12  13
HETATM   13  C9  UNL     1      -5.655 167.352 398.551  1.00  0.00    -0.038 C 
HETATM   14  C10 UNL     1      -5.530 168.859 398.524  1.00  0.00     0.016 C 
HETATM   15  C11 UNL     1      -5.931 166.948 397.093  1.00  0.00     0.016 C 
BRANCH  13  16
HETATM   16  C12 UNL     1      -6.847 166.984 399.338  1.00  0.00    -0.044 C 
HETATM   17  C13 UNL     1      -7.560 168.310 399.674  1.00  0.00     0.015 C 
HETATM   18  C14 UNL     1      -7.891 166.175 398.609  1.00  0.00     0.015 C 
HETATM   19  C15 UNL     1      -6.537 166.349 400.673  1.00  0.00     0.015 C 
ENDBRANCH  13  16
ENDBRANCH  12  13
ENDBRANCH   2  12
TORSDOF 5
ENDMDL
