MODEL 1
REMARK VINA RESULT: -4.413881418      0.000      0.000
REMARK  2 active torsions:
REMARK  status: ('A' for Active; 'I' for Inactive)
REMARK    1  A    between atoms: C5_6  and  C6_7 
REMARK    2  A    between atoms: C6_7  and  C7_8 
ROOT
HETATM    1  C7  UNL     1    -137.761-184.105 297.468  1.00  0.00     0.028 C 
HETATM    2  C8  UNL     1    -137.617-183.170 296.285  1.00  0.00     0.238 C 
HETATM    3  N1  UNL     1    -136.449-182.345 296.590  1.00  0.00    -0.074 N 
ATOM      4  H11 UNL     1    -136.632-181.515 297.154  1.00  0.00     0.277 HD
ATOM      5  H12 UNL     1    -136.056-181.832 295.801  1.00  0.00     0.277 HD
HETATM    6  C9  UNL     1    -135.570-183.327 297.194  1.00  0.00     0.248 C 
HETATM    7  C10 UNL     1    -136.480-183.956 298.223  1.00  0.00     0.089 C 
HETATM    8 BR1  UNL     1    -135.772-185.658 298.819  1.00  0.00    -0.089 Br
ENDROOT
BRANCH   1   9
HETATM    9  C6  UNL     1    -139.003-183.752 298.283  1.00  0.00     0.015 C 
BRANCH   9  10
HETATM   10  C5  UNL     1    -138.543-183.064 299.537  1.00  0.00     0.025 C 
HETATM   11  C2  UNL     1    -139.258-181.767 299.855  1.00  0.00     0.103 C 
HETATM   12  C1  UNL     1    -139.705-180.974 298.660  1.00  0.00     0.052 C 
HETATM   13  F1  UNL     1    -138.547-181.023 300.747  1.00  0.00    -0.243 F 
HETATM   14  C3  UNL     1    -140.332-182.616 300.502  1.00  0.00     0.044 C 
HETATM   15  C4  UNL     1    -139.241-183.637 300.754  1.00  0.00     0.011 C 
ENDBRANCH   9  10
ENDBRANCH   1   9
TORSDOF 2
ENDMDL
MODEL 2
REMARK VINA RESULT: -4.297090168      4.010      4.971
REMARK  2 active torsions:
REMARK  status: ('A' for Active; 'I' for Inactive)
REMARK    1  A    between atoms: C5_6  and  C6_7 
REMARK    2  A    between atoms: C6_7  and  C7_8 
ROOT
HETATM    1  C7  UNL     1    -136.815-186.977 296.184  1.00  0.00     0.028 C 
HETATM    2  C8  UNL     1    -137.751-187.907 296.927  1.00  0.00     0.238 C 
HETATM    3  N1  UNL     1    -138.867-188.138 296.010  1.00  0.00    -0.074 N 
ATOM      4  H11 UNL     1    -139.615-187.445 296.046  1.00  0.00     0.277 HD
ATOM      5  H12 UNL     1    -139.468-188.929 296.241  1.00  0.00     0.277 HD
HETATM    6  C9  UNL     1    -138.166-188.235 294.745  1.00  0.00     0.248 C 
HETATM    7  C10 UNL     1    -137.311-186.989 294.775  1.00  0.00     0.089 C 
HETATM    8 BR1  UNL     1    -135.872-187.112 293.485  1.00  0.00    -0.089 Br
ENDROOT
BRANCH   1   9
HETATM    9  C6  UNL     1    -136.812-185.592 296.826  1.00  0.00     0.015 C 
BRANCH   9  10
HETATM   10  C5  UNL     1    -135.548-185.466 297.627  1.00  0.00     0.025 C 
HETATM   11  C2  UNL     1    -135.106-184.045 297.907  1.00  0.00     0.103 C 
HETATM   12  C1  UNL     1    -135.439-183.048 296.832  1.00  0.00     0.052 C 
HETATM   13  F1  UNL     1    -133.795-184.004 298.275  1.00  0.00    -0.243 F 
HETATM   14  C3  UNL     1    -136.060-184.067 299.082  1.00  0.00     0.044 C 
HETATM   15  C4  UNL     1    -135.838-185.566 299.112  1.00  0.00     0.011 C 
ENDBRANCH   9  10
ENDBRANCH   1   9
TORSDOF 2
ENDMDL
MODEL 3
REMARK VINA RESULT: -4.233956375      2.819      4.546
REMARK  2 active torsions:
REMARK  status: ('A' for Active; 'I' for Inactive)
REMARK    1  A    between atoms: C5_6  and  C6_7 
REMARK    2  A    between atoms: C6_7  and  C7_8 
ROOT
HETATM    1  C7  UNL     1    -138.477-183.377 299.363  1.00  0.00     0.028 C 
HETATM    2  C8  UNL     1    -138.820-182.297 300.368  1.00  0.00     0.238 C 
HETATM    3  N1  UNL     1    -139.183-181.130 299.566  1.00  0.00    -0.074 N 
ATOM      4  H11 UNL     1    -138.404-180.536 299.277  1.00  0.00     0.277 HD
ATOM      5  H12 UNL     1    -139.677-180.390 300.065  1.00  0.00     0.277 HD
HETATM    6  C9  UNL     1    -139.921-181.756 298.488  1.00  0.00     0.248 C 
HETATM    7  C10 UNL     1    -138.966-182.843 298.056  1.00  0.00     0.089 C 
HETATM    8 BR1  UNL     1    -139.882-184.187 297.005  1.00  0.00    -0.089 Br
ENDROOT
BRANCH   1   9
HETATM    9  C6  UNL     1    -136.980-183.676 299.387  1.00  0.00     0.015 C 
BRANCH   9  10
HETATM   10  C5  UNL     1    -136.729-184.812 298.437  1.00  0.00     0.025 C 
HETATM   11  C2  UNL     1    -135.566-184.609 297.489  1.00  0.00     0.103 C 
HETATM   12  C1  UNL     1    -135.323-183.187 297.070  1.00  0.00     0.052 C 
HETATM   13  F1  UNL     1    -135.642-185.465 296.432  1.00  0.00    -0.243 F 
HETATM   14  C3  UNL     1    -134.676-185.112 298.606  1.00  0.00     0.044 C 
HETATM   15  C4  UNL     1    -135.885-185.888 299.092  1.00  0.00     0.011 C 
ENDBRANCH   9  10
ENDBRANCH   1   9
TORSDOF 2
ENDMDL
MODEL 4
REMARK VINA RESULT: -4.201759049      2.452      3.220
REMARK  2 active torsions:
REMARK  status: ('A' for Active; 'I' for Inactive)
REMARK    1  A    between atoms: C5_6  and  C6_7 
REMARK    2  A    between atoms: C6_7  and  C7_8 
ROOT
HETATM    1  C7  UNL     1    -136.203-184.782 297.215  1.00  0.00     0.028 C 
HETATM    2  C8  UNL     1    -135.409-185.219 298.428  1.00  0.00     0.238 C 
HETATM    3  N1  UNL     1    -136.096-186.409 298.927  1.00  0.00    -0.074 N 
ATOM      4  H11 UNL     1    -136.872-186.233 299.566  1.00  0.00     0.277 HD
ATOM      5  H12 UNL     1    -135.566-186.979 299.585  1.00  0.00     0.277 HD
HETATM    6  C9  UNL     1    -136.451-187.062 297.682  1.00  0.00     0.248 C 
HETATM    7  C10 UNL     1    -137.109-185.933 296.924  1.00  0.00     0.089 C 
HETATM    8 BR1  UNL     1    -137.205-186.338 295.032  1.00  0.00    -0.089 Br
ENDROOT
BRANCH   1   9
HETATM    9  C6  UNL     1    -136.937-183.473 297.497  1.00  0.00     0.015 C 
BRANCH   9  10
HETATM   10  C5  UNL     1    -138.398-183.794 297.639  1.00  0.00     0.025 C 
HETATM   11  C2  UNL     1    -139.051-183.262 298.897  1.00  0.00     0.103 C 
HETATM   12  C1  UNL     1    -138.157-183.195 300.103  1.00  0.00     0.052 C 
HETATM   13  F1  UNL     1    -140.226-183.904 299.147  1.00  0.00    -0.243 F 
HETATM   14  C3  UNL     1    -139.227-181.955 298.154  1.00  0.00     0.044 C 
HETATM   15  C4  UNL     1    -139.246-182.787 296.887  1.00  0.00     0.011 C 
ENDBRANCH   9  10
ENDBRANCH   1   9
TORSDOF 2
ENDMDL
MODEL 5
REMARK VINA RESULT: -4.102980730      2.773      4.652
REMARK  2 active torsions:
REMARK  status: ('A' for Active; 'I' for Inactive)
REMARK    1  A    between atoms: C5_6  and  C6_7 
REMARK    2  A    between atoms: C6_7  and  C7_8 
ROOT
HETATM    1  C7  UNL     1    -139.000-183.612 298.514  1.00  0.00     0.028 C 
HETATM    2  C8  UNL     1    -138.791-183.409 300.000  1.00  0.00     0.238 C 
HETATM    3  N1  UNL     1    -138.456-181.994 300.149  1.00  0.00    -0.074 N 
ATOM      4  H11 UNL     1    -137.470-181.761 300.034  1.00  0.00     0.277 HD
ATOM      5  H12 UNL     1    -138.525-181.624 301.097  1.00  0.00     0.277 HD
HETATM    6  C9  UNL     1    -139.354-181.396 299.181  1.00  0.00     0.248 C 
HETATM    7  C10 UNL     1    -139.074-182.230 297.952  1.00  0.00     0.089 C 
HETATM    8 BR1  UNL     1    -140.494-182.035 296.650  1.00  0.00    -0.089 Br
ENDROOT
BRANCH   1   9
HETATM    9  C6  UNL     1    -137.876-184.460 297.924  1.00  0.00     0.015 C 
BRANCH   9  10
HETATM   10  C5  UNL     1    -136.849-183.521 297.358  1.00  0.00     0.025 C 
HETATM   11  C2  UNL     1    -135.410-183.929 297.594  1.00  0.00     0.103 C 
HETATM   12  C1  UNL     1    -135.156-184.664 298.880  1.00  0.00     0.052 C 
HETATM   13  F1  UNL     1    -134.567-182.874 297.415  1.00  0.00    -0.243 F 
HETATM   14  C3  UNL     1    -135.544-184.806 296.368  1.00  0.00     0.044 C 
HETATM   15  C4  UNL     1    -136.594-183.820 295.894  1.00  0.00     0.011 C 
ENDBRANCH   9  10
ENDBRANCH   1   9
TORSDOF 2
ENDMDL
