MODEL 1
REMARK VINA RESULT: -4.398227151      0.000      0.000
REMARK  2 active torsions:
REMARK  status: ('A' for Active; 'I' for Inactive)
REMARK    1  A    between atoms: C2_2  and  C3_6 
REMARK    2  A    between atoms: C6_9  and  N2_10 
ROOT
HETATM    1  C3  UNL     1    -136.012-186.437 296.285  1.00  0.00     0.056 C 
HETATM    2  C4  UNL     1    -136.265-185.226 297.185  1.00  0.00     0.025 C 
HETATM    3  C5  UNL     1    -135.433-185.408 298.435  1.00  0.00     0.013 C 
HETATM    4  C6  UNL     1    -137.725-185.202 297.479  1.00  0.00     0.213 C 
HETATM    5  C10 UNL     1    -138.360-185.975 296.373  1.00  0.00     0.133 C 
HETATM    6 CL1  UNL     1    -138.592-185.101 294.880  1.00  0.00    -0.121 Cl
HETATM    7  C11 UNL     1    -137.331-187.060 296.129  1.00  0.00     0.112 C 
HETATM    8 CL2  UNL     1    -137.627-187.925 294.620  1.00  0.00    -0.123 Cl
ENDROOT
BRANCH   1   9
HETATM    9  C2  UNL     1    -135.270-186.049 295.088  1.00  0.00    -0.018 C 
HETATM   10  C1  UNL     1    -135.178-184.608 294.738  1.00  0.00     0.063 C 
HETATM   11  N1  UNL     1    -134.701-186.895 294.341  1.00  0.00    -0.405 N 
ATOM     12  H12 UNL     1    -134.184-186.624 293.506  1.00  0.00     0.155 HD
ATOM     13  H11 UNL     1    -134.765-187.885 294.582  1.00  0.00     0.155 HD
ENDBRANCH   1   9
BRANCH   4  14
HETATM   14  N2  UNL     1    -138.280-183.926 297.752  1.00  0.00    -0.072 N 
HETATM   15  C7  UNL     1    -137.705-182.833 297.027  1.00  0.00     0.272 C 
HETATM   16  C8  UNL     1    -137.993-183.618 299.168  1.00  0.00     0.272 C 
HETATM   17  C9  UNL     1    -139.716-183.920 297.633  1.00  0.00     0.272 C 
ENDBRANCH   4  14
TORSDOF 2
ENDMDL
MODEL 2
REMARK VINA RESULT: -4.394943094      2.241      2.824
REMARK  2 active torsions:
REMARK  status: ('A' for Active; 'I' for Inactive)
REMARK    1  A    between atoms: C2_2  and  C3_6 
REMARK    2  A    between atoms: C6_9  and  N2_10 
ROOT
HETATM    1  C3  UNL     1    -136.756-184.816 298.433  1.00  0.00     0.056 C 
HETATM    2  C4  UNL     1    -137.633-183.570 298.300  1.00  0.00     0.025 C 
HETATM    3  C5  UNL     1    -138.327-183.360 299.627  1.00  0.00     0.013 C 
HETATM    4  C6  UNL     1    -138.598-183.835 297.196  1.00  0.00     0.213 C 
HETATM    5  C10 UNL     1    -137.959-184.895 296.364  1.00  0.00     0.133 C 
HETATM    6 CL1  UNL     1    -136.743-184.342 295.241  1.00  0.00    -0.121 Cl
HETATM    7  C11 UNL     1    -137.276-185.741 297.420  1.00  0.00     0.112 C 
HETATM    8 CL2  UNL     1    -136.123-186.875 296.714  1.00  0.00    -0.123 Cl
ENDROOT
BRANCH   1   9
HETATM    9  C2  UNL     1    -135.340-184.460 298.402  1.00  0.00    -0.018 C 
HETATM   10  C1  UNL     1    -134.884-183.417 297.447  1.00  0.00     0.063 C 
HETATM   11  N1  UNL     1    -134.489-185.006 299.160  1.00  0.00    -0.405 N 
ATOM     12  H12 UNL     1    -133.500-184.758 299.138  1.00  0.00     0.155 HD
ATOM     13  H11 UNL     1    -134.802-185.723 299.815  1.00  0.00     0.155 HD
ENDBRANCH   1   9
BRANCH   4  14
HETATM   14  N2  UNL     1    -139.071-182.693 296.501  1.00  0.00    -0.072 N 
HETATM   15  C7  UNL     1    -138.169-181.583 296.447  1.00  0.00     0.272 C 
HETATM   16  C8  UNL     1    -140.238-182.180 297.248  1.00  0.00     0.272 C 
HETATM   17  C9  UNL     1    -139.561-183.020 295.186  1.00  0.00     0.272 C 
ENDBRANCH   4  14
TORSDOF 2
ENDMDL
MODEL 3
REMARK VINA RESULT: -4.290842708      2.374      4.600
REMARK  2 active torsions:
REMARK  status: ('A' for Active; 'I' for Inactive)
REMARK    1  A    between atoms: C2_2  and  C3_6 
REMARK    2  A    between atoms: C6_9  and  N2_10 
ROOT
HETATM    1  C3  UNL     1    -137.616-184.702 297.797  1.00  0.00     0.056 C 
HETATM    2  C4  UNL     1    -137.867-184.682 296.288  1.00  0.00     0.025 C 
HETATM    3  C5  UNL     1    -139.006-185.635 296.005  1.00  0.00     0.013 C 
HETATM    4  C6  UNL     1    -136.599-185.110 295.632  1.00  0.00     0.213 C 
HETATM    5  C10 UNL     1    -135.528-184.830 296.632  1.00  0.00     0.133 C 
HETATM    6 CL1  UNL     1    -134.989-183.173 296.715  1.00  0.00    -0.121 Cl
HETATM    7  C11 UNL     1    -136.230-185.163 297.933  1.00  0.00     0.112 C 
HETATM    8 CL2  UNL     1    -135.334-184.580 299.336  1.00  0.00    -0.123 Cl
ENDROOT
BRANCH   1   9
HETATM    9  C2  UNL     1    -137.998-183.429 298.403  1.00  0.00    -0.018 C 
HETATM   10  C1  UNL     1    -138.369-183.403 299.842  1.00  0.00     0.063 C 
HETATM   11  N1  UNL     1    -138.020-182.348 297.748  1.00  0.00    -0.405 N 
ATOM     12  H12 UNL     1    -138.287-181.460 298.172  1.00  0.00     0.155 HD
ATOM     13  H11 UNL     1    -137.766-182.367 296.761  1.00  0.00     0.155 HD
ENDBRANCH   1   9
BRANCH   4  14
HETATM   14  N2  UNL     1    -136.380-184.611 294.323  1.00  0.00    -0.072 N 
HETATM   15  C7  UNL     1    -136.998-183.353 294.029  1.00  0.00     0.272 C 
HETATM   16  C8  UNL     1    -137.014-185.558 293.384  1.00  0.00     0.272 C 
HETATM   17  C9  UNL     1    -134.983-184.590 293.975  1.00  0.00     0.272 C 
ENDBRANCH   4  14
TORSDOF 2
ENDMDL
MODEL 4
REMARK VINA RESULT: -4.282277979      2.377      3.881
REMARK  2 active torsions:
REMARK  status: ('A' for Active; 'I' for Inactive)
REMARK    1  A    between atoms: C2_2  and  C3_6 
REMARK    2  A    between atoms: C6_9  and  N2_10 
ROOT
HETATM    1  C3  UNL     1    -135.812-184.515 295.925  1.00  0.00     0.056 C 
HETATM    2  C4  UNL     1    -136.157-185.994 295.737  1.00  0.00     0.025 C 
HETATM    3  C5  UNL     1    -135.154-186.574 294.766  1.00  0.00     0.013 C 
HETATM    4  C6  UNL     1    -137.550-186.049 295.209  1.00  0.00     0.213 C 
HETATM    5  C10 UNL     1    -138.173-184.756 295.614  1.00  0.00     0.133 C 
HETATM    6 CL1  UNL     1    -138.745-184.679 297.261  1.00  0.00    -0.121 Cl
HETATM    7  C11 UNL     1    -137.009-183.798 295.473  1.00  0.00     0.112 C 
HETATM    8 CL2  UNL     1    -137.337-182.242 296.237  1.00  0.00    -0.123 Cl
ENDROOT
BRANCH   1   9
HETATM    9  C2  UNL     1    -135.309-184.267 297.274  1.00  0.00    -0.018 C 
HETATM   10  C1  UNL     1    -135.551-185.286 298.328  1.00  0.00     0.063 C 
HETATM   11  N1  UNL     1    -134.672-183.217 297.576  1.00  0.00    -0.405 N 
ATOM     12  H12 UNL     1    -134.322-183.045 298.517  1.00  0.00     0.155 HD
ATOM     13  H11 UNL     1    -134.507-182.518 296.852  1.00  0.00     0.155 HD
ENDBRANCH   1   9
BRANCH   4  14
HETATM   14  N2  UNL     1    -138.282-187.223 295.518  1.00  0.00    -0.072 N 
HETATM   15  C7  UNL     1    -137.880-187.907 296.710  1.00  0.00     0.272 C 
HETATM   16  C8  UNL     1    -138.027-188.195 294.435  1.00  0.00     0.272 C 
HETATM   17  C9  UNL     1    -139.704-186.995 295.512  1.00  0.00     0.272 C 
ENDBRANCH   4  14
TORSDOF 2
ENDMDL
MODEL 5
REMARK VINA RESULT: -4.272614415      1.844      4.266
REMARK  2 active torsions:
REMARK  status: ('A' for Active; 'I' for Inactive)
REMARK    1  A    between atoms: C2_2  and  C3_6 
REMARK    2  A    between atoms: C6_9  and  N2_10 
ROOT
HETATM    1  C3  UNL     1    -136.906-183.512 297.355  1.00  0.00     0.056 C 
HETATM    2  C4  UNL     1    -135.966-184.055 296.277  1.00  0.00     0.025 C 
HETATM    3  C5  UNL     1    -135.071-182.917 295.841  1.00  0.00     0.013 C 
HETATM    4  C6  UNL     1    -136.823-184.555 295.166  1.00  0.00     0.213 C 
HETATM    5  C10 UNL     1    -138.151-184.828 295.789  1.00  0.00     0.133 C 
HETATM    6 CL1  UNL     1    -138.285-186.342 296.645  1.00  0.00    -0.121 Cl
HETATM    7  C11 UNL     1    -138.250-183.704 296.800  1.00  0.00     0.112 C 
HETATM    8 CL2  UNL     1    -139.556-183.968 297.956  1.00  0.00    -0.123 Cl
ENDROOT
BRANCH   1   9
HETATM    9  C2  UNL     1    -136.593-184.093 298.658  1.00  0.00    -0.018 C 
HETATM   10  C1  UNL     1    -135.849-185.379 298.710  1.00  0.00     0.063 C 
HETATM   11  N1  UNL     1    -136.929-183.540 299.744  1.00  0.00    -0.405 N 
ATOM     12  H12 UNL     1    -136.710-183.946 300.653  1.00  0.00     0.155 HD
ATOM     13  H11 UNL     1    -137.440-182.657 299.708  1.00  0.00     0.155 HD
ENDBRANCH   1   9
BRANCH   4  14
HETATM   14  N2  UNL     1    -136.272-185.600 294.382  1.00  0.00    -0.072 N 
HETATM   15  C7  UNL     1    -135.344-186.457 295.056  1.00  0.00     0.272 C 
HETATM   16  C8  UNL     1    -135.475-184.968 293.311  1.00  0.00     0.272 C 
HETATM   17  C9  UNL     1    -137.287-186.371 293.711  1.00  0.00     0.272 C 
ENDBRANCH   4  14
TORSDOF 2
ENDMDL
