MODEL 1
REMARK VINA RESULT: -4.318484917      0.000      0.000
REMARK  5 active torsions:
REMARK  status: ('A' for Active; 'I' for Inactive)
REMARK    1  A    between atoms: C2_2  and  C3_4 
REMARK    2  A    between atoms: C6_7  and  N1_8 
REMARK    3  A    between atoms: N1_8  and  C7_10 
REMARK    4  A    between atoms: C7_10  and  N2_12 
REMARK    5  A    between atoms: N2_12  and  C8_14 
ROOT
HETATM    1  N1  UNL     1    -132.830-182.859 295.144  1.00  0.00    -0.362 N 
ATOM      2  H1  UNL     1    -132.146-182.124 295.324  1.00  0.00     0.162 HD
ENDROOT
BRANCH   1   3
HETATM    3  C6  UNL     1    -132.461-184.139 295.612  1.00  0.00     0.090 C 
HETATM    4  C3  UNL     1    -133.405-185.299 295.330  1.00  0.00     0.042 C 
HETATM    5  C4  UNL     1    -132.817-185.929 296.601  1.00  0.00     0.011 C 
HETATM    6  C5  UNL     1    -132.605-184.476 297.073  1.00  0.00     0.026 C 
BRANCH   4   7
HETATM    7  C2  UNL     1    -133.023-186.114 294.117  1.00  0.00     0.172 C 
HETATM    8  C1  UNL     1    -134.271-186.453 293.336  1.00  0.00     0.045 C 
HETATM    9  F1  UNL     1    -132.184-185.384 293.298  1.00  0.00    -0.249 F 
ENDBRANCH   4   7
ENDBRANCH   1   3
BRANCH   1  10
HETATM   10  C7  UNL     1    -133.992-182.436 294.469  1.00  0.00     0.168 C 
HETATM   11  S1  UNL     1    -134.236-182.646 292.847  1.00  0.00    -0.041 SA
BRANCH  10  12
HETATM   12  N2  UNL     1    -135.057-181.778 295.144  1.00  0.00    -0.359 N 
ATOM     13  H2  UNL     1    -135.032-180.764 295.252  1.00  0.00     0.162 HD
BRANCH  12  14
HETATM   14  C8  UNL     1    -136.158-182.511 295.672  1.00  0.00     0.021 C 
HETATM   15  C9  UNL     1    -137.380-181.612 295.730  1.00  0.00     0.037 C 
HETATM   16  C10 UNL     1    -136.492-183.720 294.832  1.00  0.00     0.037 C 
HETATM   17  C11 UNL     1    -135.847-183.006 297.077  1.00  0.00     0.037 C 
ENDBRANCH  12  14
ENDBRANCH  10  12
ENDBRANCH   1  10
TORSDOF 5
ENDMDL
MODEL 2
REMARK VINA RESULT: -4.286848575      3.191      5.786
REMARK  5 active torsions:
REMARK  status: ('A' for Active; 'I' for Inactive)
REMARK    1  A    between atoms: C2_2  and  C3_4 
REMARK    2  A    between atoms: C6_7  and  N1_8 
REMARK    3  A    between atoms: N1_8  and  C7_10 
REMARK    4  A    between atoms: C7_10  and  N2_12 
REMARK    5  A    between atoms: N2_12  and  C8_14 
ROOT
HETATM    1  N1  UNL     1    -135.816-182.014 296.271  1.00  0.00    -0.362 N 
ATOM      2  H1  UNL     1    -135.188-181.216 296.179  1.00  0.00     0.162 HD
ENDROOT
BRANCH   1   3
HETATM    3  C6  UNL     1    -136.809-181.876 297.266  1.00  0.00     0.090 C 
HETATM    4  C3  UNL     1    -136.566-180.866 298.378  1.00  0.00     0.042 C 
HETATM    5  C4  UNL     1    -137.466-181.772 299.231  1.00  0.00     0.011 C 
HETATM    6  C5  UNL     1    -136.942-182.918 298.345  1.00  0.00     0.026 C 
BRANCH   4   7
HETATM    7  C2  UNL     1    -137.237-179.532 298.145  1.00  0.00     0.172 C 
HETATM    8  C1  UNL     1    -137.696-178.972 299.471  1.00  0.00     0.045 C 
HETATM    9  F1  UNL     1    -136.343-178.641 297.585  1.00  0.00    -0.249 F 
ENDBRANCH   4   7
ENDBRANCH   1   3
BRANCH   1  10
HETATM   10  C7  UNL     1    -135.556-183.078 295.385  1.00  0.00     0.168 C 
HETATM   11  S1  UNL     1    -136.728-184.086 294.796  1.00  0.00    -0.041 SA
BRANCH  10  12
HETATM   12  N2  UNL     1    -134.242-183.373 294.929  1.00  0.00    -0.359 N 
ATOM     13  H2  UNL     1    -133.937-183.023 294.021  1.00  0.00     0.162 HD
BRANCH  12  14
HETATM   14  C8  UNL     1    -133.346-184.149 295.717  1.00  0.00     0.021 C 
HETATM   15  C9  UNL     1    -131.924-183.670 295.482  1.00  0.00     0.037 C 
HETATM   16  C10 UNL     1    -133.649-184.045 297.193  1.00  0.00     0.037 C 
HETATM   17  C11 UNL     1    -133.435-185.620 295.339  1.00  0.00     0.037 C 
ENDBRANCH  12  14
ENDBRANCH  10  12
ENDBRANCH   1  10
TORSDOF 5
ENDMDL
MODEL 3
REMARK VINA RESULT: -4.247521974      3.132      5.672
REMARK  5 active torsions:
REMARK  status: ('A' for Active; 'I' for Inactive)
REMARK    1  A    between atoms: C2_2  and  C3_4 
REMARK    2  A    between atoms: C6_7  and  N1_8 
REMARK    3  A    between atoms: N1_8  and  C7_10 
REMARK    4  A    between atoms: C7_10  and  N2_12 
REMARK    5  A    between atoms: N2_12  and  C8_14 
ROOT
HETATM    1  N1  UNL     1    -135.805-181.926 296.145  1.00  0.00    -0.362 N 
ATOM      2  H1  UNL     1    -135.116-181.174 296.173  1.00  0.00     0.162 HD
ENDROOT
BRANCH   1   3
HETATM    3  C6  UNL     1    -136.801-181.855 297.142  1.00  0.00     0.090 C 
HETATM    4  C3  UNL     1    -136.572-180.909 298.312  1.00  0.00     0.042 C 
HETATM    5  C4  UNL     1    -137.466-181.871 299.108  1.00  0.00     0.011 C 
HETATM    6  C5  UNL     1    -136.929-182.959 298.158  1.00  0.00     0.026 C 
BRANCH   4   7
HETATM    7  C2  UNL     1    -137.254-179.569 298.154  1.00  0.00     0.172 C 
HETATM    8  C1  UNL     1    -137.722-179.092 299.509  1.00  0.00     0.045 C 
HETATM    9  F1  UNL     1    -136.366-178.640 297.650  1.00  0.00    -0.249 F 
ENDBRANCH   4   7
ENDBRANCH   1   3
BRANCH   1  10
HETATM   10  C7  UNL     1    -135.610-182.870 295.117  1.00  0.00     0.168 C 
HETATM   11  S1  UNL     1    -136.051-182.614 293.544  1.00  0.00    -0.041 SA
BRANCH  10  12
HETATM   12  N2  UNL     1    -135.014-184.137 295.363  1.00  0.00    -0.359 N 
ATOM     13  H2  UNL     1    -135.591-184.978 295.325  1.00  0.00     0.162 HD
BRANCH  12  14
HETATM   14  C8  UNL     1    -133.627-184.254 295.660  1.00  0.00     0.021 C 
HETATM   15  C9  UNL     1    -133.134-185.625 295.234  1.00  0.00     0.037 C 
HETATM   16  C10 UNL     1    -132.802-183.207 294.950  1.00  0.00     0.037 C 
HETATM   17  C11 UNL     1    -133.383-184.088 297.153  1.00  0.00     0.037 C 
ENDBRANCH  12  14
ENDBRANCH  10  12
ENDBRANCH   1  10
TORSDOF 5
ENDMDL
MODEL 4
REMARK VINA RESULT: -4.197216215      3.375      5.796
REMARK  5 active torsions:
REMARK  status: ('A' for Active; 'I' for Inactive)
REMARK    1  A    between atoms: C2_2  and  C3_4 
REMARK    2  A    between atoms: C6_7  and  N1_8 
REMARK    3  A    between atoms: N1_8  and  C7_10 
REMARK    4  A    between atoms: C7_10  and  N2_12 
REMARK    5  A    between atoms: N2_12  and  C8_14 
ROOT
HETATM    1  N1  UNL     1    -135.910-181.876 296.286  1.00  0.00    -0.362 N 
ATOM      2  H1  UNL     1    -135.327-181.046 296.188  1.00  0.00     0.162 HD
ENDROOT
BRANCH   1   3
HETATM    3  C6  UNL     1    -136.892-181.796 297.297  1.00  0.00     0.090 C 
HETATM    4  C3  UNL     1    -136.680-180.789 298.418  1.00  0.00     0.042 C 
HETATM    5  C4  UNL     1    -137.524-181.745 299.273  1.00  0.00     0.011 C 
HETATM    6  C5  UNL     1    -136.961-182.856 298.365  1.00  0.00     0.026 C 
BRANCH   4   7
HETATM    7  C2  UNL     1    -137.415-179.485 298.211  1.00  0.00     0.172 C 
HETATM    8  C1  UNL     1    -138.854-179.779 297.857  1.00  0.00     0.045 C 
HETATM    9  F1  UNL     1    -137.398-178.740 299.374  1.00  0.00    -0.249 F 
ENDBRANCH   4   7
ENDBRANCH   1   3
BRANCH   1  10
HETATM   10  C7  UNL     1    -135.608-182.921 295.390  1.00  0.00     0.168 C 
HETATM   11  S1  UNL     1    -136.736-183.979 294.804  1.00  0.00    -0.041 SA
BRANCH  10  12
HETATM   12  N2  UNL     1    -134.286-183.151 294.920  1.00  0.00    -0.359 N 
ATOM     13  H2  UNL     1    -133.951-182.647 294.099  1.00  0.00     0.162 HD
BRANCH  12  14
HETATM   14  C8  UNL     1    -133.421-184.072 295.577  1.00  0.00     0.021 C 
HETATM   15  C9  UNL     1    -133.728-184.078 297.064  1.00  0.00     0.037 C 
HETATM   16  C10 UNL     1    -133.579-185.478 295.050  1.00  0.00     0.037 C 
HETATM   17  C11 UNL     1    -131.965-183.673 295.380  1.00  0.00     0.037 C 
ENDBRANCH  12  14
ENDBRANCH  10  12
ENDBRANCH   1  10
TORSDOF 5
ENDMDL
MODEL 5
REMARK VINA RESULT: -4.190194408      2.045      2.906
REMARK  5 active torsions:
REMARK  status: ('A' for Active; 'I' for Inactive)
REMARK    1  A    between atoms: C2_2  and  C3_4 
REMARK    2  A    between atoms: C6_7  and  N1_8 
REMARK    3  A    between atoms: N1_8  and  C7_10 
REMARK    4  A    between atoms: C7_10  and  N2_12 
REMARK    5  A    between atoms: N2_12  and  C8_14 
ROOT
HETATM    1  N1  UNL     1    -135.140-182.748 295.958  1.00  0.00    -0.362 N 
ATOM      2  H1  UNL     1    -135.141-182.859 296.972  1.00  0.00     0.162 HD
ENDROOT
BRANCH   1   3
HETATM    3  C6  UNL     1    -134.124-183.459 295.284  1.00  0.00     0.090 C 
HETATM    4  C3  UNL     1    -132.892-183.866 296.079  1.00  0.00     0.042 C 
HETATM    5  C4  UNL     1    -132.154-183.809 294.734  1.00  0.00     0.011 C 
HETATM    6  C5  UNL     1    -133.189-182.733 294.352  1.00  0.00     0.026 C 
BRANCH   4   7
HETATM    7  C2  UNL     1    -132.940-185.287 296.591  1.00  0.00     0.172 C 
HETATM    8  C1  UNL     1    -133.237-186.217 295.438  1.00  0.00     0.045 C 
HETATM    9  F1  UNL     1    -131.719-185.641 297.129  1.00  0.00    -0.249 F 
ENDBRANCH   4   7
ENDBRANCH   1   3
BRANCH   1  10
HETATM   10  C7  UNL     1    -136.153-181.909 295.453  1.00  0.00     0.168 C 
HETATM   11  S1  UNL     1    -137.308-182.412 294.382  1.00  0.00    -0.041 SA
BRANCH  10  12
HETATM   12  N2  UNL     1    -136.255-180.541 295.829  1.00  0.00    -0.359 N 
ATOM     13  H2  UNL     1    -135.717-179.840 295.320  1.00  0.00     0.162 HD
BRANCH  12  14
HETATM   14  C8  UNL     1    -137.095-180.134 296.904  1.00  0.00     0.021 C 
HETATM   15  C9  UNL     1    -136.543-178.861 297.520  1.00  0.00     0.037 C 
HETATM   16  C10 UNL     1    -138.512-179.872 296.452  1.00  0.00     0.037 C 
HETATM   17  C11 UNL     1    -137.153-181.211 297.977  1.00  0.00     0.037 C 
ENDBRANCH  12  14
ENDBRANCH  10  12
ENDBRANCH   1  10
TORSDOF 5
ENDMDL
