MODEL 1
REMARK VINA RESULT: -6.730571344      0.000      0.000
REMARK  8 active torsions:
REMARK  status: ('A' for Active; 'I' for Inactive)
REMARK    1  A    between atoms: N2_4  and  N3_6 
REMARK    2  A    between atoms: N5_13  and  C4_14 
REMARK    3  A    between atoms: C4_14  and  C5_15 
REMARK    4  A    between atoms: C5_15  and  N6_16 
REMARK    5  A    between atoms: N6_16  and  C6_19 
REMARK    6  A    between atoms: C6_19  and  C7_20 
REMARK    7  A    between atoms: C7_20  and  C8_21 
REMARK    8  A    between atoms: C8_21  and  N7_22 
ROOT
HETATM    1  N3  UNL     1       2.411  17.467 -13.717  1.00  0.00    -0.273 N 
ATOM      2  H3  UNL     1       2.887  17.113 -12.887  1.00  0.00     0.190 HD
HETATM    3  C1  UNL     1       2.683  18.658 -14.117  1.00  0.00     0.118 A 
HETATM    4  C2  UNL     1       2.095  19.334 -15.291  1.00  0.00     0.198 A 
HETATM    5  N4  UNL     1       2.715  20.614 -15.307  1.00  0.00    -0.379 N 
ATOM      6  H4  UNL     1       2.531  21.340 -15.998  1.00  0.00     0.160 HD
HETATM    7  C3  UNL     1       3.539  20.729 -14.328  1.00  0.00     0.180 A 
HETATM    8  N5  UNL     1       3.600  19.572 -13.520  1.00  0.00    -0.329 N 
ENDROOT
BRANCH   8   9
HETATM    9  C4  UNL     1       4.360  19.237 -12.360  1.00  0.00     0.158 C 
BRANCH   9  10
HETATM   10  C5  UNL     1       4.999  20.361 -11.631  1.00  0.00     0.252 C 
BRANCH  10  11
HETATM   11  N6  UNL     1       4.297  20.851 -10.501  1.00  0.00    -0.074 N 
ATOM     12  H62 UNL     1       4.712  21.722 -10.171  1.00  0.00     0.277 HD
ATOM     13  H61 UNL     1       3.375  21.191 -10.772  1.00  0.00     0.277 HD
BRANCH  11  14
HETATM   14  C6  UNL     1       4.190  19.908  -9.428  1.00  0.00     0.234 C 
BRANCH  14  15
HETATM   15  C7  UNL     1       3.861  20.563  -8.121  1.00  0.00     0.055 C 
BRANCH  15  16
HETATM   16  C8  UNL     1       4.157  19.697  -6.935  1.00  0.00     0.231 C 
BRANCH  16  17
HETATM   17  N7  UNL     1       4.273  20.427  -5.703  1.00  0.00    -0.079 N 
ATOM     18  H73 UNL     1       4.481  21.408  -5.885  1.00  0.00     0.274 HD
ATOM     19  H72 UNL     1       3.361  20.526  -5.256  1.00  0.00     0.274 HD
ATOM     20  H71 UNL     1       4.951  20.029  -5.054  1.00  0.00     0.274 HD
ENDBRANCH  16  17
ENDBRANCH  15  16
ENDBRANCH  14  15
ENDBRANCH  11  14
ENDBRANCH  10  11
ENDBRANCH   9  10
ENDBRANCH   8   9
BRANCH   1  21
HETATM   21  N2  UNL     1       1.502  16.640 -14.359  1.00  0.00    -0.248 N 
HETATM   22  N1  UNL     1       0.627  16.042 -13.679  1.00  0.00    -0.331 N 
ATOM     23  H12 UNL     1       0.601  16.175 -12.668  1.00  0.00     0.178 HD
ATOM     24  H11 UNL     1      -0.041  15.434 -14.152  1.00  0.00     0.178 HD
ATOM     25  H2  UNL     1       1.543  16.518 -15.372  1.00  0.00     0.207 HD
ENDBRANCH   1  21
TORSDOF 8
ENDMDL
MODEL 2
REMARK VINA RESULT: -6.719965940      1.533      2.011
REMARK  8 active torsions:
REMARK  status: ('A' for Active; 'I' for Inactive)
REMARK    1  A    between atoms: N2_4  and  N3_6 
REMARK    2  A    between atoms: N5_13  and  C4_14 
REMARK    3  A    between atoms: C4_14  and  C5_15 
REMARK    4  A    between atoms: C5_15  and  N6_16 
REMARK    5  A    between atoms: N6_16  and  C6_19 
REMARK    6  A    between atoms: C6_19  and  C7_20 
REMARK    7  A    between atoms: C7_20  and  C8_21 
REMARK    8  A    between atoms: C8_21  and  N7_22 
ROOT
HETATM    1  N3  UNL     1       3.040  18.157 -13.197  1.00  0.00    -0.273 N 
ATOM      2  H3  UNL     1       3.127  17.532 -12.396  1.00  0.00     0.190 HD
HETATM    3  C1  UNL     1       3.455  19.368 -13.075  1.00  0.00     0.118 A 
HETATM    4  C2  UNL     1       3.409  20.409 -14.121  1.00  0.00     0.198 A 
HETATM    5  N4  UNL     1       3.982  21.555 -13.501  1.00  0.00    -0.379 N 
ATOM      6  H4  UNL     1       4.104  22.460 -13.954  1.00  0.00     0.160 HD
HETATM    7  C3  UNL     1       4.325  21.290 -12.292  1.00  0.00     0.180 A 
HETATM    8  N5  UNL     1       4.043  19.958 -11.917  1.00  0.00    -0.329 N 
ENDROOT
BRANCH   8   9
HETATM    9  C4  UNL     1       4.252  19.223 -10.713  1.00  0.00     0.158 C 
BRANCH   9  10
HETATM   10  C5  UNL     1       3.050  18.930  -9.892  1.00  0.00     0.252 C 
BRANCH  10  11
HETATM   11  N6  UNL     1       3.287  18.622  -8.528  1.00  0.00    -0.074 N 
ATOM     12  H62 UNL     1       2.453  18.802  -7.970  1.00  0.00     0.277 HD
ATOM     13  H61 UNL     1       3.367  17.613  -8.398  1.00  0.00     0.277 HD
BRANCH  11  14
HETATM   14  C6  UNL     1       4.421  19.292  -7.968  1.00  0.00     0.234 C 
BRANCH  14  15
HETATM   15  C7  UNL     1       4.044  20.224  -6.856  1.00  0.00     0.055 C 
BRANCH  15  16
HETATM   16  C8  UNL     1       3.501  21.533  -7.340  1.00  0.00     0.231 C 
BRANCH  16  17
HETATM   17  N7  UNL     1       3.165  22.444  -6.282  1.00  0.00    -0.079 N 
ATOM     18  H73 UNL     1       2.170  22.392  -6.065  1.00  0.00     0.274 HD
ATOM     19  H72 UNL     1       3.550  22.123  -5.393  1.00  0.00     0.274 HD
ATOM     20  H71 UNL     1       3.442  23.407  -6.468  1.00  0.00     0.274 HD
ENDBRANCH  16  17
ENDBRANCH  15  16
ENDBRANCH  14  15
ENDBRANCH  11  14
ENDBRANCH  10  11
ENDBRANCH   9  10
ENDBRANCH   8   9
BRANCH   1  21
HETATM   21  N2  UNL     1       2.479  17.662 -14.364  1.00  0.00    -0.248 N 
HETATM   22  N1  UNL     1       1.725  16.655 -14.304  1.00  0.00    -0.331 N 
ATOM     23  H12 UNL     1       1.540  16.219 -13.400  1.00  0.00     0.178 HD
ATOM     24  H11 UNL     1       1.313  16.290 -15.163  1.00  0.00     0.178 HD
ATOM     25  H2  UNL     1       2.674  18.109 -15.260  1.00  0.00     0.207 HD
ENDBRANCH   1  21
TORSDOF 8
ENDMDL
MODEL 3
REMARK VINA RESULT: -6.693958995      1.938      2.581
REMARK  8 active torsions:
REMARK  status: ('A' for Active; 'I' for Inactive)
REMARK    1  A    between atoms: N2_4  and  N3_6 
REMARK    2  A    between atoms: N5_13  and  C4_14 
REMARK    3  A    between atoms: C4_14  and  C5_15 
REMARK    4  A    between atoms: C5_15  and  N6_16 
REMARK    5  A    between atoms: N6_16  and  C6_19 
REMARK    6  A    between atoms: C6_19  and  C7_20 
REMARK    7  A    between atoms: C7_20  and  C8_21 
REMARK    8  A    between atoms: C8_21  and  N7_22 
ROOT
HETATM    1  N3  UNL     1       2.920  19.711 -14.124  1.00  0.00    -0.273 N 
ATOM      2  H3  UNL     1       2.804  18.751 -13.801  1.00  0.00     0.190 HD
HETATM    3  C1  UNL     1       3.539  20.542 -13.362  1.00  0.00     0.118 A 
HETATM    4  C2  UNL     1       3.799  21.964 -13.660  1.00  0.00     0.198 A 
HETATM    5  N4  UNL     1       4.507  22.438 -12.521  1.00  0.00    -0.379 N 
ATOM      6  H4  UNL     1       4.842  23.394 -12.402  1.00  0.00     0.160 HD
HETATM    7  C3  UNL     1       4.666  21.495 -11.663  1.00  0.00     0.180 A 
HETATM    8  N5  UNL     1       4.102  20.270 -12.080  1.00  0.00    -0.329 N 
ENDROOT
BRANCH   8   9
HETATM    9  C4  UNL     1       4.042  18.975 -11.483  1.00  0.00     0.158 C 
BRANCH   9  10
HETATM   10  C5  UNL     1       3.118  18.812 -10.333  1.00  0.00     0.252 C 
BRANCH  10  11
HETATM   11  N6  UNL     1       3.712  18.418  -9.107  1.00  0.00    -0.074 N 
ATOM     12  H62 UNL     1       3.012  18.022  -8.480  1.00  0.00     0.277 HD
ATOM     13  H61 UNL     1       4.304  17.598  -9.243  1.00  0.00     0.277 HD
BRANCH  11  14
HETATM   14  C6  UNL     1       4.441  19.461  -8.451  1.00  0.00     0.234 C 
BRANCH  14  15
HETATM   15  C7  UNL     1       3.578  20.639  -8.115  1.00  0.00     0.055 C 
BRANCH  15  16
HETATM   16  C8  UNL     1       3.782  21.145  -6.720  1.00  0.00     0.231 C 
BRANCH  16  17
HETATM   17  N7  UNL     1       4.321  20.161  -5.824  1.00  0.00    -0.079 N 
ATOM     18  H73 UNL     1       3.874  19.257  -5.972  1.00  0.00     0.274 HD
ATOM     19  H72 UNL     1       5.278  19.923  -6.083  1.00  0.00     0.274 HD
ATOM     20  H71 UNL     1       4.269  20.431  -4.842  1.00  0.00     0.274 HD
ENDBRANCH  16  17
ENDBRANCH  15  16
ENDBRANCH  14  15
ENDBRANCH  11  14
ENDBRANCH  10  11
ENDBRANCH   9  10
ENDBRANCH   8   9
BRANCH   1  21
HETATM   21  N2  UNL     1       2.402  20.060 -15.361  1.00  0.00    -0.248 N 
HETATM   22  N1  UNL     1       1.297  19.576 -15.724  1.00  0.00    -0.331 N 
ATOM     23  H12 UNL     1       0.801  18.937 -15.102  1.00  0.00     0.178 HD
ATOM     24  H11 UNL     1       0.916  19.832 -16.635  1.00  0.00     0.178 HD
ATOM     25  H2  UNL     1       2.911  20.700 -15.971  1.00  0.00     0.207 HD
ENDBRANCH   1  21
TORSDOF 8
ENDMDL
MODEL 4
REMARK VINA RESULT: -6.659699285      1.807      3.371
REMARK  8 active torsions:
REMARK  status: ('A' for Active; 'I' for Inactive)
REMARK    1  A    between atoms: N2_4  and  N3_6 
REMARK    2  A    between atoms: N5_13  and  C4_14 
REMARK    3  A    between atoms: C4_14  and  C5_15 
REMARK    4  A    between atoms: C5_15  and  N6_16 
REMARK    5  A    between atoms: N6_16  and  C6_19 
REMARK    6  A    between atoms: C6_19  and  C7_20 
REMARK    7  A    between atoms: C7_20  and  C8_21 
REMARK    8  A    between atoms: C8_21  and  N7_22 
ROOT
HETATM    1  N3  UNL     1       3.537  21.165 -12.307  1.00  0.00    -0.273 N 
ATOM      2  H3  UNL     1       3.457  21.070 -11.295  1.00  0.00     0.190 HD
HETATM    3  C1  UNL     1       3.183  20.173 -13.045  1.00  0.00     0.118 A 
HETATM    4  C2  UNL     1       3.230  20.128 -14.520  1.00  0.00     0.198 A 
HETATM    5  N4  UNL     1       2.738  18.835 -14.849  1.00  0.00    -0.379 N 
ATOM      6  H4  UNL     1       2.638  18.475 -15.798  1.00  0.00     0.160 HD
HETATM    7  C3  UNL     1       2.437  18.182 -13.784  1.00  0.00     0.180 A 
HETATM    8  N5  UNL     1       2.675  18.916 -12.601  1.00  0.00    -0.329 N 
ENDROOT
BRANCH   8   9
HETATM    9  C4  UNL     1       2.486  18.618 -11.219  1.00  0.00     0.158 C 
BRANCH   9  10
HETATM   10  C5  UNL     1       3.712  18.417 -10.405  1.00  0.00     0.252 C 
BRANCH  10  11
HETATM   11  N6  UNL     1       3.543  18.477  -8.998  1.00  0.00    -0.074 N 
ATOM     12  H62 UNL     1       2.562  18.623  -8.761  1.00  0.00     0.277 HD
ATOM     13  H61 UNL     1       3.685  17.557  -8.581  1.00  0.00     0.277 HD
BRANCH  11  14
HETATM   14  C6  UNL     1       4.366  19.455  -8.354  1.00  0.00     0.234 C 
BRANCH  14  15
HETATM   15  C7  UNL     1       3.641  20.744  -8.110  1.00  0.00     0.055 C 
BRANCH  15  16
HETATM   16  C8  UNL     1       3.758  21.231  -6.699  1.00  0.00     0.231 C 
BRANCH  16  17
HETATM   17  N7  UNL     1       4.295  20.254  -5.794  1.00  0.00    -0.079 N 
ATOM     18  H73 UNL     1       4.307  19.331  -6.227  1.00  0.00     0.274 HD
ATOM     19  H72 UNL     1       5.297  20.394  -5.665  1.00  0.00     0.274 HD
ATOM     20  H71 UNL     1       3.817  20.223  -4.894  1.00  0.00     0.274 HD
ENDBRANCH  16  17
ENDBRANCH  15  16
ENDBRANCH  14  15
ENDBRANCH  11  14
ENDBRANCH  10  11
ENDBRANCH   9  10
ENDBRANCH   8   9
BRANCH   1  21
HETATM   21  N2  UNL     1       4.023  22.357 -12.823  1.00  0.00    -0.248 N 
HETATM   22  N1  UNL     1       5.106  22.822 -12.380  1.00  0.00    -0.331 N 
ATOM     23  H12 UNL     1       5.608  22.316 -11.650  1.00  0.00     0.178 HD
ATOM     24  H11 UNL     1       5.463  23.699 -12.759  1.00  0.00     0.178 HD
ATOM     25  H2  UNL     1       3.508  22.850 -13.552  1.00  0.00     0.207 HD
ENDBRANCH   1  21
TORSDOF 8
ENDMDL
MODEL 5
REMARK VINA RESULT: -6.617646912      1.145      2.438
REMARK  8 active torsions:
REMARK  status: ('A' for Active; 'I' for Inactive)
REMARK    1  A    between atoms: N2_4  and  N3_6 
REMARK    2  A    between atoms: N5_13  and  C4_14 
REMARK    3  A    between atoms: C4_14  and  C5_15 
REMARK    4  A    between atoms: C5_15  and  N6_16 
REMARK    5  A    between atoms: N6_16  and  C6_19 
REMARK    6  A    between atoms: C6_19  and  C7_20 
REMARK    7  A    between atoms: C7_20  and  C8_21 
REMARK    8  A    between atoms: C8_21  and  N7_22 
ROOT
HETATM    1  N3  UNL     1       3.110  19.789 -15.768  1.00  0.00    -0.273 N 
ATOM      2  H3  UNL     1       3.606  20.676 -15.671  1.00  0.00     0.190 HD
HETATM    3  C1  UNL     1       2.818  19.132 -14.703  1.00  0.00     0.118 A 
HETATM    4  C2  UNL     1       2.109  17.838 -14.649  1.00  0.00     0.198 A 
HETATM    5  N4  UNL     1       2.031  17.538 -13.261  1.00  0.00    -0.379 N 
ATOM      6  H4  UNL     1       1.595  16.702 -12.871  1.00  0.00     0.160 HD
HETATM    7  C3  UNL     1       2.586  18.465 -12.566  1.00  0.00     0.180 A 
HETATM    8  N5  UNL     1       3.113  19.508 -13.359  1.00  0.00    -0.329 N 
ENDROOT
BRANCH   8   9
HETATM    9  C4  UNL     1       3.789  20.723 -13.041  1.00  0.00     0.158 C 
BRANCH   9  10
HETATM   10  C5  UNL     1       4.721  20.686 -11.886  1.00  0.00     0.252 C 
BRANCH  10  11
HETATM   11  N6  UNL     1       4.184  21.093 -10.638  1.00  0.00    -0.074 N 
ATOM     12  H62 UNL     1       4.651  21.935 -10.303  1.00  0.00     0.277 HD
ATOM     13  H61 UNL     1       3.238  21.456 -10.757  1.00  0.00     0.277 HD
BRANCH  11  14
HETATM   14  C6  UNL     1       4.207  20.072  -9.634  1.00  0.00     0.234 C 
BRANCH  14  15
HETATM   15  C7  UNL     1       3.803  20.586  -8.285  1.00  0.00     0.055 C 
BRANCH  15  16
HETATM   16  C8  UNL     1       4.261  19.714  -7.157  1.00  0.00     0.231 C 
BRANCH  16  17
HETATM   17  N7  UNL     1       4.273  20.377  -5.884  1.00  0.00    -0.079 N 
ATOM     18  H73 UNL     1       3.897  21.321  -5.966  1.00  0.00     0.274 HD
ATOM     19  H72 UNL     1       3.576  19.970  -5.259  1.00  0.00     0.274 HD
ATOM     20  H71 UNL     1       5.190  20.392  -5.438  1.00  0.00     0.274 HD
ENDBRANCH  16  17
ENDBRANCH  15  16
ENDBRANCH  14  15
ENDBRANCH  11  14
ENDBRANCH  10  11
ENDBRANCH   9  10
ENDBRANCH   8   9
BRANCH   1  21
HETATM   21  N2  UNL     1       2.785  19.351 -17.042  1.00  0.00    -0.248 N 
HETATM   22  N1  UNL     1       1.862  19.929 -17.675  1.00  0.00    -0.331 N 
ATOM     23  H12 UNL     1       1.370  20.711 -17.241  1.00  0.00     0.178 HD
ATOM     24  H11 UNL     1       1.622  19.606 -18.612  1.00  0.00     0.178 HD
ATOM     25  H2  UNL     1       3.287  18.568 -17.462  1.00  0.00     0.207 HD
ENDBRANCH   1  21
TORSDOF 8
ENDMDL
