MODEL 1
REMARK VINA RESULT: -5.296711862      0.000      0.000
REMARK  6 active torsions:
REMARK  status: ('A' for Active; 'I' for Inactive)
REMARK    1  A    between atoms: N1_2  and  C2_5 
REMARK    2  A    between atoms: C2_5  and  C3_6 
REMARK    3  A    between atoms: C3_6  and  N2_7 
REMARK    4  A    between atoms: C6_10  and  N3_11 
REMARK    5  A    between atoms: N3_11  and  C7_13 
REMARK    6  A    between atoms: N4_14  and  N5_16 
ROOT
HETATM    1  N2  UNL     1     -41.781 -19.708  -0.803  1.00  0.00    -0.043 N 
HETATM    2  C4  UNL     1     -42.775 -20.712  -1.119  1.00  0.00     0.275 C 
HETATM    3  C5  UNL     1     -42.295 -18.325  -0.877  1.00  0.00     0.294 A 
HETATM    4  C6  UNL     1     -41.400 -18.893  -1.918  1.00  0.00     0.315 A 
ENDROOT
BRANCH   4   5
HETATM    5  N3  UNL     1     -41.951 -19.058  -3.222  1.00  0.00    -0.356 N 
ATOM      6  H3  UNL     1     -42.956 -19.162  -3.360  1.00  0.00     0.162 HD
BRANCH   5   7
HETATM    7  C7  UNL     1     -41.048 -19.073  -4.326  1.00  0.00     0.196 C 
HETATM    8  N4  UNL     1     -41.578 -19.135  -5.498  1.00  0.00    -0.283 N 
ATOM      9  H4  UNL     1     -42.594 -19.169  -5.577  1.00  0.00     0.189 HD
BRANCH   8  10
HETATM   10  N5  UNL     1     -40.816 -19.158  -6.661  1.00  0.00    -0.248 N 
HETATM   11  N6  UNL     1     -39.561 -19.019  -6.543  1.00  0.00    -0.331 N 
ATOM     12  H62 UNL     1     -39.141 -18.897  -5.622  1.00  0.00     0.178 HD
ATOM     13  H61 UNL     1     -39.002 -19.036  -7.396  1.00  0.00     0.178 HD
ATOM     14  H5  UNL     1     -41.250 -19.282  -7.575  1.00  0.00     0.207 HD
ENDBRANCH   8  10
ENDBRANCH   5   7
ENDBRANCH   4   5
BRANCH   1  15
HETATM   15  C3  UNL     1     -40.869 -19.900   0.285  1.00  0.00     0.267 C 
BRANCH  15  16
HETATM   16  C2  UNL     1     -41.138 -21.148   1.084  1.00  0.00     0.259 C 
BRANCH  16  17
HETATM   17  N1  UNL     1     -40.823 -20.991   2.474  1.00  0.00    -0.077 N 
HETATM   18  C1  UNL     1     -41.199 -22.095   3.302  1.00  0.00     0.267 C 
ATOM     19  H12 UNL     1     -41.227 -20.126   2.832  1.00  0.00     0.276 HD
ATOM     20  H11 UNL     1     -39.831 -20.783   2.590  1.00  0.00     0.276 HD
ENDBRANCH  16  17
ENDBRANCH  15  16
ENDBRANCH   1  15
TORSDOF 6
ENDMDL
MODEL 2
REMARK VINA RESULT: -5.220780778      2.260      2.894
REMARK  6 active torsions:
REMARK  status: ('A' for Active; 'I' for Inactive)
REMARK    1  A    between atoms: N1_2  and  C2_5 
REMARK    2  A    between atoms: C2_5  and  C3_6 
REMARK    3  A    between atoms: C3_6  and  N2_7 
REMARK    4  A    between atoms: C6_10  and  N3_11 
REMARK    5  A    between atoms: N3_11  and  C7_13 
REMARK    6  A    between atoms: N4_14  and  N5_16 
ROOT
HETATM    1  N2  UNL     1     -42.325 -20.671  -2.876  1.00  0.00    -0.043 N 
HETATM    2  C4  UNL     1     -41.686 -21.918  -3.236  1.00  0.00     0.275 C 
HETATM    3  C5  UNL     1     -43.704 -20.543  -3.392  1.00  0.00     0.294 A 
HETATM    4  C6  UNL     1     -42.565 -19.794  -3.984  1.00  0.00     0.315 A 
ENDROOT
BRANCH   4   5
HETATM    5  N3  UNL     1     -42.203 -20.124  -5.322  1.00  0.00    -0.356 N 
ATOM      6  H3  UNL     1     -42.610 -20.931  -5.795  1.00  0.00     0.162 HD
BRANCH   5   7
HETATM    7  C7  UNL     1     -41.253 -19.287  -5.978  1.00  0.00     0.196 C 
HETATM    8  N4  UNL     1     -40.039 -19.355  -5.553  1.00  0.00    -0.283 N 
ATOM      9  H4  UNL     1     -39.822 -19.992  -4.787  1.00  0.00     0.189 HD
BRANCH   8  10
HETATM   10  N5  UNL     1     -39.013 -18.593  -6.101  1.00  0.00    -0.248 N 
HETATM   11  N6  UNL     1     -38.522 -18.977  -7.205  1.00  0.00    -0.331 N 
ATOM     12  H62 UNL     1     -38.879 -19.816  -7.663  1.00  0.00     0.178 HD
ATOM     13  H61 UNL     1     -37.770 -18.418  -7.606  1.00  0.00     0.178 HD
ATOM     14  H5  UNL     1     -38.667 -17.756  -5.631  1.00  0.00     0.207 HD
ENDBRANCH   8  10
ENDBRANCH   5   7
ENDBRANCH   4   5
BRANCH   1  15
HETATM   15  C3  UNL     1     -42.178 -20.128  -1.557  1.00  0.00     0.267 C 
BRANCH  15  16
HETATM   16  C2  UNL     1     -41.817 -18.665  -1.545  1.00  0.00     0.259 C 
BRANCH  16  17
HETATM   17  N1  UNL     1     -40.468 -18.434  -1.123  1.00  0.00    -0.077 N 
HETATM   18  C1  UNL     1     -40.230 -18.650   0.272  1.00  0.00     0.267 C 
ATOM     19  H12 UNL     1     -40.168 -17.497  -1.391  1.00  0.00     0.276 HD
ATOM     20  H11 UNL     1     -39.822 -18.992  -1.682  1.00  0.00     0.276 HD
ENDBRANCH  16  17
ENDBRANCH  15  16
ENDBRANCH   1  15
TORSDOF 6
ENDMDL
MODEL 3
REMARK VINA RESULT: -5.217610155      1.693      2.304
REMARK  6 active torsions:
REMARK  status: ('A' for Active; 'I' for Inactive)
REMARK    1  A    between atoms: N1_2  and  C2_5 
REMARK    2  A    between atoms: C2_5  and  C3_6 
REMARK    3  A    between atoms: C3_6  and  N2_7 
REMARK    4  A    between atoms: C6_10  and  N3_11 
REMARK    5  A    between atoms: N3_11  and  C7_13 
REMARK    6  A    between atoms: N4_14  and  N5_16 
ROOT
HETATM    1  N2  UNL     1     -42.436 -20.472  -2.965  1.00  0.00    -0.043 N 
HETATM    2  C4  UNL     1     -43.779 -20.708  -3.450  1.00  0.00     0.275 C 
HETATM    3  C5  UNL     1     -42.168 -19.057  -2.634  1.00  0.00     0.294 A 
HETATM    4  C6  UNL     1     -41.619 -19.702  -3.856  1.00  0.00     0.315 A 
ENDROOT
BRANCH   4   5
HETATM    5  N3  UNL     1     -42.090 -19.214  -5.109  1.00  0.00    -0.356 N 
ATOM      6  H3  UNL     1     -43.030 -18.830  -5.207  1.00  0.00     0.162 HD
BRANCH   5   7
HETATM    7  C7  UNL     1     -41.201 -19.281  -6.222  1.00  0.00     0.196 C 
HETATM    8  N4  UNL     1     -39.955 -19.072  -5.975  1.00  0.00    -0.283 N 
ATOM      9  H4  UNL     1     -39.672 -18.875  -5.015  1.00  0.00     0.189 HD
BRANCH   8  10
HETATM   10  N5  UNL     1     -38.980 -19.106  -6.966  1.00  0.00    -0.248 N 
HETATM   11  N6  UNL     1     -37.936 -18.409  -6.787  1.00  0.00    -0.331 N 
ATOM     12  H62 UNL     1     -37.830 -17.850  -5.940  1.00  0.00     0.178 HD
ATOM     13  H61 UNL     1     -37.222 -18.434  -7.514  1.00  0.00     0.178 HD
ATOM     14  H5  UNL     1     -39.101 -19.671  -7.806  1.00  0.00     0.207 HD
ENDBRANCH   8  10
ENDBRANCH   5   7
ENDBRANCH   4   5
BRANCH   1  15
HETATM   15  C3  UNL     1     -41.823 -21.379  -2.041  1.00  0.00     0.267 C 
BRANCH  15  16
HETATM   16  C2  UNL     1     -42.051 -21.014  -0.597  1.00  0.00     0.259 C 
BRANCH  16  17
HETATM   17  N1  UNL     1     -40.840 -20.657   0.080  1.00  0.00    -0.077 N 
HETATM   18  C1  UNL     1     -40.869 -19.384   0.732  1.00  0.00     0.267 C 
ATOM     19  H12 UNL     1     -40.048 -20.707  -0.562  1.00  0.00     0.276 HD
ATOM     20  H11 UNL     1     -40.576 -21.388   0.741  1.00  0.00     0.276 HD
ENDBRANCH  16  17
ENDBRANCH  15  16
ENDBRANCH   1  15
TORSDOF 6
ENDMDL
MODEL 4
REMARK VINA RESULT: -5.078921949      1.816      2.397
REMARK  6 active torsions:
REMARK  status: ('A' for Active; 'I' for Inactive)
REMARK    1  A    between atoms: N1_2  and  C2_5 
REMARK    2  A    between atoms: C2_5  and  C3_6 
REMARK    3  A    between atoms: C3_6  and  N2_7 
REMARK    4  A    between atoms: C6_10  and  N3_11 
REMARK    5  A    between atoms: N3_11  and  C7_13 
REMARK    6  A    between atoms: N4_14  and  N5_16 
ROOT
HETATM    1  N2  UNL     1     -41.977 -20.840  -1.041  1.00  0.00    -0.043 N 
HETATM    2  C4  UNL     1     -42.462 -22.192  -1.210  1.00  0.00     0.275 C 
HETATM    3  C5  UNL     1     -43.041 -19.817  -1.118  1.00  0.00     0.294 A 
HETATM    4  C6  UNL     1     -42.070 -20.033  -2.222  1.00  0.00     0.315 A 
ENDROOT
BRANCH   4   5
HETATM    5  N3  UNL     1     -42.593 -20.522  -3.453  1.00  0.00    -0.356 N 
ATOM      6  H3  UNL     1     -43.356 -21.199  -3.471  1.00  0.00     0.162 HD
BRANCH   5   7
HETATM    7  C7  UNL     1     -42.012 -20.033  -4.661  1.00  0.00     0.196 C 
HETATM    8  N4  UNL     1     -40.769 -19.701  -4.606  1.00  0.00    -0.283 N 
ATOM      9  H4  UNL     1     -40.273 -19.803  -3.721  1.00  0.00     0.189 HD
BRANCH   8  10
HETATM   10  N5  UNL     1     -40.079 -19.208  -5.708  1.00  0.00    -0.248 N 
HETATM   11  N6  UNL     1     -40.733 -19.035  -6.781  1.00  0.00    -0.331 N 
ATOM     12  H62 UNL     1     -41.729 -19.253  -6.817  1.00  0.00     0.178 HD
ATOM     13  H61 UNL     1     -40.226 -18.674  -7.588  1.00  0.00     0.178 HD
ATOM     14  H5  UNL     1     -39.084 -18.994  -5.656  1.00  0.00     0.207 HD
ENDBRANCH   8  10
ENDBRANCH   5   7
ENDBRANCH   4   5
BRANCH   1  15
HETATM   15  C3  UNL     1     -40.991 -20.536  -0.046  1.00  0.00     0.267 C 
BRANCH  15  16
HETATM   16  C2  UNL     1     -41.152 -19.167   0.562  1.00  0.00     0.259 C 
BRANCH  16  17
HETATM   17  N1  UNL     1     -40.047 -18.302   0.270  1.00  0.00    -0.077 N 
HETATM   18  C1  UNL     1     -40.171 -17.559  -0.947  1.00  0.00     0.267 C 
ATOM     19  H12 UNL     1     -39.174 -18.829   0.274  1.00  0.00     0.276 HD
ATOM     20  H11 UNL     1     -39.875 -17.671   1.053  1.00  0.00     0.276 HD
ENDBRANCH  16  17
ENDBRANCH  15  16
ENDBRANCH   1  15
TORSDOF 6
ENDMDL
MODEL 5
REMARK VINA RESULT: -4.955006285      1.722      6.565
REMARK  6 active torsions:
REMARK  status: ('A' for Active; 'I' for Inactive)
REMARK    1  A    between atoms: N1_2  and  C2_5 
REMARK    2  A    between atoms: C2_5  and  C3_6 
REMARK    3  A    between atoms: C3_6  and  N2_7 
REMARK    4  A    between atoms: C6_10  and  N3_11 
REMARK    5  A    between atoms: N3_11  and  C7_13 
REMARK    6  A    between atoms: N4_14  and  N5_16 
ROOT
HETATM    1  N2  UNL     1     -41.255 -18.768  -1.282  1.00  0.00    -0.043 N 
HETATM    2  C4  UNL     1     -40.125 -18.008  -0.793  1.00  0.00     0.275 C 
HETATM    3  C5  UNL     1     -42.466 -18.630  -0.446  1.00  0.00     0.294 A 
HETATM    4  C6  UNL     1     -41.633 -19.862  -0.438  1.00  0.00     0.315 A 
ENDROOT
BRANCH   4   5
HETATM    5  N3  UNL     1     -40.955 -20.173   0.775  1.00  0.00    -0.356 N 
ATOM      6  H3  UNL     1     -40.281 -19.525   1.184  1.00  0.00     0.162 HD
BRANCH   5   7
HETATM    7  C7  UNL     1     -41.250 -21.421   1.398  1.00  0.00     0.196 C 
HETATM    8  N4  UNL     1     -40.985 -21.512   2.656  1.00  0.00    -0.283 N 
ATOM      9  H4  UNL     1     -40.588 -20.703   3.133  1.00  0.00     0.189 HD
BRANCH   8  10
HETATM   10  N5  UNL     1     -41.222 -22.670   3.387  1.00  0.00    -0.248 N 
HETATM   11  N6  UNL     1     -41.978 -22.580   4.401  1.00  0.00    -0.331 N 
ATOM     12  H62 UNL     1     -42.390 -21.683   4.656  1.00  0.00     0.178 HD
ATOM     13  H61 UNL     1     -42.151 -23.430   4.937  1.00  0.00     0.178 HD
ATOM     14  H5  UNL     1     -40.802 -23.560   3.118  1.00  0.00     0.207 HD
ENDBRANCH   8  10
ENDBRANCH   5   7
ENDBRANCH   4   5
BRANCH   1  15
HETATM   15  C3  UNL     1     -41.555 -18.811  -2.683  1.00  0.00     0.267 C 
BRANCH  15  16
HETATM   16  C2  UNL     1     -42.334 -20.033  -3.094  1.00  0.00     0.259 C 
BRANCH  16  17
HETATM   17  N1  UNL     1     -42.226 -20.310  -4.496  1.00  0.00    -0.077 N 
HETATM   18  C1  UNL     1     -41.239 -19.537  -5.186  1.00  0.00     0.267 C 
ATOM     19  H12 UNL     1     -43.134 -20.208  -4.948  1.00  0.00     0.276 HD
ATOM     20  H11 UNL     1     -42.064 -21.306  -4.648  1.00  0.00     0.276 HD
ENDBRANCH  16  17
ENDBRANCH  15  16
ENDBRANCH   1  15
TORSDOF 6
ENDMDL
