MODEL 1
REMARK VINA RESULT: -5.798029446      0.000      0.000
REMARK  6 active torsions:
REMARK  status: ('A' for Active; 'I' for Inactive)
REMARK    1  A    between atoms: C2_2  and  C3_3 
REMARK    2  A    between atoms: C3_3  and  N1_4 
REMARK    3  A    between atoms: C5_6  and  C6_7 
REMARK    4  A    between atoms: C5_6  and  C8_15 
REMARK    5  A    between atoms: C6_7  and  N2_8 
REMARK       I    between atoms: N2_8  and  C7_10 
REMARK    6  A    between atoms: C8_15  and  N5_16 
ROOT
HETATM    1  N1  UNL     1     -41.270 -20.675  -0.647  1.00  0.00     0.109 N 
HETATM    2  C4  UNL     1     -42.717 -20.837  -0.735  1.00  0.00     0.319 A 
HETATM    3  C5  UNL     1     -41.947 -19.682  -1.396  1.00  0.00     0.218 A 
ENDROOT
BRANCH   3   4
HETATM    4  C6  UNL     1     -42.085 -19.760  -2.892  1.00  0.00     0.167 C 
BRANCH   4   5
HETATM    5  N2  UNL     1     -41.024 -19.234  -3.677  1.00  0.00    -0.362 N 
HETATM    6  C7  UNL     1     -40.985 -19.304  -5.085  1.00  0.00     0.181 C 
HETATM    7  N3  UNL     1     -39.841 -19.197  -5.697  1.00  0.00    -0.374 N 
HETATM    8  N4  UNL     1     -42.133 -19.486  -5.886  1.00  0.00    -0.064 NA
ATOM      9  H32 UNL     1     -39.012 -19.066  -5.118  1.00  0.00     0.158 HD
ATOM     10  H31 UNL     1     -39.813 -19.248  -6.716  1.00  0.00     0.158 HD
ATOM     11  H2  UNL     1     -40.247 -18.781  -3.195  1.00  0.00     0.162 HD
ENDBRANCH   4   5
ENDBRANCH   3   4
BRANCH   3  12
HETATM   12  C8  UNL     1     -42.286 -18.347  -0.747  1.00  0.00     0.184 C 
BRANCH  12  13
HETATM   13  N5  UNL     1     -41.347 -17.332  -1.037  1.00  0.00    -0.340 N 
HETATM   14  N6  UNL     1     -40.168 -17.324  -0.625  1.00  0.00    -0.349 N 
ATOM     15  H62 UNL     1     -39.880 -18.110  -0.043  1.00  0.00     0.176 HD
ATOM     16  H61 UNL     1     -39.491 -16.591  -0.834  1.00  0.00     0.176 HD
ATOM     17  H5  UNL     1     -41.653 -16.553  -1.620  1.00  0.00     0.179 HD
ENDBRANCH  12  13
ENDBRANCH   3  12
BRANCH   1  18
HETATM   18  C3  UNL     1     -40.858 -20.507   0.725  1.00  0.00     0.300 C 
BRANCH  18  19
HETATM   19  C2  UNL     1     -41.244 -21.570   1.635  1.00  0.00    -0.007 C 
HETATM   20  C1  UNL     1     -40.897 -21.698   2.890  1.00  0.00     0.008 C 
ENDBRANCH  18  19
ENDBRANCH   1  18
TORSDOF 6
ENDMDL
MODEL 2
REMARK VINA RESULT: -5.748806228      2.114      5.434
REMARK  6 active torsions:
REMARK  status: ('A' for Active; 'I' for Inactive)
REMARK    1  A    between atoms: C2_2  and  C3_3 
REMARK    2  A    between atoms: C3_3  and  N1_4 
REMARK    3  A    between atoms: C5_6  and  C6_7 
REMARK    4  A    between atoms: C5_6  and  C8_15 
REMARK    5  A    between atoms: C6_7  and  N2_8 
REMARK       I    between atoms: N2_8  and  C7_10 
REMARK    6  A    between atoms: C8_15  and  N5_16 
ROOT
HETATM    1  N1  UNL     1     -41.472 -19.376  -3.740  1.00  0.00     0.109 N 
HETATM    2  C4  UNL     1     -42.911 -19.513  -3.934  1.00  0.00     0.319 A 
HETATM    3  C5  UNL     1     -42.141 -20.162  -2.771  1.00  0.00     0.218 A 
ENDROOT
BRANCH   3   4
HETATM    4  C6  UNL     1     -42.612 -19.593  -1.460  1.00  0.00     0.167 C 
BRANCH   4   5
HETATM    5  N2  UNL     1     -41.645 -19.426  -0.433  1.00  0.00    -0.362 N 
HETATM    6  C7  UNL     1     -40.743 -18.342  -0.378  1.00  0.00     0.181 C 
HETATM    7  N3  UNL     1     -39.646 -18.460   0.312  1.00  0.00    -0.374 N 
HETATM    8  N4  UNL     1     -40.963 -17.114  -1.038  1.00  0.00    -0.064 NA
ATOM      9  H32 UNL     1     -39.487 -19.348   0.789  1.00  0.00     0.158 HD
ATOM     10  H31 UNL     1     -38.994 -17.677   0.352  1.00  0.00     0.158 HD
ATOM     11  H2  UNL     1     -41.600 -20.128   0.306  1.00  0.00     0.162 HD
ENDBRANCH   4   5
ENDBRANCH   3   4
BRANCH   3  12
HETATM   12  C8  UNL     1     -42.132 -21.680  -2.892  1.00  0.00     0.184 C 
BRANCH  12  13
HETATM   13  N5  UNL     1     -43.050 -22.314  -2.025  1.00  0.00    -0.340 N 
HETATM   14  N6  UNL     1     -42.764 -22.740  -0.886  1.00  0.00    -0.349 N 
ATOM     15  H62 UNL     1     -41.800 -22.613  -0.577  1.00  0.00     0.176 HD
ATOM     16  H61 UNL     1     -43.427 -23.198  -0.261  1.00  0.00     0.176 HD
ATOM     17  H5  UNL     1     -44.009 -22.432  -2.351  1.00  0.00     0.179 HD
ENDBRANCH  12  13
ENDBRANCH   3  12
BRANCH   1  18
HETATM   18  C3  UNL     1     -40.751 -19.924  -4.863  1.00  0.00     0.300 C 
BRANCH  18  19
HETATM   19  C2  UNL     1     -40.686 -19.081  -6.043  1.00  0.00    -0.007 C 
HETATM   20  C1  UNL     1     -41.453 -19.146  -7.101  1.00  0.00     0.008 C 
ENDBRANCH  18  19
ENDBRANCH   1  18
TORSDOF 6
ENDMDL
MODEL 3
REMARK VINA RESULT: -5.661832794      1.913      5.593
REMARK  6 active torsions:
REMARK  status: ('A' for Active; 'I' for Inactive)
REMARK    1  A    between atoms: C2_2  and  C3_3 
REMARK    2  A    between atoms: C3_3  and  N1_4 
REMARK    3  A    between atoms: C5_6  and  C6_7 
REMARK    4  A    between atoms: C5_6  and  C8_15 
REMARK    5  A    between atoms: C6_7  and  N2_8 
REMARK       I    between atoms: N2_8  and  C7_10 
REMARK    6  A    between atoms: C8_15  and  N5_16 
ROOT
HETATM    1  N1  UNL     1     -41.349 -19.126  -3.985  1.00  0.00     0.109 N 
HETATM    2  C4  UNL     1     -42.804 -19.048  -4.070  1.00  0.00     0.319 A 
HETATM    3  C5  UNL     1     -42.051 -19.684  -2.889  1.00  0.00     0.218 A 
ENDROOT
BRANCH   3   4
HETATM    4  C6  UNL     1     -42.321 -18.909  -1.628  1.00  0.00     0.167 C 
BRANCH   4   5
HETATM    5  N2  UNL     1     -41.212 -18.300  -0.983  1.00  0.00    -0.362 N 
HETATM    6  C7  UNL     1     -40.639 -18.786   0.211  1.00  0.00     0.181 C 
HETATM    7  N3  UNL     1     -39.935 -17.983   0.954  1.00  0.00    -0.374 N 
HETATM    8  N4  UNL     1     -40.786 -20.117   0.657  1.00  0.00    -0.064 NA
ATOM      9  H32 UNL     1     -39.830 -17.021   0.631  1.00  0.00     0.158 HD
ATOM     10  H31 UNL     1     -39.521 -18.334   1.817  1.00  0.00     0.158 HD
ATOM     11  H2  UNL     1     -40.806 -17.465  -1.406  1.00  0.00     0.162 HD
ENDBRANCH   4   5
ENDBRANCH   3   4
BRANCH   3  12
HETATM   12  C8  UNL     1     -42.284 -21.188  -2.830  1.00  0.00     0.184 C 
BRANCH  12  13
HETATM   13  N5  UNL     1     -41.908 -21.762  -1.595  1.00  0.00    -0.340 N 
HETATM   14  N6  UNL     1     -42.712 -22.230  -0.761  1.00  0.00    -0.349 N 
ATOM     15  H62 UNL     1     -43.701 -22.188  -1.004  1.00  0.00     0.176 HD
ATOM     16  H61 UNL     1     -42.440 -22.644   0.130  1.00  0.00     0.176 HD
ATOM     17  H5  UNL     1     -40.914 -21.796  -1.369  1.00  0.00     0.179 HD
ENDBRANCH  12  13
ENDBRANCH   3  12
BRANCH   1  18
HETATM   18  C3  UNL     1     -40.814 -19.900  -5.078  1.00  0.00     0.300 C 
BRANCH  18  19
HETATM   19  C2  UNL     1     -40.637 -19.187  -6.330  1.00  0.00    -0.007 C 
HETATM   20  C1  UNL     1     -41.489 -19.111  -7.321  1.00  0.00     0.008 C 
ENDBRANCH  18  19
ENDBRANCH   1  18
TORSDOF 6
ENDMDL
MODEL 4
REMARK VINA RESULT: -5.569198286      1.155      1.455
REMARK  6 active torsions:
REMARK  status: ('A' for Active; 'I' for Inactive)
REMARK    1  A    between atoms: C2_2  and  C3_3 
REMARK    2  A    between atoms: C3_3  and  N1_4 
REMARK    3  A    between atoms: C5_6  and  C6_7 
REMARK    4  A    between atoms: C5_6  and  C8_15 
REMARK    5  A    between atoms: C6_7  and  N2_8 
REMARK       I    between atoms: N2_8  and  C7_10 
REMARK    6  A    between atoms: C8_15  and  N5_16 
ROOT
HETATM    1  N1  UNL     1     -42.187 -21.302  -1.863  1.00  0.00     0.109 N 
HETATM    2  C4  UNL     1     -43.414 -20.937  -2.562  1.00  0.00     0.319 A 
HETATM    3  C5  UNL     1     -42.063 -20.239  -2.790  1.00  0.00     0.218 A 
ENDROOT
BRANCH   3   4
HETATM    4  C6  UNL     1     -41.604 -20.456  -4.206  1.00  0.00     0.167 C 
BRANCH   4   5
HETATM    5  N2  UNL     1     -40.560 -19.623  -4.692  1.00  0.00    -0.362 N 
HETATM    6  C7  UNL     1     -40.440 -19.227  -6.040  1.00  0.00     0.181 C 
HETATM    7  N3  UNL     1     -39.282 -18.838  -6.489  1.00  0.00    -0.374 N 
HETATM    8  N4  UNL     1     -41.520 -19.226  -6.949  1.00  0.00    -0.064 NA
ATOM      9  H32 UNL     1     -38.502 -18.839  -5.832  1.00  0.00     0.158 HD
ATOM     10  H31 UNL     1     -39.194 -18.552  -7.464  1.00  0.00     0.158 HD
ATOM     11  H2  UNL     1     -39.860 -19.292  -4.028  1.00  0.00     0.162 HD
ENDBRANCH   4   5
ENDBRANCH   3   4
BRANCH   3  12
HETATM   12  C8  UNL     1     -42.094 -18.799  -2.295  1.00  0.00     0.184 C 
BRANCH  12  13
HETATM   13  N5  UNL     1     -40.834 -18.333  -1.858  1.00  0.00    -0.340 N 
HETATM   14  N6  UNL     1     -40.667 -17.541  -0.906  1.00  0.00    -0.349 N 
ATOM     15  H62 UNL     1     -41.506 -17.219  -0.424  1.00  0.00     0.176 HD
ATOM     16  H61 UNL     1     -39.757 -17.205  -0.591  1.00  0.00     0.176 HD
ATOM     17  H5  UNL     1     -40.005 -18.665  -2.351  1.00  0.00     0.179 HD
ENDBRANCH  12  13
ENDBRANCH   3  12
BRANCH   1  18
HETATM   18  C3  UNL     1     -42.334 -21.118  -0.441  1.00  0.00     0.300 C 
BRANCH  18  19
HETATM   19  C2  UNL     1     -41.098 -20.981   0.309  1.00  0.00    -0.007 C 
HETATM   20  C1  UNL     1     -40.961 -20.995   1.611  1.00  0.00     0.008 C 
ENDBRANCH  18  19
ENDBRANCH   1  18
TORSDOF 6
ENDMDL
MODEL 5
REMARK VINA RESULT: -5.345743916      1.712      5.329
REMARK  6 active torsions:
REMARK  status: ('A' for Active; 'I' for Inactive)
REMARK    1  A    between atoms: C2_2  and  C3_3 
REMARK    2  A    between atoms: C3_3  and  N1_4 
REMARK    3  A    between atoms: C5_6  and  C6_7 
REMARK    4  A    between atoms: C5_6  and  C8_15 
REMARK    5  A    between atoms: C6_7  and  N2_8 
REMARK       I    between atoms: N2_8  and  C7_10 
REMARK    6  A    between atoms: C8_15  and  N5_16 
ROOT
HETATM    1  N1  UNL     1     -42.922 -19.964  -3.876  1.00  0.00     0.109 N 
HETATM    2  C4  UNL     1     -41.815 -20.909  -3.773  1.00  0.00     0.319 A 
HETATM    3  C5  UNL     1     -42.193 -19.913  -2.663  1.00  0.00     0.218 A 
ENDROOT
BRANCH   3   4
HETATM    4  C6  UNL     1     -42.631 -20.656  -1.430  1.00  0.00     0.167 C 
BRANCH   4   5
HETATM    5  N2  UNL     1     -41.652 -20.901  -0.430  1.00  0.00    -0.362 N 
HETATM    6  C7  UNL     1     -41.888 -21.682   0.720  1.00  0.00     0.181 C 
HETATM    7  N3  UNL     1     -41.129 -21.525   1.764  1.00  0.00    -0.374 N 
HETATM    8  N4  UNL     1     -42.918 -22.643   0.807  1.00  0.00    -0.064 NA
ATOM      9  H32 UNL     1     -40.384 -20.830   1.700  1.00  0.00     0.158 HD
ATOM     10  H31 UNL     1     -41.299 -22.090   2.596  1.00  0.00     0.158 HD
ATOM     11  H2  UNL     1     -40.727 -20.489  -0.551  1.00  0.00     0.162 HD
ENDBRANCH   4   5
ENDBRANCH   3   4
BRANCH   3  12
HETATM   12  C8  UNL     1     -41.113 -18.856  -2.476  1.00  0.00     0.184 C 
BRANCH  12  13
HETATM   13  N5  UNL     1     -41.430 -17.904  -1.482  1.00  0.00    -0.340 N 
HETATM   14  N6  UNL     1     -40.586 -17.325  -0.766  1.00  0.00    -0.349 N 
ATOM     15  H62 UNL     1     -39.608 -17.566  -0.923  1.00  0.00     0.176 HD
ATOM     16  H61 UNL     1     -40.815 -16.638  -0.048  1.00  0.00     0.176 HD
ATOM     17  H5  UNL     1     -42.413 -17.675  -1.338  1.00  0.00     0.179 HD
ENDBRANCH  12  13
ENDBRANCH   3  12
BRANCH   1  18
HETATM   18  C3  UNL     1     -42.717 -19.056  -4.978  1.00  0.00     0.300 C 
BRANCH  18  19
HETATM   19  C2  UNL     1     -41.798 -19.508  -6.006  1.00  0.00    -0.007 C 
HETATM   20  C1  UNL     1     -40.594 -19.053  -6.243  1.00  0.00     0.008 C 
ENDBRANCH  18  19
ENDBRANCH   1  18
TORSDOF 6
ENDMDL
