MODEL 1
REMARK VINA RESULT: -7.047288150      0.000      0.000
REMARK  3 active torsions:
REMARK  status: ('A' for Active; 'I' for Inactive)
REMARK    1  A    between atoms: C7_10  and  C8_11 
REMARK    2  A    between atoms: C8_11  and  C9_12 
REMARK    3  A    between atoms: C9_12  and  C10_13 
ROOT
HETATM    1  F1  UNL     1    -109.622-176.051 311.938  1.00  0.00    -0.249 F 
HETATM    2  C1  UNL     1    -110.888-176.053 311.376  1.00  0.00     0.174 C 
HETATM    3  C2  UNL     1    -111.241-177.331 310.705  1.00  0.00     0.038 C 
HETATM    4  C3  UNL     1    -110.137-177.967 309.915  1.00  0.00     0.009 C 
HETATM    5  C4  UNL     1    -109.422-177.012 309.002  1.00  0.00     0.057 C 
HETATM    6  C5  UNL     1    -110.451-176.142 308.393  1.00  0.00     0.016 A 
HETATM    7  N1  UNL     1    -110.833-176.138 307.109  1.00  0.00    -0.368 N 
ATOM      8  H1  UNL     1    -110.450-176.746 306.384  1.00  0.00     0.165 HD
HETATM    9  C6  UNL     1    -111.793-175.219 306.912  1.00  0.00     0.095 A 
HETATM   10  C7  UNL     1    -112.019-174.617 308.144  1.00  0.00    -0.034 A 
HETATM   11  C11 UNL     1    -111.184-175.190 309.067  1.00  0.00    -0.025 A 
HETATM   12  C12 UNL     1    -111.133-174.814 310.516  1.00  0.00     0.078 C 
ENDROOT
BRANCH  10  13
HETATM   13  C8  UNL     1    -112.990-173.532 308.418  1.00  0.00     0.041 C 
BRANCH  13  14
HETATM   14  C9  UNL     1    -114.156-174.023 309.262  1.00  0.00     0.015 C 
BRANCH  14  15
HETATM   15  C10 UNL     1    -114.972-174.988 308.399  1.00  0.00     0.085 C 
HETATM   16 BR1  UNL     1    -114.806-176.786 309.119  1.00  0.00    -0.097 Br
ENDBRANCH  14  15
ENDBRANCH  13  14
ENDBRANCH  10  13
TORSDOF 3
ENDMDL
MODEL 2
REMARK VINA RESULT: -7.045714808      1.923      2.584
REMARK  3 active torsions:
REMARK  status: ('A' for Active; 'I' for Inactive)
REMARK    1  A    between atoms: C7_10  and  C8_11 
REMARK    2  A    between atoms: C8_11  and  C9_12 
REMARK    3  A    between atoms: C9_12  and  C10_13 
ROOT
HETATM    1  F1  UNL     1    -110.457-177.633 312.549  1.00  0.00    -0.249 F 
HETATM    2  C1  UNL     1    -110.872-177.710 311.229  1.00  0.00     0.174 C 
HETATM    3  C2  UNL     1    -109.909-177.116 310.266  1.00  0.00     0.038 C 
HETATM    4  C3  UNL     1    -109.262-175.838 310.710  1.00  0.00     0.009 C 
HETATM    5  C4  UNL     1    -110.234-174.829 311.255  1.00  0.00     0.057 C 
HETATM    6  C5  UNL     1    -111.431-174.868 310.388  1.00  0.00     0.016 A 
HETATM    7  N1  UNL     1    -111.837-173.908 309.545  1.00  0.00    -0.368 N 
ATOM      8  H1  UNL     1    -111.359-173.018 309.402  1.00  0.00     0.165 HD
HETATM    9  C6  UNL     1    -112.963-174.286 308.918  1.00  0.00     0.095 A 
HETATM   10  C7  UNL     1    -113.276-175.551 309.399  1.00  0.00    -0.034 A 
HETATM   11  C11 UNL     1    -112.323-175.915 310.314  1.00  0.00    -0.025 A 
HETATM   12  C12 UNL     1    -112.307-177.219 311.052  1.00  0.00     0.078 C 
ENDROOT
BRANCH  10  13
HETATM   13  C8  UNL     1    -114.444-176.370 309.000  1.00  0.00     0.041 C 
BRANCH  13  14
HETATM   14  C9  UNL     1    -115.458-175.555 308.213  1.00  0.00     0.015 C 
BRANCH  14  15
HETATM   15  C10 UNL     1    -116.514-175.057 309.204  1.00  0.00     0.085 C 
HETATM   16 BR1  UNL     1    -118.047-174.381 308.218  1.00  0.00    -0.097 Br
ENDBRANCH  14  15
ENDBRANCH  13  14
ENDBRANCH  10  13
TORSDOF 3
ENDMDL
MODEL 3
REMARK VINA RESULT: -6.890893854      1.316      1.493
REMARK  3 active torsions:
REMARK  status: ('A' for Active; 'I' for Inactive)
REMARK    1  A    between atoms: C7_10  and  C8_11 
REMARK    2  A    between atoms: C8_11  and  C9_12 
REMARK    3  A    between atoms: C9_12  and  C10_13 
ROOT
HETATM    1  F1  UNL     1    -110.480-174.887 312.767  1.00  0.00    -0.249 F 
HETATM    2  C1  UNL     1    -111.414-175.387 311.874  1.00  0.00     0.174 C 
HETATM    3  C2  UNL     1    -111.336-176.859 311.691  1.00  0.00     0.038 C 
HETATM    4  C3  UNL     1    -109.949-177.425 311.623  1.00  0.00     0.009 C 
HETATM    5  C4  UNL     1    -109.038-176.676 310.692  1.00  0.00     0.057 C 
HETATM    6  C5  UNL     1    -109.829-176.337 309.490  1.00  0.00     0.016 A 
HETATM    7  N1  UNL     1    -109.673-176.849 308.261  1.00  0.00    -0.368 N 
ATOM      8  H1  UNL     1    -108.973-177.545 308.004  1.00  0.00     0.165 HD
HETATM    9  C6  UNL     1    -110.569-176.313 307.416  1.00  0.00     0.095 A 
HETATM   10  C7  UNL     1    -111.325-175.416 308.162  1.00  0.00    -0.034 A 
HETATM   11  C11 UNL     1    -110.866-175.429 309.453  1.00  0.00    -0.025 A 
HETATM   12  C12 UNL     1    -111.430-174.600 310.565  1.00  0.00     0.078 C 
ENDROOT
BRANCH  10  13
HETATM   13  C8  UNL     1    -112.435-174.577 307.652  1.00  0.00     0.041 C 
BRANCH  13  14
HETATM   14  C9  UNL     1    -113.785-175.239 307.873  1.00  0.00     0.015 C 
BRANCH  14  15
HETATM   15  C10 UNL     1    -114.621-174.297 308.744  1.00  0.00     0.085 C 
HETATM   16 BR1  UNL     1    -116.473-174.884 308.727  1.00  0.00    -0.097 Br
ENDBRANCH  14  15
ENDBRANCH  13  14
ENDBRANCH  10  13
TORSDOF 3
ENDMDL
MODEL 4
REMARK VINA RESULT: -6.868259466      2.515      4.332
REMARK  3 active torsions:
REMARK  status: ('A' for Active; 'I' for Inactive)
REMARK    1  A    between atoms: C7_10  and  C8_11 
REMARK    2  A    between atoms: C8_11  and  C9_12 
REMARK    3  A    between atoms: C9_12  and  C10_13 
ROOT
HETATM    1  F1  UNL     1    -114.730-174.769 308.197  1.00  0.00    -0.249 F 
HETATM    2  C1  UNL     1    -113.745-174.855 309.168  1.00  0.00     0.174 C 
HETATM    3  C2  UNL     1    -112.682-173.826 309.031  1.00  0.00     0.038 C 
HETATM    4  C3  UNL     1    -112.241-173.542 307.626  1.00  0.00     0.009 C 
HETATM    5  C4  UNL     1    -111.957-174.779 306.823  1.00  0.00     0.057 C 
HETATM    6  C5  UNL     1    -111.249-175.723 307.715  1.00  0.00     0.016 A 
HETATM    7  N1  UNL     1    -109.966-176.098 307.622  1.00  0.00    -0.368 N 
ATOM      8  H1  UNL     1    -109.313-175.772 306.909  1.00  0.00     0.165 HD
HETATM    9  C6  UNL     1    -109.663-176.966 308.603  1.00  0.00     0.095 A 
HETATM   10  C7  UNL     1    -110.825-177.140 309.346  1.00  0.00    -0.034 A 
HETATM   11  C11 UNL     1    -111.813-176.367 308.794  1.00  0.00    -0.025 A 
HETATM   12  C12 UNL     1    -113.214-176.279 309.318  1.00  0.00     0.078 C 
ENDROOT
BRANCH  10  13
HETATM   13  C8  UNL     1    -110.978-178.018 310.529  1.00  0.00     0.041 C 
BRANCH  13  14
HETATM   14  C9  UNL     1    -111.234-177.214 311.794  1.00  0.00     0.015 C 
BRANCH  14  15
HETATM   15  C10 UNL     1    -109.910-176.560 312.198  1.00  0.00     0.085 C 
HETATM   16 BR1  UNL     1    -109.926-174.694 311.655  1.00  0.00    -0.097 Br
ENDBRANCH  14  15
ENDBRANCH  13  14
ENDBRANCH  10  13
TORSDOF 3
ENDMDL
MODEL 5
REMARK VINA RESULT: -6.736756499      3.059      4.284
REMARK  3 active torsions:
REMARK  status: ('A' for Active; 'I' for Inactive)
REMARK    1  A    between atoms: C7_10  and  C8_11 
REMARK    2  A    between atoms: C8_11  and  C9_12 
REMARK    3  A    between atoms: C9_12  and  C10_13 
ROOT
HETATM    1  F1  UNL     1    -115.281-175.048 309.726  1.00  0.00    -0.249 F 
HETATM    2  C1  UNL     1    -114.726-175.637 308.601  1.00  0.00     0.174 C 
HETATM    3  C2  UNL     1    -114.465-177.091 308.757  1.00  0.00     0.038 C 
HETATM    4  C3  UNL     1    -113.919-177.506 310.090  1.00  0.00     0.009 C 
HETATM    5  C4  UNL     1    -112.772-176.657 310.562  1.00  0.00     0.057 C 
HETATM    6  C5  UNL     1    -111.914-176.394 309.387  1.00  0.00     0.016 A 
HETATM    7  N1  UNL     1    -110.682-176.877 309.175  1.00  0.00    -0.368 N 
ATOM      8  H1  UNL     1    -110.179-177.493 309.814  1.00  0.00     0.165 HD
HETATM    9  C6  UNL     1    -110.205-176.432 308.001  1.00  0.00     0.095 A 
HETATM   10  C7  UNL     1    -111.195-175.627 307.453  1.00  0.00    -0.034 A 
HETATM   11  C11 UNL     1    -112.261-175.602 308.314  1.00  0.00    -0.025 A 
HETATM   12  C12 UNL     1    -113.531-174.845 308.073  1.00  0.00     0.078 C 
ENDROOT
BRANCH  10  13
HETATM   13  C8  UNL     1    -111.117-174.906 306.160  1.00  0.00     0.041 C 
BRANCH  13  14
HETATM   14  C9  UNL     1    -110.011-175.461 305.275  1.00  0.00     0.015 C 
BRANCH  14  15
HETATM   15  C10 UNL     1    -110.607-175.685 303.883  1.00  0.00     0.085 C 
HETATM   16 BR1  UNL     1    -110.065-177.432 303.228  1.00  0.00    -0.097 Br
ENDBRANCH  14  15
ENDBRANCH  13  14
ENDBRANCH  10  13
TORSDOF 3
ENDMDL
