MODEL 1
REMARK VINA RESULT: -7.591633092      0.000      0.000
REMARK  9 active torsions:
REMARK  status: ('A' for Active; 'I' for Inactive)
REMARK    1  A    between atoms: C2_2  and  C3_3 
REMARK    2  A    between atoms: C3_3  and  C4_4 
REMARK    3  A    between atoms: C4_4  and  N1_5 
REMARK       I    between atoms: N1_5  and  C5_7 
REMARK       I    between atoms: C5_7  and  N2_9 
REMARK    4  A    between atoms: N3_12  and  C8_13 
REMARK    5  A    between atoms: C8_13  and  O2_14 
REMARK    6  A    between atoms: C8_13  and  N4_16 
REMARK    7  A    between atoms: N4_16  and  C9_18 
REMARK    8  A    between atoms: C9_18  and  C10_19 
REMARK    9  A    between atoms: C10_19  and  C11_20 
ROOT
HETATM    1  N1  UNL     1      40.708 -13.483  -2.685  1.00  0.00    -0.343 N 
ATOM      2  H1  UNL     1      40.364 -13.665  -3.628  1.00  0.00     0.164 HD
HETATM    3  C5  UNL     1      40.111 -14.189  -1.617  1.00  0.00     0.318 C 
HETATM    4  O1  UNL     1      40.515 -13.980  -0.444  1.00  0.00    -0.247 OA
HETATM    5  N2  UNL     1      39.056 -15.143  -1.811  1.00  0.00    -0.330 N 
HETATM    6  C6  UNL     1      38.493 -15.494  -3.067  1.00  0.00     0.147 C 
HETATM    7  C7  UNL     1      38.187 -16.958  -3.269  1.00  0.00     0.147 C 
HETATM    8  N3  UNL     1      37.767 -17.566  -1.979  1.00  0.00    -0.335 N 
HETATM    9  C14 UNL     1      38.650 -17.295  -0.923  1.00  0.00     0.052 C 
HETATM   10  C15 UNL     1      38.887 -18.168   0.225  1.00  0.00     0.033 C 
HETATM   11  C16 UNL     1      40.372 -17.776   0.146  1.00  0.00     0.005 C 
HETATM   12  C17 UNL     1      40.110 -17.624  -1.349  1.00  0.00     0.033 C 
HETATM   13  C18 UNL     1      38.509 -15.807  -0.610  1.00  0.00     0.158 C 
ENDROOT
BRANCH   8  14
HETATM   14  C8  UNL     1      36.587 -18.311  -1.932  1.00  0.00     0.215 C 
BRANCH  14  15
HETATM   15  O2  UNL     1      36.230 -18.850  -3.060  1.00  0.00    -0.333 OA
ATOM     16  H2  UNL     1      35.335 -19.167  -3.090  1.00  0.00     0.220 HD
ENDBRANCH  14  15
BRANCH  14  17
HETATM   17  N4  UNL     1      35.769 -18.527  -0.805  1.00  0.00    -0.356 N 
ATOM     18  H4  UNL     1      36.092 -19.158  -0.072  1.00  0.00     0.163 HD
BRANCH  17  19
HETATM   19  C9  UNL     1      34.493 -17.886  -0.658  1.00  0.00     0.123 C 
BRANCH  19  20
HETATM   20  C10 UNL     1      34.600 -16.723   0.291  1.00  0.00     0.023 C 
BRANCH  20  21
HETATM   21  C11 UNL     1      33.248 -15.983   0.339  1.00  0.00    -0.021 C 
HETATM   22  C12 UNL     1      33.036 -15.381   1.692  1.00  0.00     0.009 C 
HETATM   23  C13 UNL     1      32.197 -16.969  -0.064  1.00  0.00     0.009 C 
ENDBRANCH  20  21
ENDBRANCH  19  20
ENDBRANCH  17  19
ENDBRANCH  14  17
ENDBRANCH   8  14
BRANCH   1  24
HETATM   24  C4  UNL     1      41.762 -12.533  -2.530  1.00  0.00     0.124 C 
BRANCH  24  25
HETATM   25  C3  UNL     1      41.243 -11.116  -2.479  1.00  0.00     0.019 C 
BRANCH  25  26
HETATM   26  C2  UNL     1      41.273 -10.593  -1.054  1.00  0.00    -0.003 C 
HETATM   27  C1  UNL     1      39.878 -10.493  -0.475  1.00  0.00     0.005 C 
ENDBRANCH  25  26
ENDBRANCH  24  25
ENDBRANCH   1  24
TORSDOF 9
ENDMDL
MODEL 2
REMARK VINA RESULT: -7.523940681      1.478      6.963
REMARK  9 active torsions:
REMARK  status: ('A' for Active; 'I' for Inactive)
REMARK    1  A    between atoms: C2_2  and  C3_3 
REMARK    2  A    between atoms: C3_3  and  C4_4 
REMARK    3  A    between atoms: C4_4  and  N1_5 
REMARK       I    between atoms: N1_5  and  C5_7 
REMARK       I    between atoms: C5_7  and  N2_9 
REMARK    4  A    between atoms: N3_12  and  C8_13 
REMARK    5  A    between atoms: C8_13  and  O2_14 
REMARK    6  A    between atoms: C8_13  and  N4_16 
REMARK    7  A    between atoms: N4_16  and  C9_18 
REMARK    8  A    between atoms: C9_18  and  C10_19 
REMARK    9  A    between atoms: C10_19  and  C11_20 
ROOT
HETATM    1  N1  UNL     1      35.490 -16.881  -0.409  1.00  0.00    -0.343 N 
ATOM      2  H1  UNL     1      35.328 -15.893  -0.212  1.00  0.00     0.164 HD
HETATM    3  C5  UNL     1      36.759 -17.257  -0.902  1.00  0.00     0.318 C 
HETATM    4  O1  UNL     1      36.982 -18.469  -1.156  1.00  0.00    -0.247 OA
HETATM    5  N2  UNL     1      37.816 -16.311  -1.126  1.00  0.00    -0.330 N 
HETATM    6  C6  UNL     1      37.726 -14.914  -0.885  1.00  0.00     0.147 C 
HETATM    7  C7  UNL     1      38.944 -14.269  -0.270  1.00  0.00     0.147 C 
HETATM    8  N3  UNL     1      40.172 -14.943  -0.765  1.00  0.00    -0.335 N 
HETATM    9  C14 UNL     1      40.129 -16.340  -0.644  1.00  0.00     0.052 C 
HETATM   10  C15 UNL     1      41.288 -17.207  -0.446  1.00  0.00     0.033 C 
HETATM   11  C16 UNL     1      40.423 -18.053   0.504  1.00  0.00     0.005 C 
HETATM   12  C17 UNL     1      39.709 -16.738   0.801  1.00  0.00     0.033 C 
HETATM   13  C18 UNL     1      39.094 -16.831  -1.653  1.00  0.00     0.158 C 
ENDROOT
BRANCH   8  14
HETATM   14  C8  UNL     1      41.209 -14.166  -1.286  1.00  0.00     0.215 C 
BRANCH  14  15
HETATM   15  O2  UNL     1      41.191 -14.016  -2.578  1.00  0.00    -0.333 OA
ATOM     16  H2  UNL     1      42.030 -13.810  -2.972  1.00  0.00     0.220 HD
ENDBRANCH  14  15
BRANCH  14  17
HETATM   17  N4  UNL     1      42.248 -13.548  -0.561  1.00  0.00    -0.356 N 
ATOM     18  H4  UNL     1      42.913 -14.131  -0.054  1.00  0.00     0.163 HD
BRANCH  17  19
HETATM   19  C9  UNL     1      42.399 -12.120  -0.516  1.00  0.00     0.123 C 
BRANCH  19  20
HETATM   20  C10 UNL     1      41.071 -11.464  -0.253  1.00  0.00     0.023 C 
BRANCH  20  21
HETATM   21  C11 UNL     1      41.089 -10.036  -0.834  1.00  0.00    -0.021 C 
HETATM   22  C12 UNL     1      39.843  -9.304  -0.445  1.00  0.00     0.009 C 
HETATM   23  C13 UNL     1      41.285 -10.169  -2.310  1.00  0.00     0.009 C 
ENDBRANCH  20  21
ENDBRANCH  19  20
ENDBRANCH  17  19
ENDBRANCH  14  17
ENDBRANCH   8  14
BRANCH   1  24
HETATM   24  C4  UNL     1      34.419 -17.793  -0.169  1.00  0.00     0.124 C 
BRANCH  24  25
HETATM   25  C3  UNL     1      33.144 -17.081   0.214  1.00  0.00     0.019 C 
BRANCH  25  26
HETATM   26  C2  UNL     1      33.449 -15.678   0.707  1.00  0.00    -0.003 C 
HETATM   27  C1  UNL     1      32.186 -14.954   1.121  1.00  0.00     0.005 C 
ENDBRANCH  25  26
ENDBRANCH  24  25
ENDBRANCH   1  24
TORSDOF 9
ENDMDL
MODEL 3
REMARK VINA RESULT: -6.867934977      1.356      1.843
REMARK  9 active torsions:
REMARK  status: ('A' for Active; 'I' for Inactive)
REMARK    1  A    between atoms: C2_2  and  C3_3 
REMARK    2  A    between atoms: C3_3  and  C4_4 
REMARK    3  A    between atoms: C4_4  and  N1_5 
REMARK       I    between atoms: N1_5  and  C5_7 
REMARK       I    between atoms: C5_7  and  N2_9 
REMARK    4  A    between atoms: N3_12  and  C8_13 
REMARK    5  A    between atoms: C8_13  and  O2_14 
REMARK    6  A    between atoms: C8_13  and  N4_16 
REMARK    7  A    between atoms: N4_16  and  C9_18 
REMARK    8  A    between atoms: C9_18  and  C10_19 
REMARK    9  A    between atoms: C10_19  and  C11_20 
ROOT
HETATM    1  N1  UNL     1      40.421 -13.519  -1.839  1.00  0.00    -0.343 N 
ATOM      2  H1  UNL     1      40.377 -13.636  -2.852  1.00  0.00     0.164 HD
HETATM    3  C5  UNL     1      39.554 -14.302  -1.045  1.00  0.00     0.318 C 
HETATM    4  O1  UNL     1      39.587 -14.174   0.205  1.00  0.00    -0.247 OA
HETATM    5  N2  UNL     1      38.630 -15.247  -1.606  1.00  0.00    -0.330 N 
HETATM    6  C6  UNL     1      38.474 -15.513  -2.993  1.00  0.00     0.147 C 
HETATM    7  C7  UNL     1      38.281 -16.961  -3.372  1.00  0.00     0.147 C 
HETATM    8  N3  UNL     1      37.515 -17.660  -2.307  1.00  0.00    -0.335 N 
HETATM    9  C14 UNL     1      38.038 -17.459  -1.021  1.00  0.00     0.052 C 
HETATM   10  C15 UNL     1      37.948 -18.409   0.085  1.00  0.00     0.033 C 
HETATM   11  C16 UNL     1      39.379 -18.002   0.477  1.00  0.00     0.005 C 
HETATM   12  C17 UNL     1      39.567 -17.748  -1.015  1.00  0.00     0.033 C 
HETATM   13  C18 UNL     1      37.770 -15.998  -0.668  1.00  0.00     0.158 C 
ENDROOT
BRANCH   8  14
HETATM   14  C8  UNL     1      36.395 -18.415  -2.662  1.00  0.00     0.215 C 
BRANCH  14  15
HETATM   15  O2  UNL     1      36.391 -18.856  -3.885  1.00  0.00    -0.333 OA
ATOM     16  H2  UNL     1      35.598 -19.306  -4.149  1.00  0.00     0.220 HD
ENDBRANCH  14  15
BRANCH  14  17
HETATM   17  N4  UNL     1      35.296 -18.734  -1.838  1.00  0.00    -0.356 N 
ATOM     18  H4  UNL     1      35.409 -18.698  -0.826  1.00  0.00     0.163 HD
BRANCH  17  19
HETATM   19  C9  UNL     1      34.021 -19.108  -2.383  1.00  0.00     0.123 C 
BRANCH  19  20
HETATM   20  C10 UNL     1      33.086 -19.526  -1.280  1.00  0.00     0.023 C 
BRANCH  20  21
HETATM   21  C11 UNL     1      31.737 -18.801  -1.459  1.00  0.00    -0.021 C 
HETATM   22  C12 UNL     1      31.437 -18.620  -2.914  1.00  0.00     0.009 C 
HETATM   23  C13 UNL     1      31.823 -17.523  -0.688  1.00  0.00     0.009 C 
ENDBRANCH  20  21
ENDBRANCH  19  20
ENDBRANCH  17  19
ENDBRANCH  14  17
ENDBRANCH   8  14
BRANCH   1  24
HETATM   24  C4  UNL     1      41.355 -12.575  -1.317  1.00  0.00     0.124 C 
BRANCH  24  25
HETATM   25  C3  UNL     1      40.909 -11.151  -1.546  1.00  0.00     0.019 C 
BRANCH  25  26
HETATM   26  C2  UNL     1      40.044 -10.676  -0.392  1.00  0.00    -0.003 C 
HETATM   27  C1  UNL     1      39.844  -9.177  -0.437  1.00  0.00     0.005 C 
ENDBRANCH  25  26
ENDBRANCH  24  25
ENDBRANCH   1  24
TORSDOF 9
ENDMDL
MODEL 4
REMARK VINA RESULT: -6.776753621      1.903      7.406
REMARK  9 active torsions:
REMARK  status: ('A' for Active; 'I' for Inactive)
REMARK    1  A    between atoms: C2_2  and  C3_3 
REMARK    2  A    between atoms: C3_3  and  C4_4 
REMARK    3  A    between atoms: C4_4  and  N1_5 
REMARK       I    between atoms: N1_5  and  C5_7 
REMARK       I    between atoms: C5_7  and  N2_9 
REMARK    4  A    between atoms: N3_12  and  C8_13 
REMARK    5  A    between atoms: C8_13  and  O2_14 
REMARK    6  A    between atoms: C8_13  and  N4_16 
REMARK    7  A    between atoms: N4_16  and  C9_18 
REMARK    8  A    between atoms: C9_18  and  C10_19 
REMARK    9  A    between atoms: C10_19  and  C11_20 
ROOT
HETATM    1  N1  UNL     1      35.839 -19.613   0.023  1.00  0.00    -0.343 N 
ATOM      2  H1  UNL     1      36.577 -20.146   0.483  1.00  0.00     0.164 HD
HETATM    3  C5  UNL     1      36.135 -18.295  -0.390  1.00  0.00     0.318 C 
HETATM    4  O1  UNL     1      35.241 -17.617  -0.957  1.00  0.00    -0.247 OA
HETATM    5  N2  UNL     1      37.422 -17.690  -0.191  1.00  0.00    -0.330 N 
HETATM    6  C6  UNL     1      38.534 -18.322   0.426  1.00  0.00     0.147 C 
HETATM    7  C7  UNL     1      39.879 -18.064  -0.210  1.00  0.00     0.147 C 
HETATM    8  N3  UNL     1      39.916 -16.685  -0.763  1.00  0.00    -0.335 N 
HETATM    9  C14 UNL     1      38.817 -16.383  -1.581  1.00  0.00     0.052 C 
HETATM   10  C15 UNL     1      38.830 -15.448  -2.704  1.00  0.00     0.033 C 
HETATM   11  C16 UNL     1      37.907 -16.423  -3.455  1.00  0.00     0.005 C 
HETATM   12  C17 UNL     1      38.618 -17.502  -2.644  1.00  0.00     0.033 C 
HETATM   13  C18 UNL     1      37.601 -16.301  -0.660  1.00  0.00     0.158 C 
ENDROOT
BRANCH   8  14
HETATM   14  C8  UNL     1      40.985 -15.850  -0.434  1.00  0.00     0.215 C 
BRANCH  14  15
HETATM   15  O2  UNL     1      41.216 -15.726   0.840  1.00  0.00    -0.333 OA
ATOM     16  H2  UNL     1      41.237 -14.832   1.161  1.00  0.00     0.220 HD
ENDBRANCH  14  15
BRANCH  14  17
HETATM   17  N4  UNL     1      41.816 -15.147  -1.330  1.00  0.00    -0.356 N 
ATOM     18  H4  UNL     1      42.162 -15.624  -2.162  1.00  0.00     0.163 HD
BRANCH  17  19
HETATM   19  C9  UNL     1      42.189 -13.778  -1.106  1.00  0.00     0.123 C 
BRANCH  19  20
HETATM   20  C10 UNL     1      41.366 -12.865  -1.974  1.00  0.00     0.023 C 
BRANCH  20  21
HETATM   21  C11 UNL     1      40.645 -11.835  -1.082  1.00  0.00    -0.021 C 
HETATM   22  C12 UNL     1      41.614 -11.206  -0.131  1.00  0.00     0.009 C 
HETATM   23  C13 UNL     1      39.512 -12.550  -0.419  1.00  0.00     0.009 C 
ENDBRANCH  20  21
ENDBRANCH  19  20
ENDBRANCH  17  19
ENDBRANCH  14  17
ENDBRANCH   8  14
BRANCH   1  24
HETATM   24  C4  UNL     1      34.575 -20.248  -0.163  1.00  0.00     0.124 C 
BRANCH  24  25
HETATM   25  C3  UNL     1      33.782 -20.317   1.120  1.00  0.00     0.019 C 
BRANCH  25  26
HETATM   26  C2  UNL     1      32.788 -19.171   1.189  1.00  0.00    -0.003 C 
HETATM   27  C1  UNL     1      31.991 -19.213   2.475  1.00  0.00     0.005 C 
ENDBRANCH  25  26
ENDBRANCH  24  25
ENDBRANCH   1  24
TORSDOF 9
ENDMDL
MODEL 5
REMARK VINA RESULT: -6.745100037      2.065      7.370
REMARK  9 active torsions:
REMARK  status: ('A' for Active; 'I' for Inactive)
REMARK    1  A    between atoms: C2_2  and  C3_3 
REMARK    2  A    between atoms: C3_3  and  C4_4 
REMARK    3  A    between atoms: C4_4  and  N1_5 
REMARK       I    between atoms: N1_5  and  C5_7 
REMARK       I    between atoms: C5_7  and  N2_9 
REMARK    4  A    between atoms: N3_12  and  C8_13 
REMARK    5  A    between atoms: C8_13  and  O2_14 
REMARK    6  A    between atoms: C8_13  and  N4_16 
REMARK    7  A    between atoms: N4_16  and  C9_18 
REMARK    8  A    between atoms: C9_18  and  C10_19 
REMARK    9  A    between atoms: C10_19  and  C11_20 
ROOT
HETATM    1  N1  UNL     1      35.945 -19.417   0.066  1.00  0.00    -0.343 N 
ATOM      2  H1  UNL     1      36.679 -19.957   0.525  1.00  0.00     0.164 HD
HETATM    3  C5  UNL     1      36.260 -18.109  -0.365  1.00  0.00     0.318 C 
HETATM    4  O1  UNL     1      35.371 -17.421  -0.930  1.00  0.00    -0.247 OA
HETATM    5  N2  UNL     1      37.559 -17.525  -0.187  1.00  0.00    -0.330 N 
HETATM    6  C6  UNL     1      38.667 -18.170   0.425  1.00  0.00     0.147 C 
HETATM    7  C7  UNL     1      40.009 -17.943  -0.229  1.00  0.00     0.147 C 
HETATM    8  N3  UNL     1      40.064 -16.571  -0.798  1.00  0.00    -0.335 N 
HETATM    9  C14 UNL     1      38.961 -16.258  -1.606  1.00  0.00     0.052 C 
HETATM   10  C15 UNL     1      38.979 -15.336  -2.740  1.00  0.00     0.033 C 
HETATM   11  C16 UNL     1      38.030 -16.303  -3.470  1.00  0.00     0.005 C 
HETATM   12  C17 UNL     1      38.730 -17.385  -2.655  1.00  0.00     0.033 C 
HETATM   13  C18 UNL     1      37.758 -16.144  -0.674  1.00  0.00     0.158 C 
ENDROOT
BRANCH   8  14
HETATM   14  C8  UNL     1      41.152 -15.751  -0.489  1.00  0.00     0.215 C 
BRANCH  14  15
HETATM   15  O2  UNL     1      41.460 -15.695   0.773  1.00  0.00    -0.333 OA
ATOM     16  H2  UNL     1      40.965 -16.279   1.335  1.00  0.00     0.220 HD
ENDBRANCH  14  15
BRANCH  14  17
HETATM   17  N4  UNL     1      41.926 -14.998  -1.395  1.00  0.00    -0.356 N 
ATOM     18  H4  UNL     1      42.237 -15.434  -2.263  1.00  0.00     0.163 HD
BRANCH  17  19
HETATM   19  C9  UNL     1      42.290 -13.634  -1.134  1.00  0.00     0.123 C 
BRANCH  19  20
HETATM   20  C10 UNL     1      41.376 -12.698  -1.879  1.00  0.00     0.023 C 
BRANCH  20  21
HETATM   21  C11 UNL     1      41.052 -11.487  -0.982  1.00  0.00    -0.021 C 
HETATM   22  C12 UNL     1      39.723 -11.675  -0.320  1.00  0.00     0.009 C 
HETATM   23  C13 UNL     1      41.139 -10.269  -1.846  1.00  0.00     0.009 C 
ENDBRANCH  20  21
ENDBRANCH  19  20
ENDBRANCH  17  19
ENDBRANCH  14  17
ENDBRANCH   8  14
BRANCH   1  24
HETATM   24  C4  UNL     1      34.668 -20.031  -0.098  1.00  0.00     0.124 C 
BRANCH  24  25
HETATM   25  C3  UNL     1      34.626 -20.935  -1.307  1.00  0.00     0.019 C 
BRANCH  25  26
HETATM   26  C2  UNL     1      33.982 -20.219  -2.481  1.00  0.00    -0.003 C 
HETATM   27  C1  UNL     1      35.014 -19.815  -3.512  1.00  0.00     0.005 C 
ENDBRANCH  25  26
ENDBRANCH  24  25
ENDBRANCH   1  24
TORSDOF 9
ENDMDL
