MODEL 1
REMARK VINA RESULT: -7.662755513      0.000      0.000
REMARK  6 active torsions:
REMARK  status: ('A' for Active; 'I' for Inactive)
REMARK    1  A    between atoms: C2_2  and  N1_3 
REMARK    2  A    between atoms: N2_6  and  C5_7 
REMARK    3  A    between atoms: C5_7  and  C6_8 
REMARK    4  A    between atoms: C6_8  and  C7_9 
REMARK    5  A    between atoms: C7_9  and  N3_10 
REMARK       I    between atoms: N3_10  and  C8_12 
REMARK       I    between atoms: C8_12  and  N5_16 
REMARK    6  A    between atoms: N5_16  and  C10_18 
ROOT
HETATM    1  N3  UNL     1      30.151 -15.648   3.254  1.00  0.00    -0.226 N 
ATOM      2  H3  UNL     1      29.608 -16.100   2.519  1.00  0.00     0.177 HD
HETATM    3  C8  UNL     1      31.453 -15.239   2.953  1.00  0.00     0.673 C 
HETATM    4  N4  UNL     1      32.387 -15.132   3.778  1.00  0.00    -0.231 N 
ATOM      5  H4  UNL     1      33.260 -14.820   3.356  1.00  0.00     0.177 HD
HETATM    6  C9  UNL     1      32.491 -15.352   5.168  1.00  0.00     0.165 C 
HETATM    7  N5  UNL     1      31.746 -14.908   1.574  1.00  0.00    -0.192 N 
ATOM      8  H5  UNL     1      31.486 -14.003   1.183  1.00  0.00     0.184 HD
ENDROOT
BRANCH   1   9
HETATM    9  C7  UNL     1      29.529 -15.469   4.545  1.00  0.00     0.139 C 
BRANCH   9  10
HETATM   10  C6  UNL     1      28.067 -15.951   4.461  1.00  0.00     0.040 C 
BRANCH  10  11
HETATM   11  C5  UNL     1      27.933 -16.821   3.239  1.00  0.00     0.129 C 
BRANCH  11  12
HETATM   12  N2  UNL     1      27.925 -18.225   3.565  1.00  0.00    -0.333 N 
HETATM   13  C4  UNL     1      26.902 -19.022   4.187  1.00  0.00     0.147 C 
HETATM   14  C3  UNL     1      27.681 -20.126   4.857  1.00  0.00     0.147 C 
HETATM   15  N1  UNL     1      28.715 -20.362   3.838  1.00  0.00    -0.333 N 
HETATM   16  C19 UNL     1      29.030 -19.085   3.288  1.00  0.00     0.320 C 
HETATM   17  O1  UNL     1      30.093 -18.779   2.672  1.00  0.00    -0.247 OA
BRANCH  15  18
HETATM   18  C2  UNL     1      29.307 -21.609   3.451  1.00  0.00     0.123 C 
HETATM   19  C1  UNL     1      30.519 -21.936   4.320  1.00  0.00     0.026 C 
ENDBRANCH  15  18
ENDBRANCH  11  12
ENDBRANCH  10  11
ENDBRANCH   9  10
ENDBRANCH   1   9
BRANCH   7  20
HETATM   20  C10 UNL     1      32.405 -15.881   0.790  1.00  0.00     0.050 A 
HETATM   21  C11 UNL     1      31.699 -16.822   0.054  1.00  0.00     0.037 A 
HETATM   22  C12 UNL     1      32.337 -17.777  -0.716  1.00  0.00    -0.053 A 
HETATM   23  C13 UNL     1      31.598 -18.792  -1.510  1.00  0.00     0.049 C 
HETATM   24  C14 UNL     1      33.722 -17.773  -0.737  1.00  0.00    -0.050 A 
HETATM   25  C15 UNL     1      34.413 -18.784  -1.551  1.00  0.00     0.049 C 
HETATM   26  C16 UNL     1      34.473 -16.863  -0.025  1.00  0.00    -0.053 A 
HETATM   27  C17 UNL     1      35.958 -16.887  -0.069  1.00  0.00     0.049 C 
HETATM   28  C18 UNL     1      33.778 -15.931   0.728  1.00  0.00     0.037 A 
ENDBRANCH   7  20
TORSDOF 6
ENDMDL
MODEL 2
REMARK VINA RESULT: -7.652338068      0.072      1.702
REMARK  6 active torsions:
REMARK  status: ('A' for Active; 'I' for Inactive)
REMARK    1  A    between atoms: C2_2  and  N1_3 
REMARK    2  A    between atoms: N2_6  and  C5_7 
REMARK    3  A    between atoms: C5_7  and  C6_8 
REMARK    4  A    between atoms: C6_8  and  C7_9 
REMARK    5  A    between atoms: C7_9  and  N3_10 
REMARK       I    between atoms: N3_10  and  C8_12 
REMARK       I    between atoms: C8_12  and  N5_16 
REMARK    6  A    between atoms: N5_16  and  C10_18 
ROOT
HETATM    1  N3  UNL     1      30.156 -15.635   3.260  1.00  0.00    -0.226 N 
ATOM      2  H3  UNL     1      29.621 -16.088   2.520  1.00  0.00     0.177 HD
HETATM    3  C8  UNL     1      31.461 -15.222   2.970  1.00  0.00     0.673 C 
HETATM    4  N4  UNL     1      32.386 -15.113   3.804  1.00  0.00    -0.231 N 
ATOM      5  H4  UNL     1      33.263 -14.798   3.389  1.00  0.00     0.177 HD
HETATM    6  C9  UNL     1      32.479 -15.332   5.194  1.00  0.00     0.165 C 
HETATM    7  N5  UNL     1      31.764 -14.890   1.594  1.00  0.00    -0.192 N 
ATOM      8  H5  UNL     1      31.505 -13.986   1.200  1.00  0.00     0.184 HD
ENDROOT
BRANCH   1   9
HETATM    9  C7  UNL     1      29.523 -15.457   4.546  1.00  0.00     0.139 C 
BRANCH   9  10
HETATM   10  C6  UNL     1      28.093 -16.026   4.474  1.00  0.00     0.040 C 
BRANCH  10  11
HETATM   11  C5  UNL     1      27.989 -16.873   3.234  1.00  0.00     0.129 C 
BRANCH  11  12
HETATM   12  N2  UNL     1      27.988 -18.283   3.533  1.00  0.00    -0.333 N 
HETATM   13  C4  UNL     1      26.959 -19.102   4.116  1.00  0.00     0.147 C 
HETATM   14  C3  UNL     1      27.734 -20.212   4.781  1.00  0.00     0.147 C 
HETATM   15  N1  UNL     1      28.793 -20.418   3.781  1.00  0.00    -0.333 N 
HETATM   16  C19 UNL     1      29.108 -19.128   3.264  1.00  0.00     0.320 C 
HETATM   17  O1  UNL     1      30.181 -18.800   2.678  1.00  0.00    -0.247 OA
BRANCH  15  18
HETATM   18  C2  UNL     1      29.405 -21.652   3.384  1.00  0.00     0.123 C 
HETATM   19  C1  UNL     1      30.592 -21.992   4.283  1.00  0.00     0.026 C 
ENDBRANCH  15  18
ENDBRANCH  11  12
ENDBRANCH  10  11
ENDBRANCH   9  10
ENDBRANCH   1   9
BRANCH   7  20
HETATM   20  C10 UNL     1      32.433 -15.862   0.816  1.00  0.00     0.050 A 
HETATM   21  C11 UNL     1      33.818 -15.908   0.742  1.00  0.00     0.037 A 
HETATM   22  C12 UNL     1      34.479 -16.856  -0.017  1.00  0.00    -0.053 A 
HETATM   23  C13 UNL     1      35.960 -16.920  -0.107  1.00  0.00     0.049 C 
HETATM   24  C14 UNL     1      33.714 -17.775  -0.716  1.00  0.00    -0.050 A 
HETATM   25  C15 UNL     1      34.405 -18.788  -1.527  1.00  0.00     0.049 C 
HETATM   26  C16 UNL     1      32.337 -17.775  -0.680  1.00  0.00    -0.053 A 
HETATM   27  C17 UNL     1      31.546 -18.776  -1.441  1.00  0.00     0.049 C 
HETATM   28  C18 UNL     1      31.731 -16.802   0.099  1.00  0.00     0.037 A 
ENDBRANCH   7  20
TORSDOF 6
ENDMDL
MODEL 3
REMARK VINA RESULT: -7.552682565      8.661     11.357
REMARK  6 active torsions:
REMARK  status: ('A' for Active; 'I' for Inactive)
REMARK    1  A    between atoms: C2_2  and  N1_3 
REMARK    2  A    between atoms: N2_6  and  C5_7 
REMARK    3  A    between atoms: C5_7  and  C6_8 
REMARK    4  A    between atoms: C6_8  and  C7_9 
REMARK    5  A    between atoms: C7_9  and  N3_10 
REMARK       I    between atoms: N3_10  and  C8_12 
REMARK       I    between atoms: C8_12  and  N5_16 
REMARK    6  A    between atoms: N5_16  and  C10_18 
ROOT
HETATM    1  N3  UNL     1      38.331 -16.113  -0.863  1.00  0.00    -0.226 N 
ATOM      2  H3  UNL     1      37.664 -15.436  -1.232  1.00  0.00     0.177 HD
HETATM    3  C8  UNL     1      39.511 -15.628  -0.290  1.00  0.00     0.673 C 
HETATM    4  N4  UNL     1      40.597 -16.247  -0.239  1.00  0.00    -0.231 N 
ATOM      5  H4  UNL     1      41.338 -15.717   0.219  1.00  0.00     0.177 HD
HETATM    6  C9  UNL     1      41.017 -17.519  -0.679  1.00  0.00     0.165 C 
HETATM    7  N5  UNL     1      39.474 -14.304   0.293  1.00  0.00    -0.192 N 
ATOM      8  H5  UNL     1      39.086 -14.148   1.223  1.00  0.00     0.184 HD
ENDROOT
BRANCH   1   9
HETATM    9  C7  UNL     1      38.001 -17.516  -0.961  1.00  0.00     0.139 C 
BRANCH   9  10
HETATM   10  C6  UNL     1      37.169 -17.738  -2.239  1.00  0.00     0.040 C 
BRANCH  10  11
HETATM   11  C5  UNL     1      38.119 -17.830  -3.404  1.00  0.00     0.129 C 
BRANCH  11  12
HETATM   12  N2  UNL     1      37.707 -17.005  -4.512  1.00  0.00    -0.333 N 
HETATM   13  C4  UNL     1      36.940 -17.344  -5.680  1.00  0.00     0.147 C 
HETATM   14  C3  UNL     1      37.419 -16.351  -6.710  1.00  0.00     0.147 C 
HETATM   15  N1  UNL     1      37.562 -15.157  -5.865  1.00  0.00    -0.333 N 
HETATM   16  C19 UNL     1      38.035 -15.618  -4.602  1.00  0.00     0.320 C 
HETATM   17  O1  UNL     1      38.632 -14.922  -3.729  1.00  0.00    -0.247 OA
BRANCH  15  18
HETATM   18  C2  UNL     1      37.290 -13.792  -6.210  1.00  0.00     0.123 C 
HETATM   19  C1  UNL     1      38.512 -13.131  -6.844  1.00  0.00     0.026 C 
ENDBRANCH  15  18
ENDBRANCH  11  12
ENDBRANCH  10  11
ENDBRANCH   9  10
ENDBRANCH   1   9
BRANCH   7  20
HETATM   20  C10 UNL     1      39.995 -13.234  -0.469  1.00  0.00     0.050 A 
HETATM   21  C11 UNL     1      40.698 -13.454  -1.646  1.00  0.00     0.037 A 
HETATM   22  C12 UNL     1      41.210 -12.412  -2.397  1.00  0.00    -0.053 A 
HETATM   23  C13 UNL     1      41.964 -12.629  -3.659  1.00  0.00     0.049 C 
HETATM   24  C14 UNL     1      41.001 -11.121  -1.941  1.00  0.00    -0.050 A 
HETATM   25  C15 UNL     1      41.542 -10.005  -2.731  1.00  0.00     0.049 C 
HETATM   26  C16 UNL     1      40.313 -10.845  -0.781  1.00  0.00    -0.053 A 
HETATM   27  C17 UNL     1      40.107  -9.447  -0.320  1.00  0.00     0.049 C 
HETATM   28  C18 UNL     1      39.823 -11.930  -0.071  1.00  0.00     0.037 A 
ENDBRANCH   7  20
TORSDOF 6
ENDMDL
MODEL 4
REMARK VINA RESULT: -7.515464249      8.675     11.384
REMARK  6 active torsions:
REMARK  status: ('A' for Active; 'I' for Inactive)
REMARK    1  A    between atoms: C2_2  and  N1_3 
REMARK    2  A    between atoms: N2_6  and  C5_7 
REMARK    3  A    between atoms: C5_7  and  C6_8 
REMARK    4  A    between atoms: C6_8  and  C7_9 
REMARK    5  A    between atoms: C7_9  and  N3_10 
REMARK       I    between atoms: N3_10  and  C8_12 
REMARK       I    between atoms: C8_12  and  N5_16 
REMARK    6  A    between atoms: N5_16  and  C10_18 
ROOT
HETATM    1  N3  UNL     1      38.343 -16.085  -0.872  1.00  0.00    -0.226 N 
ATOM      2  H3  UNL     1      37.673 -15.412  -1.243  1.00  0.00     0.177 HD
HETATM    3  C8  UNL     1      39.519 -15.594  -0.295  1.00  0.00     0.673 C 
HETATM    4  N4  UNL     1      40.608 -16.206  -0.242  1.00  0.00    -0.231 N 
ATOM      5  H4  UNL     1      41.345 -15.673   0.220  1.00  0.00     0.177 HD
HETATM    6  C9  UNL     1      41.037 -17.476  -0.681  1.00  0.00     0.165 C 
HETATM    7  N5  UNL     1      39.472 -14.271   0.290  1.00  0.00    -0.192 N 
ATOM      8  H5  UNL     1      39.080 -14.119   1.219  1.00  0.00     0.184 HD
ENDROOT
BRANCH   1   9
HETATM    9  C7  UNL     1      38.022 -17.490  -0.973  1.00  0.00     0.139 C 
BRANCH   9  10
HETATM   10  C6  UNL     1      37.177 -17.713  -2.243  1.00  0.00     0.040 C 
BRANCH  10  11
HETATM   11  C5  UNL     1      38.116 -17.827  -3.414  1.00  0.00     0.129 C 
BRANCH  11  12
HETATM   12  N2  UNL     1      37.709 -17.002  -4.524  1.00  0.00    -0.333 N 
HETATM   13  C4  UNL     1      36.944 -17.341  -5.693  1.00  0.00     0.147 C 
HETATM   14  C3  UNL     1      37.428 -16.351  -6.724  1.00  0.00     0.147 C 
HETATM   15  N1  UNL     1      37.573 -15.156  -5.880  1.00  0.00    -0.333 N 
HETATM   16  C19 UNL     1      38.042 -15.616  -4.615  1.00  0.00     0.320 C 
HETATM   17  O1  UNL     1      38.639 -14.921  -3.742  1.00  0.00    -0.247 OA
BRANCH  15  18
HETATM   18  C2  UNL     1      37.306 -13.791  -6.227  1.00  0.00     0.123 C 
HETATM   19  C1  UNL     1      38.532 -13.132  -6.856  1.00  0.00     0.026 C 
ENDBRANCH  15  18
ENDBRANCH  11  12
ENDBRANCH  10  11
ENDBRANCH   9  10
ENDBRANCH   1   9
BRANCH   7  20
HETATM   20  C10 UNL     1      39.988 -13.197  -0.470  1.00  0.00     0.050 A 
HETATM   21  C11 UNL     1      39.823 -11.878  -0.071  1.00  0.00     0.037 A 
HETATM   22  C12 UNL     1      40.326 -10.822  -0.809  1.00  0.00    -0.053 A 
HETATM   23  C13 UNL     1      40.158  -9.405  -0.397  1.00  0.00     0.049 C 
HETATM   24  C14 UNL     1      41.012 -11.116  -1.976  1.00  0.00    -0.050 A 
HETATM   25  C15 UNL     1      41.550 -10.002  -2.770  1.00  0.00     0.049 C 
HETATM   26  C16 UNL     1      41.204 -12.405  -2.419  1.00  0.00    -0.053 A 
HETATM   27  C17 UNL     1      41.945 -12.686  -3.677  1.00  0.00     0.049 C 
HETATM   28  C18 UNL     1      40.678 -13.421  -1.638  1.00  0.00     0.037 A 
ENDBRANCH   7  20
TORSDOF 6
ENDMDL
MODEL 5
REMARK VINA RESULT: -7.460221620      5.475      8.356
REMARK  6 active torsions:
REMARK  status: ('A' for Active; 'I' for Inactive)
REMARK    1  A    between atoms: C2_2  and  N1_3 
REMARK    2  A    between atoms: N2_6  and  C5_7 
REMARK    3  A    between atoms: C5_7  and  C6_8 
REMARK    4  A    between atoms: C6_8  and  C7_9 
REMARK    5  A    between atoms: C7_9  and  N3_10 
REMARK       I    between atoms: N3_10  and  C8_12 
REMARK       I    between atoms: C8_12  and  N5_16 
REMARK    6  A    between atoms: N5_16  and  C10_18 
ROOT
HETATM    1  N3  UNL     1      37.620 -15.702  -0.718  1.00  0.00    -0.226 N 
ATOM      2  H3  UNL     1      37.052 -14.858  -0.786  1.00  0.00     0.177 HD
HETATM    3  C8  UNL     1      38.987 -15.556  -0.462  1.00  0.00     0.673 C 
HETATM    4  N4  UNL     1      39.877 -16.362  -0.811  1.00  0.00    -0.231 N 
ATOM      5  H4  UNL     1      40.813 -16.071  -0.528  1.00  0.00     0.177 HD
HETATM    6  C9  UNL     1      39.867 -17.586  -1.512  1.00  0.00     0.165 C 
HETATM    7  N5  UNL     1      39.406 -14.380   0.269  1.00  0.00    -0.192 N 
ATOM      8  H5  UNL     1      39.320 -14.331   1.284  1.00  0.00     0.184 HD
ENDROOT
BRANCH   1   9
HETATM    9  C7  UNL     1      36.965 -16.978  -0.891  1.00  0.00     0.139 C 
BRANCH   9  10
HETATM   10  C6  UNL     1      35.969 -17.183   0.267  1.00  0.00     0.040 C 
BRANCH  10  11
HETATM   11  C5  UNL     1      34.682 -16.491  -0.097  1.00  0.00     0.129 C 
BRANCH  11  12
HETATM   12  N2  UNL     1      33.654 -16.689   0.894  1.00  0.00    -0.333 N 
HETATM   13  C4  UNL     1      33.228 -17.895   1.552  1.00  0.00     0.147 C 
HETATM   14  C3  UNL     1      31.785 -17.613   1.892  1.00  0.00     0.147 C 
HETATM   15  N1  UNL     1      31.885 -16.195   2.269  1.00  0.00    -0.333 N 
HETATM   16  C19 UNL     1      32.854 -15.619   1.398  1.00  0.00     0.320 C 
HETATM   17  O1  UNL     1      32.977 -14.388   1.127  1.00  0.00    -0.247 OA
BRANCH  15  18
HETATM   18  C2  UNL     1      31.167 -15.502   3.299  1.00  0.00     0.123 C 
HETATM   19  C1  UNL     1      32.075 -15.185   4.484  1.00  0.00     0.026 C 
ENDBRANCH  15  18
ENDBRANCH  11  12
ENDBRANCH  10  11
ENDBRANCH   9  10
ENDBRANCH   1   9
BRANCH   7  20
HETATM   20  C10 UNL     1      39.939 -13.301  -0.471  1.00  0.00     0.050 A 
HETATM   21  C11 UNL     1      40.637 -13.504  -1.653  1.00  0.00     0.037 A 
HETATM   22  C12 UNL     1      41.162 -12.454  -2.383  1.00  0.00    -0.053 A 
HETATM   23  C13 UNL     1      41.911 -12.653  -3.650  1.00  0.00     0.049 C 
HETATM   24  C14 UNL     1      40.970 -11.170  -1.900  1.00  0.00    -0.050 A 
HETATM   25  C15 UNL     1      41.524 -10.044  -2.667  1.00  0.00     0.049 C 
HETATM   26  C16 UNL     1      40.287 -10.910  -0.733  1.00  0.00    -0.053 A 
HETATM   27  C17 UNL     1      40.100  -9.520  -0.242  1.00  0.00     0.049 C 
HETATM   28  C18 UNL     1      39.785 -12.003  -0.045  1.00  0.00     0.037 A 
ENDBRANCH   7  20
TORSDOF 6
ENDMDL
