MODEL 1
REMARK VINA RESULT: -6.605279556      0.000      0.000
REMARK  8 active torsions:
REMARK  status: ('A' for Active; 'I' for Inactive)
REMARK    1  A    between atoms: C4_4  and  C5_5 
REMARK    2  A    between atoms: C5_5  and  C7_7 
REMARK    3  A    between atoms: C10_12  and  O3_13 
REMARK    4  A    between atoms: C11_15  and  C12_16 
REMARK    5  A    between atoms: C12_16  and  O4_17 
REMARK    6  A    between atoms: O4_17  and  C13_18 
REMARK    7  A    between atoms: C13_18  and  C14_20 
REMARK    8  A    between atoms: C14_20  and  N1_21 
ROOT
HETATM    1  O4  UNL     1      19.514  -0.808   9.936  1.00  0.00    -0.318 OA
ENDROOT
BRANCH   1   2
HETATM    2  C12 UNL     1      18.621  -1.514  10.722  1.00  0.00     0.213 C 
BRANCH   2   3
HETATM    3  C11 UNL     1      18.652  -1.232  12.187  1.00  0.00     0.178 C 
HETATM    4  C10 UNL     1      17.945   0.081  12.440  1.00  0.00     0.158 C 
HETATM    5  C9  UNL     1      17.296   0.175  13.783  1.00  0.00     0.145 C 
HETATM    6  C8  UNL     1      17.839  -0.953  14.612  1.00  0.00     0.263 C 
HETATM    7  O1  UNL     1      19.136  -1.427  14.651  1.00  0.00    -0.289 OA
HETATM    8  O2  UNL     1      17.009  -1.521  15.351  1.00  0.00    -0.265 OA
HETATM    9  C7  UNL     1      20.211  -0.957  13.886  1.00  0.00     0.277 C 
HETATM   10  O7  UNL     1      20.019  -1.167  12.543  1.00  0.00    -0.350 OA
BRANCH   4  11
HETATM   11  O3  UNL     1      18.858   1.091  12.192  1.00  0.00    -0.392 OA
ATOM     12  H3  UNL     1      19.503   0.870  11.530  1.00  0.00     0.210 HD
ENDBRANCH   4  11
BRANCH   9  13
HETATM   13  C5  UNL     1      21.556  -1.433  14.374  1.00  0.00     0.060 C 
HETATM   14  C6  UNL     1      21.514  -1.680  15.856  1.00  0.00     0.019 C 
BRANCH  13  15
HETATM   15  C4  UNL     1      22.521  -0.320  14.123  1.00  0.00    -0.016 C 
HETATM   16  C2  UNL     1      23.836  -0.528  14.108  1.00  0.00    -0.091 C 
HETATM   17  C1  UNL     1      24.399  -1.888  14.343  1.00  0.00     0.042 C 
HETATM   18  C3  UNL     1      24.771   0.602  13.854  1.00  0.00     0.042 C 
ENDBRANCH  13  15
ENDBRANCH   9  13
ENDBRANCH   2   3
ENDBRANCH   1   2
BRANCH   1  19
HETATM   19  C13 UNL     1      19.564  -0.714   8.569  1.00  0.00     0.277 C 
HETATM   20  O5  UNL     1      18.534  -0.270   7.999  1.00  0.00    -0.263 OA
BRANCH  19  21
HETATM   21  C14 UNL     1      20.729  -1.095   7.752  1.00  0.00     0.237 C 
BRANCH  21  22
HETATM   22  N1  UNL     1      21.974  -1.152   8.476  1.00  0.00    -0.334 N 
HETATM   23  C15 UNL     1      22.822  -0.041   8.223  1.00  0.00     0.228 C 
HETATM   24  O6  UNL     1      22.503   0.719   7.243  1.00  0.00    -0.273 OA
HETATM   25  C16 UNL     1      24.040   0.401   8.910  1.00  0.00     0.034 C 
HETATM   26  C17 UNL     1      24.938   1.054   7.846  1.00  0.00     0.025 C 
HETATM   27  C18 UNL     1      23.820   1.409   9.984  1.00  0.00     0.025 C 
HETATM   28  C19 UNL     1      24.858  -0.751   9.448  1.00  0.00     0.023 C 
HETATM   29  C20 UNL     1      24.299  -1.427  10.630  1.00  0.00    -0.011 C 
HETATM   30  C21 UNL     1      25.046  -2.714  10.868  1.00  0.00     0.008 C 
HETATM   31  C26 UNL     1      22.870  -1.753  10.654  1.00  0.00     0.034 C 
HETATM   32  C22 UNL     1      25.231  -3.536   9.647  1.00  0.00     0.027 C 
HETATM   33  C23 UNL     1      24.061  -3.932   8.901  1.00  0.00    -0.029 C 
HETATM   34  C24 UNL     1      22.861  -3.428   8.782  1.00  0.00    -0.006 C 
HETATM   35  C25 UNL     1      22.255  -2.250   9.377  1.00  0.00     0.110 C 
ENDBRANCH  21  22
ENDBRANCH  19  21
ENDBRANCH   1  19
TORSDOF 8
ENDMDL
MODEL 2
REMARK VINA RESULT: -6.604131650      1.992      4.568
REMARK  8 active torsions:
REMARK  status: ('A' for Active; 'I' for Inactive)
REMARK    1  A    between atoms: C4_4  and  C5_5 
REMARK    2  A    between atoms: C5_5  and  C7_7 
REMARK    3  A    between atoms: C10_12  and  O3_13 
REMARK    4  A    between atoms: C11_15  and  C12_16 
REMARK    5  A    between atoms: C12_16  and  O4_17 
REMARK    6  A    between atoms: O4_17  and  C13_18 
REMARK    7  A    between atoms: C13_18  and  C14_20 
REMARK    8  A    between atoms: C14_20  and  N1_21 
ROOT
HETATM    1  O4  UNL     1      22.875   0.102  13.169  1.00  0.00    -0.318 OA
ENDROOT
BRANCH   1   2
HETATM    2  C12 UNL     1      21.851  -0.773  13.487  1.00  0.00     0.213 C 
BRANCH   2   3
HETATM    3  C11 UNL     1      20.657  -0.759  12.592  1.00  0.00     0.178 C 
HETATM    4  C10 UNL     1      20.907   0.226  11.471  1.00  0.00     0.158 C 
HETATM    5  C9  UNL     1      20.206  -0.113  10.196  1.00  0.00     0.145 C 
HETATM    6  C8  UNL     1      19.183  -1.162  10.523  1.00  0.00     0.263 C 
HETATM    7  O1  UNL     1      18.374  -1.238  11.641  1.00  0.00    -0.289 OA
HETATM    8  O2  UNL     1      19.057  -2.068   9.673  1.00  0.00    -0.265 OA
HETATM    9  C7  UNL     1      18.375  -0.348  12.722  1.00  0.00     0.277 C 
HETATM   10  O7  UNL     1      19.567  -0.363  13.402  1.00  0.00    -0.350 OA
BRANCH   4  11
HETATM   11  O3  UNL     1      20.600   1.485  11.958  1.00  0.00    -0.392 OA
ATOM     12  H3  UNL     1      21.361   1.989  12.221  1.00  0.00     0.210 HD
ENDBRANCH   4  11
BRANCH   9  13
HETATM   13  C5  UNL     1      17.175  -0.491  13.625  1.00  0.00     0.060 C 
HETATM   14  C6  UNL     1      16.422   0.808  13.698  1.00  0.00     0.019 C 
BRANCH  13  15
HETATM   15  C4  UNL     1      17.701  -0.793  14.991  1.00  0.00    -0.016 C 
HETATM   16  C2  UNL     1      16.922  -1.315  15.937  1.00  0.00    -0.091 C 
HETATM   17  C1  UNL     1      15.488  -1.619  15.667  1.00  0.00     0.042 C 
HETATM   18  C3  UNL     1      17.476  -1.605  17.287  1.00  0.00     0.042 C 
ENDBRANCH  13  15
ENDBRANCH   9  13
ENDBRANCH   2   3
ENDBRANCH   1   2
BRANCH   1  19
HETATM   19  C13 UNL     1      24.153  -0.184  12.765  1.00  0.00     0.277 C 
HETATM   20  O5  UNL     1      24.732  -1.127  13.365  1.00  0.00    -0.263 OA
BRANCH  19  21
HETATM   21  C14 UNL     1      24.867   0.533  11.695  1.00  0.00     0.237 C 
BRANCH  21  22
HETATM   22  N1  UNL     1      24.360   0.286  10.368  1.00  0.00    -0.334 N 
HETATM   23  C15 UNL     1      23.712   1.413   9.797  1.00  0.00     0.228 C 
HETATM   24  O6  UNL     1      23.451   2.391  10.582  1.00  0.00    -0.273 OA
HETATM   25  C16 UNL     1      23.273   1.661   8.419  1.00  0.00     0.034 C 
HETATM   26  C17 UNL     1      22.013   2.537   8.504  1.00  0.00     0.025 C 
HETATM   27  C18 UNL     1      24.261   2.384   7.570  1.00  0.00     0.025 C 
HETATM   28  C19 UNL     1      22.819   0.402   7.716  1.00  0.00     0.023 C 
HETATM   29  C20 UNL     1      23.891  -0.530   7.330  1.00  0.00    -0.011 C 
HETATM   30  C21 UNL     1      23.283  -1.848   6.921  1.00  0.00     0.008 C 
HETATM   31  C26 UNL     1      24.953  -0.833   8.294  1.00  0.00     0.034 C 
HETATM   32  C22 UNL     1      22.257  -2.355   7.866  1.00  0.00     0.027 C 
HETATM   33  C23 UNL     1      22.628  -2.543   9.247  1.00  0.00    -0.029 C 
HETATM   34  C24 UNL     1      23.544  -2.009  10.010  1.00  0.00    -0.006 C 
HETATM   35  C25 UNL     1      24.551  -1.000   9.732  1.00  0.00     0.110 C 
ENDBRANCH  21  22
ENDBRANCH  19  21
ENDBRANCH   1  19
TORSDOF 8
ENDMDL
MODEL 3
REMARK VINA RESULT: -6.533074378      4.164      7.574
REMARK  8 active torsions:
REMARK  status: ('A' for Active; 'I' for Inactive)
REMARK    1  A    between atoms: C4_4  and  C5_5 
REMARK    2  A    between atoms: C5_5  and  C7_7 
REMARK    3  A    between atoms: C10_12  and  O3_13 
REMARK    4  A    between atoms: C11_15  and  C12_16 
REMARK    5  A    between atoms: C12_16  and  O4_17 
REMARK    6  A    between atoms: O4_17  and  C13_18 
REMARK    7  A    between atoms: C13_18  and  C14_20 
REMARK    8  A    between atoms: C14_20  and  N1_21 
ROOT
HETATM    1  O4  UNL     1      22.566   0.614  13.960  1.00  0.00    -0.318 OA
ENDROOT
BRANCH   1   2
HETATM    2  C12 UNL     1      22.246  -0.607  13.394  1.00  0.00     0.213 C 
BRANCH   2   3
HETATM    3  C11 UNL     1      21.014  -0.652  12.553  1.00  0.00     0.178 C 
HETATM    4  C10 UNL     1      21.125   0.407  11.479  1.00  0.00     0.158 C 
HETATM    5  C9  UNL     1      20.395   0.074  10.218  1.00  0.00     0.145 C 
HETATM    6  C8  UNL     1      19.483  -1.076  10.530  1.00  0.00     0.263 C 
HETATM    7  O1  UNL     1      18.738  -1.280  11.676  1.00  0.00    -0.289 OA
HETATM    8  O2  UNL     1      19.394  -1.946   9.638  1.00  0.00    -0.265 OA
HETATM    9  C7  UNL     1      18.714  -0.450  12.804  1.00  0.00     0.277 C 
HETATM   10  O7  UNL     1      19.934  -0.396  13.430  1.00  0.00    -0.350 OA
BRANCH   4  11
HETATM   11  O3  UNL     1      20.735   1.608  12.047  1.00  0.00    -0.392 OA
ATOM     12  H3  UNL     1      20.565   1.553  12.979  1.00  0.00     0.210 HD
ENDBRANCH   4  11
BRANCH   9  13
HETATM   13  C5  UNL     1      17.575  -0.744  13.748  1.00  0.00     0.060 C 
HETATM   14  C6  UNL     1      16.692   0.465  13.890  1.00  0.00     0.019 C 
BRANCH  13  15
HETATM   15  C4  UNL     1      18.186  -1.024  15.083  1.00  0.00    -0.016 C 
HETATM   16  C2  UNL     1      17.468  -1.519  16.088  1.00  0.00    -0.091 C 
HETATM   17  C1  UNL     1      16.016  -1.816  15.918  1.00  0.00     0.042 C 
HETATM   18  C3  UNL     1      18.107  -1.788  17.404  1.00  0.00     0.042 C 
ENDBRANCH  13  15
ENDBRANCH   9  13
ENDBRANCH   2   3
ENDBRANCH   1   2
BRANCH   1  19
HETATM   19  C13 UNL     1      23.804   1.168  14.158  1.00  0.00     0.277 C 
HETATM   20  O5  UNL     1      24.618   1.080  13.202  1.00  0.00    -0.263 OA
BRANCH  19  21
HETATM   21  C14 UNL     1      24.224   1.843  15.398  1.00  0.00     0.237 C 
BRANCH  21  22
HETATM   22  N1  UNL     1      23.665   3.159  15.581  1.00  0.00    -0.334 N 
HETATM   23  C15 UNL     1      23.101   3.356  16.869  1.00  0.00     0.228 C 
HETATM   24  O6  UNL     1      22.944   2.314  17.597  1.00  0.00    -0.273 OA
HETATM   25  C16 UNL     1      22.651   4.584  17.534  1.00  0.00     0.034 C 
HETATM   26  C17 UNL     1      21.472   4.193  18.440  1.00  0.00     0.025 C 
HETATM   27  C18 UNL     1      23.675   5.239  18.394  1.00  0.00     0.025 C 
HETATM   28  C19 UNL     1      22.074   5.593  16.567  1.00  0.00     0.023 C 
HETATM   29  C20 UNL     1      23.053   6.278  15.707  1.00  0.00    -0.011 C 
HETATM   30  C21 UNL     1      22.325   7.015  14.612  1.00  0.00     0.008 C 
HETATM   31  C26 UNL     1      24.109   5.492  15.063  1.00  0.00     0.034 C 
HETATM   32  C22 UNL     1      21.283   6.205  13.933  1.00  0.00     0.027 C 
HETATM   33  C23 UNL     1      21.671   4.954  13.329  1.00  0.00    -0.029 C 
HETATM   34  C24 UNL     1      22.648   4.115  13.552  1.00  0.00    -0.006 C 
HETATM   35  C25 UNL     1      23.730   4.144  14.521  1.00  0.00     0.110 C 
ENDBRANCH  21  22
ENDBRANCH  19  21
ENDBRANCH   1  19
TORSDOF 8
ENDMDL
MODEL 4
REMARK VINA RESULT: -6.528939335      1.438      2.090
REMARK  8 active torsions:
REMARK  status: ('A' for Active; 'I' for Inactive)
REMARK    1  A    between atoms: C4_4  and  C5_5 
REMARK    2  A    between atoms: C5_5  and  C7_7 
REMARK    3  A    between atoms: C10_12  and  O3_13 
REMARK    4  A    between atoms: C11_15  and  C12_16 
REMARK    5  A    between atoms: C12_16  and  O4_17 
REMARK    6  A    between atoms: O4_17  and  C13_18 
REMARK    7  A    between atoms: C13_18  and  C14_20 
REMARK    8  A    between atoms: C14_20  and  N1_21 
ROOT
HETATM    1  O4  UNL     1      19.235  -1.772  10.181  1.00  0.00    -0.318 OA
ENDROOT
BRANCH   1   2
HETATM    2  C12 UNL     1      18.075  -1.479  10.878  1.00  0.00     0.213 C 
BRANCH   2   3
HETATM    3  C11 UNL     1      18.219  -1.235  12.343  1.00  0.00     0.178 C 
HETATM    4  C10 UNL     1      17.679   0.143  12.656  1.00  0.00     0.158 C 
HETATM    5  C9  UNL     1      17.120   0.278  14.035  1.00  0.00     0.145 C 
HETATM    6  C8  UNL     1      17.579  -0.920  14.814  1.00  0.00     0.263 C 
HETATM    7  O1  UNL     1      18.815  -1.536  14.771  1.00  0.00    -0.289 OA
HETATM    8  O2  UNL     1      16.732  -1.408  15.591  1.00  0.00    -0.265 OA
HETATM    9  C7  UNL     1      19.891  -1.171  13.953  1.00  0.00     0.277 C 
HETATM   10  O7  UNL     1      19.602  -1.329  12.621  1.00  0.00    -0.350 OA
BRANCH   4  11
HETATM   11  O3  UNL     1      18.684   1.051  12.371  1.00  0.00    -0.392 OA
ATOM     12  H3  UNL     1      18.782   1.731  13.027  1.00  0.00     0.210 HD
ENDBRANCH   4  11
BRANCH   9  13
HETATM   13  C5  UNL     1      21.200  -1.804  14.355  1.00  0.00     0.060 C 
HETATM   14  C6  UNL     1      20.986  -2.765  15.491  1.00  0.00     0.019 C 
BRANCH  13  15
HETATM   15  C4  UNL     1      22.076  -0.698  14.850  1.00  0.00    -0.016 C 
HETATM   16  C2  UNL     1      23.401  -0.817  14.872  1.00  0.00    -0.091 C 
HETATM   17  C1  UNL     1      24.067  -2.065  14.401  1.00  0.00     0.042 C 
HETATM   18  C3  UNL     1      24.246   0.303  15.370  1.00  0.00     0.042 C 
ENDBRANCH  13  15
ENDBRANCH   9  13
ENDBRANCH   2   3
ENDBRANCH   1   2
BRANCH   1  19
HETATM   19  C13 UNL     1      19.712  -1.197   9.032  1.00  0.00     0.277 C 
HETATM   20  O5  UNL     1      18.859  -0.665   8.275  1.00  0.00    -0.263 OA
BRANCH  19  21
HETATM   21  C14 UNL     1      21.133  -1.170   8.644  1.00  0.00     0.237 C 
BRANCH  21  22
HETATM   22  N1  UNL     1      21.904  -0.128   9.274  1.00  0.00    -0.334 N 
HETATM   23  C15 UNL     1      22.159   0.977   8.419  1.00  0.00     0.228 C 
HETATM   24  O6  UNL     1      21.897   0.819   7.175  1.00  0.00    -0.273 OA
HETATM   25  C16 UNL     1      22.688   2.312   8.721  1.00  0.00     0.034 C 
HETATM   26  C17 UNL     1      23.489   2.762   7.488  1.00  0.00     0.025 C 
HETATM   27  C18 UNL     1      21.652   3.350   8.982  1.00  0.00     0.025 C 
HETATM   28  C19 UNL     1      23.695   2.299   9.849  1.00  0.00     0.023 C 
HETATM   29  C20 UNL     1      23.136   2.089  11.194  1.00  0.00    -0.011 C 
HETATM   30  C21 UNL     1      24.257   1.803  12.161  1.00  0.00     0.008 C 
HETATM   31  C26 UNL     1      22.127   1.043  11.392  1.00  0.00     0.034 C 
HETATM   32  C22 UNL     1      25.230   0.796  11.671  1.00  0.00     0.027 C 
HETATM   33  C23 UNL     1      24.739  -0.507  11.294  1.00  0.00    -0.029 C 
HETATM   34  C24 UNL     1      23.578  -0.944  10.885  1.00  0.00    -0.006 C 
HETATM   35  C25 UNL     1      22.323  -0.250  10.655  1.00  0.00     0.110 C 
ENDBRANCH  21  22
ENDBRANCH  19  21
ENDBRANCH   1  19
TORSDOF 8
ENDMDL
MODEL 5
REMARK VINA RESULT: -6.492656009      1.644      2.317
REMARK  8 active torsions:
REMARK  status: ('A' for Active; 'I' for Inactive)
REMARK    1  A    between atoms: C4_4  and  C5_5 
REMARK    2  A    between atoms: C5_5  and  C7_7 
REMARK    3  A    between atoms: C10_12  and  O3_13 
REMARK    4  A    between atoms: C11_15  and  C12_16 
REMARK    5  A    between atoms: C12_16  and  O4_17 
REMARK    6  A    between atoms: O4_17  and  C13_18 
REMARK    7  A    between atoms: C13_18  and  C14_20 
REMARK    8  A    between atoms: C14_20  and  N1_21 
ROOT
HETATM    1  O4  UNL     1      18.798  -0.742  10.156  1.00  0.00    -0.318 OA
ENDROOT
BRANCH   1   2
HETATM    2  C12 UNL     1      18.459  -1.698  11.097  1.00  0.00     0.213 C 
BRANCH   2   3
HETATM    3  C11 UNL     1      18.074  -1.198  12.450  1.00  0.00     0.178 C 
HETATM    4  C10 UNL     1      17.972   0.310  12.394  1.00  0.00     0.158 C 
HETATM    5  C9  UNL     1      16.990   0.889  13.361  1.00  0.00     0.145 C 
HETATM    6  C8  UNL     1      16.646  -0.196  14.339  1.00  0.00     0.263 C 
HETATM    7  O1  UNL     1      17.494  -1.132  14.900  1.00  0.00    -0.289 OA
HETATM    8  O2  UNL     1      15.446  -0.247  14.681  1.00  0.00    -0.265 OA
HETATM    9  C7  UNL     1      18.862  -1.271  14.633  1.00  0.00     0.277 C 
HETATM   10  O7  UNL     1      19.100  -1.621  13.328  1.00  0.00    -0.350 OA
BRANCH   4  11
HETATM   11  O3  UNL     1      19.254   0.812  12.535  1.00  0.00    -0.392 OA
ATOM     12  H3  UNL     1      19.933   0.213  12.250  1.00  0.00     0.210 HD
ENDBRANCH   4  11
BRANCH   9  13
HETATM   13  C5  UNL     1      19.586  -2.148  15.624  1.00  0.00     0.060 C 
HETATM   14  C6  UNL     1      18.742  -2.355  16.850  1.00  0.00     0.019 C 
BRANCH  13  15
HETATM   15  C4  UNL     1      20.816  -1.406  16.034  1.00  0.00    -0.016 C 
HETATM   16  C2  UNL     1      22.012  -1.991  16.046  1.00  0.00    -0.091 C 
HETATM   17  C1  UNL     1      22.169  -3.420  15.648  1.00  0.00     0.042 C 
HETATM   18  C3  UNL     1      23.218  -1.224  16.459  1.00  0.00     0.042 C 
ENDBRANCH  13  15
ENDBRANCH   9  13
ENDBRANCH   2   3
ENDBRANCH   1   2
BRANCH   1  19
HETATM   19  C13 UNL     1      19.821  -0.764   9.243  1.00  0.00     0.277 C 
HETATM   20  O5  UNL     1      19.811  -1.709   8.412  1.00  0.00    -0.263 OA
BRANCH  19  21
HETATM   21  C14 UNL     1      20.903   0.233   9.184  1.00  0.00     0.237 C 
BRANCH  21  22
HETATM   22  N1  UNL     1      21.878   0.119  10.240  1.00  0.00    -0.334 N 
HETATM   23  C15 UNL     1      22.452   1.364  10.611  1.00  0.00     0.228 C 
HETATM   24  O6  UNL     1      22.227   2.359   9.836  1.00  0.00    -0.273 OA
HETATM   25  C16 UNL     1      23.286   1.722  11.764  1.00  0.00     0.034 C 
HETATM   26  C17 UNL     1      24.241   2.831  11.295  1.00  0.00     0.025 C 
HETATM   27  C18 UNL     1      22.534   2.248  12.938  1.00  0.00     0.025 C 
HETATM   28  C19 UNL     1      24.192   0.593  12.201  1.00  0.00     0.023 C 
HETATM   29  C20 UNL     1      23.525  -0.527  12.883  1.00  0.00    -0.011 C 
HETATM   30  C21 UNL     1      24.482  -1.688  12.989  1.00  0.00     0.008 C 
HETATM   31  C26 UNL     1      22.275  -1.056  12.330  1.00  0.00     0.034 C 
HETATM   32  C22 UNL     1      25.193  -1.996  11.723  1.00  0.00     0.027 C 
HETATM   33  C23 UNL     1      24.409  -2.283  10.547  1.00  0.00    -0.029 C 
HETATM   34  C24 UNL     1      23.199  -1.958  10.175  1.00  0.00    -0.006 C 
HETATM   35  C25 UNL     1      22.176  -1.167  10.836  1.00  0.00     0.110 C 
ENDBRANCH  21  22
ENDBRANCH  19  21
ENDBRANCH   1  19
TORSDOF 8
ENDMDL
