MODEL 1
REMARK VINA RESULT: -5.767052099      0.000      0.000
REMARK  8 active torsions:
REMARK  status: ('A' for Active; 'I' for Inactive)
REMARK    1  A    between atoms: C2_2  and  C3_3 
REMARK    2  A    between atoms: C3_3  and  O2_5 
REMARK    3  A    between atoms: O2_5  and  C4_6 
REMARK    4  A    between atoms: C4_6  and  C5_7 
REMARK    5  A    between atoms: C22_25  and  O4_26 
REMARK    6  A    between atoms: C24_28  and  O5_29 
REMARK    7  A    between atoms: C25_31  and  O6_32 
REMARK    8  A    between atoms: O6_32  and  C26_33 
ROOT
HETATM    1  C5  UNL     1      20.330  -0.583  20.367  1.00  0.00     0.018 C 
HETATM    2  C6  UNL     1      21.561  -0.340  19.440  1.00  0.00     0.016 C 
HETATM    3  C7  UNL     1      22.854  -0.212  20.156  1.00  0.00     0.019 C 
HETATM    4  C8  UNL     1      23.576  -1.523  20.086  1.00  0.00     0.028 C 
HETATM    5  C9  UNL     1      23.719  -2.022  18.735  1.00  0.00     0.136 C 
HETATM    6  O3  UNL     1      23.211  -2.949  18.169  1.00  0.00    -0.297 OA
HETATM    7  C10 UNL     1      24.708  -1.082  18.120  1.00  0.00     0.079 C 
HETATM    8  C11 UNL     1      25.529  -0.549  19.320  1.00  0.00     0.013 C 
HETATM    9  C12 UNL     1      25.083  -1.446  20.369  1.00  0.00     0.006 C 
HETATM   10  C13 UNL     1      25.399  -1.321  21.775  1.00  0.00    -0.013 C 
HETATM   11  C14 UNL     1      26.877  -1.041  21.951  1.00  0.00     0.010 C 
HETATM   12  C15 UNL     1      25.116  -2.703  22.406  1.00  0.00     0.005 C 
HETATM   13  C16 UNL     1      23.981  -3.401  21.628  1.00  0.00     0.006 C 
HETATM   14  C17 UNL     1      23.042  -2.353  21.174  1.00  0.00     0.002 C 
HETATM   15  C18 UNL     1      21.621  -2.699  20.925  1.00  0.00     0.015 C 
HETATM   16  C19 UNL     1      20.738  -1.595  21.421  1.00  0.00     0.021 C 
HETATM   17  C20 UNL     1      19.535  -2.143  22.068  1.00  0.00    -0.022 C 
HETATM   18  C21 UNL     1      18.509  -1.447  22.558  1.00  0.00     0.004 C 
HETATM   19  C22 UNL     1      18.245   0.011  22.614  1.00  0.00     0.174 C 
HETATM   20  C24 UNL     1      19.473   0.831  22.323  1.00  0.00     0.181 C 
HETATM   21  C25 UNL     1      19.927   0.706  20.896  1.00  0.00     0.174 C 
ENDROOT
BRANCH   1  22
HETATM   22  C4  UNL     1      19.386  -1.297  19.460  1.00  0.00     0.191 C 
BRANCH  22  23
HETATM   23  O2  UNL     1      19.726  -1.813  18.271  1.00  0.00    -0.321 OA
BRANCH  23  24
HETATM   24  C3  UNL     1      19.209  -2.197  17.107  1.00  0.00     0.258 C 
HETATM   25  O1  UNL     1      19.952  -2.586  16.186  1.00  0.00    -0.265 OA
BRANCH  24  26
HETATM   26  C2  UNL     1      17.736  -2.197  16.801  1.00  0.00     0.106 C 
HETATM   27  C1  UNL     1      17.452  -1.185  15.713  1.00  0.00     0.015 C 
ENDBRANCH  24  26
ENDBRANCH  23  24
ENDBRANCH  22  23
ENDBRANCH   1  22
BRANCH  21  28
HETATM   28  O6  UNL     1      20.952   1.710  20.650  1.00  0.00    -0.313 OA
BRANCH  28  29
HETATM   29  C26 UNL     1      20.750   3.024  20.835  1.00  0.00     0.255 C 
HETATM   30  C27 UNL     1      20.244   3.975  19.801  1.00  0.00     0.126 C 
HETATM   31  O7  UNL     1      20.998   3.496  21.942  1.00  0.00    -0.266 OA
ENDBRANCH  28  29
ENDBRANCH  21  28
BRANCH  20  32
HETATM   32  O5  UNL     1      20.366   0.747  23.324  1.00  0.00    -0.390 OA
ATOM     33  H5  UNL     1      19.948   0.846  24.172  1.00  0.00     0.210 HD
ENDBRANCH  20  32
BRANCH  19  34
HETATM   34  O4  UNL     1      17.622   0.388  23.793  1.00  0.00    -0.384 OA
HETATM   35  C23 UNL     1      17.261  -0.705  24.571  1.00  0.00     0.202 C 
ENDBRANCH  19  34
TORSDOF 8
ENDMDL
MODEL 2
REMARK VINA RESULT: -5.752104422      7.759     10.830
REMARK  8 active torsions:
REMARK  status: ('A' for Active; 'I' for Inactive)
REMARK    1  A    between atoms: C2_2  and  C3_3 
REMARK    2  A    between atoms: C3_3  and  O2_5 
REMARK    3  A    between atoms: O2_5  and  C4_6 
REMARK    4  A    between atoms: C4_6  and  C5_7 
REMARK    5  A    between atoms: C22_25  and  O4_26 
REMARK    6  A    between atoms: C24_28  and  O5_29 
REMARK    7  A    between atoms: C25_31  and  O6_32 
REMARK    8  A    between atoms: O6_32  and  C26_33 
ROOT
HETATM    1  C5  UNL     1      22.017   0.064  10.971  1.00  0.00     0.018 C 
HETATM    2  C6  UNL     1      22.659   0.916   9.833  1.00  0.00     0.016 C 
HETATM    3  C7  UNL     1      22.331   2.362   9.888  1.00  0.00     0.019 C 
HETATM    4  C8  UNL     1      23.475   3.092  10.522  1.00  0.00     0.028 C 
HETATM    5  C9  UNL     1      24.746   2.820   9.885  1.00  0.00     0.136 C 
HETATM    6  O3  UNL     1      25.708   2.208  10.255  1.00  0.00    -0.297 OA
HETATM    7  C10 UNL     1      24.626   3.506   8.560  1.00  0.00     0.079 C 
HETATM    8  C11 UNL     1      23.600   4.640   8.807  1.00  0.00     0.013 C 
HETATM    9  C12 UNL     1      23.503   4.604  10.254  1.00  0.00     0.006 C 
HETATM   10  C13 UNL     1      22.555   5.349  11.053  1.00  0.00    -0.013 C 
HETATM   11  C14 UNL     1      22.498   6.787  10.584  1.00  0.00     0.010 C 
HETATM   12  C15 UNL     1      23.118   5.359  12.492  1.00  0.00     0.005 C 
HETATM   13  C16 UNL     1      23.937   4.073  12.734  1.00  0.00     0.006 C 
HETATM   14  C17 UNL     1      23.288   2.983  11.974  1.00  0.00     0.002 C 
HETATM   15  C18 UNL     1      23.452   1.579  12.423  1.00  0.00     0.015 C 
HETATM   16  C19 UNL     1      22.155   0.843  12.266  1.00  0.00     0.021 C 
HETATM   17  C20 UNL     1      21.926  -0.056  13.408  1.00  0.00    -0.022 C 
HETATM   18  C21 UNL     1      20.910  -0.905  13.559  1.00  0.00     0.004 C 
HETATM   19  C22 UNL     1      19.748  -1.216  12.692  1.00  0.00     0.174 C 
HETATM   20  C24 UNL     1      19.549  -0.193  11.607  1.00  0.00     0.181 C 
HETATM   21  C25 UNL     1      20.649  -0.216  10.581  1.00  0.00     0.174 C 
ENDROOT
BRANCH   1  22
HETATM   22  C4  UNL     1      22.965  -1.082  11.082  1.00  0.00     0.191 C 
BRANCH  22  23
HETATM   23  O2  UNL     1      23.399  -1.807  10.041  1.00  0.00    -0.321 OA
BRANCH  23  24
HETATM   24  C3  UNL     1      23.096  -2.873   9.307  1.00  0.00     0.258 C 
HETATM   25  O1  UNL     1      23.949  -3.756   9.097  1.00  0.00    -0.265 OA
BRANCH  24  26
HETATM   26  C2  UNL     1      21.747  -3.107   8.680  1.00  0.00     0.106 C 
HETATM   27  C1  UNL     1      21.916  -3.933   7.426  1.00  0.00     0.015 C 
ENDBRANCH  24  26
ENDBRANCH  23  24
ENDBRANCH  22  23
ENDBRANCH   1  22
BRANCH  21  28
HETATM   28  O6  UNL     1      20.249   0.620   9.458  1.00  0.00    -0.313 OA
BRANCH  28  29
HETATM   29  C26 UNL     1      19.872   0.120   8.271  1.00  0.00     0.255 C 
HETATM   30  C27 UNL     1      20.727   0.053   7.050  1.00  0.00     0.126 C 
HETATM   31  O7  UNL     1      18.730  -0.322   8.168  1.00  0.00    -0.266 OA
ENDBRANCH  28  29
ENDBRANCH  21  28
BRANCH  20  32
HETATM   32  O5  UNL     1      19.121   0.978  12.109  1.00  0.00    -0.390 OA
ATOM     33  H5  UNL     1      19.760   1.669  11.972  1.00  0.00     0.210 HD
ENDBRANCH  20  32
BRANCH  19  34
HETATM   34  O4  UNL     1      18.593  -1.446  13.422  1.00  0.00    -0.384 OA
HETATM   35  C23 UNL     1      18.827  -1.446  14.792  1.00  0.00     0.202 C 
ENDBRANCH  19  34
TORSDOF 8
ENDMDL
MODEL 3
REMARK VINA RESULT: -5.690097937      7.015     10.237
REMARK  8 active torsions:
REMARK  status: ('A' for Active; 'I' for Inactive)
REMARK    1  A    between atoms: C2_2  and  C3_3 
REMARK    2  A    between atoms: C3_3  and  O2_5 
REMARK    3  A    between atoms: O2_5  and  C4_6 
REMARK    4  A    between atoms: C4_6  and  C5_7 
REMARK    5  A    between atoms: C22_25  and  O4_26 
REMARK    6  A    between atoms: C24_28  and  O5_29 
REMARK    7  A    between atoms: C25_31  and  O6_32 
REMARK    8  A    between atoms: O6_32  and  C26_33 
ROOT
HETATM    1  C5  UNL     1      21.757   0.182  12.302  1.00  0.00     0.018 C 
HETATM    2  C6  UNL     1      20.929   0.497  11.019  1.00  0.00     0.016 C 
HETATM    3  C7  UNL     1      21.747   0.793   9.817  1.00  0.00     0.019 C 
HETATM    4  C8  UNL     1      21.824  -0.441   8.970  1.00  0.00     0.028 C 
HETATM    5  C9  UNL     1      20.524  -0.994   8.653  1.00  0.00     0.136 C 
HETATM    6  O3  UNL     1      19.975  -1.997   9.015  1.00  0.00    -0.297 OA
HETATM    7  C10 UNL     1      19.941   0.006   7.705  1.00  0.00     0.079 C 
HETATM    8  C11 UNL     1      21.173   0.683   7.055  1.00  0.00     0.013 C 
HETATM    9  C12 UNL     1      22.233  -0.197   7.511  1.00  0.00     0.006 C 
HETATM   10  C13 UNL     1      23.651   0.036   7.341  1.00  0.00    -0.013 C 
HETATM   11  C14 UNL     1      23.939   0.472   5.920  1.00  0.00     0.010 C 
HETATM   12  C15 UNL     1      24.340  -1.332   7.549  1.00  0.00     0.005 C 
HETATM   13  C16 UNL     1      23.510  -2.182   8.535  1.00  0.00     0.006 C 
HETATM   14  C17 UNL     1      22.911  -1.259   9.522  1.00  0.00     0.002 C 
HETATM   15  C18 UNL     1      22.560  -1.760  10.874  1.00  0.00     0.015 C 
HETATM   16  C19 UNL     1      22.905  -0.725  11.901  1.00  0.00     0.021 C 
HETATM   17  C20 UNL     1      23.477  -1.356  13.102  1.00  0.00    -0.022 C 
HETATM   18  C21 UNL     1      23.829  -0.740  14.230  1.00  0.00     0.004 C 
HETATM   19  C22 UNL     1      23.769   0.685  14.637  1.00  0.00     0.174 C 
HETATM   20  C24 UNL     1      23.537   1.607  13.470  1.00  0.00     0.181 C 
HETATM   21  C25 UNL     1      22.166   1.451  12.875  1.00  0.00     0.174 C 
ENDROOT
BRANCH   1  22
HETATM   22  C4  UNL     1      20.817  -0.671  13.085  1.00  0.00     0.191 C 
BRANCH  22  23
HETATM   23  O2  UNL     1      19.482  -0.597  13.000  1.00  0.00    -0.321 OA
BRANCH  23  24
HETATM   24  C3  UNL     1      18.380  -0.621  13.744  1.00  0.00     0.258 C 
HETATM   25  O1  UNL     1      18.336  -1.311  14.781  1.00  0.00    -0.265 OA
BRANCH  24  26
HETATM   26  C2  UNL     1      17.130   0.152  13.421  1.00  0.00     0.106 C 
HETATM   27  C1  UNL     1      16.230   0.177  14.636  1.00  0.00     0.015 C 
ENDBRANCH  24  26
ENDBRANCH  23  24
ENDBRANCH  22  23
ENDBRANCH   1  22
BRANCH  21  28
HETATM   28  O6  UNL     1      21.948   2.539  11.931  1.00  0.00    -0.313 OA
BRANCH  28  29
HETATM   29  C26 UNL     1      22.363   3.796  12.154  1.00  0.00     0.255 C 
HETATM   30  C27 UNL     1      21.860   4.692  13.235  1.00  0.00     0.126 C 
HETATM   31  O7  UNL     1      23.227   4.258  11.412  1.00  0.00    -0.266 OA
ENDBRANCH  28  29
ENDBRANCH  21  28
BRANCH  20  32
HETATM   32  O5  UNL     1      24.617   1.668  12.671  1.00  0.00    -0.390 OA
ATOM     33  H5  UNL     1      24.998   2.538  12.669  1.00  0.00     0.210 HD
ENDBRANCH  20  32
BRANCH  19  34
HETATM   34  O4  UNL     1      24.863   1.060  15.401  1.00  0.00    -0.384 OA
HETATM   35  C23 UNL     1      25.511  -0.032  15.965  1.00  0.00     0.202 C 
ENDBRANCH  19  34
TORSDOF 8
ENDMDL
MODEL 4
REMARK VINA RESULT: -5.677072459      6.921     10.540
REMARK  8 active torsions:
REMARK  status: ('A' for Active; 'I' for Inactive)
REMARK    1  A    between atoms: C2_2  and  C3_3 
REMARK    2  A    between atoms: C3_3  and  O2_5 
REMARK    3  A    between atoms: O2_5  and  C4_6 
REMARK    4  A    between atoms: C4_6  and  C5_7 
REMARK    5  A    between atoms: C22_25  and  O4_26 
REMARK    6  A    between atoms: C24_28  and  O5_29 
REMARK    7  A    between atoms: C25_31  and  O6_32 
REMARK    8  A    between atoms: O6_32  and  C26_33 
ROOT
HETATM    1  C5  UNL     1      21.582   0.948  11.621  1.00  0.00     0.018 C 
HETATM    2  C6  UNL     1      22.194   1.652  12.871  1.00  0.00     0.016 C 
HETATM    3  C7  UNL     1      23.549   2.216  12.656  1.00  0.00     0.019 C 
HETATM    4  C8  UNL     1      23.424   3.686  12.397  1.00  0.00     0.028 C 
HETATM    5  C9  UNL     1      22.673   4.382  13.420  1.00  0.00     0.136 C 
HETATM    6  O3  UNL     1      21.588   4.891  13.404  1.00  0.00    -0.297 OA
HETATM    7  C10 UNL     1      23.584   4.345  14.607  1.00  0.00     0.079 C 
HETATM    8  C11 UNL     1      25.003   4.230  13.999  1.00  0.00     0.013 C 
HETATM    9  C12 UNL     1      24.717   4.489  12.600  1.00  0.00     0.006 C 
HETATM   10  C13 UNL     1      25.657   4.354  11.509  1.00  0.00    -0.013 C 
HETATM   11  C14 UNL     1      26.977   4.998  11.878  1.00  0.00     0.010 C 
HETATM   12  C15 UNL     1      25.068   5.159  10.329  1.00  0.00     0.005 C 
HETATM   13  C16 UNL     1      23.528   5.145  10.415  1.00  0.00     0.006 C 
HETATM   14  C17 UNL     1      23.124   3.835  10.967  1.00  0.00     0.002 C 
HETATM   15  C18 UNL     1      21.782   3.288  10.651  1.00  0.00     0.015 C 
HETATM   16  C19 UNL     1      21.880   1.813  10.411  1.00  0.00     0.021 C 
HETATM   17  C20 UNL     1      21.014   1.409   9.291  1.00  0.00    -0.022 C 
HETATM   18  C21 UNL     1      20.807   0.167   8.855  1.00  0.00     0.004 C 
HETATM   19  C22 UNL     1      21.338  -1.140   9.313  1.00  0.00     0.174 C 
HETATM   20  C24 UNL     1      22.518  -0.992  10.234  1.00  0.00     0.181 C 
HETATM   21  C25 UNL     1      22.144  -0.388  11.559  1.00  0.00     0.174 C 
ENDROOT
BRANCH   1  22
HETATM   22  C4  UNL     1      20.117   1.083  11.867  1.00  0.00     0.191 C 
BRANCH  22  23
HETATM   23  O2  UNL     1      19.300   0.058  12.146  1.00  0.00    -0.321 OA
BRANCH  23  24
HETATM   24  C3  UNL     1      18.552  -0.453  13.119  1.00  0.00     0.258 C 
HETATM   25  O1  UNL     1      18.949  -1.441  13.765  1.00  0.00    -0.265 OA
BRANCH  24  26
HETATM   26  C2  UNL     1      17.207   0.091  13.520  1.00  0.00     0.106 C 
HETATM   27  C1  UNL     1      16.914  -0.305  14.950  1.00  0.00     0.015 C 
ENDBRANCH  24  26
ENDBRANCH  23  24
ENDBRANCH  22  23
ENDBRANCH   1  22
BRANCH  21  28
HETATM   28  O6  UNL     1      23.281  -0.513  12.460  1.00  0.00    -0.313 OA
BRANCH  28  29
HETATM   29  C26 UNL     1      23.389  -1.491  13.373  1.00  0.00     0.255 C 
HETATM   30  C27 UNL     1      22.411  -1.763  14.467  1.00  0.00     0.126 C 
HETATM   31  O7  UNL     1      24.369  -2.229  13.314  1.00  0.00    -0.266 OA
ENDBRANCH  28  29
ENDBRANCH  21  28
BRANCH  20  32
HETATM   32  O5  UNL     1      23.603  -0.550   9.575  1.00  0.00    -0.390 OA
ATOM     33  H5  UNL     1      24.401  -0.739  10.055  1.00  0.00     0.210 HD
ENDBRANCH  20  32
BRANCH  19  34
HETATM   34  O4  UNL     1      21.594  -2.002   8.258  1.00  0.00    -0.384 OA
HETATM   35  C23 UNL     1      21.707  -3.323   8.673  1.00  0.00     0.202 C 
ENDBRANCH  19  34
TORSDOF 8
ENDMDL
MODEL 5
REMARK VINA RESULT: -5.651409040      7.414     10.596
REMARK  8 active torsions:
REMARK  status: ('A' for Active; 'I' for Inactive)
REMARK    1  A    between atoms: C2_2  and  C3_3 
REMARK    2  A    between atoms: C3_3  and  O2_5 
REMARK    3  A    between atoms: O2_5  and  C4_6 
REMARK    4  A    between atoms: C4_6  and  C5_7 
REMARK    5  A    between atoms: C22_25  and  O4_26 
REMARK    6  A    between atoms: C24_28  and  O5_29 
REMARK    7  A    between atoms: C25_31  and  O6_32 
REMARK    8  A    between atoms: O6_32  and  C26_33 
ROOT
HETATM    1  C5  UNL     1      22.046   1.087  10.853  1.00  0.00     0.018 C 
HETATM    2  C6  UNL     1      21.584   2.192  11.852  1.00  0.00     0.016 C 
HETATM    3  C7  UNL     1      22.552   2.480  12.939  1.00  0.00     0.019 C 
HETATM    4  C8  UNL     1      23.332   3.708  12.577  1.00  0.00     0.028 C 
HETATM    5  C9  UNL     1      22.491   4.839  12.247  1.00  0.00     0.136 C 
HETATM    6  O3  UNL     1      22.274   5.394  11.207  1.00  0.00    -0.297 OA
HETATM    7  C10 UNL     1      21.890   5.221  13.563  1.00  0.00     0.079 C 
HETATM    8  C11 UNL     1      22.915   4.725  14.613  1.00  0.00     0.013 C 
HETATM    9  C12 UNL     1      24.038   4.395  13.755  1.00  0.00     0.006 C 
HETATM   10  C13 UNL     1      25.248   3.722  14.174  1.00  0.00    -0.013 C 
HETATM   11  C14 UNL     1      25.764   4.334  15.459  1.00  0.00     0.010 C 
HETATM   12  C15 UNL     1      26.300   4.004  13.078  1.00  0.00     0.005 C 
HETATM   13  C16 UNL     1      25.593   4.174  11.717  1.00  0.00     0.006 C 
HETATM   14  C17 UNL     1      24.427   3.265  11.704  1.00  0.00     0.002 C 
HETATM   15  C18 UNL     1      23.901   2.766  10.410  1.00  0.00     0.015 C 
HETATM   16  C19 UNL     1      23.512   1.325  10.544  1.00  0.00     0.021 C 
HETATM   17  C20 UNL     1      23.890   0.570   9.339  1.00  0.00    -0.022 C 
HETATM   18  C21 UNL     1      23.633  -0.714   9.093  1.00  0.00     0.004 C 
HETATM   19  C22 UNL     1      22.929  -1.749   9.889  1.00  0.00     0.174 C 
HETATM   20  C24 UNL     1      22.731  -1.337  11.322  1.00  0.00     0.181 C 
HETATM   21  C25 UNL     1      21.762  -0.196  11.467  1.00  0.00     0.174 C 
ENDROOT
BRANCH   1  22
HETATM   22  C4  UNL     1      21.303   1.451   9.612  1.00  0.00     0.191 C 
BRANCH  22  23
HETATM   23  O2  UNL     1      20.213   0.811   9.169  1.00  0.00    -0.321 OA
BRANCH  23  24
HETATM   24  C3  UNL     1      19.829  -0.167   8.354  1.00  0.00     0.258 C 
HETATM   25  O1  UNL     1      19.623   0.064   7.147  1.00  0.00    -0.265 OA
BRANCH  24  26
HETATM   26  C2  UNL     1      19.614  -1.591   8.791  1.00  0.00     0.106 C 
HETATM   27  C1  UNL     1      18.902  -1.601  10.125  1.00  0.00     0.015 C 
ENDBRANCH  24  26
ENDBRANCH  23  24
ENDBRANCH  22  23
ENDBRANCH   1  22
BRANCH  21  28
HETATM   28  O6  UNL     1      21.448  -0.036  12.880  1.00  0.00    -0.313 OA
BRANCH  28  29
HETATM   29  C26 UNL     1      20.878  -1.001  13.618  1.00  0.00     0.255 C 
HETATM   30  C27 UNL     1      19.411  -1.253  13.728  1.00  0.00     0.126 C 
HETATM   31  O7  UNL     1      21.614  -1.746  14.261  1.00  0.00    -0.266 OA
ENDBRANCH  28  29
ENDBRANCH  21  28
BRANCH  20  32
HETATM   32  O5  UNL     1      23.895  -1.321  11.993  1.00  0.00    -0.390 OA
ATOM     33  H5  UNL     1      24.539  -1.887  11.585  1.00  0.00     0.210 HD
ENDBRANCH  20  32
BRANCH  19  34
HETATM   34  O4  UNL     1      23.522  -2.996   9.772  1.00  0.00    -0.384 OA
HETATM   35  C23 UNL     1      23.055  -3.700   8.669  1.00  0.00     0.202 C 
ENDBRANCH  19  34
TORSDOF 8
ENDMDL
