MODEL 1
REMARK VINA RESULT: -6.997837584      0.000      0.000
REMARK  6 active torsions:
REMARK  status: ('A' for Active; 'I' for Inactive)
REMARK    1  A    between atoms: C3_4  and  N2_5 
REMARK       I    between atoms: N2_5  and  C4_7 
REMARK       I    between atoms: C4_7  and  N3_9 
REMARK    2  A    between atoms: N3_9  and  C5_11 
REMARK    3  A    between atoms: C6_12  and  C7_13 
REMARK    4  A    between atoms: C8_18  and  C9_19 
REMARK       I    between atoms: C9_19  and  N5_21 
REMARK    5  A    between atoms: N5_21  and  C10_23 
REMARK    6  A    between atoms: C20_33  and  O3_34 
ROOT
HETATM    1  C5  UNL     1       0.302  -9.259 -27.315  1.00  0.00     0.100 A 
HETATM    2  C6  UNL     1      -0.886  -9.920 -27.348  1.00  0.00     0.104 A 
HETATM    3  N4  UNL     1      -0.750 -11.120 -26.788  1.00  0.00    -0.346 N 
ATOM      4  H4  UNL     1      -1.504 -11.800 -26.695  1.00  0.00     0.166 HD
HETATM    5  C8  UNL     1       0.524 -11.324 -26.355  1.00  0.00     0.137 A 
HETATM    6  C20 UNL     1       1.204 -10.159 -26.678  1.00  0.00     0.127 A 
ENDROOT
BRANCH   5   7
HETATM    7  C9  UNL     1       1.006 -12.532 -25.697  1.00  0.00     0.271 C 
HETATM    8  O2  UNL     1       2.222 -12.845 -26.011  1.00  0.00    -0.266 OA
HETATM    9  N5  UNL     1       0.302 -13.345 -24.796  1.00  0.00    -0.346 N 
ATOM     10  H5  UNL     1      -0.657 -13.106 -24.543  1.00  0.00     0.163 HD
BRANCH   9  11
HETATM   11  C10 UNL     1       0.923 -14.520 -24.223  1.00  0.00     0.034 C 
HETATM   12  C11 UNL     1       1.999 -14.236 -23.233  1.00  0.00     0.035 C 
HETATM   13  C12 UNL     1       2.610 -15.547 -22.788  1.00  0.00    -0.012 C 
HETATM   14  C13 UNL     1       3.119 -16.302 -23.969  1.00  0.00     0.009 C 
HETATM   15  C17 UNL     1       1.591 -16.283 -21.984  1.00  0.00     0.009 C 
HETATM   16  C14 UNL     1       1.946 -16.711 -24.813  1.00  0.00    -0.012 C 
HETATM   17  C15 UNL     1       0.874 -17.430 -24.032  1.00  0.00     0.009 C 
HETATM   18  C19 UNL     1       1.314 -15.434 -25.347  1.00  0.00     0.035 C 
HETATM   19  C16 UNL     1       0.411 -16.559 -22.888  1.00  0.00    -0.012 C 
HETATM   20  C18 UNL     1      -0.158 -15.293 -23.428  1.00  0.00     0.035 C 
ENDBRANCH   9  11
ENDBRANCH   5   7
BRANCH   6  21
HETATM   21  O3  UNL     1       2.487  -9.789 -26.493  1.00  0.00    -0.356 OA
ATOM     22  H3  UNL     1       2.692  -9.132 -25.839  1.00  0.00     0.218 HD
ENDBRANCH   6  21
BRANCH   2  23
HETATM   23  C7  UNL     1      -2.162  -9.388 -27.925  1.00  0.00     0.405 C 
HETATM   24  F1  UNL     1      -2.022  -9.089 -29.267  1.00  0.00    -0.207 F 
HETATM   25  F2  UNL     1      -2.560  -8.271 -27.252  1.00  0.00    -0.207 F 
ENDBRANCH   2  23
BRANCH   1  26
HETATM   26  N3  UNL     1       0.635  -7.959 -27.793  1.00  0.00    -0.304 N 
HETATM   27  C4  UNL     1       1.108  -7.740 -29.134  1.00  0.00     0.325 C 
HETATM   28  N2  UNL     1       1.418  -6.434 -29.544  1.00  0.00    -0.306 N 
HETATM   29  O1  UNL     1       1.229  -8.709 -29.893  1.00  0.00    -0.247 OA
ATOM     30  H2  UNL     1       1.301  -5.671 -28.878  1.00  0.00     0.171 HD
ATOM     31  H3  UNL     1       0.535  -7.161 -27.166  1.00  0.00     0.171 HD
BRANCH  28  32
HETATM   32  C3  UNL     1       1.885  -6.136 -30.834  1.00  0.00     0.070 A 
HETATM   33  C2  UNL     1       3.160  -6.086 -31.296  1.00  0.00     0.140 A 
HETATM   34  N1  UNL     1       3.093  -5.755 -32.604  1.00  0.00    -0.306 N 
HETATM   35  C1  UNL     1       4.269  -5.605 -33.446  1.00  0.00     0.177 C 
HETATM   36  N6  UNL     1       1.837  -5.595 -32.979  1.00  0.00    -0.308 N 
HETATM   37  C21 UNL     1       1.062  -5.819 -31.924  1.00  0.00     0.138 A 
ATOM     38  H6  UNL     1       1.518  -5.343 -33.915  1.00  0.00     0.186 HD
ENDBRANCH  28  32
ENDBRANCH   1  26
TORSDOF 6
ENDMDL
MODEL 2
REMARK VINA RESULT: -6.853783274      0.376      1.168
REMARK  6 active torsions:
REMARK  status: ('A' for Active; 'I' for Inactive)
REMARK    1  A    between atoms: C3_4  and  N2_5 
REMARK       I    between atoms: N2_5  and  C4_7 
REMARK       I    between atoms: C4_7  and  N3_9 
REMARK    2  A    between atoms: N3_9  and  C5_11 
REMARK    3  A    between atoms: C6_12  and  C7_13 
REMARK    4  A    between atoms: C8_18  and  C9_19 
REMARK       I    between atoms: C9_19  and  N5_21 
REMARK    5  A    between atoms: N5_21  and  C10_23 
REMARK    6  A    between atoms: C20_33  and  O3_34 
ROOT
HETATM    1  C5  UNL     1       0.399  -9.285 -27.341  1.00  0.00     0.100 A 
HETATM    2  C6  UNL     1      -0.826  -9.875 -27.345  1.00  0.00     0.104 A 
HETATM    3  N4  UNL     1      -0.750 -11.076 -26.774  1.00  0.00    -0.346 N 
ATOM      4  H4  UNL     1      -1.540 -11.710 -26.660  1.00  0.00     0.166 HD
HETATM    5  C8  UNL     1       0.518 -11.350 -26.363  1.00  0.00     0.137 A 
HETATM    6  C20 UNL     1       1.259 -10.230 -26.712  1.00  0.00     0.127 A 
ENDROOT
BRANCH   5   7
HETATM    7  C9  UNL     1       0.942 -12.578 -25.701  1.00  0.00     0.271 C 
HETATM    8  O2  UNL     1       2.213 -12.804 -25.790  1.00  0.00    -0.266 OA
HETATM    9  N5  UNL     1       0.131 -13.491 -25.011  1.00  0.00    -0.346 N 
ATOM     10  H5  UNL     1      -0.872 -13.321 -24.936  1.00  0.00     0.163 HD
BRANCH   9  11
HETATM   11  C10 UNL     1       0.705 -14.673 -24.402  1.00  0.00     0.034 C 
HETATM   12  C11 UNL     1       1.753 -15.347 -25.218  1.00  0.00     0.035 C 
HETATM   13  C12 UNL     1       2.194 -16.605 -24.501  1.00  0.00    -0.012 C 
HETATM   14  C13 UNL     1       1.021 -17.490 -24.250  1.00  0.00     0.009 C 
HETATM   15  C17 UNL     1       2.929 -16.199 -23.267  1.00  0.00     0.009 C 
HETATM   16  C14 UNL     1       0.111 -16.808 -23.270  1.00  0.00    -0.012 C 
HETATM   17  C15 UNL     1       0.821 -16.351 -22.019  1.00  0.00     0.009 C 
HETATM   18  C19 UNL     1      -0.422 -15.556 -23.952  1.00  0.00     0.035 C 
HETATM   19  C16 UNL     1       1.962 -15.434 -22.392  1.00  0.00    -0.012 C 
HETATM   20  C18 UNL     1       1.427 -14.239 -23.102  1.00  0.00     0.035 C 
ENDBRANCH   9  11
ENDBRANCH   5   7
BRANCH   6  21
HETATM   21  O3  UNL     1       2.564  -9.934 -26.555  1.00  0.00    -0.356 OA
ATOM     22  H3  UNL     1       3.100 -10.474 -25.986  1.00  0.00     0.218 HD
ENDBRANCH   6  21
BRANCH   2  23
HETATM   23  C7  UNL     1      -2.080  -9.276 -27.903  1.00  0.00     0.405 C 
HETATM   24  F1  UNL     1      -1.941  -8.974 -29.244  1.00  0.00    -0.207 F 
HETATM   25  F2  UNL     1      -2.413  -8.144 -27.217  1.00  0.00    -0.207 F 
ENDBRANCH   2  23
BRANCH   1  26
HETATM   26  N3  UNL     1       0.797  -8.011 -27.839  1.00  0.00    -0.304 N 
HETATM   27  C4  UNL     1       1.264  -7.834 -29.189  1.00  0.00     0.325 C 
HETATM   28  N2  UNL     1       1.642  -6.553 -29.619  1.00  0.00    -0.306 N 
HETATM   29  O1  UNL     1       1.321  -8.818 -29.937  1.00  0.00    -0.247 OA
ATOM     30  H2  UNL     1       1.576  -5.777 -28.960  1.00  0.00     0.171 HD
ATOM     31  H3  UNL     1       0.750  -7.201 -27.221  1.00  0.00     0.171 HD
BRANCH  28  32
HETATM   32  C3  UNL     1       2.107  -6.296 -30.917  1.00  0.00     0.070 A 
HETATM   33  C2  UNL     1       3.370  -6.377 -31.409  1.00  0.00     0.140 A 
HETATM   34  N1  UNL     1       3.308  -6.032 -32.713  1.00  0.00    -0.306 N 
HETATM   35  C1  UNL     1       4.474  -6.001 -33.583  1.00  0.00     0.177 C 
HETATM   36  N6  UNL     1       2.068  -5.739 -33.059  1.00  0.00    -0.308 N 
HETATM   37  C21 UNL     1       1.298  -5.888 -31.987  1.00  0.00     0.138 A 
ATOM     38  H6  UNL     1       1.756  -5.449 -33.986  1.00  0.00     0.186 HD
ENDBRANCH  28  32
ENDBRANCH   1  26
TORSDOF 6
ENDMDL
MODEL 3
REMARK VINA RESULT: -6.754954122      2.562      3.427
REMARK  6 active torsions:
REMARK  status: ('A' for Active; 'I' for Inactive)
REMARK    1  A    between atoms: C3_4  and  N2_5 
REMARK       I    between atoms: N2_5  and  C4_7 
REMARK       I    between atoms: C4_7  and  N3_9 
REMARK    2  A    between atoms: N3_9  and  C5_11 
REMARK    3  A    between atoms: C6_12  and  C7_13 
REMARK    4  A    between atoms: C8_18  and  C9_19 
REMARK       I    between atoms: C9_19  and  N5_21 
REMARK    5  A    between atoms: N5_21  and  C10_23 
REMARK    6  A    between atoms: C20_33  and  O3_34 
ROOT
HETATM    1  C5  UNL     1       1.776  -9.652 -28.623  1.00  0.00     0.100 A 
HETATM    2  C6  UNL     1       1.471 -10.614 -29.533  1.00  0.00     0.104 A 
HETATM    3  N4  UNL     1       1.539 -11.815 -28.961  1.00  0.00    -0.346 N 
ATOM      4  H4  UNL     1       1.353 -12.693 -29.444  1.00  0.00     0.166 HD
HETATM    5  C8  UNL     1       1.890 -11.720 -27.650  1.00  0.00     0.137 A 
HETATM    6  C20 UNL     1       2.044 -10.361 -27.416  1.00  0.00     0.127 A 
ENDROOT
BRANCH   5   7
HETATM    7  C9  UNL     1       2.052 -12.845 -26.738  1.00  0.00     0.271 C 
HETATM    8  O2  UNL     1       3.083 -13.582 -26.998  1.00  0.00    -0.266 OA
HETATM    9  N5  UNL     1       1.227 -13.183 -25.654  1.00  0.00    -0.346 N 
ATOM     10  H5  UNL     1       0.411 -12.608 -25.442  1.00  0.00     0.163 HD
BRANCH   9  11
HETATM   11  C10 UNL     1       1.522 -14.339 -24.835  1.00  0.00     0.034 C 
HETATM   12  C11 UNL     1       2.970 -14.554 -24.558  1.00  0.00     0.035 C 
HETATM   13  C12 UNL     1       3.131 -15.837 -23.772  1.00  0.00    -0.012 C 
HETATM   14  C13 UNL     1       2.527 -16.976 -24.520  1.00  0.00     0.009 C 
HETATM   15  C17 UNL     1       2.551 -15.622 -22.414  1.00  0.00     0.009 C 
HETATM   16  C14 UNL     1       1.042 -16.769 -24.587  1.00  0.00    -0.012 C 
HETATM   17  C15 UNL     1       0.417 -16.515 -23.237  1.00  0.00     0.009 C 
HETATM   18  C19 UNL     1       0.802 -15.519 -25.421  1.00  0.00     0.035 C 
HETATM   19  C16 UNL     1       1.079 -15.320 -22.590  1.00  0.00    -0.012 C 
HETATM   20  C18 UNL     1       0.877 -14.118 -23.445  1.00  0.00     0.035 C 
ENDBRANCH   9  11
ENDBRANCH   5   7
BRANCH   6  21
HETATM   21  O3  UNL     1       2.382  -9.674 -26.307  1.00  0.00    -0.356 OA
ATOM     22  H3  UNL     1       1.761  -9.609 -25.592  1.00  0.00     0.218 HD
ENDBRANCH   6  21
BRANCH   2  23
HETATM   23  C7  UNL     1       1.111 -10.374 -30.967  1.00  0.00     0.405 C 
HETATM   24  F1  UNL     1       2.107  -9.678 -31.627  1.00  0.00    -0.207 F 
HETATM   25  F2  UNL     1      -0.060  -9.679 -31.054  1.00  0.00    -0.207 F 
ENDBRANCH   2  23
BRANCH   1  26
HETATM   26  N3  UNL     1       1.832  -8.237 -28.777  1.00  0.00    -0.304 N 
HETATM   27  C4  UNL     1       0.698  -7.396 -28.497  1.00  0.00     0.325 C 
HETATM   28  N2  UNL     1       0.817  -6.009 -28.669  1.00  0.00    -0.306 N 
HETATM   29  O1  UNL     1      -0.355  -7.919 -28.111  1.00  0.00    -0.247 OA
ATOM     30  H2  UNL     1       1.708  -5.630 -28.990  1.00  0.00     0.171 HD
ATOM     31  H3  UNL     1       2.701  -7.808 -29.095  1.00  0.00     0.171 HD
BRANCH  28  32
HETATM   32  C3  UNL     1      -0.240  -5.121 -28.418  1.00  0.00     0.070 A 
HETATM   33  C2  UNL     1      -0.821  -4.789 -27.237  1.00  0.00     0.140 A 
HETATM   34  N1  UNL     1      -1.794  -3.894 -27.514  1.00  0.00    -0.306 N 
HETATM   35  C1  UNL     1      -2.644  -3.303 -26.492  1.00  0.00     0.177 C 
HETATM   36  N6  UNL     1      -1.849  -3.654 -28.811  1.00  0.00    -0.308 N 
HETATM   37  C21 UNL     1      -0.913  -4.385 -29.404  1.00  0.00     0.138 A 
ATOM     38  H6  UNL     1      -2.498  -3.017 -29.276  1.00  0.00     0.186 HD
ENDBRANCH  28  32
ENDBRANCH   1  26
TORSDOF 6
ENDMDL
MODEL 4
REMARK VINA RESULT: -6.704490731      0.385      1.439
REMARK  6 active torsions:
REMARK  status: ('A' for Active; 'I' for Inactive)
REMARK    1  A    between atoms: C3_4  and  N2_5 
REMARK       I    between atoms: N2_5  and  C4_7 
REMARK       I    between atoms: C4_7  and  N3_9 
REMARK    2  A    between atoms: N3_9  and  C5_11 
REMARK    3  A    between atoms: C6_12  and  C7_13 
REMARK    4  A    between atoms: C8_18  and  C9_19 
REMARK       I    between atoms: C9_19  and  N5_21 
REMARK    5  A    between atoms: N5_21  and  C10_23 
REMARK    6  A    between atoms: C20_33  and  O3_34 
ROOT
HETATM    1  C5  UNL     1       0.411  -9.257 -27.367  1.00  0.00     0.100 A 
HETATM    2  C6  UNL     1      -0.824  -9.825 -27.376  1.00  0.00     0.104 A 
HETATM    3  N4  UNL     1      -0.773 -11.025 -26.799  1.00  0.00    -0.346 N 
ATOM      4  H4  UNL     1      -1.576 -11.644 -26.688  1.00  0.00     0.166 HD
HETATM    5  C8  UNL     1       0.486 -11.319 -26.378  1.00  0.00     0.137 A 
HETATM    6  C20 UNL     1       1.249 -10.215 -26.727  1.00  0.00     0.127 A 
ENDROOT
BRANCH   5   7
HETATM    7  C9  UNL     1       0.884 -12.551 -25.708  1.00  0.00     0.271 C 
HETATM    8  O2  UNL     1       2.150 -12.802 -25.790  1.00  0.00    -0.266 OA
HETATM    9  N5  UNL     1       0.053 -13.445 -25.016  1.00  0.00    -0.346 N 
ATOM     10  H5  UNL     1      -0.947 -13.255 -24.947  1.00  0.00     0.163 HD
BRANCH   9  11
HETATM   11  C10 UNL     1       0.601 -14.634 -24.399  1.00  0.00     0.034 C 
HETATM   12  C11 UNL     1      -0.402 -15.685 -24.072  1.00  0.00     0.035 C 
HETATM   13  C12 UNL     1       0.298 -16.822 -23.358  1.00  0.00    -0.012 C 
HETATM   14  C13 UNL     1       0.995 -16.312 -22.143  1.00  0.00     0.009 C 
HETATM   15  C17 UNL     1       1.196 -17.499 -24.338  1.00  0.00     0.009 C 
HETATM   16  C14 UNL     1       2.111 -15.407 -22.578  1.00  0.00    -0.012 C 
HETATM   17  C15 UNL     1       3.027 -16.041 -23.596  1.00  0.00     0.009 C 
HETATM   18  C19 UNL     1       1.472 -14.204 -23.255  1.00  0.00     0.035 C 
HETATM   19  C16 UNL     1       2.220 -16.484 -24.795  1.00  0.00    -0.012 C 
HETATM   20  C18 UNL     1       1.563 -15.300 -25.414  1.00  0.00     0.035 C 
ENDBRANCH   9  11
ENDBRANCH   5   7
BRANCH   6  21
HETATM   21  O3  UNL     1       2.559  -9.941 -26.562  1.00  0.00    -0.356 OA
ATOM     22  H3  UNL     1       3.201 -10.620 -26.727  1.00  0.00     0.218 HD
ENDBRANCH   6  21
BRANCH   2  23
HETATM   23  C7  UNL     1      -2.064  -9.206 -27.946  1.00  0.00     0.405 C 
HETATM   24  F1  UNL     1      -1.911  -8.917 -29.288  1.00  0.00    -0.207 F 
HETATM   25  F2  UNL     1      -2.379  -8.064 -27.270  1.00  0.00    -0.207 F 
ENDBRANCH   2  23
BRANCH   1  26
HETATM   26  N3  UNL     1       0.835  -7.993 -27.867  1.00  0.00    -0.304 N 
HETATM   27  C4  UNL     1       1.329  -7.833 -29.209  1.00  0.00     0.325 C 
HETATM   28  N2  UNL     1       1.732  -6.561 -29.643  1.00  0.00    -0.306 N 
HETATM   29  O1  UNL     1       1.387  -8.824 -29.949  1.00  0.00    -0.247 OA
ATOM     30  H2  UNL     1       1.664  -5.778 -28.992  1.00  0.00     0.171 HD
ATOM     31  H3  UNL     1       0.787  -7.177 -27.257  1.00  0.00     0.171 HD
BRANCH  28  32
HETATM   32  C3  UNL     1       2.225  -6.321 -30.934  1.00  0.00     0.070 A 
HETATM   33  C2  UNL     1       3.500  -6.394 -31.395  1.00  0.00     0.140 A 
HETATM   34  N1  UNL     1       3.464  -6.073 -32.707  1.00  0.00    -0.306 N 
HETATM   35  C1  UNL     1       4.650  -6.042 -33.549  1.00  0.00     0.177 C 
HETATM   36  N6  UNL     1       2.229  -5.802 -33.086  1.00  0.00    -0.308 N 
HETATM   37  C21 UNL     1       1.435  -5.942 -32.030  1.00  0.00     0.138 A 
ATOM     38  H6  UNL     1       1.935  -5.533 -34.025  1.00  0.00     0.186 HD
ENDBRANCH  28  32
ENDBRANCH   1  26
TORSDOF 6
ENDMDL
MODEL 5
REMARK VINA RESULT: -6.585162277      7.007     11.728
REMARK  6 active torsions:
REMARK  status: ('A' for Active; 'I' for Inactive)
REMARK    1  A    between atoms: C3_4  and  N2_5 
REMARK       I    between atoms: N2_5  and  C4_7 
REMARK       I    between atoms: C4_7  and  N3_9 
REMARK    2  A    between atoms: N3_9  and  C5_11 
REMARK    3  A    between atoms: C6_12  and  C7_13 
REMARK    4  A    between atoms: C8_18  and  C9_19 
REMARK       I    between atoms: C9_19  and  N5_21 
REMARK    5  A    between atoms: N5_21  and  C10_23 
REMARK    6  A    between atoms: C20_33  and  O3_34 
ROOT
HETATM    1  C5  UNL     1       6.309 -16.968 -22.778  1.00  0.00     0.100 A 
HETATM    2  C6  UNL     1       5.185 -17.712 -22.605  1.00  0.00     0.104 A 
HETATM    3  N4  UNL     1       4.156 -17.122 -23.210  1.00  0.00    -0.346 N 
ATOM      4  H4  UNL     1       3.206 -17.492 -23.219  1.00  0.00     0.166 HD
HETATM    5  C8  UNL     1       4.534 -15.963 -23.814  1.00  0.00     0.137 A 
HETATM    6  C20 UNL     1       5.891 -15.848 -23.553  1.00  0.00     0.127 A 
ENDROOT
BRANCH   5   7
HETATM    7  C9  UNL     1       3.651 -15.076 -24.562  1.00  0.00     0.271 C 
HETATM    8  O2  UNL     1       3.921 -13.821 -24.406  1.00  0.00    -0.266 OA
HETATM    9  N5  UNL     1       2.585 -15.448 -25.395  1.00  0.00    -0.346 N 
ATOM     10  H5  UNL     1       2.364 -16.436 -25.523  1.00  0.00     0.163 HD
BRANCH   9  11
HETATM   11  C10 UNL     1       1.795 -14.443 -26.075  1.00  0.00     0.034 C 
HETATM   12  C11 UNL     1       2.584 -13.472 -26.882  1.00  0.00     0.035 C 
HETATM   13  C12 UNL     1       1.642 -12.437 -27.458  1.00  0.00    -0.012 C 
HETATM   14  C13 UNL     1       0.881 -11.770 -26.363  1.00  0.00     0.009 C 
HETATM   15  C17 UNL     1       0.784 -13.111 -28.476  1.00  0.00     0.009 C 
HETATM   16  C14 UNL     1      -0.027 -12.784 -25.728  1.00  0.00    -0.012 C 
HETATM   17  C15 UNL     1      -0.892 -13.514 -26.727  1.00  0.00     0.009 C 
HETATM   18  C19 UNL     1       0.861 -13.831 -25.072  1.00  0.00     0.035 C 
HETATM   19  C16 UNL     1      -0.015 -14.179 -27.763  1.00  0.00    -0.012 C 
HETATM   20  C18 UNL     1       0.881 -15.163 -27.096  1.00  0.00     0.035 C 
ENDBRANCH   9  11
ENDBRANCH   5   7
BRANCH   6  21
HETATM   21  O3  UNL     1       6.794 -14.908 -23.897  1.00  0.00    -0.356 OA
ATOM     22  H3  UNL     1       6.914 -14.150 -23.337  1.00  0.00     0.218 HD
ENDBRANCH   6  21
BRANCH   2  23
HETATM   23  C7  UNL     1       5.103 -19.004 -21.850  1.00  0.00     0.405 C 
HETATM   24  F1  UNL     1       5.445 -18.833 -20.522  1.00  0.00    -0.207 F 
HETATM   25  F2  UNL     1       5.925 -19.936 -22.412  1.00  0.00    -0.207 F 
ENDBRANCH   2  23
BRANCH   1  26
HETATM   26  N3  UNL     1       7.636 -17.201 -22.315  1.00  0.00    -0.304 N 
HETATM   27  C4  UNL     1       8.072 -16.775 -21.011  1.00  0.00     0.325 C 
HETATM   28  N2  UNL     1       9.392 -17.035 -20.614  1.00  0.00    -0.306 N 
HETATM   29  O1  UNL     1       7.270 -16.190 -20.273  1.00  0.00    -0.247 OA
ATOM     30  H2  UNL     1      10.012 -17.520 -21.262  1.00  0.00     0.171 HD
ATOM     31  H3  UNL     1       8.296 -17.683 -22.925  1.00  0.00     0.171 HD
BRANCH  28  32
HETATM   32  C3  UNL     1       9.895 -16.654 -19.361  1.00  0.00     0.070 A 
HETATM   33  C2  UNL     1      10.162 -15.411 -18.884  1.00  0.00     0.140 A 
HETATM   34  N1  UNL     1      10.630 -15.563 -17.626  1.00  0.00    -0.306 N 
HETATM   35  C1  UNL     1      11.027 -14.444 -16.785  1.00  0.00     0.177 C 
HETATM   36  N6  UNL     1      10.669 -16.841 -17.295  1.00  0.00    -0.308 N 
HETATM   37  C21 UNL     1      10.226 -17.546 -18.330  1.00  0.00     0.138 A 
ATOM     38  H6  UNL     1      10.983 -17.220 -16.402  1.00  0.00     0.186 HD
ENDBRANCH  28  32
ENDBRANCH   1  26
TORSDOF 6
ENDMDL
