MODEL 1
REMARK VINA RESULT: -5.861827974      0.000      0.000
REMARK  10 active torsions:
REMARK  status: ('A' for Active; 'I' for Inactive)
REMARK    1  A    between atoms: C2_2  and  C5_5 
REMARK    2  A    between atoms: C7_7  and  C8_8 
REMARK    3  A    between atoms: C11_15  and  C12_16 
REMARK    4  A    between atoms: C12_16  and  O1_17 
REMARK    5  A    between atoms: O1_17  and  C13_18 
REMARK       I    between atoms: C13_18  and  N2_20 
REMARK    6  A    between atoms: N2_20  and  C14_22 
REMARK    7  A    between atoms: C14_22  and  C15_23 
REMARK    8  A    between atoms: C15_23  and  O3_24 
REMARK    9  A    between atoms: C16_28  and  C17_29 
REMARK   10  A    between atoms: C21_33  and  O4_34 
ROOT
HETATM    1  C8  UNL     1       5.462 -17.857 -23.806  1.00  0.00     0.072 A 
HETATM    2  N1  UNL     1       5.611 -19.041 -24.364  1.00  0.00    -0.342 N 
ATOM      3  H1  UNL     1       4.864 -19.730 -24.457  1.00  0.00     0.167 HD
HETATM    4  C9  UNL     1       6.867 -19.227 -24.795  1.00  0.00     0.143 A 
HETATM    5 CL1  UNL     1       7.541 -20.616 -25.588  1.00  0.00    -0.061 Cl
HETATM    6  C10 UNL     1       7.603 -18.070 -24.496  1.00  0.00     0.165 A 
HETATM    7  F1  UNL     1       8.917 -17.888 -24.830  1.00  0.00    -0.202 F 
HETATM    8  C11 UNL     1       6.714 -17.225 -23.877  1.00  0.00     0.037 A 
ENDROOT
BRANCH   1   9
HETATM    9  C7  UNL     1       4.227 -17.337 -23.244  1.00  0.00     0.060 A 
HETATM   10  C6  UNL     1       3.784 -17.774 -21.989  1.00  0.00     0.042 A 
HETATM   11  C5  UNL     1       2.629 -17.330 -21.389  1.00  0.00    -0.013 A 
HETATM   12  C21 UNL     1       1.877 -16.404 -22.077  1.00  0.00     0.096 A 
HETATM   13  C16 UNL     1       2.297 -15.961 -23.317  1.00  0.00     0.051 A 
HETATM   14  N3  UNL     1       3.432 -16.436 -23.838  1.00  0.00    -0.355 N 
ATOM     15  H3  UNL     1       3.714 -16.089 -24.755  1.00  0.00     0.166 HD
BRANCH  11  16
HETATM   16  C2  UNL     1       2.221 -17.834 -20.047  1.00  0.00    -0.021 C 
HETATM   17  C1  UNL     1       3.409 -18.581 -19.477  1.00  0.00     0.019 C 
HETATM   18  C3  UNL     1       1.098 -18.862 -20.176  1.00  0.00     0.019 C 
HETATM   19  C4  UNL     1       1.867 -16.752 -19.092  1.00  0.00     0.019 C 
ENDBRANCH  11  16
BRANCH  12  20
HETATM   20  O4  UNL     1       0.712 -15.898 -21.574  1.00  0.00    -0.358 OA
ATOM     21  H4  UNL     1      -0.110 -15.958 -22.047  1.00  0.00     0.217 HD
ENDBRANCH  12  20
BRANCH  13  22
HETATM   22  C17 UNL     1       1.455 -14.951 -24.042  1.00  0.00    -0.006 C 
HETATM   23  C18 UNL     1       1.117 -13.797 -23.121  1.00  0.00     0.021 C 
HETATM   24  C19 UNL     1       2.214 -14.381 -25.224  1.00  0.00     0.021 C 
HETATM   25  C20 UNL     1       0.210 -15.607 -24.575  1.00  0.00     0.021 C 
ENDBRANCH  13  22
ENDBRANCH   1   9
BRANCH   8  26
HETATM   26  C12 UNL     1       6.906 -15.862 -23.394  1.00  0.00     0.225 C 
BRANCH  26  27
HETATM   27  O1  UNL     1       8.222 -15.433 -23.273  1.00  0.00    -0.299 OA
BRANCH  27  28
HETATM   28  C13 UNL     1       9.008 -15.470 -22.141  1.00  0.00     0.360 C 
HETATM   29  O2  UNL     1       9.740 -14.469 -21.866  1.00  0.00    -0.239 OA
HETATM   30  N2  UNL     1       9.036 -16.592 -21.257  1.00  0.00    -0.335 N 
ATOM     31  H2  UNL     1       8.449 -17.395 -21.481  1.00  0.00     0.164 HD
BRANCH  30  32
HETATM   32  C14 UNL     1       9.839 -16.653 -20.081  1.00  0.00     0.151 C 
BRANCH  32  33
HETATM   33  C15 UNL     1       9.012 -16.293 -18.869  1.00  0.00     0.183 C 
BRANCH  33  34
HETATM   34  O3  UNL     1       8.488 -14.998 -18.976  1.00  0.00    -0.399 OA
ATOM     35  H3  UNL     1       8.937 -14.394 -18.394  1.00  0.00     0.209 HD
ENDBRANCH  33  34
ENDBRANCH  32  33
ENDBRANCH  30  32
ENDBRANCH  27  28
ENDBRANCH  26  27
ENDBRANCH   8  26
TORSDOF 10
ENDMDL
MODEL 2
REMARK VINA RESULT: -5.812702348      3.176      6.710
REMARK  10 active torsions:
REMARK  status: ('A' for Active; 'I' for Inactive)
REMARK    1  A    between atoms: C2_2  and  C5_5 
REMARK    2  A    between atoms: C7_7  and  C8_8 
REMARK    3  A    between atoms: C11_15  and  C12_16 
REMARK    4  A    between atoms: C12_16  and  O1_17 
REMARK    5  A    between atoms: O1_17  and  C13_18 
REMARK       I    between atoms: C13_18  and  N2_20 
REMARK    6  A    between atoms: N2_20  and  C14_22 
REMARK    7  A    between atoms: C14_22  and  C15_23 
REMARK    8  A    between atoms: C15_23  and  O3_24 
REMARK    9  A    between atoms: C16_28  and  C17_29 
REMARK   10  A    between atoms: C21_33  and  O4_34 
ROOT
HETATM    1  C8  UNL     1       6.124 -18.106 -23.932  1.00  0.00     0.072 A 
HETATM    2  N1  UNL     1       5.037 -18.661 -23.438  1.00  0.00    -0.342 N 
ATOM      3  H1  UNL     1       4.832 -19.660 -23.481  1.00  0.00     0.167 HD
HETATM    4  C9  UNL     1       4.233 -17.750 -22.871  1.00  0.00     0.143 A 
HETATM    5 CL1  UNL     1       2.701 -17.997 -22.095  1.00  0.00    -0.061 Cl
HETATM    6  C10 UNL     1       4.844 -16.493 -23.004  1.00  0.00     0.165 A 
HETATM    7  F1  UNL     1       4.325 -15.331 -22.501  1.00  0.00    -0.202 F 
HETATM    8  C11 UNL     1       6.022 -16.730 -23.669  1.00  0.00     0.037 A 
ENDROOT
BRANCH   1   9
HETATM    9  C7  UNL     1       7.203 -18.811 -24.605  1.00  0.00     0.060 A 
HETATM   10  C6  UNL     1       8.484 -18.843 -24.039  1.00  0.00     0.042 A 
HETATM   11  C5  UNL     1       9.555 -19.488 -24.610  1.00  0.00    -0.013 A 
HETATM   12  C21 UNL     1       9.338 -20.133 -25.808  1.00  0.00     0.096 A 
HETATM   13  C16 UNL     1       8.081 -20.112 -26.382  1.00  0.00     0.051 A 
HETATM   14  N3  UNL     1       7.085 -19.465 -25.768  1.00  0.00    -0.355 N 
ATOM     15  H3  UNL     1       6.170 -19.468 -26.219  1.00  0.00     0.166 HD
BRANCH  11  16
HETATM   16  C2  UNL     1      10.891 -19.488 -23.950  1.00  0.00    -0.021 C 
HETATM   17  C1  UNL     1      10.700 -18.889 -22.571  1.00  0.00     0.019 C 
HETATM   18  C3  UNL     1      11.855 -18.558 -24.683  1.00  0.00     0.019 C 
HETATM   19  C4  UNL     1      11.466 -20.848 -23.776  1.00  0.00     0.019 C 
ENDBRANCH  11  16
BRANCH  12  20
HETATM   20  O4  UNL     1      10.333 -20.803 -26.463  1.00  0.00    -0.358 OA
ATOM     21  H4  UNL     1      10.498 -20.680 -27.390  1.00  0.00     0.217 HD
ENDBRANCH  12  20
BRANCH  13  22
HETATM   22  C17 UNL     1       7.876 -20.824 -27.689  1.00  0.00    -0.006 C 
HETATM   23  C18 UNL     1       7.851 -22.322 -27.468  1.00  0.00     0.021 C 
HETATM   24  C19 UNL     1       6.545 -20.433 -28.300  1.00  0.00     0.021 C 
HETATM   25  C20 UNL     1       8.954 -20.433 -28.662  1.00  0.00     0.021 C 
ENDBRANCH  13  22
ENDBRANCH   1   9
BRANCH   8  26
HETATM   26  C12 UNL     1       7.088 -15.804 -24.036  1.00  0.00     0.225 C 
BRANCH  26  27
HETATM   27  O1  UNL     1       7.644 -15.067 -22.998  1.00  0.00    -0.299 OA
BRANCH  27  28
HETATM   28  C13 UNL     1       8.675 -15.449 -22.166  1.00  0.00     0.360 C 
HETATM   29  O2  UNL     1       9.870 -15.179 -22.504  1.00  0.00    -0.239 OA
HETATM   30  N2  UNL     1       8.460 -16.139 -20.935  1.00  0.00    -0.335 N 
ATOM     31  H2  UNL     1       7.500 -16.356 -20.668  1.00  0.00     0.164 HD
BRANCH  30  32
HETATM   32  C14 UNL     1       9.509 -16.544 -20.059  1.00  0.00     0.151 C 
BRANCH  32  33
HETATM   33  C15 UNL     1       9.558 -15.634 -18.854  1.00  0.00     0.183 C 
BRANCH  33  34
HETATM   34  O3  UNL     1       8.388 -14.870 -18.744  1.00  0.00    -0.399 OA
ATOM     35  H3  UNL     1       8.333 -14.443 -17.897  1.00  0.00     0.209 HD
ENDBRANCH  33  34
ENDBRANCH  32  33
ENDBRANCH  30  32
ENDBRANCH  27  28
ENDBRANCH  26  27
ENDBRANCH   8  26
TORSDOF 10
ENDMDL
MODEL 3
REMARK VINA RESULT: -5.787371680      6.417      9.862
REMARK  10 active torsions:
REMARK  status: ('A' for Active; 'I' for Inactive)
REMARK    1  A    between atoms: C2_2  and  C5_5 
REMARK    2  A    between atoms: C7_7  and  C8_8 
REMARK    3  A    between atoms: C11_15  and  C12_16 
REMARK    4  A    between atoms: C12_16  and  O1_17 
REMARK    5  A    between atoms: O1_17  and  C13_18 
REMARK       I    between atoms: C13_18  and  N2_20 
REMARK    6  A    between atoms: N2_20  and  C14_22 
REMARK    7  A    between atoms: C14_22  and  C15_23 
REMARK    8  A    between atoms: C15_23  and  O3_24 
REMARK    9  A    between atoms: C16_28  and  C17_29 
REMARK   10  A    between atoms: C21_33  and  O4_34 
ROOT
HETATM    1  C8  UNL     1       2.491 -11.633 -27.665  1.00  0.00     0.072 A 
HETATM    2  N1  UNL     1       3.455 -11.378 -28.526  1.00  0.00    -0.342 N 
ATOM      3  H1  UNL     1       4.124 -12.072 -28.861  1.00  0.00     0.167 HD
HETATM    4  C9  UNL     1       3.447 -10.093 -28.906  1.00  0.00     0.143 A 
HETATM    5 CL1  UNL     1       4.513  -9.288 -30.014  1.00  0.00    -0.061 Cl
HETATM    6  C10 UNL     1       2.391  -9.451 -28.241  1.00  0.00     0.165 A 
HETATM    7  F1  UNL     1       2.055  -8.137 -28.421  1.00  0.00    -0.202 F 
HETATM    8  C11 UNL     1       1.805 -10.424 -27.468  1.00  0.00     0.037 A 
ENDROOT
BRANCH   1   9
HETATM    9  C7  UNL     1       2.217 -12.927 -27.062  1.00  0.00     0.060 A 
HETATM   10  C6  UNL     1       1.276 -13.789 -27.642  1.00  0.00     0.042 A 
HETATM   11  C5  UNL     1       0.961 -15.027 -27.135  1.00  0.00    -0.013 A 
HETATM   12  C21 UNL     1       1.617 -15.426 -25.991  1.00  0.00     0.096 A 
HETATM   13  C16 UNL     1       2.548 -14.590 -25.404  1.00  0.00     0.051 A 
HETATM   14  N3  UNL     1       2.804 -13.399 -25.954  1.00  0.00    -0.355 N 
ATOM     15  H3  UNL     1       3.496 -12.806 -25.496  1.00  0.00     0.166 HD
BRANCH  11  16
HETATM   16  C2  UNL     1      -0.046 -15.896 -27.807  1.00  0.00    -0.021 C 
HETATM   17  C1  UNL     1      -0.540 -15.138 -29.022  1.00  0.00     0.019 C 
HETATM   18  C3  UNL     1      -1.266 -16.099 -26.911  1.00  0.00     0.019 C 
HETATM   19  C4  UNL     1       0.510 -17.191 -28.279  1.00  0.00     0.019 C 
ENDBRANCH  11  16
BRANCH  12  20
HETATM   20  O4  UNL     1       1.378 -16.637 -25.403  1.00  0.00    -0.358 OA
ATOM     21  H4  UNL     1       0.948 -16.711 -24.560  1.00  0.00     0.217 HD
ENDBRANCH  12  20
BRANCH  13  22
HETATM   22  C17 UNL     1       3.245 -15.054 -24.158  1.00  0.00    -0.006 C 
HETATM   23  C18 UNL     1       3.489 -16.547 -24.221  1.00  0.00     0.021 C 
HETATM   24  C19 UNL     1       4.596 -14.379 -24.026  1.00  0.00     0.021 C 
HETATM   25  C20 UNL     1       2.433 -14.684 -22.947  1.00  0.00     0.021 C 
ENDBRANCH  13  22
ENDBRANCH   1   9
BRANCH   8  26
HETATM   26  C12 UNL     1       0.631 -10.348 -26.606  1.00  0.00     0.225 C 
BRANCH  26  27
HETATM   27  O1  UNL     1      -0.556  -9.961 -27.217  1.00  0.00    -0.299 OA
BRANCH  27  28
HETATM   28  C13 UNL     1      -1.268  -8.802 -26.992  1.00  0.00     0.360 C 
HETATM   29  O2  UNL     1      -2.527  -8.872 -26.842  1.00  0.00    -0.239 OA
HETATM   30  N2  UNL     1      -0.648  -7.518 -26.919  1.00  0.00    -0.335 N 
ATOM     31  H2  UNL     1       0.363  -7.464 -27.042  1.00  0.00     0.164 HD
BRANCH  30  32
HETATM   32  C14 UNL     1      -1.362  -6.306 -26.687  1.00  0.00     0.151 C 
BRANCH  32  33
HETATM   33  C15 UNL     1      -0.855  -5.221 -27.608  1.00  0.00     0.183 C 
BRANCH  33  34
HETATM   34  O3  UNL     1       0.461  -4.857 -27.293  1.00  0.00    -0.399 OA
ATOM     35  H3  UNL     1       0.897  -4.459 -28.037  1.00  0.00     0.209 HD
ENDBRANCH  33  34
ENDBRANCH  32  33
ENDBRANCH  30  32
ENDBRANCH  27  28
ENDBRANCH  26  27
ENDBRANCH   8  26
TORSDOF 10
ENDMDL
MODEL 4
REMARK VINA RESULT: -5.725704617      6.304      9.375
REMARK  10 active torsions:
REMARK  status: ('A' for Active; 'I' for Inactive)
REMARK    1  A    between atoms: C2_2  and  C5_5 
REMARK    2  A    between atoms: C7_7  and  C8_8 
REMARK    3  A    between atoms: C11_15  and  C12_16 
REMARK    4  A    between atoms: C12_16  and  O1_17 
REMARK    5  A    between atoms: O1_17  and  C13_18 
REMARK       I    between atoms: C13_18  and  N2_20 
REMARK    6  A    between atoms: N2_20  and  C14_22 
REMARK    7  A    between atoms: C14_22  and  C15_23 
REMARK    8  A    between atoms: C15_23  and  O3_24 
REMARK    9  A    between atoms: C16_28  and  C17_29 
REMARK   10  A    between atoms: C21_33  and  O4_34 
ROOT
HETATM    1  C8  UNL     1       2.404 -12.061 -27.640  1.00  0.00     0.072 A 
HETATM    2  N1  UNL     1       3.417 -11.789 -28.437  1.00  0.00    -0.342 N 
ATOM      3  H1  UNL     1       4.096 -12.480 -28.757  1.00  0.00     0.167 HD
HETATM    4  C9  UNL     1       3.445 -10.492 -28.773  1.00  0.00     0.143 A 
HETATM    5 CL1  UNL     1       4.581  -9.666 -29.792  1.00  0.00    -0.061 Cl
HETATM    6  C10 UNL     1       2.359  -9.860 -28.147  1.00  0.00     0.165 A 
HETATM    7  F1  UNL     1       2.050  -8.536 -28.301  1.00  0.00    -0.202 F 
HETATM    8  C11 UNL     1       1.720 -10.850 -27.442  1.00  0.00     0.037 A 
ENDROOT
BRANCH   1   9
HETATM    9  C7  UNL     1       2.081 -13.370 -27.099  1.00  0.00     0.060 A 
HETATM   10  C6  UNL     1       2.618 -13.778 -25.870  1.00  0.00     0.042 A 
HETATM   11  C5  UNL     1       2.361 -14.997 -25.291  1.00  0.00    -0.013 A 
HETATM   12  C21 UNL     1       1.526 -15.856 -25.972  1.00  0.00     0.096 A 
HETATM   13  C16 UNL     1       0.987 -15.472 -27.185  1.00  0.00     0.051 A 
HETATM   14  N3  UNL     1       1.281 -14.269 -27.688  1.00  0.00    -0.355 N 
ATOM     15  H3  UNL     1       0.866 -14.017 -28.585  1.00  0.00     0.166 HD
BRANCH  11  16
HETATM   16  C2  UNL     1       2.962 -15.363 -23.977  1.00  0.00    -0.021 C 
HETATM   17  C1  UNL     1       4.186 -14.488 -23.794  1.00  0.00     0.019 C 
HETATM   18  C3  UNL     1       3.472 -16.803 -24.000  1.00  0.00     0.019 C 
HETATM   19  C4  UNL     1       2.056 -15.120 -22.824  1.00  0.00     0.019 C 
ENDBRANCH  11  16
BRANCH  12  20
HETATM   20  O4  UNL     1       1.206 -17.093 -25.488  1.00  0.00    -0.358 OA
ATOM     21  H4  UNL     1       0.502 -17.222 -24.862  1.00  0.00     0.217 HD
ENDBRANCH  12  20
BRANCH  13  22
HETATM   22  C17 UNL     1       0.081 -16.431 -27.904  1.00  0.00    -0.006 C 
HETATM   23  C18 UNL     1      -1.198 -16.629 -27.117  1.00  0.00     0.021 C 
HETATM   24  C19 UNL     1      -0.303 -15.878 -29.261  1.00  0.00     0.021 C 
HETATM   25  C20 UNL     1       0.791 -17.738 -28.130  1.00  0.00     0.021 C 
ENDBRANCH  13  22
ENDBRANCH   1   9
BRANCH   8  26
HETATM   26  C12 UNL     1       0.500 -10.787 -26.644  1.00  0.00     0.225 C 
BRANCH  26  27
HETATM   27  O1  UNL     1       0.154  -9.536 -26.149  1.00  0.00    -0.299 OA
BRANCH  27  28
HETATM   28  C13 UNL     1      -0.807  -8.682 -26.647  1.00  0.00     0.360 C 
HETATM   29  O2  UNL     1      -1.813  -9.171 -27.249  1.00  0.00    -0.239 OA
HETATM   30  N2  UNL     1      -0.721  -7.263 -26.517  1.00  0.00    -0.335 N 
ATOM     31  H2  UNL     1       0.089  -6.872 -26.035  1.00  0.00     0.164 HD
BRANCH  30  32
HETATM   32  C14 UNL     1      -1.702  -6.360 -27.022  1.00  0.00     0.151 C 
BRANCH  32  33
HETATM   33  C15 UNL     1      -1.082  -5.003 -27.263  1.00  0.00     0.183 C 
BRANCH  33  34
HETATM   34  O3  UNL     1       0.317  -5.074 -27.265  1.00  0.00    -0.399 OA
ATOM     35  H3  UNL     1       0.705  -4.275 -26.926  1.00  0.00     0.209 HD
ENDBRANCH  33  34
ENDBRANCH  32  33
ENDBRANCH  30  32
ENDBRANCH  27  28
ENDBRANCH  26  27
ENDBRANCH   8  26
TORSDOF 10
ENDMDL
MODEL 5
REMARK VINA RESULT: -5.720387022      9.171     12.149
REMARK  10 active torsions:
REMARK  status: ('A' for Active; 'I' for Inactive)
REMARK    1  A    between atoms: C2_2  and  C5_5 
REMARK    2  A    between atoms: C7_7  and  C8_8 
REMARK    3  A    between atoms: C11_15  and  C12_16 
REMARK    4  A    between atoms: C12_16  and  O1_17 
REMARK    5  A    between atoms: O1_17  and  C13_18 
REMARK       I    between atoms: C13_18  and  N2_20 
REMARK    6  A    between atoms: N2_20  and  C14_22 
REMARK    7  A    between atoms: C14_22  and  C15_23 
REMARK    8  A    between atoms: C15_23  and  O3_24 
REMARK    9  A    between atoms: C16_28  and  C17_29 
REMARK   10  A    between atoms: C21_33  and  O4_34 
ROOT
HETATM    1  C8  UNL     1       2.387  -7.255 -30.825  1.00  0.00     0.072 A 
HETATM    2  N1  UNL     1       2.549  -6.279 -31.695  1.00  0.00    -0.342 N 
ATOM      3  H1  UNL     1       1.799  -5.667 -32.017  1.00  0.00     0.167 HD
HETATM    4  C9  UNL     1       3.822  -6.191 -32.105  1.00  0.00     0.143 A 
HETATM    5 CL1  UNL     1       4.517  -5.075 -33.236  1.00  0.00    -0.061 Cl
HETATM    6  C10 UNL     1       4.557  -7.191 -31.449  1.00  0.00     0.165 A 
HETATM    7  F1  UNL     1       5.905  -7.372 -31.593  1.00  0.00    -0.202 F 
HETATM    8  C11 UNL     1       3.648  -7.848 -30.655  1.00  0.00     0.037 A 
ENDROOT
BRANCH   1   9
HETATM    9  C7  UNL     1       1.134  -7.614 -30.181  1.00  0.00     0.060 A 
HETATM   10  C6  UNL     1       0.506  -6.714 -29.310  1.00  0.00     0.042 A 
HETATM   11  C5  UNL     1      -0.678  -6.977 -28.664  1.00  0.00    -0.013 A 
HETATM   12  C21 UNL     1      -1.265  -8.201 -28.896  1.00  0.00     0.096 A 
HETATM   13  C16 UNL     1      -0.661  -9.103 -29.751  1.00  0.00     0.051 A 
HETATM   14  N3  UNL     1       0.491  -8.778 -30.346  1.00  0.00    -0.355 N 
ATOM     15  H3  UNL     1       0.912  -9.466 -30.970  1.00  0.00     0.166 HD
BRANCH  11  16
HETATM   16  C2  UNL     1      -1.295  -5.969 -27.755  1.00  0.00    -0.021 C 
HETATM   17  C1  UNL     1      -0.302  -4.832 -27.620  1.00  0.00     0.019 C 
HETATM   18  C3  UNL     1      -1.471  -6.545 -26.352  1.00  0.00     0.019 C 
HETATM   19  C4  UNL     1      -2.564  -5.399 -28.278  1.00  0.00     0.019 C 
ENDBRANCH  11  16
BRANCH  12  20
HETATM   20  O4  UNL     1      -2.442  -8.565 -28.303  1.00  0.00    -0.358 OA
ATOM     21  H4  UNL     1      -3.024  -9.206 -28.693  1.00  0.00     0.217 HD
ENDBRANCH  12  20
BRANCH  13  22
HETATM   22  C17 UNL     1      -1.325 -10.430 -29.983  1.00  0.00    -0.006 C 
HETATM   23  C18 UNL     1      -2.699 -10.226 -30.586  1.00  0.00     0.021 C 
HETATM   24  C19 UNL     1      -0.519 -11.260 -30.961  1.00  0.00     0.021 C 
HETATM   25  C20 UNL     1      -1.404 -11.198 -28.691  1.00  0.00     0.021 C 
ENDBRANCH  13  22
ENDBRANCH   1   9
BRANCH   8  26
HETATM   26  C12 UNL     1       3.853  -8.942 -29.712  1.00  0.00     0.225 C 
BRANCH  26  27
HETATM   27  O1  UNL     1       4.123 -10.188 -30.265  1.00  0.00    -0.299 OA
BRANCH  27  28
HETATM   28  C13 UNL     1       3.503 -11.382 -29.964  1.00  0.00     0.360 C 
HETATM   29  O2  UNL     1       3.785 -12.412 -30.652  1.00  0.00    -0.239 OA
HETATM   30  N2  UNL     1       2.550 -11.513 -28.909  1.00  0.00    -0.335 N 
ATOM     31  H2  UNL     1       2.324 -10.684 -28.360  1.00  0.00     0.164 HD
BRANCH  30  32
HETATM   32  C14 UNL     1       1.897 -12.737 -28.578  1.00  0.00     0.151 C 
BRANCH  32  33
HETATM   33  C15 UNL     1       2.143 -13.081 -27.128  1.00  0.00     0.183 C 
BRANCH  33  34
HETATM   34  O3  UNL     1       3.473 -13.467 -26.914  1.00  0.00    -0.399 OA
ATOM     35  H3  UNL     1       3.558 -14.413 -26.885  1.00  0.00     0.209 HD
ENDBRANCH  33  34
ENDBRANCH  32  33
ENDBRANCH  30  32
ENDBRANCH  27  28
ENDBRANCH  26  27
ENDBRANCH   8  26
TORSDOF 10
ENDMDL
