MODEL 1
REMARK VINA RESULT: -6.902036719      0.000      0.000
REMARK  3 active torsions:
REMARK  status: ('A' for Active; 'I' for Inactive)
REMARK    1  A    between atoms: C4_5  and  C5_6 
REMARK    2  A    between atoms: C5_6  and  N1_7 
REMARK    3  A    between atoms: N1_7  and  C6_10 
ROOT
HETATM    1  N1  UNL     1      -8.466 -26.208  29.306  1.00  0.00    -0.070 N 
ATOM      2  H11 UNL     1      -9.098 -26.729  29.915  1.00  0.00     0.277 HD
ATOM      3  H12 UNL     1      -8.360 -26.883  28.550  1.00  0.00     0.277 HD
ENDROOT
BRANCH   1   4
HETATM    4  C5  UNL     1      -7.215 -25.984  29.958  1.00  0.00     0.239 C 
BRANCH   4   5
HETATM    5  C4  UNL     1      -7.101 -26.984  31.091  1.00  0.00     0.029 C 
HETATM    6  C3  UNL     1      -5.714 -26.920  31.641  1.00  0.00     0.017 C 
HETATM    7  C2  UNL     1      -5.647 -27.501  33.048  1.00  0.00     0.103 C 
HETATM    8  C1  UNL     1      -6.515 -26.666  33.912  1.00  0.00     0.217 C 
HETATM    9  O1  UNL     1      -6.241 -26.461  35.117  1.00  0.00    -0.274 OA
HETATM   10  N2  UNL     1      -7.676 -26.101  33.318  1.00  0.00    -0.361 N 
HETATM   11  C14 UNL     1      -8.179 -26.728  32.114  1.00  0.00     0.128 C 
ATOM     12  H2  UNL     1      -8.136 -25.288  33.725  1.00  0.00     0.162 HD
ENDBRANCH   4   5
ENDBRANCH   1   4
BRANCH   1  13
HETATM   13  C6  UNL     1      -9.111 -24.991  28.820  1.00  0.00     0.185 C 
HETATM   14  C7  UNL     1      -8.092 -23.923  28.657  1.00  0.00     0.033 C 
HETATM   15  C8  UNL     1      -8.525 -22.537  28.917  1.00  0.00     0.002 C 
HETATM   16  C9  UNL     1      -9.991 -22.267  28.905  1.00  0.00     0.000 C 
HETATM   17  C10 UNL     1     -10.700 -22.497  27.630  1.00  0.00     0.000 C 
HETATM   18  C11 UNL     1      -9.901 -23.014  26.499  1.00  0.00     0.000 C 
HETATM   19  C12 UNL     1      -9.717 -24.481  26.426  1.00  0.00     0.002 C 
HETATM   20  C13 UNL     1      -9.996 -25.247  27.668  1.00  0.00     0.033 C 
ENDBRANCH   1  13
TORSDOF 3
ENDMDL
MODEL 2
REMARK VINA RESULT: -6.819995272      0.673      1.834
REMARK  3 active torsions:
REMARK  status: ('A' for Active; 'I' for Inactive)
REMARK    1  A    between atoms: C4_5  and  C5_6 
REMARK    2  A    between atoms: C5_6  and  N1_7 
REMARK    3  A    between atoms: N1_7  and  C6_10 
ROOT
HETATM    1  N1  UNL     1      -8.359 -24.737  30.155  1.00  0.00    -0.070 N 
ATOM      2  H11 UNL     1      -8.280 -24.042  30.897  1.00  0.00     0.277 HD
ATOM      3  H12 UNL     1      -9.061 -25.350  30.568  1.00  0.00     0.277 HD
ENDROOT
BRANCH   1   4
HETATM    4  C5  UNL     1      -7.123 -25.432  29.987  1.00  0.00     0.239 C 
BRANCH   4   5
HETATM    5  C4  UNL     1      -7.106 -26.585  30.970  1.00  0.00     0.029 C 
HETATM    6  C3  UNL     1      -5.729 -26.704  31.537  1.00  0.00     0.017 C 
HETATM    7  C2  UNL     1      -5.734 -27.479  32.848  1.00  0.00     0.103 C 
HETATM    8  C1  UNL     1      -6.554 -26.709  33.813  1.00  0.00     0.217 C 
HETATM    9  O1  UNL     1      -6.291 -26.696  35.038  1.00  0.00    -0.274 OA
HETATM   10  N2  UNL     1      -7.658 -25.981  33.293  1.00  0.00    -0.361 N 
HETATM   11  C14 UNL     1      -8.182 -26.393  32.008  1.00  0.00     0.128 C 
ATOM     12  H2  UNL     1      -8.066 -25.199  33.806  1.00  0.00     0.162 HD
ENDBRANCH   4   5
ENDBRANCH   1   4
BRANCH   1  13
HETATM   13  C6  UNL     1      -8.870 -24.125  28.931  1.00  0.00     0.185 C 
HETATM   14  C7  UNL     1      -9.910 -25.001  28.336  1.00  0.00     0.033 C 
HETATM   15  C8  UNL     1     -10.009 -25.021  26.864  1.00  0.00     0.002 C 
HETATM   16  C9  UNL     1      -9.382 -23.891  26.124  1.00  0.00     0.000 C 
HETATM   17  C10 UNL     1      -9.931 -22.543  26.375  1.00  0.00     0.000 C 
HETATM   18  C11 UNL     1     -11.020 -22.435  27.369  1.00  0.00     0.000 C 
HETATM   19  C12 UNL     1     -10.620 -22.314  28.789  1.00  0.00     0.002 C 
HETATM   20  C13 UNL     1      -9.225 -22.705  29.120  1.00  0.00     0.033 C 
ENDBRANCH   1  13
TORSDOF 3
ENDMDL
MODEL 3
REMARK VINA RESULT: -6.771117410      2.451      5.978
REMARK  3 active torsions:
REMARK  status: ('A' for Active; 'I' for Inactive)
REMARK    1  A    between atoms: C4_5  and  C5_6 
REMARK    2  A    between atoms: C5_6  and  N1_7 
REMARK    3  A    between atoms: N1_7  and  C6_10 
ROOT
HETATM    1  N1  UNL     1      -9.434 -25.626  30.136  1.00  0.00    -0.070 N 
ATOM      2  H11 UNL     1     -10.381 -25.860  30.432  1.00  0.00     0.277 HD
ATOM      3  H12 UNL     1      -9.398 -24.650  30.427  1.00  0.00     0.277 HD
ENDROOT
BRANCH   1   4
HETATM    4  C5  UNL     1      -9.314 -25.730  28.716  1.00  0.00     0.239 C 
BRANCH   4   5
HETATM    5  C4  UNL     1      -9.154 -24.328  28.164  1.00  0.00     0.029 C 
HETATM    6  C3  UNL     1      -9.972 -23.396  28.995  1.00  0.00     0.017 C 
HETATM    7  C2  UNL     1      -9.504 -21.955  28.836  1.00  0.00     0.103 C 
HETATM    8  C1  UNL     1      -8.106 -21.888  29.325  1.00  0.00     0.217 C 
HETATM    9  O1  UNL     1      -7.654 -20.866  29.891  1.00  0.00    -0.274 OA
HETATM   10  N2  UNL     1      -7.292 -23.036  29.127  1.00  0.00    -0.361 N 
HETATM   11  C14 UNL     1      -7.692 -23.967  28.093  1.00  0.00     0.128 C 
ATOM     12  H2  UNL     1      -6.458 -23.197  29.692  1.00  0.00     0.162 HD
ENDBRANCH   4   5
ENDBRANCH   1   4
BRANCH   1  13
HETATM   13  C6  UNL     1      -8.454 -26.418  30.876  1.00  0.00     0.185 C 
HETATM   14  C7  UNL     1      -7.962 -27.525  30.018  1.00  0.00     0.033 C 
HETATM   15  C8  UNL     1      -7.615 -28.791  30.691  1.00  0.00     0.002 C 
HETATM   16  C9  UNL     1      -7.380 -28.740  32.161  1.00  0.00     0.000 C 
HETATM   17  C10 UNL     1      -6.250 -27.912  32.627  1.00  0.00     0.000 C 
HETATM   18  C11 UNL     1      -5.484 -27.177  31.597  1.00  0.00     0.000 C 
HETATM   19  C12 UNL     1      -6.014 -25.859  31.185  1.00  0.00     0.002 C 
HETATM   20  C13 UNL     1      -7.432 -25.576  31.528  1.00  0.00     0.033 C 
ENDBRANCH   1  13
TORSDOF 3
ENDMDL
MODEL 4
REMARK VINA RESULT: -6.758748166      1.246      2.238
REMARK  3 active torsions:
REMARK  status: ('A' for Active; 'I' for Inactive)
REMARK    1  A    between atoms: C4_5  and  C5_6 
REMARK    2  A    between atoms: C5_6  and  N1_7 
REMARK    3  A    between atoms: N1_7  and  C6_10 
ROOT
HETATM    1  N1  UNL     1      -7.283 -23.498  28.939  1.00  0.00    -0.070 N 
ATOM      2  H11 UNL     1      -6.753 -24.282  28.558  1.00  0.00     0.277 HD
ATOM      3  H12 UNL     1      -6.581 -22.762  28.860  1.00  0.00     0.277 HD
ENDROOT
BRANCH   1   4
HETATM    4  C5  UNL     1      -7.611 -23.734  30.308  1.00  0.00     0.239 C 
BRANCH   4   5
HETATM    5  C4  UNL     1      -7.377 -25.204  30.591  1.00  0.00     0.029 C 
HETATM    6  C3  UNL     1      -5.984 -25.373  31.101  1.00  0.00     0.017 C 
HETATM    7  C2  UNL     1      -5.823 -26.687  31.854  1.00  0.00     0.103 C 
HETATM    8  C1  UNL     1      -6.730 -26.637  33.026  1.00  0.00     0.217 C 
HETATM    9  O1  UNL     1      -6.437 -27.194  34.110  1.00  0.00    -0.274 OA
HETATM   10  N2  UNL     1      -7.953 -25.930  32.874  1.00  0.00    -0.361 N 
HETATM   11  C14 UNL     1      -8.440 -25.724  31.526  1.00  0.00     0.128 C 
ATOM     12  H2  UNL     1      -8.467 -25.580  33.682  1.00  0.00     0.162 HD
ENDBRANCH   4   5
ENDBRANCH   1   4
BRANCH   1  13
HETATM   13  C6  UNL     1      -8.435 -23.198  28.093  1.00  0.00     0.185 C 
HETATM   14  C7  UNL     1      -9.193 -24.447  27.829  1.00  0.00     0.033 C 
HETATM   15  C8  UNL     1      -9.857 -24.563  26.516  1.00  0.00     0.002 C 
HETATM   16  C9  UNL     1     -10.076 -23.305  25.749  1.00  0.00     0.000 C 
HETATM   17  C10 UNL     1     -10.956 -22.293  26.366  1.00  0.00     0.000 C 
HETATM   18  C11 UNL     1     -11.503 -22.602  27.704  1.00  0.00     0.000 C 
HETATM   19  C12 UNL     1     -10.650 -22.272  28.867  1.00  0.00     0.002 C 
HETATM   20  C13 UNL     1      -9.208 -22.043  28.589  1.00  0.00     0.033 C 
ENDBRANCH   1  13
TORSDOF 3
ENDMDL
MODEL 5
REMARK VINA RESULT: -6.712697398      2.820      6.200
REMARK  3 active torsions:
REMARK  status: ('A' for Active; 'I' for Inactive)
REMARK    1  A    between atoms: C4_5  and  C5_6 
REMARK    2  A    between atoms: C5_6  and  N1_7 
REMARK    3  A    between atoms: N1_7  and  C6_10 
ROOT
HETATM    1  N1  UNL     1      -8.731 -26.014  29.091  1.00  0.00    -0.070 N 
ATOM      2  H11 UNL     1      -8.288 -25.761  28.208  1.00  0.00     0.277 HD
ATOM      3  H12 UNL     1      -9.450 -26.650  28.747  1.00  0.00     0.277 HD
ENDROOT
BRANCH   1   4
HETATM    4  C5  UNL     1      -9.325 -24.866  29.698  1.00  0.00     0.239 C 
BRANCH   4   5
HETATM    5  C4  UNL     1      -9.159 -23.701  28.743  1.00  0.00     0.029 C 
HETATM    6  C3  UNL     1     -10.219 -22.692  29.038  1.00  0.00     0.017 C 
HETATM    7  C2  UNL     1      -9.846 -21.320  28.491  1.00  0.00     0.103 C 
HETATM    8  C1  UNL     1      -8.609 -20.890  29.183  1.00  0.00     0.217 C 
HETATM    9  O1  UNL     1      -8.384 -19.685  29.443  1.00  0.00    -0.274 OA
HETATM   10  N2  UNL     1      -7.679 -21.902  29.545  1.00  0.00    -0.361 N 
HETATM   11  C14 UNL     1      -7.754 -23.160  28.832  1.00  0.00     0.128 C 
ATOM     12  H2  UNL     1      -6.987 -21.748  30.277  1.00  0.00     0.162 HD
ENDBRANCH   4   5
ENDBRANCH   1   4
BRANCH   1  13
HETATM   13  C6  UNL     1      -7.790 -26.724  29.953  1.00  0.00     0.185 C 
HETATM   14  C7  UNL     1      -7.603 -25.963  31.214  1.00  0.00     0.033 C 
HETATM   15  C8  UNL     1      -6.270 -26.024  31.843  1.00  0.00     0.002 C 
HETATM   16  C9  UNL     1      -5.370 -27.136  31.427  1.00  0.00     0.000 C 
HETATM   17  C10 UNL     1      -5.828 -28.509  31.720  1.00  0.00     0.000 C 
HETATM   18  C11 UNL     1      -7.154 -28.655  32.358  1.00  0.00     0.000 C 
HETATM   19  C12 UNL     1      -8.329 -28.673  31.460  1.00  0.00     0.002 C 
HETATM   20  C13 UNL     1      -8.120 -28.156  30.082  1.00  0.00     0.033 C 
ENDBRANCH   1  13
TORSDOF 3
ENDMDL
