MODEL 1
REMARK VINA RESULT: -8.444729327      0.000      0.000
REMARK  5 active torsions:
REMARK  status: ('A' for Active; 'I' for Inactive)
REMARK    1  A    between atoms: C2_2  and  C4_4 
REMARK    2  A    between atoms: C4_4  and  N1_5 
REMARK    3  A    between atoms: C4_4  and  C5_9 
REMARK       I    between atoms: C5_9  and  N2_11 
REMARK    4  A    between atoms: N2_11  and  N3_13 
REMARK    5  A    between atoms: C6_15  and  C7_16 
ROOT
HETATM    1  N3  UNL     1      -9.795 -10.098  -4.466  1.00  0.00    -0.308 N 
ATOM      2  H3  UNL     1      -9.600 -10.934  -5.017  1.00  0.00     0.186 HD
HETATM    3  C6  UNL     1     -10.456 -10.212  -3.360  1.00  0.00     0.120 C 
ENDROOT
BRANCH   1   4
HETATM    4  N2  UNL     1      -9.344  -8.865  -4.923  1.00  0.00    -0.269 N 
HETATM    5  C5  UNL     1      -7.990  -8.512  -5.107  1.00  0.00     0.267 C 
HETATM    6  O1  UNL     1      -7.155  -9.419  -4.822  1.00  0.00    -0.269 OA
ATOM      7  H2  UNL     1     -10.048  -8.160  -5.144  1.00  0.00     0.190 HD
BRANCH   5   8
HETATM    8  C4  UNL     1      -7.498  -7.233  -5.582  1.00  0.00     0.279 C 
BRANCH   8   9
HETATM    9  C2  UNL     1      -8.077  -6.770  -6.884  1.00  0.00     0.017 C 
HETATM   10  C1  UNL     1      -7.644  -7.760  -7.955  1.00  0.00     0.012 C 
HETATM   11  C3  UNL     1      -7.656  -5.394  -7.279  1.00  0.00     0.012 C 
ENDBRANCH   8   9
BRANCH   8  12
HETATM   12  N1  UNL     1      -7.700  -6.217  -4.580  1.00  0.00    -0.066 N 
ATOM     13  H13 UNL     1      -6.917  -5.566  -4.527  1.00  0.00     0.275 HD
ATOM     14  H12 UNL     1      -8.425  -5.550  -4.847  1.00  0.00     0.275 HD
ATOM     15  H11 UNL     1      -7.896  -6.660  -3.682  1.00  0.00     0.275 HD
ENDBRANCH   8  12
ENDBRANCH   5   8
ENDBRANCH   1   4
BRANCH   3  16
HETATM   16  C7  UNL     1     -10.940 -11.475  -2.854  1.00  0.00     0.005 A 
HETATM   17  C8  UNL     1     -12.277 -11.814  -2.804  1.00  0.00     0.054 A 
HETATM   18  C9  UNL     1     -12.681 -13.055  -2.301  1.00  0.00     0.117 A 
HETATM   19 BR1  UNL     1     -14.512 -13.549  -2.219  1.00  0.00    -0.028 Br
HETATM   20  N4  UNL     1     -11.760 -13.926  -1.861  1.00  0.00    -0.144 N 
HETATM   21  F1  UNL     1     -12.147 -15.137  -1.370  1.00  0.00    -0.090 F 
HETATM   22  C10 UNL     1     -10.440 -13.641  -1.890  1.00  0.00     0.238 A 
HETATM   23  F2  UNL     1      -9.526 -14.537  -1.440  1.00  0.00    -0.182 F 
HETATM   24  C11 UNL     1     -10.044 -12.406  -2.391  1.00  0.00     0.081 A 
HETATM   25 BR2  UNL     1      -8.154 -12.064  -2.402  1.00  0.00    -0.045 Br
ENDBRANCH   3  16
TORSDOF 5
ENDMDL
MODEL 2
REMARK VINA RESULT: -8.184665418      5.301      8.706
REMARK  5 active torsions:
REMARK  status: ('A' for Active; 'I' for Inactive)
REMARK    1  A    between atoms: C2_2  and  C4_4 
REMARK    2  A    between atoms: C4_4  and  N1_5 
REMARK    3  A    between atoms: C4_4  and  C5_9 
REMARK       I    between atoms: C5_9  and  N2_11 
REMARK    4  A    between atoms: N2_11  and  N3_13 
REMARK    5  A    between atoms: C6_15  and  C7_16 
ROOT
HETATM    1  N3  UNL     1      -7.553  -7.553  -3.537  1.00  0.00    -0.308 N 
ATOM      2  H3  UNL     1      -6.709  -7.091  -3.199  1.00  0.00     0.186 HD
HETATM    3  C6  UNL     1      -8.078  -7.168  -4.655  1.00  0.00     0.120 C 
ENDROOT
BRANCH   1   4
HETATM    4  N2  UNL     1      -8.110  -8.581  -2.784  1.00  0.00    -0.269 N 
HETATM    5  C5  UNL     1      -7.627  -9.906  -2.735  1.00  0.00     0.267 C 
HETATM    6  O1  UNL     1      -6.605 -10.132  -3.446  1.00  0.00    -0.269 OA
ATOM      7  H2  UNL     1      -8.933  -8.359  -2.223  1.00  0.00     0.190 HD
BRANCH   5   8
HETATM    8  C4  UNL     1      -8.192 -10.993  -1.957  1.00  0.00     0.279 C 
BRANCH   8   9
HETATM    9  C2  UNL     1      -8.831 -12.086  -2.758  1.00  0.00     0.017 C 
HETATM   10  C1  UNL     1     -10.331 -11.829  -2.767  1.00  0.00     0.012 C 
HETATM   11  C3  UNL     1      -8.564 -13.456  -2.233  1.00  0.00     0.012 C 
ENDBRANCH   8   9
BRANCH   8  12
HETATM   12  N1  UNL     1      -7.190 -11.558  -1.089  1.00  0.00    -0.066 N 
ATOM     13  H13 UNL     1      -7.598 -12.130  -0.350  1.00  0.00     0.275 HD
ATOM     14  H12 UNL     1      -6.645 -12.286  -1.552  1.00  0.00     0.275 HD
ATOM     15  H11 UNL     1      -6.601 -10.811  -0.719  1.00  0.00     0.275 HD
ENDBRANCH   8  12
ENDBRANCH   5   8
ENDBRANCH   1   4
BRANCH   3  16
HETATM   16  C7  UNL     1      -7.528  -6.105  -5.463  1.00  0.00     0.005 A 
HETATM   17  C8  UNL     1      -7.122  -4.890  -4.950  1.00  0.00     0.054 A 
HETATM   18  C9  UNL     1      -6.597  -3.900  -5.788  1.00  0.00     0.117 A 
HETATM   19 BR1  UNL     1      -6.032  -2.219  -5.112  1.00  0.00    -0.028 Br
HETATM   20  N4  UNL     1      -6.486  -4.134  -7.104  1.00  0.00    -0.144 N 
HETATM   21  F1  UNL     1      -5.975  -3.174  -7.926  1.00  0.00    -0.090 F 
HETATM   22  C10 UNL     1      -6.868  -5.307  -7.654  1.00  0.00     0.238 A 
HETATM   23  F2  UNL     1      -6.746  -5.522  -8.988  1.00  0.00    -0.182 F 
HETATM   24  C11 UNL     1      -7.389  -6.287  -6.816  1.00  0.00     0.081 A 
HETATM   25 BR2  UNL     1      -7.914  -7.930  -7.661  1.00  0.00    -0.045 Br
ENDBRANCH   3  16
TORSDOF 5
ENDMDL
MODEL 3
REMARK VINA RESULT: -8.109087202      5.211      8.617
REMARK  5 active torsions:
REMARK  status: ('A' for Active; 'I' for Inactive)
REMARK    1  A    between atoms: C2_2  and  C4_4 
REMARK    2  A    between atoms: C4_4  and  N1_5 
REMARK    3  A    between atoms: C4_4  and  C5_9 
REMARK       I    between atoms: C5_9  and  N2_11 
REMARK    4  A    between atoms: N2_11  and  N3_13 
REMARK    5  A    between atoms: C6_15  and  C7_16 
ROOT
HETATM    1  N3  UNL     1      -7.514  -7.658  -3.620  1.00  0.00    -0.308 N 
ATOM      2  H3  UNL     1      -6.553  -7.386  -3.413  1.00  0.00     0.186 HD
HETATM    3  C6  UNL     1      -8.141  -7.074  -4.589  1.00  0.00     0.120 C 
ENDROOT
BRANCH   1   4
HETATM    4  N2  UNL     1      -8.117  -8.649  -2.852  1.00  0.00    -0.269 N 
HETATM    5  C5  UNL     1      -8.073 -10.032  -3.128  1.00  0.00     0.267 C 
HETATM    6  O1  UNL     1      -7.421 -10.352  -4.165  1.00  0.00    -0.269 OA
ATOM      7  H2  UNL     1      -8.633  -8.351  -2.023  1.00  0.00     0.190 HD
BRANCH   5   8
HETATM    8  C4  UNL     1      -8.694 -11.080  -2.341  1.00  0.00     0.279 C 
BRANCH   8   9
HETATM    9  C2  UNL     1     -10.188 -11.139  -2.422  1.00  0.00     0.017 C 
HETATM   10  C1  UNL     1     -10.601 -12.590  -2.218  1.00  0.00     0.012 C 
HETATM   11  C3  UNL     1     -10.746 -10.640  -3.712  1.00  0.00     0.012 C 
ENDBRANCH   8   9
BRANCH   8  12
HETATM   12  N1  UNL     1      -8.144 -12.365  -2.699  1.00  0.00    -0.066 N 
ATOM     13  H13 UNL     1      -8.300 -12.591  -3.681  1.00  0.00     0.275 HD
ATOM     14  H12 UNL     1      -7.124 -12.357  -2.712  1.00  0.00     0.275 HD
ATOM     15  H11 UNL     1      -8.517 -13.079  -2.074  1.00  0.00     0.275 HD
ENDBRANCH   8  12
ENDBRANCH   5   8
ENDBRANCH   1   4
BRANCH   3  16
HETATM   16  C7  UNL     1      -7.547  -6.043  -5.408  1.00  0.00     0.005 A 
HETATM   17  C8  UNL     1      -7.103  -4.836  -4.909  1.00  0.00     0.054 A 
HETATM   18  C9  UNL     1      -6.537  -3.877  -5.756  1.00  0.00     0.117 A 
HETATM   19 BR1  UNL     1      -5.919  -2.208  -5.099  1.00  0.00    -0.028 Br
HETATM   20  N4  UNL     1      -6.425  -4.133  -7.068  1.00  0.00    -0.144 N 
HETATM   21  F1  UNL     1      -5.874  -3.204  -7.899  1.00  0.00    -0.090 F 
HETATM   22  C10 UNL     1      -6.844  -5.301  -7.604  1.00  0.00     0.238 A 
HETATM   23  F2  UNL     1      -6.720  -5.538  -8.934  1.00  0.00    -0.182 F 
HETATM   24  C11 UNL     1      -7.405  -6.249  -6.757  1.00  0.00     0.081 A 
HETATM   25 BR2  UNL     1      -7.981  -7.885  -7.583  1.00  0.00    -0.045 Br
ENDBRANCH   3  16
TORSDOF 5
ENDMDL
MODEL 4
REMARK VINA RESULT: -8.017212519      1.452      2.449
REMARK  5 active torsions:
REMARK  status: ('A' for Active; 'I' for Inactive)
REMARK    1  A    between atoms: C2_2  and  C4_4 
REMARK    2  A    between atoms: C4_4  and  N1_5 
REMARK    3  A    between atoms: C4_4  and  C5_9 
REMARK       I    between atoms: C5_9  and  N2_11 
REMARK    4  A    between atoms: N2_11  and  N3_13 
REMARK    5  A    between atoms: C6_15  and  C7_16 
ROOT
HETATM    1  N3  UNL     1      -8.908  -9.534  -4.250  1.00  0.00    -0.308 N 
ATOM      2  H3  UNL     1      -8.443 -10.307  -4.727  1.00  0.00     0.186 HD
HETATM    3  C6  UNL     1      -9.745  -9.793  -3.299  1.00  0.00     0.120 C 
ENDROOT
BRANCH   1   4
HETATM    4  N2  UNL     1      -8.626  -8.230  -4.641  1.00  0.00    -0.269 N 
HETATM    5  C5  UNL     1      -7.580  -7.849  -5.509  1.00  0.00     0.267 C 
HETATM    6  O1  UNL     1      -6.869  -8.801  -5.943  1.00  0.00    -0.269 OA
ATOM      7  H2  UNL     1      -9.222  -7.490  -4.270  1.00  0.00     0.190 HD
BRANCH   5   8
HETATM    8  C4  UNL     1      -7.269  -6.496  -5.929  1.00  0.00     0.279 C 
BRANCH   8   9
HETATM    9  C2  UNL     1      -7.948  -6.045  -7.185  1.00  0.00     0.017 C 
HETATM   10  C1  UNL     1      -8.446  -7.288  -7.908  1.00  0.00     0.012 C 
HETATM   11  C3  UNL     1      -7.071  -5.256  -8.099  1.00  0.00     0.012 C 
ENDBRANCH   8   9
BRANCH   8  12
HETATM   12  N1  UNL     1      -7.559  -5.565  -4.867  1.00  0.00    -0.066 N 
ATOM     13  H13 UNL     1      -8.189  -4.822  -5.167  1.00  0.00     0.275 HD
ATOM     14  H12 UNL     1      -8.152  -5.975  -4.145  1.00  0.00     0.275 HD
ATOM     15  H11 UNL     1      -6.685  -5.201  -4.487  1.00  0.00     0.275 HD
ENDBRANCH   8  12
ENDBRANCH   5   8
ENDBRANCH   1   4
BRANCH   3  16
HETATM   16  C7  UNL     1     -10.063 -11.133  -2.866  1.00  0.00     0.005 A 
HETATM   17  C8  UNL     1      -9.108 -12.086  -2.575  1.00  0.00     0.054 A 
HETATM   18  C9  UNL     1      -9.482 -13.369  -2.161  1.00  0.00     0.117 A 
HETATM   19 BR1  UNL     1      -8.193 -14.701  -1.755  1.00  0.00    -0.028 Br
HETATM   20  N4  UNL     1     -10.783 -13.677  -2.045  1.00  0.00    -0.144 N 
HETATM   21  F1  UNL     1     -11.154 -14.925  -1.641  1.00  0.00    -0.090 F 
HETATM   22  C10 UNL     1     -11.755 -12.779  -2.317  1.00  0.00     0.238 A 
HETATM   23  F2  UNL     1     -13.064 -13.112  -2.193  1.00  0.00    -0.182 F 
HETATM   24  C11 UNL     1     -11.377 -11.506  -2.729  1.00  0.00     0.081 A 
HETATM   25 BR2  UNL     1     -12.806 -10.278  -3.101  1.00  0.00    -0.045 Br
ENDBRANCH   3  16
TORSDOF 5
ENDMDL
MODEL 5
REMARK VINA RESULT: -7.806258756      3.860      7.820
REMARK  5 active torsions:
REMARK  status: ('A' for Active; 'I' for Inactive)
REMARK    1  A    between atoms: C2_2  and  C4_4 
REMARK    2  A    between atoms: C4_4  and  N1_5 
REMARK    3  A    between atoms: C4_4  and  C5_9 
REMARK       I    between atoms: C5_9  and  N2_11 
REMARK    4  A    between atoms: N2_11  and  N3_13 
REMARK    5  A    between atoms: C6_15  and  C7_16 
ROOT
HETATM    1  N3  UNL     1     -11.314 -11.713  -2.373  1.00  0.00    -0.308 N 
ATOM      2  H3  UNL     1     -11.198 -11.200  -1.498  1.00  0.00     0.186 HD
HETATM    3  C6  UNL     1     -10.418 -11.594  -3.297  1.00  0.00     0.120 C 
ENDROOT
BRANCH   1   4
HETATM    4  N2  UNL     1     -12.433 -12.521  -2.539  1.00  0.00    -0.269 N 
HETATM    5  C5  UNL     1     -12.547 -13.854  -2.090  1.00  0.00     0.267 C 
HETATM    6  O1  UNL     1     -11.528 -14.309  -1.494  1.00  0.00    -0.269 OA
ATOM      7  H2  UNL     1     -13.235 -12.118  -3.024  1.00  0.00     0.190 HD
BRANCH   5   8
HETATM    8  C4  UNL     1     -13.704 -14.715  -2.253  1.00  0.00     0.279 C 
BRANCH   8   9
HETATM    9  C2  UNL     1     -13.464 -16.167  -1.973  1.00  0.00     0.017 C 
HETATM   10  C1  UNL     1     -14.133 -16.963  -3.084  1.00  0.00     0.012 C 
HETATM   11  C3  UNL     1     -13.985 -16.623  -0.651  1.00  0.00     0.012 C 
ENDBRANCH   8   9
BRANCH   8  12
HETATM   12  N1  UNL     1     -14.795 -14.243  -1.436  1.00  0.00    -0.066 N 
ATOM     13  H13 UNL     1     -15.697 -14.346  -1.901  1.00  0.00     0.275 HD
ATOM     14  H12 UNL     1     -14.972 -14.854  -0.639  1.00  0.00     0.275 HD
ATOM     15  H11 UNL     1     -14.614 -13.280  -1.152  1.00  0.00     0.275 HD
ENDBRANCH   8  12
ENDBRANCH   5   8
ENDBRANCH   1   4
BRANCH   3  16
HETATM   16  C7  UNL     1      -9.244 -10.765  -3.160  1.00  0.00     0.005 A 
HETATM   17  C8  UNL     1      -9.160  -9.477  -3.648  1.00  0.00     0.054 A 
HETATM   18  C9  UNL     1      -7.992  -8.725  -3.482  1.00  0.00     0.117 A 
HETATM   19 BR1  UNL     1      -7.846  -6.951  -4.142  1.00  0.00    -0.028 Br
HETATM   20  N4  UNL     1      -6.941  -9.261  -2.842  1.00  0.00    -0.144 N 
HETATM   21  F1  UNL     1      -5.801  -8.533  -2.677  1.00  0.00    -0.090 F 
HETATM   22  C10 UNL     1      -6.975 -10.517  -2.346  1.00  0.00     0.238 A 
HETATM   23  F2  UNL     1      -5.901 -11.039  -1.702  1.00  0.00    -0.182 F 
HETATM   24  C11 UNL     1      -8.138 -11.259  -2.514  1.00  0.00     0.081 A 
HETATM   25 BR2  UNL     1      -8.120 -13.037  -1.787  1.00  0.00    -0.045 Br
ENDBRANCH   3  16
TORSDOF 5
ENDMDL
