MODEL 1
REMARK VINA RESULT: -9.327806859      0.000      0.000
REMARK  6 active torsions:
REMARK  status: ('A' for Active; 'I' for Inactive)
REMARK    1  A    between atoms: C4_6  and  N2_7 
REMARK    2  A    between atoms: N2_7  and  S1_9 
REMARK    3  A    between atoms: S1_9  and  C5_12 
REMARK    4  A    between atoms: C5_12  and  C6_13 
REMARK    5  A    between atoms: C12_23  and  N3_24 
REMARK       I    between atoms: N3_24  and  C13_26 
REMARK    6  A    between atoms: C13_26  and  C14_28 
ROOT
HETATM    1  C1  UNL     1     -13.310 -12.257  -2.584  1.00  0.00     0.069 C 
HETATM    2  C2  UNL     1     -11.914 -11.718  -2.489  1.00  0.00     0.022 A 
HETATM    3  C3  UNL     1     -11.737 -10.375  -2.689  1.00  0.00     0.114 A 
HETATM    4  N1  UNL     1     -10.451  -9.925  -2.734  1.00  0.00    -0.347 N 
ATOM      5  H1  UNL     1     -10.288  -8.929  -2.886  1.00  0.00     0.167 HD
HETATM    6  C4  UNL     1      -9.419 -10.715  -2.592  1.00  0.00     0.159 A 
HETATM    7  C12 UNL     1      -9.588 -12.128  -2.363  1.00  0.00     0.153 A 
HETATM    8  N4  UNL     1     -10.851 -12.550  -2.329  1.00  0.00    -0.342 N 
ATOM      9  H4  UNL     1     -11.028 -13.543  -2.177  1.00  0.00     0.167 HD
ENDROOT
BRANCH   6  10
HETATM   10  N2  UNL     1      -8.255 -10.443  -2.929  1.00  0.00    -0.266 N 
ATOM     11  H2  UNL     1      -7.698 -11.286  -2.793  1.00  0.00     0.180 HD
BRANCH  10  12
HETATM   12  S1  UNL     1      -7.263  -9.301  -3.496  1.00  0.00     0.236 S 
HETATM   13  O1  UNL     1      -6.036  -9.226  -2.503  1.00  0.00    -0.205 OA
HETATM   14  O2  UNL     1      -6.682  -9.604  -4.843  1.00  0.00    -0.205 OA
BRANCH  12  15
HETATM   15  C5  UNL     1      -7.975  -7.628  -3.454  1.00  0.00     0.208 C 
BRANCH  15  16
HETATM   16  C6  UNL     1      -8.057  -7.215  -4.900  1.00  0.00     0.041 A 
HETATM   17  C7  UNL     1      -8.622  -7.974  -5.851  1.00  0.00     0.165 A 
HETATM   18  F1  UNL     1      -9.365  -9.074  -5.535  1.00  0.00    -0.202 F 
HETATM   19  C8  UNL     1      -8.485  -7.594  -7.213  1.00  0.00     0.158 A 
HETATM   20  F2  UNL     1      -9.064  -8.328  -8.153  1.00  0.00    -0.203 F 
HETATM   21  C9  UNL     1      -7.763  -6.419  -7.532  1.00  0.00     0.090 A 
HETATM   22  C10 UNL     1      -7.212  -5.686  -6.492  1.00  0.00     0.158 A 
HETATM   23  F3  UNL     1      -6.498  -4.576  -6.777  1.00  0.00    -0.203 F 
HETATM   24  C11 UNL     1      -7.333  -6.042  -5.187  1.00  0.00     0.165 A 
HETATM   25  F4  UNL     1      -6.760  -5.337  -4.139  1.00  0.00    -0.202 F 
ENDBRANCH  15  16
ENDBRANCH  12  15
ENDBRANCH  10  12
ENDBRANCH   6  10
BRANCH   7  26
HETATM   26  N3  UNL     1      -8.527 -12.795  -2.250  1.00  0.00    -0.310 N 
HETATM   27  C13 UNL     1      -8.188 -14.103  -2.035  1.00  0.00     0.226 C 
HETATM   28  O3  UNL     1      -8.366 -14.948  -2.953  1.00  0.00    -0.273 OA
ATOM     29  H3  UNL     1      -7.701 -12.204  -2.344  1.00  0.00     0.170 HD
BRANCH  27  30
HETATM   30  C14 UNL     1      -7.591 -14.628  -0.752  1.00  0.00     0.070 C 
HETATM   31  C15 UNL     1      -6.714 -15.811  -1.047  1.00  0.00     0.019 C 
HETATM   32  C16 UNL     1      -6.715 -13.505  -0.223  1.00  0.00     0.019 C 
ENDBRANCH  27  30
ENDBRANCH   7  26
TORSDOF 6
ENDMDL
MODEL 2
REMARK VINA RESULT: -8.991929682      1.008      2.021
REMARK  6 active torsions:
REMARK  status: ('A' for Active; 'I' for Inactive)
REMARK    1  A    between atoms: C4_6  and  N2_7 
REMARK    2  A    between atoms: N2_7  and  S1_9 
REMARK    3  A    between atoms: S1_9  and  C5_12 
REMARK    4  A    between atoms: C5_12  and  C6_13 
REMARK    5  A    between atoms: C12_23  and  N3_24 
REMARK       I    between atoms: N3_24  and  C13_26 
REMARK    6  A    between atoms: C13_26  and  C14_28 
ROOT
HETATM    1  C1  UNL     1     -13.519 -12.637  -2.253  1.00  0.00     0.069 C 
HETATM    2  C2  UNL     1     -12.160 -12.010  -2.341  1.00  0.00     0.022 A 
HETATM    3  C3  UNL     1     -12.092 -10.690  -2.701  1.00  0.00     0.114 A 
HETATM    4  N1  UNL     1     -10.848 -10.173  -2.908  1.00  0.00    -0.347 N 
ATOM      5  H1  UNL     1     -10.765  -9.193  -3.181  1.00  0.00     0.167 HD
HETATM    6  C4  UNL     1      -9.756 -10.879  -2.773  1.00  0.00     0.159 A 
HETATM    7  C12 UNL     1      -9.808 -12.265  -2.378  1.00  0.00     0.153 A 
HETATM    8  N4  UNL     1     -11.033 -12.754  -2.187  1.00  0.00    -0.342 N 
ATOM      9  H4  UNL     1     -11.129 -13.732  -1.913  1.00  0.00     0.167 HD
ENDROOT
BRANCH   6  10
HETATM   10  N2  UNL     1      -8.645 -10.580  -3.240  1.00  0.00    -0.266 N 
ATOM     11  H2  UNL     1      -7.961 -11.206  -2.815  1.00  0.00     0.180 HD
BRANCH  10  12
HETATM   12  S1  UNL     1      -7.839  -9.605  -4.246  1.00  0.00     0.236 S 
HETATM   13  O1  UNL     1      -7.160  -8.490  -3.356  1.00  0.00    -0.205 OA
HETATM   14  O2  UNL     1      -6.723 -10.273  -4.988  1.00  0.00    -0.205 OA
BRANCH  12  15
HETATM   15  C5  UNL     1      -8.915  -8.678  -5.382  1.00  0.00     0.208 C 
BRANCH  15  16
HETATM   16  C6  UNL     1      -8.104  -7.469  -5.768  1.00  0.00     0.041 A 
HETATM   17  C7  UNL     1      -7.932  -6.410  -4.962  1.00  0.00     0.165 A 
HETATM   18  F1  UNL     1      -8.291  -6.452  -3.646  1.00  0.00    -0.202 F 
HETATM   19  C8  UNL     1      -7.316  -5.238  -5.478  1.00  0.00     0.158 A 
HETATM   20  F2  UNL     1      -7.122  -4.201  -4.676  1.00  0.00    -0.203 F 
HETATM   21  C9  UNL     1      -6.891  -5.221  -6.828  1.00  0.00     0.090 A 
HETATM   22  C10 UNL     1      -7.100  -6.357  -7.596  1.00  0.00     0.158 A 
HETATM   23  F3  UNL     1      -6.726  -6.351  -8.893  1.00  0.00    -0.203 F 
HETATM   24  C11 UNL     1      -7.692  -7.479  -7.115  1.00  0.00     0.165 A 
HETATM   25  F4  UNL     1      -7.938  -8.611  -7.879  1.00  0.00    -0.202 F 
ENDBRANCH  15  16
ENDBRANCH  12  15
ENDBRANCH  10  12
ENDBRANCH   6  10
BRANCH   7  26
HETATM   26  N3  UNL     1      -8.699 -12.851  -2.289  1.00  0.00    -0.310 N 
HETATM   27  C13 UNL     1      -8.260 -14.128  -2.068  1.00  0.00     0.226 C 
HETATM   28  O3  UNL     1      -8.400 -14.997  -2.971  1.00  0.00    -0.273 OA
ATOM     29  H3  UNL     1      -7.921 -12.203  -2.413  1.00  0.00     0.170 HD
BRANCH  27  30
HETATM   30  C14 UNL     1      -7.590 -14.590  -0.797  1.00  0.00     0.070 C 
HETATM   31  C15 UNL     1      -6.727 -15.785  -1.083  1.00  0.00     0.019 C 
HETATM   32  C16 UNL     1      -6.689 -13.442  -0.371  1.00  0.00     0.019 C 
ENDBRANCH  27  30
ENDBRANCH   7  26
TORSDOF 6
ENDMDL
MODEL 3
REMARK VINA RESULT: -8.744391483      3.855      8.238
REMARK  6 active torsions:
REMARK  status: ('A' for Active; 'I' for Inactive)
REMARK    1  A    between atoms: C4_6  and  N2_7 
REMARK    2  A    between atoms: N2_7  and  S1_9 
REMARK    3  A    between atoms: S1_9  and  C5_12 
REMARK    4  A    between atoms: C5_12  and  C6_13 
REMARK    5  A    between atoms: C12_23  and  N3_24 
REMARK       I    between atoms: N3_24  and  C13_26 
REMARK    6  A    between atoms: C13_26  and  C14_28 
ROOT
HETATM    1  C1  UNL     1      -4.638  -2.123  -6.210  1.00  0.00     0.069 C 
HETATM    2  C2  UNL     1      -5.655  -3.221  -6.299  1.00  0.00     0.022 A 
HETATM    3  C3  UNL     1      -6.194  -3.685  -5.128  1.00  0.00     0.114 A 
HETATM    4  N1  UNL     1      -7.011  -4.771  -5.215  1.00  0.00    -0.347 N 
ATOM      5  H1  UNL     1      -7.425  -5.141  -4.359  1.00  0.00     0.167 HD
HETATM    6  C4  UNL     1      -7.288  -5.360  -6.349  1.00  0.00     0.159 A 
HETATM    7  C12 UNL     1      -6.743  -4.875  -7.594  1.00  0.00     0.153 A 
HETATM    8  N4  UNL     1      -5.941  -3.817  -7.487  1.00  0.00    -0.342 N 
ATOM      9  H4  UNL     1      -5.523  -3.437  -8.336  1.00  0.00     0.167 HD
ENDROOT
BRANCH   6  10
HETATM   10  N2  UNL     1      -7.748  -6.507  -6.470  1.00  0.00    -0.266 N 
ATOM     11  H2  UNL     1      -8.180  -6.563  -7.392  1.00  0.00     0.180 HD
BRANCH  10  12
HETATM   12  S1  UNL     1      -7.943  -7.947  -5.762  1.00  0.00     0.236 S 
HETATM   13  O1  UNL     1      -9.195  -8.627  -6.445  1.00  0.00    -0.205 OA
HETATM   14  O2  UNL     1      -6.800  -8.893  -5.968  1.00  0.00    -0.205 OA
BRANCH  12  15
HETATM   15  C5  UNL     1      -8.394  -7.842  -4.004  1.00  0.00     0.208 C 
BRANCH  15  16
HETATM   16  C6  UNL     1      -8.313  -9.261  -3.507  1.00  0.00     0.041 A 
HETATM   17  C7  UNL     1      -9.316 -10.143  -3.630  1.00  0.00     0.165 A 
HETATM   18  F1  UNL     1     -10.398  -9.883  -4.420  1.00  0.00    -0.202 F 
HETATM   19  C8  UNL     1      -9.224 -11.395  -2.966  1.00  0.00     0.158 A 
HETATM   20  F2  UNL     1     -10.202 -12.278  -3.108  1.00  0.00    -0.203 F 
HETATM   21  C9  UNL     1      -8.072 -11.684  -2.195  1.00  0.00     0.090 A 
HETATM   22  C10 UNL     1      -7.076 -10.722  -2.120  1.00  0.00     0.158 A 
HETATM   23  F3  UNL     1      -5.981 -10.968  -1.369  1.00  0.00    -0.203 F 
HETATM   24  C11 UNL     1      -7.155  -9.521  -2.747  1.00  0.00     0.165 A 
HETATM   25  F4  UNL     1      -6.183  -8.535  -2.654  1.00  0.00    -0.202 F 
ENDBRANCH  15  16
ENDBRANCH  12  15
ENDBRANCH  10  12
ENDBRANCH   6  10
BRANCH   7  26
HETATM   26  N3  UNL     1      -7.067  -5.523  -8.622  1.00  0.00    -0.310 N 
HETATM   27  C13 UNL     1      -6.527  -6.526  -9.382  1.00  0.00     0.226 C 
HETATM   28  O3  UNL     1      -6.485  -7.698  -8.921  1.00  0.00    -0.273 OA
ATOM     29  H3  UNL     1      -7.971  -5.222  -8.986  1.00  0.00     0.170 HD
BRANCH  27  30
HETATM   30  C14 UNL     1      -5.973  -6.335 -10.772  1.00  0.00     0.070 C 
HETATM   31  C15 UNL     1      -4.787  -5.414 -10.724  1.00  0.00     0.019 C 
HETATM   32  C16 UNL     1      -5.492  -7.708 -11.210  1.00  0.00     0.019 C 
ENDBRANCH  27  30
ENDBRANCH   7  26
TORSDOF 6
ENDMDL
MODEL 4
REMARK VINA RESULT: -8.486566946      1.817      2.715
REMARK  6 active torsions:
REMARK  status: ('A' for Active; 'I' for Inactive)
REMARK    1  A    between atoms: C4_6  and  N2_7 
REMARK    2  A    between atoms: N2_7  and  S1_9 
REMARK    3  A    between atoms: S1_9  and  C5_12 
REMARK    4  A    between atoms: C5_12  and  C6_13 
REMARK    5  A    between atoms: C12_23  and  N3_24 
REMARK       I    between atoms: N3_24  and  C13_26 
REMARK    6  A    between atoms: C13_26  and  C14_28 
ROOT
HETATM    1  C1  UNL     1     -13.706 -15.135  -1.714  1.00  0.00     0.069 C 
HETATM    2  C2  UNL     1     -12.680 -14.060  -1.908  1.00  0.00     0.022 A 
HETATM    3  C3  UNL     1     -13.109 -12.851  -2.388  1.00  0.00     0.114 A 
HETATM    4  N1  UNL     1     -12.149 -11.932  -2.687  1.00  0.00    -0.347 N 
ATOM      5  H1  UNL     1     -12.438 -11.023  -3.050  1.00  0.00     0.167 HD
HETATM    6  C4  UNL     1     -10.872 -12.165  -2.529  1.00  0.00     0.159 A 
HETATM    7  C12 UNL     1     -10.402 -13.426  -2.010  1.00  0.00     0.153 A 
HETATM    8  N4  UNL     1     -11.356 -14.313  -1.730  1.00  0.00    -0.342 N 
ATOM      9  H4  UNL     1     -11.079 -15.225  -1.366  1.00  0.00     0.167 HD
ENDROOT
BRANCH   6  10
HETATM   10  N2  UNL     1      -9.953 -11.522  -3.063  1.00  0.00    -0.266 N 
ATOM     11  H2  UNL     1      -9.198 -12.180  -3.257  1.00  0.00     0.180 HD
BRANCH  10  12
HETATM   12  S1  UNL     1      -9.464 -10.069  -3.575  1.00  0.00     0.236 S 
HETATM   13  O1  UNL     1     -10.281  -9.748  -4.889  1.00  0.00    -0.205 OA
HETATM   14  O2  UNL     1      -9.761  -8.950  -2.624  1.00  0.00    -0.205 OA
BRANCH  12  15
HETATM   15  C5  UNL     1      -7.726 -10.029  -4.107  1.00  0.00     0.208 C 
BRANCH  15  16
HETATM   16  C6  UNL     1      -7.561  -8.682  -4.758  1.00  0.00     0.041 A 
HETATM   17  C7  UNL     1      -7.720  -7.522  -4.103  1.00  0.00     0.165 A 
HETATM   18  F1  UNL     1      -7.820  -7.483  -2.742  1.00  0.00    -0.202 F 
HETATM   19  C8  UNL     1      -7.733  -6.306  -4.837  1.00  0.00     0.158 A 
HETATM   20  F2  UNL     1      -7.865  -5.158  -4.188  1.00  0.00    -0.203 F 
HETATM   21  C9  UNL     1      -7.569  -6.348  -6.243  1.00  0.00     0.090 A 
HETATM   22  C10 UNL     1      -7.405  -7.585  -6.846  1.00  0.00     0.158 A 
HETATM   23  F3  UNL     1      -7.273  -7.648  -8.189  1.00  0.00    -0.203 F 
HETATM   24  C11 UNL     1      -7.396  -8.753  -6.156  1.00  0.00     0.165 A 
HETATM   25  F4  UNL     1      -7.266 -10.001  -6.749  1.00  0.00    -0.202 F 
ENDBRANCH  15  16
ENDBRANCH  12  15
ENDBRANCH  10  12
ENDBRANCH   6  10
BRANCH   7  26
HETATM   26  N3  UNL     1      -9.154 -13.546  -1.909  1.00  0.00    -0.310 N 
HETATM   27  C13 UNL     1      -8.249 -14.572  -1.884  1.00  0.00     0.226 C 
HETATM   28  O3  UNL     1      -8.008 -15.212  -2.941  1.00  0.00    -0.273 OA
ATOM     29  H3  UNL     1      -8.696 -12.639  -1.825  1.00  0.00     0.170 HD
BRANCH  27  30
HETATM   30  C14 UNL     1      -7.487 -15.003  -0.654  1.00  0.00     0.070 C 
HETATM   31  C15 UNL     1      -6.465 -16.039  -1.028  1.00  0.00     0.019 C 
HETATM   32  C16 UNL     1      -6.753 -13.761  -0.175  1.00  0.00     0.019 C 
ENDBRANCH  27  30
ENDBRANCH   7  26
TORSDOF 6
ENDMDL
MODEL 5
REMARK VINA RESULT: -8.422034965      1.402      3.452
REMARK  6 active torsions:
REMARK  status: ('A' for Active; 'I' for Inactive)
REMARK    1  A    between atoms: C4_6  and  N2_7 
REMARK    2  A    between atoms: N2_7  and  S1_9 
REMARK    3  A    between atoms: S1_9  and  C5_12 
REMARK    4  A    between atoms: C5_12  and  C6_13 
REMARK    5  A    between atoms: C12_23  and  N3_24 
REMARK       I    between atoms: N3_24  and  C13_26 
REMARK    6  A    between atoms: C13_26  and  C14_28 
ROOT
HETATM    1  C1  UNL     1      -7.960 -15.010  -0.392  1.00  0.00     0.069 C 
HETATM    2  C2  UNL     1      -7.764 -13.725  -1.139  1.00  0.00     0.022 A 
HETATM    3  C3  UNL     1      -6.631 -13.002  -0.872  1.00  0.00     0.114 A 
HETATM    4  N1  UNL     1      -6.535 -11.774  -1.456  1.00  0.00    -0.347 N 
ATOM      5  H1  UNL     1      -5.704 -11.211  -1.273  1.00  0.00     0.167 HD
HETATM    6  C4  UNL     1      -7.461 -11.288  -2.239  1.00  0.00     0.159 A 
HETATM    7  C12 UNL     1      -8.652 -12.042  -2.544  1.00  0.00     0.153 A 
HETATM    8  N4  UNL     1      -8.732 -13.235  -1.959  1.00  0.00    -0.342 N 
ATOM      9  H4  UNL     1      -9.557 -13.809  -2.135  1.00  0.00     0.167 HD
ENDROOT
BRANCH   6  10
HETATM   10  N2  UNL     1      -7.591 -10.090  -2.540  1.00  0.00    -0.266 N 
ATOM     11  H2  UNL     1      -8.373  -9.726  -1.996  1.00  0.00     0.180 HD
BRANCH  10  12
HETATM   12  S1  UNL     1      -7.028  -8.872  -3.441  1.00  0.00     0.236 S 
HETATM   13  O1  UNL     1      -5.754  -8.304  -2.699  1.00  0.00    -0.205 OA
HETATM   14  O2  UNL     1      -6.560  -9.280  -4.804  1.00  0.00    -0.205 OA
BRANCH  12  15
HETATM   15  C5  UNL     1      -8.159  -7.451  -3.538  1.00  0.00     0.208 C 
BRANCH  15  16
HETATM   16  C6  UNL     1      -8.138  -7.048  -4.988  1.00  0.00     0.041 A 
HETATM   17  C7  UNL     1      -8.610  -7.824  -5.975  1.00  0.00     0.165 A 
HETATM   18  F1  UNL     1      -9.351  -8.939  -5.710  1.00  0.00    -0.202 F 
HETATM   19  C8  UNL     1      -8.376  -7.449  -7.326  1.00  0.00     0.158 A 
HETATM   20  F2  UNL     1      -8.864  -8.201  -8.302  1.00  0.00    -0.203 F 
HETATM   21  C9  UNL     1      -7.656  -6.260  -7.596  1.00  0.00     0.090 A 
HETATM   22  C10 UNL     1      -7.205  -5.509  -6.521  1.00  0.00     0.158 A 
HETATM   23  F3  UNL     1      -6.495  -4.385  -6.757  1.00  0.00    -0.203 F 
HETATM   24  C11 UNL     1      -7.419  -5.860  -5.227  1.00  0.00     0.165 A 
HETATM   25  F4  UNL     1      -6.945  -5.137  -4.142  1.00  0.00    -0.202 F 
ENDBRANCH  15  16
ENDBRANCH  12  15
ENDBRANCH  10  12
ENDBRANCH   6  10
BRANCH   7  26
HETATM   26  N3  UNL     1      -9.481 -11.473  -3.300  1.00  0.00    -0.310 N 
HETATM   27  C13 UNL     1     -10.635 -10.753  -3.154  1.00  0.00     0.226 C 
HETATM   28  O3  UNL     1     -10.581  -9.581  -2.694  1.00  0.00    -0.273 OA
ATOM     29  H3  UNL     1      -9.225 -11.577  -4.282  1.00  0.00     0.170 HD
BRANCH  27  30
HETATM   30  C14 UNL     1     -12.008 -11.262  -3.521  1.00  0.00     0.070 C 
HETATM   31  C15 UNL     1     -12.374 -12.418  -2.636  1.00  0.00     0.019 C 
HETATM   32  C16 UNL     1     -12.960 -10.114  -3.225  1.00  0.00     0.019 C 
ENDBRANCH  27  30
ENDBRANCH   7  26
TORSDOF 6
ENDMDL
