MODEL 1
REMARK VINA RESULT: -7.380955878      0.000      0.000
REMARK  2 active torsions:
REMARK  status: ('A' for Active; 'I' for Inactive)
REMARK    1  A    between atoms: N2_8  and  N3_10 
REMARK       I    between atoms: N3_10  and  C7_12 
REMARK    2  A    between atoms: C7_12  and  C8_14 
ROOT
HETATM    1  N3  UNL     1      -1.256   3.561  84.028  1.00  0.00    -0.268 N 
ATOM      2  H3  UNL     1      -2.045   4.090  83.657  1.00  0.00     0.190 HD
HETATM    3  C7  UNL     1       0.037   4.148  84.106  1.00  0.00     0.244 C 
HETATM    4  O1  UNL     1       1.013   3.479  84.572  1.00  0.00    -0.271 OA
ENDROOT
BRANCH   3   5
HETATM    5  C8  UNL     1       0.305   5.526  83.664  1.00  0.00     0.043 C 
HETATM    6  C9  UNL     1      -0.009   6.444  84.826  1.00  0.00     0.024 C 
HETATM    7  C10 UNL     1       0.373   7.863  84.492  1.00  0.00    -0.013 C 
HETATM    8  C11 UNL     1      -0.512   8.314  83.351  1.00  0.00     0.009 C 
HETATM    9  C15 UNL     1       1.829   7.881  84.134  1.00  0.00     0.009 C 
HETATM   10  C12 UNL     1      -0.303   7.376  82.186  1.00  0.00    -0.013 C 
HETATM   11  C13 UNL     1       1.155   7.535  81.751  1.00  0.00     0.009 C 
HETATM   12  C17 UNL     1      -0.599   5.948  82.523  1.00  0.00     0.024 C 
HETATM   13  C14 UNL     1       2.039   7.086  82.879  1.00  0.00    -0.013 C 
HETATM   14  C16 UNL     1       1.714   5.642  83.195  1.00  0.00     0.024 C 
ENDBRANCH   3   5
BRANCH   1  15
HETATM   15  N2  UNL     1      -1.423   2.265  84.464  1.00  0.00    -0.286 N 
HETATM   16  C6  UNL     1      -2.235   1.882  85.365  1.00  0.00     0.093 C 
HETATM   17  N1  UNL     1      -2.336   0.532  85.745  1.00  0.00    -0.374 N 
HETATM   18  C5  UNL     1      -3.102   2.862  86.039  1.00  0.00     0.078 C 
HETATM   19  C1  UNL     1      -1.249  -0.391  85.475  1.00  0.00     0.150 C 
HETATM   20  C2  UNL     1      -3.561   0.080  86.418  1.00  0.00     0.123 C 
HETATM   21  C3  UNL     1      -4.045   1.043  87.448  1.00  0.00     0.020 C 
HETATM   22  C4  UNL     1      -3.293   2.339  87.471  1.00  0.00     0.009 C 
ATOM     23  H2  UNL     1      -0.844   1.549  84.025  1.00  0.00     0.188 HD
ENDBRANCH   1  15
TORSDOF 2
ENDMDL
MODEL 2
REMARK VINA RESULT: -7.344651554      0.488      1.332
REMARK  2 active torsions:
REMARK  status: ('A' for Active; 'I' for Inactive)
REMARK    1  A    between atoms: N2_8  and  N3_10 
REMARK       I    between atoms: N3_10  and  C7_12 
REMARK    2  A    between atoms: C7_12  and  C8_14 
ROOT
HETATM    1  N3  UNL     1      -1.352   3.584  84.025  1.00  0.00    -0.268 N 
ATOM      2  H3  UNL     1      -2.159   4.104  83.679  1.00  0.00     0.190 HD
HETATM    3  C7  UNL     1      -0.071   4.197  84.096  1.00  0.00     0.244 C 
HETATM    4  O1  UNL     1       0.927   3.538  84.531  1.00  0.00    -0.271 OA
ENDROOT
BRANCH   3   5
HETATM    5  C8  UNL     1       0.161   5.590  83.682  1.00  0.00     0.043 C 
HETATM    6  C9  UNL     1       1.606   5.919  83.988  1.00  0.00     0.024 C 
HETATM    7  C10 UNL     1       1.955   7.288  83.464  1.00  0.00    -0.013 C 
HETATM    8  C11 UNL     1       1.125   8.292  84.233  1.00  0.00     0.009 C 
HETATM    9  C15 UNL     1       1.670   7.310  81.993  1.00  0.00     0.009 C 
HETATM   10  C12 UNL     1      -0.334   7.958  84.033  1.00  0.00    -0.013 C 
HETATM   11  C13 UNL     1      -0.624   8.140  82.541  1.00  0.00     0.009 C 
HETATM   12  C17 UNL     1      -0.683   6.571  84.472  1.00  0.00     0.024 C 
HETATM   13  C14 UNL     1       0.195   7.143  81.773  1.00  0.00    -0.013 C 
HETATM   14  C16 UNL     1      -0.181   5.753  82.241  1.00  0.00     0.024 C 
ENDBRANCH   3   5
BRANCH   1  15
HETATM   15  N2  UNL     1      -1.484   2.275  84.433  1.00  0.00    -0.286 N 
HETATM   16  C6  UNL     1      -2.251   1.858  85.359  1.00  0.00     0.093 C 
HETATM   17  N1  UNL     1      -2.319   0.497  85.706  1.00  0.00    -0.374 N 
HETATM   18  C5  UNL     1      -3.099   2.808  86.096  1.00  0.00     0.078 C 
HETATM   19  C1  UNL     1      -1.234  -0.404  85.365  1.00  0.00     0.150 C 
HETATM   20  C2  UNL     1      -3.508   0.012  86.420  1.00  0.00     0.123 C 
HETATM   21  C3  UNL     1      -3.958   0.941  87.495  1.00  0.00     0.020 C 
HETATM   22  C4  UNL     1      -3.220   2.246  87.520  1.00  0.00     0.009 C 
ATOM     23  H2  UNL     1      -0.916   1.577  83.950  1.00  0.00     0.188 HD
ENDBRANCH   1  15
TORSDOF 2
ENDMDL
MODEL 3
REMARK VINA RESULT: -7.189884782      0.526      1.826
REMARK  2 active torsions:
REMARK  status: ('A' for Active; 'I' for Inactive)
REMARK    1  A    between atoms: N2_8  and  N3_10 
REMARK       I    between atoms: N3_10  and  C7_12 
REMARK    2  A    between atoms: C7_12  and  C8_14 
ROOT
HETATM    1  N3  UNL     1      -1.226   3.579  84.058  1.00  0.00    -0.268 N 
ATOM      2  H3  UNL     1      -2.020   4.119  83.717  1.00  0.00     0.190 HD
HETATM    3  C7  UNL     1       0.069   4.161  84.132  1.00  0.00     0.244 C 
HETATM    4  O1  UNL     1       1.052   3.477  84.561  1.00  0.00    -0.271 OA
ENDROOT
BRANCH   3   5
HETATM    5  C8  UNL     1       0.332   5.551  83.726  1.00  0.00     0.043 C 
HETATM    6  C9  UNL     1       0.248   5.606  82.215  1.00  0.00     0.024 C 
HETATM    7  C10 UNL     1       0.372   7.028  81.734  1.00  0.00    -0.013 C 
HETATM    8  C11 UNL     1       1.760   7.509  82.094  1.00  0.00     0.009 C 
HETATM    9  C15 UNL     1      -0.706   7.837  82.390  1.00  0.00     0.009 C 
HETATM   10  C12 UNL     1       1.932   7.395  83.589  1.00  0.00    -0.013 C 
HETATM   11  C13 UNL     1       0.917   8.350  84.221  1.00  0.00     0.009 C 
HETATM   12  C17 UNL     1       1.731   6.002  84.097  1.00  0.00     0.024 C 
HETATM   13  C14 UNL     1      -0.464   7.875  83.870  1.00  0.00    -0.013 C 
HETATM   14  C16 UNL     1      -0.633   6.466  84.396  1.00  0.00     0.024 C 
ENDBRANCH   3   5
BRANCH   1  15
HETATM   15  N2  UNL     1      -1.388   2.270  84.458  1.00  0.00    -0.286 N 
HETATM   16  C6  UNL     1      -2.188   1.861  85.359  1.00  0.00     0.093 C 
HETATM   17  N1  UNL     1      -2.285   0.501  85.700  1.00  0.00    -0.374 N 
HETATM   18  C5  UNL     1      -3.045   2.820  86.072  1.00  0.00     0.078 C 
HETATM   19  C1  UNL     1      -1.201  -0.414  85.388  1.00  0.00     0.150 C 
HETATM   20  C2  UNL     1      -3.501   0.029  86.375  1.00  0.00     0.123 C 
HETATM   21  C3  UNL     1      -3.971   0.961  87.439  1.00  0.00     0.020 C 
HETATM   22  C4  UNL     1      -3.218   2.256  87.490  1.00  0.00     0.009 C 
ATOM     23  H2  UNL     1      -0.815   1.567  83.991  1.00  0.00     0.188 HD
ENDBRANCH   1  15
TORSDOF 2
ENDMDL
MODEL 4
REMARK VINA RESULT: -6.918125348      1.918      2.755
REMARK  2 active torsions:
REMARK  status: ('A' for Active; 'I' for Inactive)
REMARK    1  A    between atoms: N2_8  and  N3_10 
REMARK       I    between atoms: N3_10  and  C7_12 
REMARK    2  A    between atoms: C7_12  and  C8_14 
ROOT
HETATM    1  N3  UNL     1      -0.870   3.981  83.683  1.00  0.00    -0.268 N 
ATOM      2  H3  UNL     1      -1.706   4.499  83.412  1.00  0.00     0.190 HD
HETATM    3  C7  UNL     1       0.387   4.637  83.782  1.00  0.00     0.244 C 
HETATM    4  O1  UNL     1       1.423   3.980  84.122  1.00  0.00    -0.271 OA
ENDROOT
BRANCH   3   5
HETATM    5  C8  UNL     1       0.552   6.072  83.503  1.00  0.00     0.043 C 
HETATM    6  C9  UNL     1       0.214   6.822  84.775  1.00  0.00     0.024 C 
HETATM    7  C10 UNL     1       0.494   8.293  84.606  1.00  0.00    -0.013 C 
HETATM    8  C11 UNL     1      -0.453   8.815  83.548  1.00  0.00     0.009 C 
HETATM    9  C15 UNL     1       1.933   8.453  84.221  1.00  0.00     0.009 C 
HETATM   10  C12 UNL     1      -0.219   8.040  82.274  1.00  0.00    -0.013 C 
HETATM   11  C13 UNL     1       1.212   8.349  81.830  1.00  0.00     0.009 C 
HETATM   12  C17 UNL     1      -0.412   6.565  82.442  1.00  0.00     0.024 C 
HETATM   13  C14 UNL     1       2.156   7.830  82.875  1.00  0.00    -0.013 C 
HETATM   14  C16 UNL     1       1.936   6.339  83.020  1.00  0.00     0.024 C 
ENDBRANCH   3   5
BRANCH   1  15
HETATM   15  N2  UNL     1      -0.939   2.633  83.961  1.00  0.00    -0.286 N 
HETATM   16  C6  UNL     1      -1.084   1.704  83.104  1.00  0.00     0.093 C 
HETATM   17  N1  UNL     1      -1.143   0.352  83.483  1.00  0.00    -0.374 N 
HETATM   18  C5  UNL     1      -1.191   2.032  81.674  1.00  0.00     0.078 C 
HETATM   19  C1  UNL     1      -1.493  -0.016  84.843  1.00  0.00     0.150 C 
HETATM   20  C2  UNL     1      -0.846  -0.675  82.475  1.00  0.00     0.123 C 
HETATM   21  C3  UNL     1      -1.465  -0.384  81.151  1.00  0.00     0.020 C 
HETATM   22  C4  UNL     1      -2.114   0.964  81.067  1.00  0.00     0.009 C 
ATOM     23  H2  UNL     1      -0.868   2.356  84.940  1.00  0.00     0.188 HD
ENDBRANCH   1  15
TORSDOF 2
ENDMDL
MODEL 5
REMARK VINA RESULT: -6.873738863      0.647      1.389
REMARK  2 active torsions:
REMARK  status: ('A' for Active; 'I' for Inactive)
REMARK    1  A    between atoms: N2_8  and  N3_10 
REMARK       I    between atoms: N3_10  and  C7_12 
REMARK    2  A    between atoms: C7_12  and  C8_14 
ROOT
HETATM    1  N3  UNL     1      -1.164   3.220  83.611  1.00  0.00    -0.268 N 
ATOM      2  H3  UNL     1      -1.895   3.617  83.021  1.00  0.00     0.190 HD
HETATM    3  C7  UNL     1       0.051   3.925  83.832  1.00  0.00     0.244 C 
HETATM    4  O1  UNL     1       0.955   3.420  84.571  1.00  0.00    -0.271 OA
ENDROOT
BRANCH   3   5
HETATM    5  C8  UNL     1       0.318   5.243  83.234  1.00  0.00     0.043 C 
HETATM    6  C9  UNL     1      -0.996   5.771  82.696  1.00  0.00     0.024 C 
HETATM    7  C10 UNL     1      -0.826   7.180  82.190  1.00  0.00    -0.013 C 
HETATM    8  C11 UNL     1       0.117   7.126  81.009  1.00  0.00     0.009 C 
HETATM    9  C15 UNL     1      -0.297   8.019  83.313  1.00  0.00     0.009 C 
HETATM   10  C12 UNL     1       1.423   6.524  81.469  1.00  0.00    -0.013 C 
HETATM   11  C13 UNL     1       2.008   7.485  82.505  1.00  0.00     0.009 C 
HETATM   12  C17 UNL     1       1.263   5.155  82.052  1.00  0.00     0.024 C 
HETATM   13  C14 UNL     1       1.077   7.540  83.681  1.00  0.00    -0.013 C 
HETATM   14  C16 UNL     1       0.937   6.142  84.246  1.00  0.00     0.024 C 
ENDBRANCH   3   5
BRANCH   1  15
HETATM   15  N2  UNL     1      -1.335   1.991  84.209  1.00  0.00    -0.286 N 
HETATM   16  C6  UNL     1      -2.157   1.726  85.144  1.00  0.00     0.093 C 
HETATM   17  N1  UNL     1      -2.261   0.437  85.694  1.00  0.00    -0.374 N 
HETATM   18  C5  UNL     1      -3.030   2.784  85.677  1.00  0.00     0.078 C 
HETATM   19  C1  UNL     1      -1.172  -0.512  85.557  1.00  0.00     0.150 C 
HETATM   20  C2  UNL     1      -3.494   0.074  86.407  1.00  0.00     0.123 C 
HETATM   21  C3  UNL     1      -3.988   1.161  87.299  1.00  0.00     0.020 C 
HETATM   22  C4  UNL     1      -3.236   2.450  87.162  1.00  0.00     0.009 C 
ATOM     23  H2  UNL     1      -0.752   1.224  83.873  1.00  0.00     0.188 HD
ENDBRANCH   1  15
TORSDOF 2
ENDMDL
