MODEL 1
REMARK VINA RESULT: -7.490421943      0.000      0.000
REMARK  3 active torsions:
REMARK  status: ('A' for Active; 'I' for Inactive)
REMARK    1  A    between atoms: O1_1  and  C1_3 
REMARK    2  A    between atoms: C1_3  and  C2_4 
REMARK    3  A    between atoms: C2_4  and  N1_5 
ROOT
HETATM    1  C1  UNL     1      -0.561   4.079  83.933  1.00  0.00     0.085 C 
HETATM    2  C9  UNL     1      -1.318   5.230  84.586  1.00  0.00     0.044 C 
HETATM    3  C10 UNL     1      -0.847   6.577  84.180  1.00  0.00    -0.011 C 
HETATM    4  C11 UNL     1      -0.599   6.639  82.714  1.00  0.00     0.010 C 
HETATM    5  C12 UNL     1       0.791   6.223  82.405  1.00  0.00    -0.009 C 
HETATM    6  C13 UNL     1       1.676   7.425  82.814  1.00  0.00     0.010 C 
HETATM    7  C14 UNL     1       1.644   6.791  84.211  1.00  0.00    -0.009 C 
HETATM    8  C15 UNL     1       0.365   7.060  84.927  1.00  0.00     0.010 C 
HETATM    9  C16 UNL     1       1.512   5.472  83.442  1.00  0.00    -0.004 C 
HETATM   10  C17 UNL     1       0.903   4.379  84.146  1.00  0.00     0.045 C 
ENDROOT
BRANCH   1  11
HETATM   11  O1  UNL     1      -0.913   3.856  82.657  1.00  0.00    -0.388 OA
ATOM     12  H1  UNL     1      -1.688   3.312  82.593  1.00  0.00     0.210 HD
ENDBRANCH   1  11
BRANCH   1  13
HETATM   13  C2  UNL     1      -0.848   2.884  84.814  1.00  0.00     0.312 C 
BRANCH  13  14
HETATM   14  N1  UNL     1      -1.989   2.117  84.499  1.00  0.00     0.127 N 
HETATM   15  C3  UNL     1      -1.420   0.788  84.063  1.00  0.00     0.305 C 
HETATM   16  C4  UNL     1      -1.223   0.008  85.329  1.00  0.00     0.305 C 
HETATM   17  N2  UNL     1      -1.829   0.821  86.318  1.00  0.00     0.124 N 
HETATM   18  C5  UNL     1      -2.722   0.130  87.210  1.00  0.00     0.275 C 
HETATM   19  C8  UNL     1      -2.773   1.595  85.521  1.00  0.00     0.456 C 
HETATM   20  C6  UNL     1      -3.864   1.093  87.433  1.00  0.00     0.034 C 
HETATM   21  C7  UNL     1      -3.443   2.346  86.578  1.00  0.00     0.070 C 
ENDBRANCH  13  14
ENDBRANCH   1  13
TORSDOF 3
ENDMDL
MODEL 2
REMARK VINA RESULT: -6.949640157      1.121      1.784
REMARK  3 active torsions:
REMARK  status: ('A' for Active; 'I' for Inactive)
REMARK    1  A    between atoms: O1_1  and  C1_3 
REMARK    2  A    between atoms: C1_3  and  C2_4 
REMARK    3  A    between atoms: C2_4  and  N1_5 
ROOT
HETATM    1  C1  UNL     1       0.227   3.569  84.124  1.00  0.00     0.085 C 
HETATM    2  C9  UNL     1      -0.312   3.352  82.715  1.00  0.00     0.044 C 
HETATM    3  C10 UNL     1      -0.142   4.516  81.811  1.00  0.00    -0.011 C 
HETATM    4  C11 UNL     1       1.209   5.120  81.962  1.00  0.00     0.010 C 
HETATM    5  C12 UNL     1       1.204   6.143  83.036  1.00  0.00    -0.009 C 
HETATM    6  C13 UNL     1       0.497   7.375  82.420  1.00  0.00     0.010 C 
HETATM    7  C14 UNL     1      -0.795   6.683  82.876  1.00  0.00    -0.009 C 
HETATM    8  C15 UNL     1      -1.199   5.576  81.963  1.00  0.00     0.010 C 
HETATM    9  C16 UNL     1       0.086   6.107  83.990  1.00  0.00    -0.004 C 
HETATM   10  C17 UNL     1      -0.359   4.881  84.589  1.00  0.00     0.045 C 
ENDROOT
BRANCH   1  11
HETATM   11  O1  UNL     1       1.565   3.485  84.209  1.00  0.00    -0.388 OA
ATOM     12  H1  UNL     1       1.989   4.282  83.913  1.00  0.00     0.210 HD
ENDBRANCH   1  11
BRANCH   1  13
HETATM   13  C2  UNL     1      -0.458   2.515  84.963  1.00  0.00     0.312 C 
BRANCH  13  14
HETATM   14  N1  UNL     1      -1.637   1.946  84.438  1.00  0.00     0.127 N 
HETATM   15  C3  UNL     1      -1.204   0.571  83.990  1.00  0.00     0.305 C 
HETATM   16  C4  UNL     1      -1.310  -0.294  85.211  1.00  0.00     0.305 C 
HETATM   17  N2  UNL     1      -1.934   0.550  86.162  1.00  0.00     0.124 N 
HETATM   18  C5  UNL     1      -3.039  -0.043  86.870  1.00  0.00     0.275 C 
HETATM   19  C8  UNL     1      -2.630   1.497  85.301  1.00  0.00     0.456 C 
HETATM   20  C6  UNL     1      -4.052   1.069  87.001  1.00  0.00     0.034 C 
HETATM   21  C7  UNL     1      -3.335   2.286  86.307  1.00  0.00     0.070 C 
ENDBRANCH  13  14
ENDBRANCH   1  13
TORSDOF 3
ENDMDL
MODEL 3
REMARK VINA RESULT: -6.822220342      1.020      1.926
REMARK  3 active torsions:
REMARK  status: ('A' for Active; 'I' for Inactive)
REMARK    1  A    between atoms: O1_1  and  C1_3 
REMARK    2  A    between atoms: C1_3  and  C2_4 
REMARK    3  A    between atoms: C2_4  and  N1_5 
ROOT
HETATM    1  C1  UNL     1      -0.677   4.157  84.221  1.00  0.00     0.085 C 
HETATM    2  C9  UNL     1       0.821   4.435  84.165  1.00  0.00     0.044 C 
HETATM    3  C10 UNL     1       1.199   5.554  83.268  1.00  0.00    -0.011 C 
HETATM    4  C11 UNL     1       0.274   6.709  83.430  1.00  0.00     0.010 C 
HETATM    5  C12 UNL     1      -0.891   6.572  82.522  1.00  0.00    -0.009 C 
HETATM    6  C13 UNL     1      -0.357   6.934  81.116  1.00  0.00     0.010 C 
HETATM    7  C14 UNL     1       0.053   5.457  81.047  1.00  0.00    -0.009 C 
HETATM    8  C15 UNL     1       1.299   5.177  81.815  1.00  0.00     0.010 C 
HETATM    9  C16 UNL     1      -1.154   5.237  81.966  1.00  0.00    -0.004 C 
HETATM   10  C17 UNL     1      -1.129   4.058  82.784  1.00  0.00     0.045 C 
ENDROOT
BRANCH   1  11
HETATM   11  O1  UNL     1      -1.363   5.036  84.970  1.00  0.00    -0.388 OA
ATOM     12  H1  UNL     1      -2.043   4.612  85.479  1.00  0.00     0.210 HD
ENDBRANCH   1  11
BRANCH   1  13
HETATM   13  C2  UNL     1      -0.785   2.750  84.763  1.00  0.00     0.312 C 
BRANCH  13  14
HETATM   14  N1  UNL     1      -1.937   2.015  84.411  1.00  0.00     0.127 N 
HETATM   15  C3  UNL     1      -1.387   0.694  83.929  1.00  0.00     0.305 C 
HETATM   16  C4  UNL     1      -1.213  -0.137  85.166  1.00  0.00     0.305 C 
HETATM   17  N2  UNL     1      -1.813   0.649  86.180  1.00  0.00     0.124 N 
HETATM   18  C5  UNL     1      -2.725  -0.060  87.040  1.00  0.00     0.275 C 
HETATM   19  C8  UNL     1      -2.737   1.469  85.408  1.00  0.00     0.456 C 
HETATM   20  C6  UNL     1      -3.851   0.914  87.291  1.00  0.00     0.034 C 
HETATM   21  C7  UNL     1      -3.402   2.191  86.488  1.00  0.00     0.070 C 
ENDBRANCH  13  14
ENDBRANCH   1  13
TORSDOF 3
ENDMDL
MODEL 4
REMARK VINA RESULT: -6.572247986      1.564      2.059
REMARK  3 active torsions:
REMARK  status: ('A' for Active; 'I' for Inactive)
REMARK    1  A    between atoms: O1_1  and  C1_3 
REMARK    2  A    between atoms: C1_3  and  C2_4 
REMARK    3  A    between atoms: C2_4  and  N1_5 
ROOT
HETATM    1  C1  UNL     1       0.247   4.158  82.278  1.00  0.00     0.085 C 
HETATM    2  C9  UNL     1      -1.112   4.829  82.437  1.00  0.00     0.044 C 
HETATM    3  C10 UNL     1      -1.045   6.248  82.866  1.00  0.00    -0.011 C 
HETATM    4  C11 UNL     1       0.021   6.982  82.130  1.00  0.00     0.010 C 
HETATM    5  C12 UNL     1       1.318   6.861  82.840  1.00  0.00    -0.009 C 
HETATM    6  C13 UNL     1       1.209   7.817  84.051  1.00  0.00     0.010 C 
HETATM    7  C14 UNL     1       0.551   6.623  84.754  1.00  0.00    -0.009 C 
HETATM    8  C15 UNL     1      -0.871   6.438  84.348  1.00  0.00     0.010 C 
HETATM    9  C16 UNL     1       1.441   5.784  83.832  1.00  0.00    -0.004 C 
HETATM   10  C17 UNL     1       0.997   4.446  83.557  1.00  0.00     0.045 C 
ENDROOT
BRANCH   1  11
HETATM   11  O1  UNL     1       0.894   4.505  81.153  1.00  0.00    -0.388 OA
ATOM     12  H1  UNL     1       1.174   5.412  81.172  1.00  0.00     0.210 HD
ENDBRANCH   1  11
BRANCH   1  13
HETATM   13  C2  UNL     1      -0.049   2.677  82.324  1.00  0.00     0.312 C 
BRANCH  13  14
HETATM   14  N1  UNL     1      -1.371   2.298  82.638  1.00  0.00     0.127 N 
HETATM   15  C3  UNL     1      -1.652   1.154  81.694  1.00  0.00     0.305 C 
HETATM   16  C4  UNL     1      -1.119  -0.067  82.384  1.00  0.00     0.305 C 
HETATM   17  N2  UNL     1      -0.765   0.407  83.671  1.00  0.00     0.124 N 
HETATM   18  C5  UNL     1      -1.232  -0.400  84.768  1.00  0.00     0.275 C 
HETATM   19  C8  UNL     1      -1.624   1.577  83.799  1.00  0.00     0.456 C 
HETATM   20  C6  UNL     1      -1.637   0.593  85.831  1.00  0.00     0.034 C 
HETATM   21  C7  UNL     1      -1.305   1.980  85.165  1.00  0.00     0.070 C 
ENDBRANCH  13  14
ENDBRANCH   1  13
TORSDOF 3
ENDMDL
MODEL 5
REMARK VINA RESULT: -6.467177999      1.652      2.566
REMARK  3 active torsions:
REMARK  status: ('A' for Active; 'I' for Inactive)
REMARK    1  A    between atoms: O1_1  and  C1_3 
REMARK    2  A    between atoms: C1_3  and  C2_4 
REMARK    3  A    between atoms: C2_4  and  N1_5 
ROOT
HETATM    1  C1  UNL     1       0.747   4.154  83.182  1.00  0.00     0.085 C 
HETATM    2  C9  UNL     1       1.175   4.873  81.908  1.00  0.00     0.044 C 
HETATM    3  C10 UNL     1       1.342   6.339  82.062  1.00  0.00    -0.011 C 
HETATM    4  C11 UNL     1       2.052   6.668  83.328  1.00  0.00     0.010 C 
HETATM    5  C12 UNL     1       1.084   6.811  84.444  1.00  0.00    -0.009 C 
HETATM    6  C13 UNL     1       0.411   8.187  84.224  1.00  0.00     0.010 C 
HETATM    7  C14 UNL     1      -0.544   7.412  83.305  1.00  0.00    -0.009 C 
HETATM    8  C15 UNL     1       0.060   7.121  81.974  1.00  0.00     0.010 C 
HETATM    9  C16 UNL     1      -0.255   6.239  84.247  1.00  0.00    -0.004 C 
HETATM   10  C17 UNL     1      -0.443   4.922  83.706  1.00  0.00     0.045 C 
ENDROOT
BRANCH   1  11
HETATM   11  O1  UNL     1       1.743   3.983  84.067  1.00  0.00    -0.388 OA
ATOM     12  H1  UNL     1       1.551   4.396  84.900  1.00  0.00     0.210 HD
ENDBRANCH   1  11
BRANCH   1  13
HETATM   13  C2  UNL     1       0.183   2.835  82.707  1.00  0.00     0.312 C 
BRANCH  13  14
HETATM   14  N1  UNL     1      -1.163   2.561  83.030  1.00  0.00     0.127 N 
HETATM   15  C3  UNL     1      -1.620   1.645  81.920  1.00  0.00     0.305 C 
HETATM   16  C4  UNL     1      -1.217   0.267  82.353  1.00  0.00     0.305 C 
HETATM   17  N2  UNL     1      -0.756   0.457  83.679  1.00  0.00     0.124 N 
HETATM   18  C5  UNL     1      -1.277  -0.476  84.644  1.00  0.00     0.275 C 
HETATM   19  C8  UNL     1      -1.458   1.676  84.061  1.00  0.00     0.456 C 
HETATM   20  C6  UNL     1      -1.512   0.349  85.887  1.00  0.00     0.034 C 
HETATM   21  C7  UNL     1      -1.038   1.786  85.454  1.00  0.00     0.070 C 
ENDBRANCH  13  14
ENDBRANCH   1  13
TORSDOF 3
ENDMDL
