MODEL 1
REMARK VINA RESULT: -6.715224530      0.000      0.000
REMARK  2 active torsions:
REMARK  status: ('A' for Active; 'I' for Inactive)
REMARK       I    between atoms: C1_2  and  N1_3 
REMARK    1  A    between atoms: C1_2  and  C8_11 
REMARK    2  A    between atoms: N1_3  and  C2_5 
ROOT
HETATM    1  O1  UNL     1      16.086   4.083  13.397  1.00  0.00    -0.273 OA
HETATM    2  C1  UNL     1      15.897   4.990  14.274  1.00  0.00     0.222 C 
HETATM    3  N1  UNL     1      15.568   4.571  15.571  1.00  0.00    -0.356 N 
ATOM      4  H1  UNL     1      15.413   5.286  16.282  1.00  0.00     0.162 HD
ENDROOT
BRANCH   2   5
HETATM    5  C8  UNL     1      16.030   6.397  13.889  1.00  0.00     0.081 C 
HETATM    6  C9  UNL     1      16.526   6.535  12.477  1.00  0.00     0.044 C 
HETATM    7  C10 UNL     1      16.938   7.932  12.157  1.00  0.00     0.273 C 
HETATM    8  N2  UNL     1      16.590   8.883  13.188  1.00  0.00     0.093 N 
HETATM    9  C11 UNL     1      17.191  10.170  12.895  1.00  0.00     0.273 C 
HETATM   10  C14 UNL     1      17.133   8.556  14.467  1.00  0.00     0.224 C 
HETATM   11  C12 UNL     1      18.524  10.222  13.588  1.00  0.00     0.032 C 
HETATM   12  C13 UNL     1      18.548   9.054  14.530  1.00  0.00     0.037 C 
HETATM   13  C15 UNL     1      17.020   7.088  14.800  1.00  0.00     0.050 C 
ENDBRANCH   2   5
BRANCH   3  14
HETATM   14  C2  UNL     1      15.436   3.204  15.955  1.00  0.00     0.084 C 
HETATM   15  C3  UNL     1      16.733   2.549  16.342  1.00  0.00     0.025 C 
HETATM   16  C4  UNL     1      16.490   1.055  16.371  1.00  0.00     0.002 C 
HETATM   17  C5  UNL     1      15.357   0.681  17.284  1.00  0.00     0.000 C 
HETATM   18  C6  UNL     1      14.120   1.486  17.059  1.00  0.00     0.002 C 
HETATM   19  C7  UNL     1      14.453   2.978  17.081  1.00  0.00     0.025 C 
ENDBRANCH   3  14
TORSDOF 2
ENDMDL
MODEL 2
REMARK VINA RESULT: -6.462241027      1.227      1.981
REMARK  2 active torsions:
REMARK  status: ('A' for Active; 'I' for Inactive)
REMARK       I    between atoms: C1_2  and  N1_3 
REMARK    1  A    between atoms: C1_2  and  C8_11 
REMARK    2  A    between atoms: N1_3  and  C2_5 
ROOT
HETATM    1  O1  UNL     1      16.301   3.908  13.220  1.00  0.00    -0.273 OA
HETATM    2  C1  UNL     1      16.213   4.869  14.055  1.00  0.00     0.222 C 
HETATM    3  N1  UNL     1      15.871   4.543  15.376  1.00  0.00    -0.356 N 
ATOM      4  H1  UNL     1      15.797   5.301  16.053  1.00  0.00     0.162 HD
ENDROOT
BRANCH   2   5
HETATM    5  C8  UNL     1      16.468   6.238  13.600  1.00  0.00     0.081 C 
HETATM    6  C9  UNL     1      15.454   7.198  14.153  1.00  0.00     0.044 C 
HETATM    7  C10 UNL     1      15.517   8.532  13.488  1.00  0.00     0.273 C 
HETATM    8  N2  UNL     1      16.655   8.680  12.609  1.00  0.00     0.093 N 
HETATM    9  C11 UNL     1      16.541   9.916  11.859  1.00  0.00     0.273 C 
HETATM   10  C14 UNL     1      16.715   7.685  11.586  1.00  0.00     0.224 C 
HETATM   11  C12 UNL     1      15.845   9.604  10.564  1.00  0.00     0.032 C 
HETATM   12  C13 UNL     1      15.825   8.107  10.453  1.00  0.00     0.037 C 
HETATM   13  C15 UNL     1      16.394   6.299  12.091  1.00  0.00     0.050 C 
ENDBRANCH   2   5
BRANCH   3  14
HETATM   14  C2  UNL     1      15.621   3.214  15.826  1.00  0.00     0.084 C 
HETATM   15  C3  UNL     1      16.854   2.473  16.265  1.00  0.00     0.025 C 
HETATM   16  C4  UNL     1      16.486   1.008  16.366  1.00  0.00     0.002 C 
HETATM   17  C5  UNL     1      15.316   0.778  17.281  1.00  0.00     0.000 C 
HETATM   18  C6  UNL     1      14.154   1.672  16.998  1.00  0.00     0.002 C 
HETATM   19  C7  UNL     1      14.612   3.130  16.948  1.00  0.00     0.025 C 
ENDBRANCH   3  14
TORSDOF 2
ENDMDL
MODEL 3
REMARK VINA RESULT: -6.308805497      3.337      3.853
REMARK  2 active torsions:
REMARK  status: ('A' for Active; 'I' for Inactive)
REMARK       I    between atoms: C1_2  and  N1_3 
REMARK    1  A    between atoms: C1_2  and  C8_11 
REMARK    2  A    between atoms: N1_3  and  C2_5 
ROOT
HETATM    1  O1  UNL     1      15.865   2.584  12.612  1.00  0.00    -0.273 OA
HETATM    2  C1  UNL     1      16.987   3.019  13.039  1.00  0.00     0.222 C 
HETATM    3  N1  UNL     1      17.219   2.950  14.420  1.00  0.00    -0.356 N 
ATOM      4  H1  UNL     1      18.111   3.295  14.774  1.00  0.00     0.162 HD
ENDROOT
BRANCH   2   5
HETATM    5  C8  UNL     1      17.955   3.558  12.081  1.00  0.00     0.081 C 
HETATM    6  C9  UNL     1      18.872   4.555  12.730  1.00  0.00     0.044 C 
HETATM    7  C10 UNL     1      19.672   5.322  11.732  1.00  0.00     0.273 C 
HETATM    8  N2  UNL     1      19.546   4.813  10.385  1.00  0.00     0.093 N 
HETATM    9  C11 UNL     1      20.189   5.719   9.453  1.00  0.00     0.273 C 
HETATM   10  C14 UNL     1      18.198   4.772   9.918  1.00  0.00     0.224 C 
HETATM   11  C12 UNL     1      19.149   6.686   8.962  1.00  0.00     0.032 C 
HETATM   12  C13 UNL     1      17.825   6.132   9.403  1.00  0.00     0.037 C 
HETATM   13  C15 UNL     1      17.228   4.259  10.955  1.00  0.00     0.050 C 
ENDBRANCH   2   5
BRANCH   3  14
HETATM   14  C2  UNL     1      16.282   2.427  15.358  1.00  0.00     0.084 C 
HETATM   15  C3  UNL     1      16.902   1.588  16.441  1.00  0.00     0.025 C 
HETATM   16  C4  UNL     1      15.780   0.833  17.122  1.00  0.00     0.002 C 
HETATM   17  C5  UNL     1      14.711   1.751  17.642  1.00  0.00     0.000 C 
HETATM   18  C6  UNL     1      14.239   2.748  16.634  1.00  0.00     0.002 C 
HETATM   19  C7  UNL     1      15.433   3.485  16.026  1.00  0.00     0.025 C 
ENDBRANCH   3  14
TORSDOF 2
ENDMDL
MODEL 4
REMARK VINA RESULT: -6.292410067      3.020      3.806
REMARK  2 active torsions:
REMARK  status: ('A' for Active; 'I' for Inactive)
REMARK       I    between atoms: C1_2  and  N1_3 
REMARK    1  A    between atoms: C1_2  and  C8_11 
REMARK    2  A    between atoms: N1_3  and  C2_5 
ROOT
HETATM    1  O1  UNL     1      17.183   5.329  15.400  1.00  0.00    -0.273 OA
HETATM    2  C1  UNL     1      17.958   4.443  14.907  1.00  0.00     0.222 C 
HETATM    3  N1  UNL     1      17.695   3.106  15.235  1.00  0.00    -0.356 N 
ATOM      4  H1  UNL     1      18.306   2.387  14.848  1.00  0.00     0.162 HD
ENDROOT
BRANCH   2   5
HETATM    5  C8  UNL     1      19.061   4.861  14.038  1.00  0.00     0.081 C 
HETATM    6  C9  UNL     1      19.142   6.358  13.936  1.00  0.00     0.044 C 
HETATM    7  C10 UNL     1      20.062   6.801  12.849  1.00  0.00     0.273 C 
HETATM    8  N2  UNL     1      20.822   5.719  12.265  1.00  0.00     0.093 N 
HETATM    9  C11 UNL     1      21.539   6.194  11.097  1.00  0.00     0.273 C 
HETATM   10  C14 UNL     1      20.006   4.672  11.740  1.00  0.00     0.224 C 
HETATM   11  C12 UNL     1      20.669   5.954   9.896  1.00  0.00     0.032 C 
HETATM   12  C13 UNL     1      19.558   5.058  10.360  1.00  0.00     0.037 C 
HETATM   13  C15 UNL     1      18.853   4.310  12.644  1.00  0.00     0.050 C 
ENDBRANCH   2   5
BRANCH   3  14
HETATM   14  C2  UNL     1      16.624   2.691  16.080  1.00  0.00     0.084 C 
HETATM   15  C3  UNL     1      15.276   3.202  15.655  1.00  0.00     0.025 C 
HETATM   16  C4  UNL     1      14.327   2.986  16.816  1.00  0.00     0.002 C 
HETATM   17  C5  UNL     1      14.289   1.551  17.258  1.00  0.00     0.000 C 
HETATM   18  C6  UNL     1      15.642   0.956  17.470  1.00  0.00     0.002 C 
HETATM   19  C7  UNL     1      16.517   1.191  16.238  1.00  0.00     0.025 C 
ENDBRANCH   3  14
TORSDOF 2
ENDMDL
MODEL 5
REMARK VINA RESULT: -6.281266947      1.502      7.079
REMARK  2 active torsions:
REMARK  status: ('A' for Active; 'I' for Inactive)
REMARK       I    between atoms: C1_2  and  N1_3 
REMARK    1  A    between atoms: C1_2  and  C8_11 
REMARK    2  A    between atoms: N1_3  and  C2_5 
ROOT
HETATM    1  O1  UNL     1      17.479   4.910  12.818  1.00  0.00    -0.273 OA
HETATM    2  C1  UNL     1      16.858   5.135  13.910  1.00  0.00     0.222 C 
HETATM    3  N1  UNL     1      16.302   6.410  14.082  1.00  0.00    -0.356 N 
ATOM      4  H1  UNL     1      15.804   6.604  14.951  1.00  0.00     0.162 HD
ENDROOT
BRANCH   2   5
HETATM    5  C8  UNL     1      16.761   4.068  14.910  1.00  0.00     0.081 C 
HETATM    6  C9  UNL     1      16.903   2.712  14.281  1.00  0.00     0.044 C 
HETATM    7  C10 UNL     1      16.528   1.613  15.217  1.00  0.00     0.273 C 
HETATM    8  N2  UNL     1      16.304   2.065  16.571  1.00  0.00     0.093 N 
HETATM    9  C11 UNL     1      15.759   0.983  17.369  1.00  0.00     0.273 C 
HETATM   10  C14 UNL     1      15.303   3.078  16.673  1.00  0.00     0.224 C 
HETATM   11  C12 UNL     1      14.261   1.081  17.310  1.00  0.00     0.032 C 
HETATM   12  C13 UNL     1      13.955   2.420  16.704  1.00  0.00     0.037 C 
HETATM   13  C15 UNL     1      15.412   4.126  15.592  1.00  0.00     0.050 C 
ENDBRANCH   2   5
BRANCH   3  14
HETATM   14  C2  UNL     1      16.393   7.453  13.114  1.00  0.00     0.084 C 
HETATM   15  C3  UNL     1      15.271   7.459  12.114  1.00  0.00     0.025 C 
HETATM   16  C4  UNL     1      15.689   8.367  10.976  1.00  0.00     0.002 C 
HETATM   17  C5  UNL     1      16.048   9.746  11.451  1.00  0.00     0.000 C 
HETATM   18  C6  UNL     1      16.998   9.751  12.604  1.00  0.00     0.002 C 
HETATM   19  C7  UNL     1      16.479   8.838  13.715  1.00  0.00     0.025 C 
ENDBRANCH   3  14
TORSDOF 2
ENDMDL
