MODEL 1
REMARK VINA RESULT: -6.918093806      0.000      0.000
REMARK  5 active torsions:
REMARK  status: ('A' for Active; 'I' for Inactive)
REMARK    1  A    between atoms: C2_2  and  O1_5 
REMARK    2  A    between atoms: O1_5  and  C5_6 
REMARK       I    between atoms: C5_6  and  N1_8 
REMARK    3  A    between atoms: C8_11  and  N2_12 
REMARK       I    between atoms: N2_12  and  C9_14 
REMARK       I    between atoms: C9_14  and  N3_16 
REMARK    4  A    between atoms: N3_16  and  C10_18 
REMARK    5  A    between atoms: C10_18  and  C11_19 
ROOT
HETATM    1  N2  UNL     1       0.808  61.030  -0.966  1.00  0.00    -0.337 N 
ATOM      2  H2  UNL     1       0.951  62.011  -0.727  1.00  0.00     0.164 HD
HETATM    3  C9  UNL     1       0.457  60.101   0.024  1.00  0.00     0.316 C 
HETATM    4  O3  UNL     1       0.283  58.904  -0.263  1.00  0.00    -0.247 OA
HETATM    5  N3  UNL     1       0.298  60.521   1.363  1.00  0.00    -0.341 N 
ATOM      6  H3  UNL     1       0.442  61.505   1.589  1.00  0.00     0.164 HD
ENDROOT
BRANCH   1   7
HETATM    7  C8  UNL     1       0.965  60.577  -2.331  1.00  0.00     0.105 C 
HETATM    8  C7  UNL     1      -0.412  60.586  -2.984  1.00  0.00     0.047 C 
HETATM    9  C6  UNL     1      -0.669  62.062  -3.096  1.00  0.00     0.130 C 
HETATM   10  N1  UNL     1       0.657  62.685  -3.183  1.00  0.00    -0.326 N 
HETATM   11  C5  UNL     1       0.899  64.068  -3.293  1.00  0.00     0.363 C 
HETATM   12  C16 UNL     1       1.668  61.648  -3.139  1.00  0.00     0.153 C 
HETATM   13  O2  UNL     1       2.085  64.478  -3.360  1.00  0.00    -0.238 OA
BRANCH  11  14
HETATM   14  O1  UNL     1      -0.132  65.010  -3.328  1.00  0.00    -0.294 OA
BRANCH  14  15
HETATM   15  C2  UNL     1      -0.431  65.704  -2.138  1.00  0.00     0.061 C 
HETATM   16  C1  UNL     1      -0.251  64.841  -0.919  1.00  0.00     0.046 C 
HETATM   17  C3  UNL     1      -1.884  66.145  -2.162  1.00  0.00     0.046 C 
HETATM   18  C4  UNL     1       0.495  66.894  -2.036  1.00  0.00     0.046 C 
ENDBRANCH  14  15
ENDBRANCH  11  14
ENDBRANCH   1   7
BRANCH   5  19
HETATM   19  C10 UNL     1      -0.065  59.606   2.433  1.00  0.00     0.156 C 
BRANCH  19  20
HETATM   20  C11 UNL     1      -0.705  60.392   3.531  1.00  0.00     0.139 C 
HETATM   21  C12 UNL     1      -1.588  61.445   2.883  1.00  0.00     0.034 C 
HETATM   22  C13 UNL     1      -2.759  61.709   3.828  1.00  0.00     0.005 C 
HETATM   23  C14 UNL     1      -3.594  60.423   3.802  1.00  0.00     0.026 C 
HETATM   24  C15 UNL     1      -2.665  59.229   3.932  1.00  0.00     0.168 C 
HETATM   25  O4  UNL     1      -1.422  59.601   4.421  1.00  0.00    -0.384 OA
ENDBRANCH  19  20
ENDBRANCH   5  19
TORSDOF 5
ENDMDL
MODEL 2
REMARK VINA RESULT: -6.650388706      6.072      7.507
REMARK  5 active torsions:
REMARK  status: ('A' for Active; 'I' for Inactive)
REMARK    1  A    between atoms: C2_2  and  O1_5 
REMARK    2  A    between atoms: O1_5  and  C5_6 
REMARK       I    between atoms: C5_6  and  N1_8 
REMARK    3  A    between atoms: C8_11  and  N2_12 
REMARK       I    between atoms: N2_12  and  C9_14 
REMARK       I    between atoms: C9_14  and  N3_16 
REMARK    4  A    between atoms: N3_16  and  C10_18 
REMARK    5  A    between atoms: C10_18  and  C11_19 
ROOT
HETATM    1  N2  UNL     1      -3.505  65.900   1.573  1.00  0.00    -0.337 N 
ATOM      2  H2  UNL     1      -4.469  65.722   1.854  1.00  0.00     0.164 HD
HETATM    3  C9  UNL     1      -2.489  64.993   1.909  1.00  0.00     0.316 C 
HETATM    4  O3  UNL     1      -1.312  65.206   1.569  1.00  0.00    -0.247 OA
HETATM    5  N3  UNL     1      -2.796  63.824   2.639  1.00  0.00    -0.341 N 
ATOM      6  H3  UNL     1      -3.765  63.658   2.912  1.00  0.00     0.164 HD
ENDROOT
BRANCH   1   7
HETATM    7  C8  UNL     1      -3.166  67.090   0.824  1.00  0.00     0.105 C 
HETATM    8  C7  UNL     1      -4.422  67.554   0.097  1.00  0.00     0.047 C 
HETATM    9  C6  UNL     1      -5.256  68.048   1.246  1.00  0.00     0.130 C 
HETATM   10  N1  UNL     1      -4.295  68.460   2.276  1.00  0.00    -0.326 N 
HETATM   11  C5  UNL     1      -4.635  68.984   3.540  1.00  0.00     0.363 C 
HETATM   12  C16 UNL     1      -2.951  68.243   1.781  1.00  0.00     0.153 C 
HETATM   13  O2  UNL     1      -3.717  69.301   4.336  1.00  0.00    -0.238 OA
BRANCH  11  14
HETATM   14  O1  UNL     1      -5.959  69.163   3.946  1.00  0.00    -0.294 OA
BRANCH  14  15
HETATM   15  C2  UNL     1      -6.451  70.481   4.026  1.00  0.00     0.061 C 
HETATM   16  C1  UNL     1      -5.658  71.324   4.987  1.00  0.00     0.046 C 
HETATM   17  C3  UNL     1      -7.883  70.456   4.533  1.00  0.00     0.046 C 
HETATM   18  C4  UNL     1      -6.373  71.103   2.651  1.00  0.00     0.046 C 
ENDBRANCH  14  15
ENDBRANCH  11  14
ENDBRANCH   1   7
BRANCH   5  19
HETATM   19  C10 UNL     1      -1.788  62.848   3.016  1.00  0.00     0.156 C 
BRANCH  19  20
HETATM   20  C11 UNL     1      -2.327  62.019   4.137  1.00  0.00     0.139 C 
HETATM   21  C12 UNL     1      -3.539  61.271   3.608  1.00  0.00     0.034 C 
HETATM   22  C13 UNL     1      -3.630  59.948   4.365  1.00  0.00     0.005 C 
HETATM   23  C14 UNL     1      -2.423  59.129   3.891  1.00  0.00     0.026 C 
HETATM   24  C15 UNL     1      -1.191  60.017   3.900  1.00  0.00     0.168 C 
HETATM   25  O4  UNL     1      -1.385  61.150   4.675  1.00  0.00    -0.384 OA
ENDBRANCH  19  20
ENDBRANCH   5  19
TORSDOF 5
ENDMDL
MODEL 3
REMARK VINA RESULT: -6.491378209      2.674      3.340
REMARK  5 active torsions:
REMARK  status: ('A' for Active; 'I' for Inactive)
REMARK    1  A    between atoms: C2_2  and  O1_5 
REMARK    2  A    between atoms: O1_5  and  C5_6 
REMARK       I    between atoms: C5_6  and  N1_8 
REMARK    3  A    between atoms: C8_11  and  N2_12 
REMARK       I    between atoms: N2_12  and  C9_14 
REMARK       I    between atoms: C9_14  and  N3_16 
REMARK    4  A    between atoms: N3_16  and  C10_18 
REMARK    5  A    between atoms: C10_18  and  C11_19 
ROOT
HETATM    1  N2  UNL     1      -0.613  63.571  -0.078  1.00  0.00    -0.337 N 
ATOM      2  H2  UNL     1      -1.039  64.287   0.510  1.00  0.00     0.164 HD
HETATM    3  C9  UNL     1      -0.190  62.355   0.477  1.00  0.00     0.316 C 
HETATM    4  O3  UNL     1       0.330  61.480  -0.237  1.00  0.00    -0.247 OA
HETATM    5  N3  UNL     1      -0.352  62.113   1.859  1.00  0.00    -0.341 N 
ATOM      6  H3  UNL     1      -0.781  62.837   2.436  1.00  0.00     0.164 HD
ENDROOT
BRANCH   1   7
HETATM    7  C8  UNL     1      -0.438  63.796  -1.496  1.00  0.00     0.105 C 
HETATM    8  C7  UNL     1      -1.798  63.630  -2.164  1.00  0.00     0.047 C 
HETATM    9  C6  UNL     1      -2.516  64.853  -1.667  1.00  0.00     0.130 C 
HETATM   10  N1  UNL     1      -1.466  65.845  -1.411  1.00  0.00    -0.326 N 
HETATM   11  C5  UNL     1      -1.683  67.149  -0.922  1.00  0.00     0.363 C 
HETATM   12  C16 UNL     1      -0.180  65.267  -1.745  1.00  0.00     0.153 C 
HETATM   13  O2  UNL     1      -0.697  67.907  -0.745  1.00  0.00    -0.238 OA
BRANCH  11  14
HETATM   14  O1  UNL     1      -2.957  67.635  -0.622  1.00  0.00    -0.294 OA
BRANCH  14  15
HETATM   15  C2  UNL     1      -3.339  67.688   0.734  1.00  0.00     0.061 C 
HETATM   16  C1  UNL     1      -2.754  66.555   1.531  1.00  0.00     0.046 C 
HETATM   17  C3  UNL     1      -4.850  67.573   0.838  1.00  0.00     0.046 C 
HETATM   18  C4  UNL     1      -2.853  68.996   1.315  1.00  0.00     0.046 C 
ENDBRANCH  14  15
ENDBRANCH  11  14
ENDBRANCH   1   7
BRANCH   5  19
HETATM   19  C10 UNL     1       0.066  60.873   2.491  1.00  0.00     0.156 C 
BRANCH  19  20
HETATM   20  C11 UNL     1      -0.709  60.703   3.758  1.00  0.00     0.139 C 
HETATM   21  C12 UNL     1      -1.772  61.787   3.791  1.00  0.00     0.034 C 
HETATM   22  C13 UNL     1      -2.971  61.234   4.557  1.00  0.00     0.005 C 
HETATM   23  C14 UNL     1      -3.553  60.137   3.656  1.00  0.00     0.026 C 
HETATM   24  C15 UNL     1      -2.418  59.272   3.136  1.00  0.00     0.168 C 
HETATM   25  O4  UNL     1      -1.266  59.437   3.890  1.00  0.00    -0.384 OA
ENDBRANCH  19  20
ENDBRANCH   5  19
TORSDOF 5
ENDMDL
MODEL 4
REMARK VINA RESULT: -6.478319175      0.894      1.303
REMARK  5 active torsions:
REMARK  status: ('A' for Active; 'I' for Inactive)
REMARK    1  A    between atoms: C2_2  and  O1_5 
REMARK    2  A    between atoms: O1_5  and  C5_6 
REMARK       I    between atoms: C5_6  and  N1_8 
REMARK    3  A    between atoms: C8_11  and  N2_12 
REMARK       I    between atoms: N2_12  and  C9_14 
REMARK       I    between atoms: C9_14  and  N3_16 
REMARK    4  A    between atoms: N3_16  and  C10_18 
REMARK    5  A    between atoms: C10_18  and  C11_19 
ROOT
HETATM    1  N2  UNL     1      -0.378  60.269  -1.081  1.00  0.00    -0.337 N 
ATOM      2  H2  UNL     1      -0.807  61.193  -1.048  1.00  0.00     0.164 HD
HETATM    3  C9  UNL     1      -0.069  59.586   0.105  1.00  0.00     0.316 C 
HETATM    4  O3  UNL     1       0.455  58.459   0.069  1.00  0.00    -0.247 OA
HETATM    5  N3  UNL     1      -0.352  60.177   1.356  1.00  0.00    -0.341 N 
ATOM      6  H3  UNL     1      -0.783  61.102   1.374  1.00  0.00     0.164 HD
ENDROOT
BRANCH   1   7
HETATM    7  C8  UNL     1      -0.080  59.643  -2.350  1.00  0.00     0.105 C 
HETATM    8  C7  UNL     1      -1.273  59.871  -3.271  1.00  0.00     0.047 C 
HETATM    9  C6  UNL     1      -1.158  61.346  -3.534  1.00  0.00     0.130 C 
HETATM   10  N1  UNL     1       0.269  61.658  -3.388  1.00  0.00    -0.326 N 
HETATM   11  C5  UNL     1       0.839  62.938  -3.540  1.00  0.00     0.363 C 
HETATM   12  C16 UNL     1       0.987  60.442  -3.068  1.00  0.00     0.153 C 
HETATM   13  O2  UNL     1       2.078  63.076  -3.389  1.00  0.00    -0.238 OA
BRANCH  11  14
HETATM   14  O1  UNL     1       0.077  64.068  -3.849  1.00  0.00    -0.294 OA
BRANCH  14  15
HETATM   15  C2  UNL     1      -0.180  64.992  -2.817  1.00  0.00     0.061 C 
HETATM   16  C1  UNL     1      -1.504  65.683  -2.993  1.00  0.00     0.046 C 
HETATM   17  C3  UNL     1       0.891  66.070  -2.827  1.00  0.00     0.046 C 
HETATM   18  C4  UNL     1      -0.187  64.248  -1.502  1.00  0.00     0.046 C 
ENDBRANCH  14  15
ENDBRANCH  11  14
ENDBRANCH   1   7
BRANCH   5  19
HETATM   19  C10 UNL     1      -0.055  59.520   2.617  1.00  0.00     0.156 C 
BRANCH  19  20
HETATM   20  C11 UNL     1      -0.715  60.287   3.718  1.00  0.00     0.139 C 
HETATM   21  C12 UNL     1      -1.532  61.395   3.075  1.00  0.00     0.034 C 
HETATM   22  C13 UNL     1      -2.733  61.666   3.978  1.00  0.00     0.005 C 
HETATM   23  C14 UNL     1      -3.610  60.414   3.866  1.00  0.00     0.026 C 
HETATM   24  C15 UNL     1      -2.730  59.181   3.989  1.00  0.00     0.168 C 
HETATM   25  O4  UNL     1      -1.497  59.490   4.544  1.00  0.00    -0.384 OA
ENDBRANCH  19  20
ENDBRANCH   5  19
TORSDOF 5
ENDMDL
MODEL 5
REMARK VINA RESULT: -6.390013511      1.413      1.665
REMARK  5 active torsions:
REMARK  status: ('A' for Active; 'I' for Inactive)
REMARK    1  A    between atoms: C2_2  and  O1_5 
REMARK    2  A    between atoms: O1_5  and  C5_6 
REMARK       I    between atoms: C5_6  and  N1_8 
REMARK    3  A    between atoms: C8_11  and  N2_12 
REMARK       I    between atoms: N2_12  and  C9_14 
REMARK       I    between atoms: C9_14  and  N3_16 
REMARK    4  A    between atoms: N3_16  and  C10_18 
REMARK    5  A    between atoms: C10_18  and  C11_19 
ROOT
HETATM    1  N2  UNL     1      -0.053  60.600  -1.116  1.00  0.00    -0.337 N 
ATOM      2  H2  UNL     1      -0.364  61.570  -1.062  1.00  0.00     0.164 HD
HETATM    3  C9  UNL     1       0.082  59.831   0.049  1.00  0.00     0.316 C 
HETATM    4  O3  UNL     1       0.461  58.649  -0.012  1.00  0.00    -0.247 OA
HETATM    5  N3  UNL     1      -0.213  60.398   1.309  1.00  0.00    -0.341 N 
ATOM      6  H3  UNL     1      -0.524  61.368   1.349  1.00  0.00     0.164 HD
ENDROOT
BRANCH   1   7
HETATM    7  C8  UNL     1       0.254  59.998  -2.395  1.00  0.00     0.105 C 
HETATM    8  C7  UNL     1      -1.048  59.462  -2.980  1.00  0.00     0.047 C 
HETATM    9  C6  UNL     1      -1.762  60.740  -3.318  1.00  0.00     0.130 C 
HETATM   10  N1  UNL     1      -0.702  61.726  -3.563  1.00  0.00    -0.326 N 
HETATM   11  C5  UNL     1      -0.914  63.077  -3.905  1.00  0.00     0.363 C 
HETATM   12  C16 UNL     1       0.586  61.085  -3.396  1.00  0.00     0.153 C 
HETATM   13  O2  UNL     1       0.080  63.822  -4.090  1.00  0.00    -0.238 OA
BRANCH  11  14
HETATM   14  O1  UNL     1      -2.191  63.624  -4.047  1.00  0.00    -0.294 OA
BRANCH  14  15
HETATM   15  C2  UNL     1      -2.742  64.305  -2.943  1.00  0.00     0.061 C 
HETATM   16  C1  UNL     1      -1.992  64.019  -1.671  1.00  0.00     0.046 C 
HETATM   17  C3  UNL     1      -4.174  63.845  -2.729  1.00  0.00     0.046 C 
HETATM   18  C4  UNL     1      -2.684  65.789  -3.221  1.00  0.00     0.046 C 
ENDBRANCH  14  15
ENDBRANCH  11  14
ENDBRANCH   1   7
BRANCH   5  19
HETATM   19  C10 UNL     1      -0.092  59.652   2.550  1.00  0.00     0.156 C 
BRANCH  19  20
HETATM   20  C11 UNL     1      -0.774  60.423   3.634  1.00  0.00     0.139 C 
HETATM   21  C12 UNL     1      -1.667  61.454   2.966  1.00  0.00     0.034 C 
HETATM   22  C13 UNL     1      -2.864  61.692   3.885  1.00  0.00     0.005 C 
HETATM   23  C14 UNL     1      -3.668  60.386   3.842  1.00  0.00     0.026 C 
HETATM   24  C15 UNL     1      -2.714  59.214   3.994  1.00  0.00     0.168 C 
HETATM   25  O4  UNL     1      -1.491  59.616   4.509  1.00  0.00    -0.384 OA
ENDBRANCH  19  20
ENDBRANCH   5  19
TORSDOF 5
ENDMDL
