MODEL 1
REMARK VINA RESULT: -6.808785740      0.000      0.000
REMARK  1 active torsions:
REMARK  status: ('A' for Active; 'I' for Inactive)
REMARK    1  A    between atoms: C2_2  and  C4_4 
ROOT
HETATM    1  C4  UNL     1      44.758  15.356  -0.778  1.00  0.00     0.008 C 
HETATM    2  C5  UNL     1      43.359  15.197  -1.274  1.00  0.00     0.045 C 
HETATM    3  C6  UNL     1      43.201  15.690  -2.725  1.00  0.00     0.084 C 
HETATM    4  C7  UNL     1      43.254  17.178  -2.661  1.00  0.00     0.067 C 
HETATM    5  C8  UNL     1      42.271  17.904  -3.503  1.00  0.00     0.235 C 
HETATM    6  N1  UNL     1      42.854  18.046  -4.846  1.00  0.00    -0.075 N 
ATOM      7  H11 UNL     1      43.533  17.310  -5.045  1.00  0.00     0.277 HD
ATOM      8  H12 UNL     1      43.480  18.849  -4.906  1.00  0.00     0.277 HD
HETATM    9  C9  UNL     1      41.823  18.100  -5.834  1.00  0.00     0.233 C 
HETATM   10  C10 UNL     1      42.070  17.251  -7.032  1.00  0.00     0.055 C 
HETATM   11  C11 UNL     1      42.234  15.809  -6.797  1.00  0.00     0.233 C 
HETATM   12  N2  UNL     1      42.780  15.436  -5.519  1.00  0.00    -0.075 N 
ATOM     13  H21 UNL     1      43.325  16.190  -5.099  1.00  0.00     0.277 HD
ATOM     14  H22 UNL     1      43.527  14.746  -5.606  1.00  0.00     0.277 HD
HETATM   15  C12 UNL     1      41.735  14.991  -4.667  1.00  0.00     0.235 C 
HETATM   16  C13 UNL     1      41.941  15.094  -3.215  1.00  0.00     0.067 C 
HETATM   17  O1  UNL     1      44.264  15.247  -3.498  1.00  0.00    -0.264 OA
HETATM   18  S1  UNL     1      44.957  13.844  -2.939  1.00  0.00     0.266 S 
HETATM   19  O2  UNL     1      46.155  13.550  -3.797  1.00  0.00    -0.199 OA
HETATM   20  O3  UNL     1      44.042  12.679  -2.965  1.00  0.00    -0.199 OA
HETATM   21  C14 UNL     1      45.569  14.181  -1.285  1.00  0.00     0.175 C 
ENDROOT
BRANCH   1  22
HETATM   22  C2  UNL     1      44.741  15.378   0.736  1.00  0.00    -0.018 C 
HETATM   23  C1  UNL     1      43.368  15.607   1.288  1.00  0.00     0.010 C 
HETATM   24  C3  UNL     1      45.178  13.984   1.203  1.00  0.00     0.010 C 
ENDBRANCH   1  22
TORSDOF 1
ENDMDL
MODEL 2
REMARK VINA RESULT: -6.372989752      0.911      1.133
REMARK  1 active torsions:
REMARK  status: ('A' for Active; 'I' for Inactive)
REMARK    1  A    between atoms: C2_2  and  C4_4 
ROOT
HETATM    1  C4  UNL     1      44.036  16.214  -0.119  1.00  0.00     0.008 C 
HETATM    2  C5  UNL     1      42.800  15.825  -0.861  1.00  0.00     0.045 C 
HETATM    3  C6  UNL     1      42.922  16.100  -2.372  1.00  0.00     0.084 C 
HETATM    4  C7  UNL     1      42.829  17.579  -2.529  1.00  0.00     0.067 C 
HETATM    5  C8  UNL     1      41.995  18.065  -3.656  1.00  0.00     0.235 C 
HETATM    6  N1  UNL     1      42.845  18.098  -4.857  1.00  0.00    -0.075 N 
ATOM      7  H11 UNL     1      43.613  17.428  -4.797  1.00  0.00     0.277 HD
ATOM      8  H12 UNL     1      43.395  18.955  -4.910  1.00  0.00     0.277 HD
HETATM    9  C9  UNL     1      42.056  17.898  -6.032  1.00  0.00     0.233 C 
HETATM   10  C10 UNL     1      42.635  16.934  -7.008  1.00  0.00     0.055 C 
HETATM   11  C11 UNL     1      42.869  15.565  -6.524  1.00  0.00     0.233 C 
HETATM   12  N2  UNL     1      43.152  15.432  -5.120  1.00  0.00    -0.075 N 
ATOM     13  H21 UNL     1      43.522  16.294  -4.718  1.00  0.00     0.277 HD
ATOM     14  H22 UNL     1      43.956  14.830  -4.944  1.00  0.00     0.277 HD
HETATM   15  C12 UNL     1      41.988  14.982  -4.442  1.00  0.00     0.235 C 
HETATM   16  C13 UNL     1      41.859  15.299  -3.012  1.00  0.00     0.067 C 
HETATM   17  O1  UNL     1      44.165  15.689  -2.832  1.00  0.00    -0.264 OA
HETATM   18  S1  UNL     1      44.838  14.464  -1.934  1.00  0.00     0.266 S 
HETATM   19  O2  UNL     1      46.217  14.204  -2.472  1.00  0.00    -0.199 OA
HETATM   20  O3  UNL     1      44.058  13.205  -1.967  1.00  0.00    -0.199 OA
HETATM   21  C14 UNL     1      45.038  15.087  -0.262  1.00  0.00     0.175 C 
ENDROOT
BRANCH   1  22
HETATM   22  C2  UNL     1      43.684  16.432   1.337  1.00  0.00    -0.018 C 
HETATM   23  C1  UNL     1      42.660  17.509   1.521  1.00  0.00     0.010 C 
HETATM   24  C3  UNL     1      43.051  15.129   1.839  1.00  0.00     0.010 C 
ENDBRANCH   1  22
TORSDOF 1
ENDMDL
MODEL 3
REMARK VINA RESULT: -6.338845274      2.954      4.305
REMARK  1 active torsions:
REMARK  status: ('A' for Active; 'I' for Inactive)
REMARK    1  A    between atoms: C2_2  and  C4_4 
ROOT
HETATM    1  C4  UNL     1      42.128  17.378  -2.898  1.00  0.00     0.008 C 
HETATM    2  C5  UNL     1      42.491  16.180  -3.710  1.00  0.00     0.045 C 
HETATM    3  C6  UNL     1      41.720  16.128  -5.043  1.00  0.00     0.084 C 
HETATM    4  C7  UNL     1      40.321  15.754  -4.694  1.00  0.00     0.067 C 
HETATM    5  C8  UNL     1      39.670  14.757  -5.580  1.00  0.00     0.235 C 
HETATM    6  N1  UNL     1      39.080  15.488  -6.713  1.00  0.00    -0.075 N 
ATOM      7  H11 UNL     1      39.565  16.368  -6.891  1.00  0.00     0.277 HD
ATOM      8  H12 UNL     1      38.161  15.866  -6.484  1.00  0.00     0.277 HD
HETATM    9  C9  UNL     1      39.039  14.658  -7.876  1.00  0.00     0.233 C 
HETATM   10  C10 UNL     1      39.497  15.324  -9.126  1.00  0.00     0.055 C 
HETATM   11  C11 UNL     1      40.872  15.843  -9.133  1.00  0.00     0.233 C 
HETATM   12  N2  UNL     1      41.397  16.256  -7.858  1.00  0.00    -0.075 N 
ATOM     13  H21 UNL     1      40.657  16.493  -7.196  1.00  0.00     0.277 HD
ATOM     14  H22 UNL     1      41.850  17.169  -7.906  1.00  0.00     0.277 HD
HETATM   15  C12 UNL     1      42.266  15.252  -7.354  1.00  0.00     0.235 C 
HETATM   16  C13 UNL     1      42.464  15.182  -5.900  1.00  0.00     0.067 C 
HETATM   17  O1  UNL     1      41.702  17.384  -5.632  1.00  0.00    -0.264 OA
HETATM   18  S1  UNL     1      42.993  18.340  -5.206  1.00  0.00     0.266 S 
HETATM   19  O2  UNL     1      42.783  19.696  -5.819  1.00  0.00    -0.199 OA
HETATM   20  O3  UNL     1      44.301  17.803  -5.647  1.00  0.00    -0.199 OA
HETATM   21  C14 UNL     1      42.922  18.556  -3.424  1.00  0.00     0.175 C 
ENDROOT
BRANCH   1  22
HETATM   22  C2  UNL     1      42.470  17.110  -1.448  1.00  0.00    -0.018 C 
HETATM   23  C1  UNL     1      43.534  16.067  -1.297  1.00  0.00     0.010 C 
HETATM   24  C3  UNL     1      43.047  18.413  -0.882  1.00  0.00     0.010 C 
ENDBRANCH   1  22
TORSDOF 1
ENDMDL
MODEL 4
REMARK VINA RESULT: -6.100345688      2.572      6.318
REMARK  1 active torsions:
REMARK  status: ('A' for Active; 'I' for Inactive)
REMARK    1  A    between atoms: C2_2  and  C4_4 
ROOT
HETATM    1  C4  UNL     1      42.253  16.411  -7.318  1.00  0.00     0.008 C 
HETATM    2  C5  UNL     1      41.771  15.501  -6.237  1.00  0.00     0.045 C 
HETATM    3  C6  UNL     1      42.800  15.357  -5.101  1.00  0.00     0.084 C 
HETATM    4  C7  UNL     1      43.896  14.508  -5.645  1.00  0.00     0.067 C 
HETATM    5  C8  UNL     1      44.429  13.464  -4.734  1.00  0.00     0.235 C 
HETATM    6  N1  UNL     1      45.470  14.090  -3.902  1.00  0.00    -0.075 N 
ATOM      7  H11 UNL     1      45.322  15.094  -3.801  1.00  0.00     0.277 HD
ATOM      8  H12 UNL     1      46.371  14.116  -4.378  1.00  0.00     0.277 HD
HETATM    9  C9  UNL     1      45.557  13.434  -2.635  1.00  0.00     0.233 C 
HETATM   10  C10 UNL     1      45.640  14.354  -1.468  1.00  0.00     0.055 C 
HETATM   11  C11 UNL     1      44.522  15.292  -1.284  1.00  0.00     0.233 C 
HETATM   12  N2  UNL     1      43.839  15.701  -2.483  1.00  0.00    -0.075 N 
ATOM     13  H21 UNL     1      44.426  15.604  -3.313  1.00  0.00     0.277 HD
ATOM     14  H22 UNL     1      43.698  16.711  -2.520  1.00  0.00     0.277 HD
HETATM   15  C12 UNL     1      42.619  14.985  -2.604  1.00  0.00     0.235 C 
HETATM   16  C13 UNL     1      42.052  14.813  -3.949  1.00  0.00     0.067 C 
HETATM   17  O1  UNL     1      43.329  16.598  -4.777  1.00  0.00    -0.264 OA
HETATM   18  S1  UNL     1      42.309  17.867  -5.109  1.00  0.00     0.266 S 
HETATM   19  O2  UNL     1      43.050  19.141  -4.820  1.00  0.00    -0.199 OA
HETATM   20  O3  UNL     1      41.055  17.843  -4.322  1.00  0.00    -0.199 OA
HETATM   21  C14 UNL     1      41.992  17.837  -6.877  1.00  0.00     0.175 C 
ENDROOT
BRANCH   1  22
HETATM   22  C2  UNL     1      41.496  16.102  -8.592  1.00  0.00    -0.018 C 
HETATM   23  C1  UNL     1      42.230  15.137  -9.472  1.00  0.00     0.010 C 
HETATM   24  C3  UNL     1      40.190  15.414  -8.176  1.00  0.00     0.010 C 
ENDBRANCH   1  22
TORSDOF 1
ENDMDL
MODEL 5
REMARK VINA RESULT: -5.874313482      2.560      5.938
REMARK  1 active torsions:
REMARK  status: ('A' for Active; 'I' for Inactive)
REMARK    1  A    between atoms: C2_2  and  C4_4 
ROOT
HETATM    1  C4  UNL     1      43.889  15.675  -6.168  1.00  0.00     0.008 C 
HETATM    2  C5  UNL     1      43.243  14.743  -5.198  1.00  0.00     0.045 C 
HETATM    3  C6  UNL     1      43.657  15.043  -3.745  1.00  0.00     0.084 C 
HETATM    4  C7  UNL     1      45.064  14.573  -3.613  1.00  0.00     0.067 C 
HETATM    5  C8  UNL     1      45.396  13.844  -2.363  1.00  0.00     0.235 C 
HETATM    6  N1  UNL     1      45.747  14.846  -1.344  1.00  0.00    -0.075 N 
ATOM      7  H11 UNL     1      45.304  15.747  -1.529  1.00  0.00     0.277 HD
ATOM      8  H12 UNL     1      46.721  15.138  -1.418  1.00  0.00     0.277 HD
HETATM    9  C9  UNL     1      45.435  14.358  -0.037  1.00  0.00     0.233 C 
HETATM   10  C10 UNL     1      44.739  15.340   0.838  1.00  0.00     0.055 C 
HETATM   11  C11 UNL     1      43.449  15.857   0.357  1.00  0.00     0.233 C 
HETATM   12  N2  UNL     1      43.288  15.918  -1.072  1.00  0.00    -0.075 N 
ATOM     13  H21 UNL     1      44.184  15.961  -1.558  1.00  0.00     0.277 HD
ATOM     14  H22 UNL     1      42.911  16.815  -1.379  1.00  0.00     0.277 HD
HETATM   15  C12 UNL     1      42.493  14.826  -1.508  1.00  0.00     0.235 C 
HETATM   16  C13 UNL     1      42.653  14.369  -2.895  1.00  0.00     0.067 C 
HETATM   17  O1  UNL     1      43.630  16.410  -3.514  1.00  0.00    -0.264 OA
HETATM   18  S1  UNL     1      42.563  17.231  -4.489  1.00  0.00     0.266 S 
HETATM   19  O2  UNL     1      42.723  18.699  -4.212  1.00  0.00    -0.199 OA
HETATM   20  O3  UNL     1      41.148  16.847  -4.277  1.00  0.00    -0.199 OA
HETATM   21  C14 UNL     1      43.086  16.959  -6.186  1.00  0.00     0.175 C 
ENDROOT
BRANCH   1  22
HETATM   22  C2  UNL     1      43.893  15.031  -7.538  1.00  0.00    -0.018 C 
HETATM   23  C1  UNL     1      44.309  13.593  -7.492  1.00  0.00     0.010 C 
HETATM   24  C3  UNL     1      42.445  15.056  -8.043  1.00  0.00     0.010 C 
ENDBRANCH   1  22
TORSDOF 1
ENDMDL
