MODEL 1
REMARK VINA RESULT: -8.552277038      0.000      0.000
REMARK  4 active torsions:
REMARK  status: ('A' for Active; 'I' for Inactive)
REMARK       I    between atoms: C1_2  and  N1_3 
REMARK       I    between atoms: C1_2  and  N3_11 
REMARK    1  A    between atoms: N1_3  and  C2_5 
REMARK    2  A    between atoms: N3_11  and  C5_13 
REMARK    3  A    between atoms: C11_19  and  N4_20 
REMARK       I    between atoms: N4_20  and  C12_22 
REMARK       I    between atoms: C12_22  and  N5_24 
REMARK    4  A    between atoms: N5_24  and  C13_26 
ROOT
HETATM    1  C5  UNL     1       3.201 -20.904  -0.522  1.00  0.00     0.035 C 
HETATM    2  C6  UNL     1       3.122 -22.137   0.361  1.00  0.00     0.035 C 
HETATM    3  C7  UNL     1       4.051 -23.153  -0.200  1.00  0.00    -0.011 C 
HETATM    4  C8  UNL     1       3.708 -23.454  -1.607  1.00  0.00     0.009 C 
HETATM    5  C9  UNL     1       3.546 -22.314  -2.548  1.00  0.00    -0.010 C 
HETATM    6  C10 UNL     1       4.822 -21.864  -3.143  1.00  0.00     0.030 C 
HETATM    7  C11 UNL     1       5.962 -21.547  -2.276  1.00  0.00     0.090 C 
HETATM    8  C22 UNL     1       5.662 -21.361  -0.804  1.00  0.00     0.011 C 
HETATM    9  C23 UNL     1       5.493 -22.687  -0.102  1.00  0.00     0.011 C 
HETATM   10  C24 UNL     1       4.587 -20.361  -0.521  1.00  0.00     0.038 C 
HETATM   11  C25 UNL     1       2.760 -21.182  -1.918  1.00  0.00     0.035 C 
ENDROOT
BRANCH   7  12
HETATM   12  N4  UNL     1       6.914 -22.631  -2.376  1.00  0.00    -0.338 N 
HETATM   13  C12 UNL     1       7.672 -22.972  -3.525  1.00  0.00     0.317 C 
HETATM   14  O2  UNL     1       7.687 -22.215  -4.503  1.00  0.00    -0.247 OA
HETATM   15  N5  UNL     1       8.399 -24.169  -3.498  1.00  0.00    -0.329 N 
ATOM     16  H5  UNL     1       8.186 -24.752  -2.689  1.00  0.00     0.165 HD
ATOM     17  H4  UNL     1       7.053 -23.203  -1.543  1.00  0.00     0.164 HD
BRANCH  15  18
HETATM   18  C13 UNL     1       9.376 -24.743  -4.368  1.00  0.00     0.192 C 
HETATM   19  C14 UNL     1      10.387 -25.356  -3.454  1.00  0.00     0.175 C 
HETATM   20  S2  UNL     1      11.677 -26.307  -4.160  1.00  0.00     0.153 S 
HETATM   21  O3  UNL     1      11.846 -27.676  -3.548  1.00  0.00    -0.227 OA
HETATM   22  O4  UNL     1      13.017 -25.640  -3.878  1.00  0.00    -0.227 OA
HETATM   23  C15 UNL     1      11.434 -26.312  -5.864  1.00  0.00     0.139 A 
HETATM   24  C16 UNL     1      11.664 -27.238  -6.907  1.00  0.00     0.055 A 
HETATM   25  C17 UNL     1      10.460 -27.339  -6.190  1.00  0.00     0.053 A 
HETATM   26  C18 UNL     1      10.164 -28.670  -5.570  1.00  0.00     0.034 C 
HETATM   27  N6  UNL     1       9.188 -26.765  -6.089  1.00  0.00    -0.340 N 
HETATM   28  C19 UNL     1       8.845 -29.001  -6.325  1.00  0.00     0.022 C 
HETATM   29  C20 UNL     1       8.360 -27.637  -6.892  1.00  0.00     0.127 C 
HETATM   30  C21 UNL     1       8.744 -25.679  -5.352  1.00  0.00     0.244 C 
HETATM   31  O5  UNL     1       7.515 -25.417  -5.572  1.00  0.00    -0.271 OA
ENDBRANCH  15  18
ENDBRANCH   7  12
BRANCH   1  32
HETATM   32  N3  UNL     1       2.291 -19.911   0.047  1.00  0.00    -0.334 N 
HETATM   33  C1  UNL     1       2.311 -18.559  -0.192  1.00  0.00     0.322 C 
HETATM   34  O1  UNL     1       3.058 -17.929  -0.896  1.00  0.00    -0.247 OA
HETATM   35  N1  UNL     1       1.254 -17.791   0.539  1.00  0.00    -0.289 N 
ATOM     36  H1  UNL     1       0.696 -17.034   0.145  1.00  0.00     0.172 HD
ATOM     37  H3  UNL     1       1.571 -20.256   0.681  1.00  0.00     0.165 HD
BRANCH  35  38
HETATM   38  C2  UNL     1       1.157 -18.256   1.795  1.00  0.00     0.152 A 
HETATM   39  N2  UNL     1       1.066 -18.663   2.907  1.00  0.00    -0.346 N 
HETATM   40  C3  UNL     1       0.469 -18.521   3.995  1.00  0.00     0.097 A 
ATOM     41  H2  UNL     1       1.735 -19.425   3.016  1.00  0.00     0.167 HD
HETATM   42  C4  UNL     1      -0.468 -17.472   3.877  1.00  0.00     0.070 A 
HETATM   43  S1  UNL     1      -0.297 -16.951   2.324  1.00  0.00    -0.064 SA
ENDBRANCH  35  38
ENDBRANCH   1  32
TORSDOF 4
ENDMDL
MODEL 2
REMARK VINA RESULT: -8.431086929      1.270      1.653
REMARK  4 active torsions:
REMARK  status: ('A' for Active; 'I' for Inactive)
REMARK       I    between atoms: C1_2  and  N1_3 
REMARK       I    between atoms: C1_2  and  N3_11 
REMARK    1  A    between atoms: N1_3  and  C2_5 
REMARK    2  A    between atoms: N3_11  and  C5_13 
REMARK    3  A    between atoms: C11_19  and  N4_20 
REMARK       I    between atoms: N4_20  and  C12_22 
REMARK       I    between atoms: C12_22  and  N5_24 
REMARK    4  A    between atoms: N5_24  and  C13_26 
ROOT
HETATM    1  C5  UNL     1       3.595 -20.477  -0.347  1.00  0.00     0.035 C 
HETATM    2  C6  UNL     1       3.719 -21.506   0.763  1.00  0.00     0.035 C 
HETATM    3  C7  UNL     1       4.534 -22.635   0.240  1.00  0.00    -0.011 C 
HETATM    4  C8  UNL     1       3.918 -23.204  -0.979  1.00  0.00     0.009 C 
HETATM    5  C9  UNL     1       3.547 -22.272  -2.077  1.00  0.00    -0.010 C 
HETATM    6  C10 UNL     1       4.667 -21.979  -2.996  1.00  0.00     0.030 C 
HETATM    7  C11 UNL     1       5.953 -21.521  -2.459  1.00  0.00     0.090 C 
HETATM    8  C22 UNL     1       5.955 -21.037  -1.025  1.00  0.00     0.011 C 
HETATM    9  C23 UNL     1       5.957 -22.192  -0.052  1.00  0.00     0.011 C 
HETATM   10  C24 UNL     1       4.941 -19.976  -0.737  1.00  0.00     0.038 C 
HETATM   11  C25 UNL     1       2.884 -21.019  -1.540  1.00  0.00     0.035 C 
ENDROOT
BRANCH   7  12
HETATM   12  N4  UNL     1       6.885 -22.624  -2.531  1.00  0.00    -0.338 N 
HETATM   13  C12 UNL     1       7.669 -22.981  -3.658  1.00  0.00     0.317 C 
HETATM   14  O2  UNL     1       7.728 -22.226  -4.634  1.00  0.00    -0.247 OA
HETATM   15  N5  UNL     1       8.370 -24.194  -3.609  1.00  0.00    -0.329 N 
ATOM     16  H5  UNL     1       8.122 -24.771  -2.806  1.00  0.00     0.165 HD
ATOM     17  H4  UNL     1       6.988 -23.198  -1.694  1.00  0.00     0.164 HD
BRANCH  15  18
HETATM   18  C13 UNL     1       9.360 -24.789  -4.449  1.00  0.00     0.192 C 
HETATM   19  C14 UNL     1      10.359 -25.374  -3.506  1.00  0.00     0.175 C 
HETATM   20  S2  UNL     1      11.661 -26.341  -4.169  1.00  0.00     0.153 S 
HETATM   21  O3  UNL     1      11.823 -27.694  -3.518  1.00  0.00    -0.227 OA
HETATM   22  O4  UNL     1      12.996 -25.665  -3.886  1.00  0.00    -0.227 OA
HETATM   23  C15 UNL     1      11.441 -26.392  -5.874  1.00  0.00     0.139 A 
HETATM   24  C16 UNL     1      11.686 -27.346  -6.890  1.00  0.00     0.055 A 
HETATM   25  C17 UNL     1      10.473 -27.429  -6.187  1.00  0.00     0.053 A 
HETATM   26  C18 UNL     1      10.171 -28.745  -5.535  1.00  0.00     0.034 C 
HETATM   27  N6  UNL     1       9.199 -26.856  -6.119  1.00  0.00    -0.340 N 
HETATM   28  C19 UNL     1       8.863 -29.098  -6.299  1.00  0.00     0.022 C 
HETATM   29  C20 UNL     1       8.384 -27.751  -6.909  1.00  0.00     0.127 C 
HETATM   30  C21 UNL     1       8.743 -25.752  -5.417  1.00  0.00     0.244 C 
HETATM   31  O5  UNL     1       7.516 -25.499  -5.660  1.00  0.00    -0.271 OA
ENDBRANCH  15  18
ENDBRANCH   7  12
BRANCH   1  32
HETATM   32  N3  UNL     1       2.800 -19.370   0.183  1.00  0.00    -0.334 N 
HETATM   33  C1  UNL     1       1.646 -19.477   0.918  1.00  0.00     0.322 C 
HETATM   34  O1  UNL     1       1.065 -20.472   1.269  1.00  0.00    -0.247 OA
HETATM   35  N1  UNL     1       1.050 -18.164   1.320  1.00  0.00    -0.289 N 
ATOM     36  H1  UNL     1       0.655 -17.949   2.235  1.00  0.00     0.172 HD
ATOM     37  H3  UNL     1       3.137 -18.427  -0.011  1.00  0.00     0.165 HD
BRANCH  35  38
HETATM   38  C2  UNL     1       1.117 -17.311   0.285  1.00  0.00     0.152 A 
HETATM   39  N2  UNL     1       1.173 -16.553  -0.629  1.00  0.00    -0.346 N 
HETATM   40  C3  UNL     1       0.721 -15.485  -1.090  1.00  0.00     0.097 A 
ATOM     41  H2  UNL     1       1.855 -16.917  -1.294  1.00  0.00     0.167 HD
HETATM   42  C4  UNL     1      -0.228 -14.954  -0.190  1.00  0.00     0.070 A 
HETATM   43  S1  UNL     1      -0.261 -16.041   1.048  1.00  0.00    -0.064 SA
ENDBRANCH  35  38
ENDBRANCH   1  32
TORSDOF 4
ENDMDL
MODEL 3
REMARK VINA RESULT: -7.965506473      1.108      1.432
REMARK  4 active torsions:
REMARK  status: ('A' for Active; 'I' for Inactive)
REMARK       I    between atoms: C1_2  and  N1_3 
REMARK       I    between atoms: C1_2  and  N3_11 
REMARK    1  A    between atoms: N1_3  and  C2_5 
REMARK    2  A    between atoms: N3_11  and  C5_13 
REMARK    3  A    between atoms: C11_19  and  N4_20 
REMARK       I    between atoms: N4_20  and  C12_22 
REMARK       I    between atoms: C12_22  and  N5_24 
REMARK    4  A    between atoms: N5_24  and  C13_26 
ROOT
HETATM    1  C5  UNL     1       3.507 -19.952  -0.799  1.00  0.00     0.035 C 
HETATM    2  C6  UNL     1       4.441 -19.984   0.397  1.00  0.00     0.035 C 
HETATM    3  C7  UNL     1       5.331 -21.165   0.242  1.00  0.00    -0.011 C 
HETATM    4  C8  UNL     1       4.536 -22.407   0.125  1.00  0.00     0.009 C 
HETATM    5  C9  UNL     1       3.436 -22.443  -0.876  1.00  0.00    -0.010 C 
HETATM    6  C10 UNL     1       3.892 -22.820  -2.230  1.00  0.00     0.030 C 
HETATM    7  C11 UNL     1       5.014 -22.106  -2.850  1.00  0.00     0.090 C 
HETATM    8  C22 UNL     1       5.414 -20.791  -2.213  1.00  0.00     0.011 C 
HETATM    9  C23 UNL     1       6.238 -21.010  -0.967  1.00  0.00     0.011 C 
HETATM   10  C24 UNL     1       4.289 -19.819  -2.058  1.00  0.00     0.038 C 
HETATM   11  C25 UNL     1       2.632 -21.158  -0.863  1.00  0.00     0.035 C 
ENDROOT
BRANCH   7  12
HETATM   12  N4  UNL     1       6.174 -22.967  -2.800  1.00  0.00    -0.338 N 
HETATM   13  C12 UNL     1       6.985 -23.339  -3.902  1.00  0.00     0.317 C 
HETATM   14  O2  UNL     1       6.836 -22.780  -4.995  1.00  0.00    -0.247 OA
HETATM   15  N5  UNL     1       7.949 -24.335  -3.699  1.00  0.00    -0.329 N 
ATOM     16  H5  UNL     1       7.867 -24.797  -2.794  1.00  0.00     0.165 HD
ATOM     17  H4  UNL     1       6.433 -23.341  -1.887  1.00  0.00     0.164 HD
BRANCH  15  18
HETATM   18  C13 UNL     1       9.024 -24.837  -4.495  1.00  0.00     0.192 C 
HETATM   19  C14 UNL     1      10.023 -25.348  -3.508  1.00  0.00     0.175 C 
HETATM   20  S2  UNL     1      11.430 -26.197  -4.115  1.00  0.00     0.153 S 
HETATM   21  O3  UNL     1      11.673 -27.538  -3.467  1.00  0.00    -0.227 OA
HETATM   22  O4  UNL     1      12.689 -25.416  -3.763  1.00  0.00    -0.227 OA
HETATM   23  C15 UNL     1      11.296 -26.247  -5.830  1.00  0.00     0.139 A 
HETATM   24  C16 UNL     1      11.668 -27.165  -6.839  1.00  0.00     0.055 A 
HETATM   25  C17 UNL     1      10.434 -27.357  -6.196  1.00  0.00     0.053 A 
HETATM   26  C18 UNL     1      10.211 -28.700  -5.569  1.00  0.00     0.034 C 
HETATM   27  N6  UNL     1       9.114 -26.891  -6.185  1.00  0.00    -0.340 N 
HETATM   28  C19 UNL     1       8.975 -29.151  -6.398  1.00  0.00     0.022 C 
HETATM   29  C20 UNL     1       8.415 -27.842  -7.020  1.00  0.00     0.127 C 
HETATM   30  C21 UNL     1       8.536 -25.837  -5.498  1.00  0.00     0.244 C 
HETATM   31  O5  UNL     1       7.305 -25.682  -5.798  1.00  0.00    -0.271 OA
ENDBRANCH  15  18
ENDBRANCH   7  12
BRANCH   1  32
HETATM   32  N3  UNL     1       2.645 -18.782  -0.638  1.00  0.00    -0.334 N 
HETATM   33  C1  UNL     1       3.049 -17.469  -0.632  1.00  0.00     0.322 C 
HETATM   34  O1  UNL     1       4.161 -17.022  -0.756  1.00  0.00    -0.247 OA
HETATM   35  N1  UNL     1       1.937 -16.486  -0.442  1.00  0.00    -0.289 N 
ATOM     36  H1  UNL     1       1.831 -15.608  -0.950  1.00  0.00     0.172 HD
ATOM     37  H3  UNL     1       1.648 -18.957  -0.518  1.00  0.00     0.165 HD
BRANCH  35  38
HETATM   38  C2  UNL     1       1.100 -16.941   0.505  1.00  0.00     0.152 A 
HETATM   39  N2  UNL     1       0.357 -17.338   1.342  1.00  0.00    -0.346 N 
HETATM   40  C3  UNL     1      -0.635 -17.044   2.041  1.00  0.00     0.097 A 
ATOM     41  H2  UNL     1       0.637 -18.289   1.582  1.00  0.00     0.167 HD
HETATM   42  C4  UNL     1      -1.050 -15.731   1.731  1.00  0.00     0.070 A 
HETATM   43  S1  UNL     1       0.011 -15.236   0.572  1.00  0.00    -0.064 SA
ENDBRANCH  35  38
ENDBRANCH   1  32
TORSDOF 4
ENDMDL
MODEL 4
REMARK VINA RESULT: -7.936792422      1.434      1.688
REMARK  4 active torsions:
REMARK  status: ('A' for Active; 'I' for Inactive)
REMARK       I    between atoms: C1_2  and  N1_3 
REMARK       I    between atoms: C1_2  and  N3_11 
REMARK    1  A    between atoms: N1_3  and  C2_5 
REMARK    2  A    between atoms: N3_11  and  C5_13 
REMARK    3  A    between atoms: C11_19  and  N4_20 
REMARK       I    between atoms: N4_20  and  C12_22 
REMARK       I    between atoms: C12_22  and  N5_24 
REMARK    4  A    between atoms: N5_24  and  C13_26 
ROOT
HETATM    1  C5  UNL     1       3.448 -20.817  -0.224  1.00  0.00     0.035 C 
HETATM    2  C6  UNL     1       2.377 -21.840  -0.557  1.00  0.00     0.035 C 
HETATM    3  C7  UNL     1       2.887 -22.677  -1.676  1.00  0.00    -0.011 C 
HETATM    4  C8  UNL     1       3.233 -21.835  -2.843  1.00  0.00     0.009 C 
HETATM    5  C9  UNL     1       4.117 -20.660  -2.621  1.00  0.00    -0.010 C 
HETATM    6  C10 UNL     1       5.556 -20.996  -2.663  1.00  0.00     0.030 C 
HETATM    7  C11 UNL     1       6.076 -22.088  -1.833  1.00  0.00     0.090 C 
HETATM    8  C22 UNL     1       5.177 -22.579  -0.718  1.00  0.00     0.011 C 
HETATM    9  C23 UNL     1       4.094 -23.491  -1.243  1.00  0.00     0.011 C 
HETATM   10  C24 UNL     1       4.699 -21.501   0.201  1.00  0.00     0.038 C 
HETATM   11  C25 UNL     1       3.727 -19.901  -1.367  1.00  0.00     0.035 C 
ENDROOT
BRANCH   7  12
HETATM   12  N4  UNL     1       6.333 -23.220  -2.695  1.00  0.00    -0.338 N 
HETATM   13  C12 UNL     1       7.503 -23.432  -3.468  1.00  0.00     0.317 C 
HETATM   14  O2  UNL     1       8.490 -22.705  -3.307  1.00  0.00    -0.247 OA
HETATM   15  N5  UNL     1       7.495 -24.485  -4.392  1.00  0.00    -0.329 N 
ATOM     16  H5  UNL     1       6.575 -24.909  -4.513  1.00  0.00     0.165 HD
ATOM     17  H4  UNL     1       5.605 -23.933  -2.751  1.00  0.00     0.164 HD
BRANCH  15  18
HETATM   18  C13 UNL     1       8.507 -25.089  -5.199  1.00  0.00     0.192 C 
HETATM   19  C14 UNL     1       9.565 -25.510  -4.232  1.00  0.00     0.175 C 
HETATM   20  S2  UNL     1      10.918 -26.445  -4.835  1.00  0.00     0.153 S 
HETATM   21  O3  UNL     1      11.190 -27.713  -4.063  1.00  0.00    -0.227 OA
HETATM   22  O4  UNL     1      12.207 -25.653  -4.655  1.00  0.00    -0.227 OA
HETATM   23  C15 UNL     1      10.667 -26.676  -6.521  1.00  0.00     0.139 A 
HETATM   24  C16 UNL     1      10.959 -27.704  -7.447  1.00  0.00     0.055 A 
HETATM   25  C17 UNL     1       9.770 -27.803  -6.706  1.00  0.00     0.053 A 
HETATM   26  C18 UNL     1       9.575 -29.066  -5.924  1.00  0.00     0.034 C 
HETATM   27  N6  UNL     1       8.459 -27.315  -6.658  1.00  0.00    -0.340 N 
HETATM   28  C19 UNL     1       8.281 -29.582  -6.615  1.00  0.00     0.022 C 
HETATM   29  C20 UNL     1       7.694 -28.337  -7.337  1.00  0.00     0.127 C 
HETATM   30  C21 UNL     1       7.941 -26.182  -6.053  1.00  0.00     0.244 C 
HETATM   31  O5  UNL     1       6.694 -26.039  -6.285  1.00  0.00    -0.271 OA
ENDBRANCH  15  18
ENDBRANCH   7  12
BRANCH   1  32
HETATM   32  N3  UNL     1       2.938 -20.008   0.883  1.00  0.00    -0.334 N 
HETATM   33  C1  UNL     1       2.778 -20.419   2.183  1.00  0.00     0.322 C 
HETATM   34  O1  UNL     1       3.017 -21.495   2.669  1.00  0.00    -0.247 OA
HETATM   35  N1  UNL     1       2.227 -19.368   3.095  1.00  0.00    -0.289 N 
ATOM     36  H1  UNL     1       2.550 -19.181   4.045  1.00  0.00     0.172 HD
ATOM     37  H3  UNL     1       2.675 -19.047   0.667  1.00  0.00     0.165 HD
BRANCH  35  38
HETATM   38  C2  UNL     1       1.240 -18.709   2.467  1.00  0.00     0.152 A 
HETATM   39  N2  UNL     1       0.363 -18.126   1.916  1.00  0.00    -0.346 N 
HETATM   40  C3  UNL     1      -0.811 -17.718   2.029  1.00  0.00     0.097 A 
ATOM     41  H2  UNL     1       0.702 -17.854   0.993  1.00  0.00     0.167 HD
HETATM   42  C4  UNL     1      -1.310 -18.077   3.299  1.00  0.00     0.070 A 
HETATM   43  S1  UNL     1      -0.057 -18.876   4.012  1.00  0.00    -0.064 SA
ENDBRANCH  35  38
ENDBRANCH   1  32
TORSDOF 4
ENDMDL
MODEL 5
REMARK VINA RESULT: -7.789154126      1.333      1.574
REMARK  4 active torsions:
REMARK  status: ('A' for Active; 'I' for Inactive)
REMARK       I    between atoms: C1_2  and  N1_3 
REMARK       I    between atoms: C1_2  and  N3_11 
REMARK    1  A    between atoms: N1_3  and  C2_5 
REMARK    2  A    between atoms: N3_11  and  C5_13 
REMARK    3  A    between atoms: C11_19  and  N4_20 
REMARK       I    between atoms: N4_20  and  C12_22 
REMARK       I    between atoms: C12_22  and  N5_24 
REMARK    4  A    between atoms: N5_24  and  C13_26 
ROOT
HETATM    1  C5  UNL     1       2.927 -21.201  -0.353  1.00  0.00     0.035 C 
HETATM    2  C6  UNL     1       1.958 -22.291  -0.773  1.00  0.00     0.035 C 
HETATM    3  C7  UNL     1       2.581 -23.035  -1.901  1.00  0.00    -0.011 C 
HETATM    4  C8  UNL     1       2.904 -22.118  -3.017  1.00  0.00     0.009 C 
HETATM    5  C9  UNL     1       3.678 -20.886  -2.709  1.00  0.00    -0.010 C 
HETATM    6  C10 UNL     1       5.140 -21.103  -2.700  1.00  0.00     0.030 C 
HETATM    7  C11 UNL     1       5.714 -22.185  -1.893  1.00  0.00     0.090 C 
HETATM    8  C22 UNL     1       4.814 -22.795  -0.839  1.00  0.00     0.011 C 
HETATM    9  C23 UNL     1       3.832 -23.767  -1.448  1.00  0.00     0.011 C 
HETATM   10  C24 UNL     1       4.211 -21.800   0.100  1.00  0.00     0.038 C 
HETATM   11  C25 UNL     1       3.176 -20.216  -1.444  1.00  0.00     0.035 C 
ENDROOT
BRANCH   7  12
HETATM   12  N4  UNL     1       6.099 -23.254  -2.787  1.00  0.00    -0.338 N 
HETATM   13  C12 UNL     1       7.360 -23.400  -3.418  1.00  0.00     0.317 C 
HETATM   14  O2  UNL     1       8.305 -22.677  -3.085  1.00  0.00    -0.247 OA
HETATM   15  N5  UNL     1       7.488 -24.390  -4.402  1.00  0.00    -0.329 N 
ATOM     16  H5  UNL     1       6.599 -24.814  -4.666  1.00  0.00     0.165 HD
ATOM     17  H4  UNL     1       5.397 -23.968  -2.982  1.00  0.00     0.164 HD
BRANCH  15  18
HETATM   18  C13 UNL     1       8.605 -24.928  -5.112  1.00  0.00     0.192 C 
HETATM   19  C14 UNL     1       9.497 -25.488  -4.051  1.00  0.00     0.175 C 
HETATM   20  S2  UNL     1      10.915 -26.389  -4.548  1.00  0.00     0.153 S 
HETATM   21  O3  UNL     1      11.049 -27.744  -3.899  1.00  0.00    -0.227 OA
HETATM   22  O4  UNL     1      12.170 -25.662  -4.084  1.00  0.00    -0.227 OA
HETATM   23  C15 UNL     1      10.923 -26.418  -6.269  1.00  0.00     0.139 A 
HETATM   24  C16 UNL     1      11.341 -27.342  -7.254  1.00  0.00     0.055 A 
HETATM   25  C17 UNL     1      10.051 -27.489  -6.719  1.00  0.00     0.053 A 
HETATM   26  C18 UNL     1       9.723 -28.827  -6.129  1.00  0.00     0.034 C 
HETATM   27  N6  UNL     1       8.755 -26.970  -6.813  1.00  0.00    -0.340 N 
HETATM   28  C19 UNL     1       8.544 -29.221  -7.064  1.00  0.00     0.022 C 
HETATM   29  C20 UNL     1       8.091 -27.884  -7.715  1.00  0.00     0.127 C 
HETATM   30  C21 UNL     1       8.164 -25.899  -6.164  1.00  0.00     0.244 C 
HETATM   31  O5  UNL     1       6.969 -25.692  -6.564  1.00  0.00    -0.271 OA
ENDBRANCH  15  18
ENDBRANCH   7  12
BRANCH   1  32
HETATM   32  N3  UNL     1       2.306 -20.485   0.762  1.00  0.00    -0.334 N 
HETATM   33  C1  UNL     1       2.859 -19.446   1.469  1.00  0.00     0.322 C 
HETATM   34  O1  UNL     1       3.934 -18.922   1.324  1.00  0.00    -0.247 OA
HETATM   35  N1  UNL     1       1.986 -18.915   2.563  1.00  0.00    -0.289 N 
ATOM     36  H1  UNL     1       1.850 -17.929   2.784  1.00  0.00     0.172 HD
ATOM     37  H3  UNL     1       1.373 -20.787   1.041  1.00  0.00     0.165 HD
BRANCH  35  38
HETATM   38  C2  UNL     1       1.410 -19.942   3.208  1.00  0.00     0.152 A 
HETATM   39  N2  UNL     1       0.896 -20.847   3.780  1.00  0.00    -0.346 N 
HETATM   40  C3  UNL     1      -0.068 -21.175   4.503  1.00  0.00     0.097 A 
ATOM     41  H2  UNL     1       1.462 -21.680   3.618  1.00  0.00     0.167 HD
HETATM   42  C4  UNL     1      -0.874 -20.042   4.746  1.00  0.00     0.070 A 
HETATM   43  S1  UNL     1      -0.116 -18.826   3.932  1.00  0.00    -0.064 SA
ENDBRANCH  35  38
ENDBRANCH   1  32
TORSDOF 4
ENDMDL
