MODEL 1
REMARK VINA RESULT: -7.767874696      0.000      0.000
REMARK  10 active torsions:
REMARK  status: ('A' for Active; 'I' for Inactive)
REMARK    1  A    between atoms: C2_2  and  O1_5 
REMARK    2  A    between atoms: O1_5  and  C5_6 
REMARK       I    between atoms: C5_6  and  N1_8 
REMARK    3  A    between atoms: C9_12  and  C10_13 
REMARK    4  A    between atoms: C10_13  and  O3_14 
REMARK    5  A    between atoms: C10_13  and  N2_16 
REMARK    6  A    between atoms: C14_20  and  C15_21 
REMARK       I    between atoms: C15_21  and  N3_23 
REMARK    7  A    between atoms: N3_23  and  C16_25 
REMARK    8  A    between atoms: C21_33  and  N5_34 
REMARK    9  A    between atoms: C23_39  and  C24_40 
REMARK   10  A    between atoms: C24_40  and  N7_44 
ROOT
HETATM    1  C16 UNL     1      15.023 -11.518  12.593  1.00  0.00     0.121 C 
HETATM    2  C17 UNL     1      13.992 -12.248  11.736  1.00  0.00     0.032 C 
HETATM    3  C18 UNL     1      14.459 -13.656  11.579  1.00  0.00     0.022 C 
HETATM    4  C19 UNL     1      14.507 -14.232  10.227  1.00  0.00     0.122 C 
HETATM    5  N4  UNL     1      15.210 -13.596   9.183  1.00  0.00    -0.359 N 
ATOM      6  H4  UNL     1      15.414 -14.208   8.393  1.00  0.00     0.162 HD
HETATM    7  C20 UNL     1      15.685 -12.285   9.016  1.00  0.00     0.252 C 
HETATM    8  O5  UNL     1      15.271 -11.575   8.018  1.00  0.00    -0.271 OA
HETATM    9  C21 UNL     1      16.667 -11.552   9.890  1.00  0.00     0.298 C 
HETATM   10  C22 UNL     1      16.031 -10.387  10.525  1.00  0.00     0.028 C 
HETATM   11  C23 UNL     1      15.674 -10.372  11.943  1.00  0.00     0.007 C 
ENDROOT
BRANCH   1  12
HETATM   12  N3  UNL     1      14.304 -11.034  13.765  1.00  0.00    -0.351 N 
HETATM   13  C15 UNL     1      14.330 -11.563  15.047  1.00  0.00     0.241 C 
HETATM   14  O4  UNL     1      15.055 -12.606  15.229  1.00  0.00    -0.271 OA
ATOM     15  H3  UNL     1      13.715 -10.213  13.627  1.00  0.00     0.163 HD
BRANCH  13  16
HETATM   16  C14 UNL     1      13.619 -11.076  16.245  1.00  0.00     0.178 C 
HETATM   17  N2  UNL     1      13.403  -9.612  16.217  1.00  0.00    -0.350 N 
HETATM   18  C11 UNL     1      14.626  -9.056  16.716  1.00  0.00     0.126 C 
HETATM   19  C12 UNL     1      15.332 -10.132  17.532  1.00  0.00     0.022 C 
HETATM   20  C13 UNL     1      14.365 -11.299  17.534  1.00  0.00     0.037 C 
BRANCH  17  21
HETATM   21  C10 UNL     1      12.226  -9.000  15.781  1.00  0.00     0.138 C 
BRANCH  21  22
HETATM   22  C9  UNL     1      10.972  -8.689  16.434  1.00  0.00     0.164 C 
HETATM   23  N1  UNL     1       9.837  -9.519  16.263  1.00  0.00    -0.316 N 
HETATM   24  C5  UNL     1       8.938  -9.644  15.175  1.00  0.00     0.364 C 
HETATM   25  C6  UNL     1       9.653 -10.310  17.503  1.00  0.00     0.129 C 
HETATM   26  O2  UNL     1       7.992 -10.454  15.242  1.00  0.00    -0.238 OA
HETATM   27  C7  UNL     1       9.866  -9.152  18.501  1.00  0.00     0.022 C 
HETATM   28  C8  UNL     1      11.126  -8.542  17.943  1.00  0.00     0.035 C 
BRANCH  24  29
HETATM   29  O1  UNL     1       9.067  -8.906  14.035  1.00  0.00    -0.294 OA
BRANCH  29  30
HETATM   30  C2  UNL     1       8.117  -7.968  13.585  1.00  0.00     0.061 C 
HETATM   31  C1  UNL     1       8.854  -6.702  13.219  1.00  0.00     0.046 C 
HETATM   32  C3  UNL     1       7.367  -8.432  12.362  1.00  0.00     0.046 C 
HETATM   33  C4  UNL     1       7.093  -7.628  14.639  1.00  0.00     0.046 C 
ENDBRANCH  29  30
ENDBRANCH  24  29
ENDBRANCH  21  22
BRANCH  21  34
HETATM   34  O3  UNL     1      12.281  -8.633  14.512  1.00  0.00    -0.348 OA
ATOM     35  H3  UNL     1      12.889  -7.923  14.340  1.00  0.00     0.219 HD
ENDBRANCH  21  34
ENDBRANCH  17  21
ENDBRANCH  13  16
ENDBRANCH   1  12
BRANCH  11  36
HETATM   36  C24 UNL     1      16.775  -9.826  12.813  1.00  0.00     0.106 C 
HETATM   37  N6  UNL     1      17.316 -10.563  13.728  1.00  0.00    -0.385 N 
ATOM     38  H62 UNL     1      16.976 -11.518  13.838  1.00  0.00     0.157 HD
ATOM     39  H61 UNL     1      18.062 -10.193  14.317  1.00  0.00     0.157 HD
BRANCH  36  40
HETATM   40  N7  UNL     1      17.236  -8.532  12.664  1.00  0.00    -0.349 N 
HETATM   41  C25 UNL     1      16.782  -7.410  12.975  1.00  0.00    -0.004 C 
HETATM   42  C26 UNL     1      17.645  -6.222  12.613  1.00  0.00     0.032 C 
HETATM   43  C33 UNL     1      15.519  -7.056  13.654  1.00  0.00     0.032 C 
HETATM   44  C27 UNL     1      17.997  -5.509  13.888  1.00  0.00     0.015 C 
HETATM   45  C31 UNL     1      16.789  -5.290  11.772  1.00  0.00     0.015 C 
HETATM   46  C28 UNL     1      16.755  -5.185  14.674  1.00  0.00    -0.013 C 
HETATM   47  C29 UNL     1      15.962  -4.178  13.875  1.00  0.00     0.009 C 
HETATM   48  C34 UNL     1      15.904  -6.377  14.972  1.00  0.00     0.015 C 
HETATM   49  C30 UNL     1      15.585  -4.823  12.569  1.00  0.00    -0.013 C 
HETATM   50  C32 UNL     1      14.723  -6.017  12.855  1.00  0.00     0.015 C 
ATOM     51  H7  UNL     1      18.143  -8.481  12.200  1.00  0.00     0.167 HD
ENDBRANCH  36  40
ENDBRANCH  11  36
BRANCH   9  52
HETATM   52  N5  UNL     1      17.486 -12.398  10.685  1.00  0.00    -0.063 N 
ATOM     53  H53 UNL     1      17.431 -13.361  10.354  1.00  0.00     0.275 HD
ATOM     54  H52 UNL     1      18.473 -12.208  10.507  1.00  0.00     0.275 HD
ATOM     55  H51 UNL     1      17.289 -12.353  11.685  1.00  0.00     0.275 HD
ENDBRANCH   9  52
TORSDOF 10
ENDMDL
MODEL 2
REMARK VINA RESULT: -7.659210537      1.156      1.530
REMARK  10 active torsions:
REMARK  status: ('A' for Active; 'I' for Inactive)
REMARK    1  A    between atoms: C2_2  and  O1_5 
REMARK    2  A    between atoms: O1_5  and  C5_6 
REMARK       I    between atoms: C5_6  and  N1_8 
REMARK    3  A    between atoms: C9_12  and  C10_13 
REMARK    4  A    between atoms: C10_13  and  O3_14 
REMARK    5  A    between atoms: C10_13  and  N2_16 
REMARK    6  A    between atoms: C14_20  and  C15_21 
REMARK       I    between atoms: C15_21  and  N3_23 
REMARK    7  A    between atoms: N3_23  and  C16_25 
REMARK    8  A    between atoms: C21_33  and  N5_34 
REMARK    9  A    between atoms: C23_39  and  C24_40 
REMARK   10  A    between atoms: C24_40  and  N7_44 
ROOT
HETATM    1  C16 UNL     1      14.335 -11.374  13.133  1.00  0.00     0.121 C 
HETATM    2  C17 UNL     1      13.327 -12.155  12.294  1.00  0.00     0.032 C 
HETATM    3  C18 UNL     1      13.715 -13.594  12.357  1.00  0.00     0.022 C 
HETATM    4  C19 UNL     1      13.827 -14.346  11.098  1.00  0.00     0.122 C 
HETATM    5  N4  UNL     1      14.645 -13.892  10.044  1.00  0.00    -0.359 N 
ATOM      6  H4  UNL     1      14.869 -14.613   9.358  1.00  0.00     0.162 HD
HETATM    7  C20 UNL     1      15.213 -12.642   9.750  1.00  0.00     0.252 C 
HETATM    8  O5  UNL     1      14.922 -12.049   8.638  1.00  0.00    -0.271 OA
HETATM    9  C21 UNL     1      16.172 -11.853  10.602  1.00  0.00     0.298 C 
HETATM   10  C22 UNL     1      15.565 -10.581  11.027  1.00  0.00     0.028 C 
HETATM   11  C23 UNL     1      15.105 -10.360  12.398  1.00  0.00     0.007 C 
ENDROOT
BRANCH   1  12
HETATM   12  N3  UNL     1      13.563 -10.702  14.170  1.00  0.00    -0.351 N 
HETATM   13  C15 UNL     1      13.249 -11.183  15.432  1.00  0.00     0.241 C 
HETATM   14  O4  UNL     1      13.669 -12.359  15.725  1.00  0.00    -0.271 OA
ATOM     15  H3  UNL     1      13.213  -9.771  13.942  1.00  0.00     0.163 HD
BRANCH  13  16
HETATM   16  C14 UNL     1      12.480 -10.508  16.496  1.00  0.00     0.178 C 
HETATM   17  N2  UNL     1      11.727  -9.338  15.993  1.00  0.00    -0.350 N 
HETATM   18  C11 UNL     1      12.678  -8.265  15.999  1.00  0.00     0.126 C 
HETATM   19  C12 UNL     1      13.784  -8.626  16.981  1.00  0.00     0.022 C 
HETATM   20  C13 UNL     1      13.331  -9.934  17.598  1.00  0.00     0.037 C 
BRANCH  17  21
HETATM   21  C10 UNL     1      10.382  -9.372  15.618  1.00  0.00     0.138 C 
BRANCH  21  22
HETATM   22  C9  UNL     1       9.147  -9.448  16.370  1.00  0.00     0.164 C 
HETATM   23  N1  UNL     1       7.930  -9.802  15.735  1.00  0.00    -0.316 N 
HETATM   24  C5  UNL     1       7.070  -9.049  14.899  1.00  0.00     0.364 C 
HETATM   25  C6  UNL     1       7.603 -11.198  16.113  1.00  0.00     0.129 C 
HETATM   26  O2  UNL     1       6.033  -9.572  14.444  1.00  0.00    -0.238 OA
HETATM   27  C7  UNL     1       7.908 -11.063  17.620  1.00  0.00     0.022 C 
HETATM   28  C8  UNL     1       9.253 -10.387  17.565  1.00  0.00     0.035 C 
BRANCH  24  29
HETATM   29  O1  UNL     1       7.332  -7.753  14.562  1.00  0.00    -0.294 OA
BRANCH  29  30
HETATM   30  C2  UNL     1       7.433  -7.283  13.238  1.00  0.00     0.061 C 
HETATM   31  C1  UNL     1       6.246  -6.388  12.973  1.00  0.00     0.046 C 
HETATM   32  C3  UNL     1       8.681  -6.472  12.995  1.00  0.00     0.046 C 
HETATM   33  C4  UNL     1       7.417  -8.398  12.223  1.00  0.00     0.046 C 
ENDBRANCH  29  30
ENDBRANCH  24  29
ENDBRANCH  21  22
BRANCH  21  34
HETATM   34  O3  UNL     1      10.216  -9.321  14.307  1.00  0.00    -0.348 OA
ATOM     35  H3  UNL     1       9.746 -10.064  13.946  1.00  0.00     0.219 HD
ENDBRANCH  21  34
ENDBRANCH  17  21
ENDBRANCH  13  16
ENDBRANCH   1  12
BRANCH  11  36
HETATM   36  C24 UNL     1      16.169  -9.763  13.279  1.00  0.00     0.106 C 
HETATM   37  N6  UNL     1      16.558 -10.377  14.349  1.00  0.00    -0.385 N 
ATOM     38  H62 UNL     1      16.123 -11.272  14.573  1.00  0.00     0.157 HD
ATOM     39  H61 UNL     1      17.279  -9.972  14.945  1.00  0.00     0.157 HD
BRANCH  36  40
HETATM   40  N7  UNL     1      16.758  -8.550  12.976  1.00  0.00    -0.349 N 
HETATM   41  C25 UNL     1      16.481  -7.362  13.246  1.00  0.00    -0.004 C 
HETATM   42  C26 UNL     1      17.428  -6.319  12.695  1.00  0.00     0.032 C 
HETATM   43  C33 UNL     1      15.362  -6.807  14.034  1.00  0.00     0.032 C 
HETATM   44  C27 UNL     1      18.016  -5.575  13.861  1.00  0.00     0.015 C 
HETATM   45  C31 UNL     1      16.591  -5.342  11.885  1.00  0.00     0.015 C 
HETATM   46  C28 UNL     1      16.926  -5.046  14.755  1.00  0.00    -0.013 C 
HETATM   47  C29 UNL     1      16.166  -4.000  13.974  1.00  0.00     0.009 C 
HETATM   48  C34 UNL     1      15.983  -6.098  15.241  1.00  0.00     0.015 C 
HETATM   49  C30 UNL     1      15.558  -4.676  12.775  1.00  0.00    -0.013 C 
HETATM   50  C32 UNL     1      14.603  -5.730  13.251  1.00  0.00     0.015 C 
ATOM     51  H7  UNL     1      17.601  -8.645  12.409  1.00  0.00     0.167 HD
ENDBRANCH  36  40
ENDBRANCH  11  36
BRANCH   9  52
HETATM   52  N5  UNL     1      16.874 -12.628  11.563  1.00  0.00    -0.063 N 
ATOM     53  H53 UNL     1      16.282 -13.381  11.914  1.00  0.00     0.275 HD
ATOM     54  H52 UNL     1      17.606 -13.176  11.112  1.00  0.00     0.275 HD
ATOM     55  H51 UNL     1      17.259 -12.087  12.337  1.00  0.00     0.275 HD
ENDBRANCH   9  52
TORSDOF 10
ENDMDL
MODEL 3
REMARK VINA RESULT: -7.399698910      1.268      2.732
REMARK  10 active torsions:
REMARK  status: ('A' for Active; 'I' for Inactive)
REMARK    1  A    between atoms: C2_2  and  O1_5 
REMARK    2  A    between atoms: O1_5  and  C5_6 
REMARK       I    between atoms: C5_6  and  N1_8 
REMARK    3  A    between atoms: C9_12  and  C10_13 
REMARK    4  A    between atoms: C10_13  and  O3_14 
REMARK    5  A    between atoms: C10_13  and  N2_16 
REMARK    6  A    between atoms: C14_20  and  C15_21 
REMARK       I    between atoms: C15_21  and  N3_23 
REMARK    7  A    between atoms: N3_23  and  C16_25 
REMARK    8  A    between atoms: C21_33  and  N5_34 
REMARK    9  A    between atoms: C23_39  and  C24_40 
REMARK   10  A    between atoms: C24_40  and  N7_44 
ROOT
HETATM    1  C16 UNL     1      15.288 -11.618  12.413  1.00  0.00     0.121 C 
HETATM    2  C17 UNL     1      14.358 -12.407  11.495  1.00  0.00     0.032 C 
HETATM    3  C18 UNL     1      14.913 -13.787  11.381  1.00  0.00     0.022 C 
HETATM    4  C19 UNL     1      15.083 -14.366  10.040  1.00  0.00     0.122 C 
HETATM    5  N4  UNL     1      15.818 -13.696   9.040  1.00  0.00    -0.359 N 
ATOM      6  H4  UNL     1      16.108 -14.299   8.270  1.00  0.00     0.162 HD
HETATM    7  C20 UNL     1      16.229 -12.361   8.895  1.00  0.00     0.252 C 
HETATM    8  O5  UNL     1      15.844 -11.680   7.865  1.00  0.00    -0.271 OA
HETATM    9  C21 UNL     1      17.109 -11.571   9.826  1.00  0.00     0.298 C 
HETATM   10  C22 UNL     1      16.367 -10.440  10.408  1.00  0.00     0.028 C 
HETATM   11  C23 UNL     1      15.916 -10.439  11.799  1.00  0.00     0.007 C 
ENDROOT
BRANCH   1  12
HETATM   12  N3  UNL     1      14.467 -11.170  13.531  1.00  0.00    -0.351 N 
HETATM   13  C15 UNL     1      14.503 -11.628  14.839  1.00  0.00     0.241 C 
HETATM   14  O4  UNL     1      15.341 -12.563  15.104  1.00  0.00    -0.271 OA
ATOM     15  H3  UNL     1      13.788 -10.436  13.328  1.00  0.00     0.163 HD
BRANCH  13  16
HETATM   16  C14 UNL     1      13.688 -11.175  15.983  1.00  0.00     0.178 C 
HETATM   17  N2  UNL     1      12.905  -9.958  15.672  1.00  0.00    -0.350 N 
HETATM   18  C11 UNL     1      13.817  -8.874  15.891  1.00  0.00     0.126 C 
HETATM   19  C12 UNL     1      14.914  -9.367  16.826  1.00  0.00     0.022 C 
HETATM   20  C13 UNL     1      14.493 -10.777  17.191  1.00  0.00     0.037 C 
BRANCH  17  21
HETATM   21  C10 UNL     1      11.571  -9.967  15.260  1.00  0.00     0.138 C 
BRANCH  21  22
HETATM   22  C9  UNL     1      10.389  -9.268  15.719  1.00  0.00     0.164 C 
HETATM   23  N1  UNL     1      10.483  -7.967  16.273  1.00  0.00    -0.316 N 
HETATM   24  C5  UNL     1      10.915  -7.536  17.551  1.00  0.00     0.364 C 
HETATM   25  C6  UNL     1       9.991  -6.999  15.264  1.00  0.00     0.129 C 
HETATM   26  O2  UNL     1      10.915  -6.320  17.828  1.00  0.00    -0.238 OA
HETATM   27  C7  UNL     1       8.731  -7.786  14.844  1.00  0.00     0.022 C 
HETATM   28  C8  UNL     1       9.324  -9.155  14.634  1.00  0.00     0.035 C 
BRANCH  24  29
HETATM   29  O1  UNL     1      11.344  -8.408  18.509  1.00  0.00    -0.294 OA
BRANCH  29  30
HETATM   30  C2  UNL     1      10.499  -9.040  19.441  1.00  0.00     0.061 C 
HETATM   31  C1  UNL     1      11.260 -10.194  20.048  1.00  0.00     0.046 C 
HETATM   32  C3  UNL     1      10.076  -8.128  20.565  1.00  0.00     0.046 C 
HETATM   33  C4  UNL     1       9.243  -9.587  18.809  1.00  0.00     0.046 C 
ENDBRANCH  29  30
ENDBRANCH  24  29
ENDBRANCH  21  22
BRANCH  21  34
HETATM   34  O3  UNL     1      11.356 -10.781  14.240  1.00  0.00    -0.348 OA
ATOM     35  H3  UNL     1      11.393 -11.703  14.465  1.00  0.00     0.219 HD
ENDBRANCH  21  34
ENDBRANCH  17  21
ENDBRANCH  13  16
ENDBRANCH   1  12
BRANCH  11  36
HETATM   36  C24 UNL     1      16.924  -9.828  12.736  1.00  0.00     0.106 C 
HETATM   37  N6  UNL     1      17.411 -10.516  13.717  1.00  0.00    -0.385 N 
ATOM     38  H62 UNL     1      17.092 -11.478  13.833  1.00  0.00     0.157 HD
ATOM     39  H61 UNL     1      18.094 -10.103  14.351  1.00  0.00     0.157 HD
BRANCH  36  40
HETATM   40  N7  UNL     1      17.356  -8.525  12.579  1.00  0.00    -0.349 N 
HETATM   41  C25 UNL     1      16.886  -7.413  12.902  1.00  0.00    -0.004 C 
HETATM   42  C26 UNL     1      17.718  -6.208  12.524  1.00  0.00     0.032 C 
HETATM   43  C33 UNL     1      15.632  -7.086  13.609  1.00  0.00     0.032 C 
HETATM   44  C27 UNL     1      18.083  -5.490  13.793  1.00  0.00     0.015 C 
HETATM   45  C31 UNL     1      16.825  -5.292  11.703  1.00  0.00     0.015 C 
HETATM   46  C28 UNL     1      16.852  -5.192  14.606  1.00  0.00    -0.013 C 
HETATM   47  C29 UNL     1      16.022  -4.200  13.826  1.00  0.00     0.009 C 
HETATM   48  C34 UNL     1      16.031  -6.401  14.919  1.00  0.00     0.015 C 
HETATM   49  C30 UNL     1      15.629  -4.850  12.528  1.00  0.00    -0.013 C 
HETATM   50  C32 UNL     1      14.798  -6.061  12.830  1.00  0.00     0.015 C 
ATOM     51  H7  UNL     1      18.252  -8.456  12.096  1.00  0.00     0.167 HD
ENDBRANCH  36  40
ENDBRANCH  11  36
BRANCH   9  52
HETATM   52  N5  UNL     1      17.918 -12.365  10.680  1.00  0.00    -0.063 N 
ATOM     53  H53 UNL     1      18.254 -13.192  10.185  1.00  0.00     0.275 HD
ATOM     54  H52 UNL     1      18.807 -11.899  10.864  1.00  0.00     0.275 HD
ATOM     55  H51 UNL     1      17.468 -12.632  11.556  1.00  0.00     0.275 HD
ENDBRANCH   9  52
TORSDOF 10
ENDMDL
MODEL 4
REMARK VINA RESULT: -7.297309873      1.244      2.365
REMARK  10 active torsions:
REMARK  status: ('A' for Active; 'I' for Inactive)
REMARK    1  A    between atoms: C2_2  and  O1_5 
REMARK    2  A    between atoms: O1_5  and  C5_6 
REMARK       I    between atoms: C5_6  and  N1_8 
REMARK    3  A    between atoms: C9_12  and  C10_13 
REMARK    4  A    between atoms: C10_13  and  O3_14 
REMARK    5  A    between atoms: C10_13  and  N2_16 
REMARK    6  A    between atoms: C14_20  and  C15_21 
REMARK       I    between atoms: C15_21  and  N3_23 
REMARK    7  A    between atoms: N3_23  and  C16_25 
REMARK    8  A    between atoms: C21_33  and  N5_34 
REMARK    9  A    between atoms: C23_39  and  C24_40 
REMARK   10  A    between atoms: C24_40  and  N7_44 
ROOT
HETATM    1  C16 UNL     1      14.776 -11.411  13.459  1.00  0.00     0.121 C 
HETATM    2  C17 UNL     1      13.631 -12.119  12.739  1.00  0.00     0.032 C 
HETATM    3  C18 UNL     1      13.987 -13.564  12.650  1.00  0.00     0.022 C 
HETATM    4  C19 UNL     1      13.885 -14.233  11.344  1.00  0.00     0.122 C 
HETATM    5  N4  UNL     1      14.543 -13.723  10.206  1.00  0.00    -0.359 N 
ATOM      6  H4  UNL     1      14.640 -14.401   9.451  1.00  0.00     0.162 HD
HETATM    7  C20 UNL     1      15.092 -12.466   9.908  1.00  0.00     0.252 C 
HETATM    8  O5  UNL     1      14.648 -11.796   8.894  1.00  0.00    -0.271 OA
HETATM    9  C21 UNL     1      16.190 -11.750  10.649  1.00  0.00     0.298 C 
HETATM   10  C22 UNL     1      15.689 -10.500  11.242  1.00  0.00     0.028 C 
HETATM   11  C23 UNL     1      15.450 -10.363  12.679  1.00  0.00     0.007 C 
ENDROOT
BRANCH   1  12
HETATM   12  N3  UNL     1      14.190 -10.797  14.643  1.00  0.00    -0.351 N 
HETATM   13  C15 UNL     1      14.036 -11.366  15.898  1.00  0.00     0.241 C 
HETATM   14  O4  UNL     1      14.438 -12.576  16.040  1.00  0.00    -0.271 OA
ATOM     15  H3  UNL     1      13.855  -9.839  14.537  1.00  0.00     0.163 HD
BRANCH  13  16
HETATM   16  C14 UNL     1      13.456 -10.752  17.109  1.00  0.00     0.178 C 
HETATM   17  N2  UNL     1      13.364  -9.278  17.006  1.00  0.00    -0.350 N 
HETATM   18  C11 UNL     1      14.663  -8.806  17.386  1.00  0.00     0.126 C 
HETATM   19  C12 UNL     1      15.332  -9.893  18.218  1.00  0.00     0.022 C 
HETATM   20  C13 UNL     1      14.271 -10.968  18.356  1.00  0.00     0.037 C 
BRANCH  17  21
HETATM   21  C10 UNL     1      12.215  -8.589  16.612  1.00  0.00     0.138 C 
BRANCH  21  22
HETATM   22  C9  UNL     1      11.447  -8.566  15.384  1.00  0.00     0.164 C 
HETATM   23  N1  UNL     1      10.034  -8.671  15.409  1.00  0.00    -0.316 N 
HETATM   24  C5  UNL     1       9.194  -9.794  15.606  1.00  0.00     0.364 C 
HETATM   25  C6  UNL     1       9.468  -7.328  15.141  1.00  0.00     0.129 C 
HETATM   26  O2  UNL     1       7.955  -9.652  15.587  1.00  0.00    -0.238 OA
HETATM   27  C7  UNL     1      10.393  -6.962  13.962  1.00  0.00     0.022 C 
HETATM   28  C8  UNL     1      11.733  -7.327  14.546  1.00  0.00     0.035 C 
BRANCH  24  29
HETATM   29  O1  UNL     1       9.689 -11.047  15.823  1.00  0.00    -0.294 OA
BRANCH  29  30
HETATM   30  C2  UNL     1       9.593 -11.737  17.047  1.00  0.00     0.061 C 
HETATM   31  C1  UNL     1      10.655 -12.809  17.058  1.00  0.00     0.046 C 
HETATM   32  C3  UNL     1       9.824 -10.849  18.244  1.00  0.00     0.046 C 
HETATM   33  C4  UNL     1       8.251 -12.402  17.233  1.00  0.00     0.046 C 
ENDBRANCH  29  30
ENDBRANCH  24  29
ENDBRANCH  21  22
BRANCH  21  34
HETATM   34  O3  UNL     1      11.739  -7.804  17.563  1.00  0.00    -0.348 OA
ATOM     35  H3  UNL     1      12.326  -7.100  17.815  1.00  0.00     0.219 HD
ENDBRANCH  21  34
ENDBRANCH  17  21
ENDBRANCH  13  16
ENDBRANCH   1  12
BRANCH  11  36
HETATM   36  C24 UNL     1      16.652  -9.842  13.420  1.00  0.00     0.106 C 
HETATM   37  N6  UNL     1      17.228 -10.562  14.327  1.00  0.00    -0.385 N 
ATOM     38  H62 UNL     1      16.843 -11.487  14.521  1.00  0.00     0.157 HD
ATOM     39  H61 UNL     1      18.043 -10.210  14.829  1.00  0.00     0.157 HD
BRANCH  36  40
HETATM   40  N7  UNL     1      17.173  -8.589  13.158  1.00  0.00    -0.349 N 
HETATM   41  C25 UNL     1      16.737  -7.426  13.292  1.00  0.00    -0.004 C 
HETATM   42  C26 UNL     1      17.672  -6.315  12.868  1.00  0.00     0.032 C 
HETATM   43  C33 UNL     1      15.436  -6.957  13.810  1.00  0.00     0.032 C 
HETATM   44  C27 UNL     1      17.943  -5.461  14.074  1.00  0.00     0.015 C 
HETATM   45  C31 UNL     1      16.925  -5.470  11.849  1.00  0.00     0.015 C 
HETATM   46  C28 UNL     1      16.652  -5.010  14.704  1.00  0.00    -0.013 C 
HETATM   47  C29 UNL     1      15.967  -4.087  13.723  1.00  0.00     0.009 C 
HETATM   48  C34 UNL     1      15.735  -6.132  15.066  1.00  0.00     0.015 C 
HETATM   49  C30 UNL     1      15.677  -4.876  12.476  1.00  0.00    -0.013 C 
HETATM   50  C32 UNL     1      14.750  -6.002  12.826  1.00  0.00     0.015 C 
ATOM     51  H7  UNL     1      18.117  -8.621  12.773  1.00  0.00     0.167 HD
ENDBRANCH  36  40
ENDBRANCH  11  36
BRANCH   9  52
HETATM   52  N5  UNL     1      17.011 -12.598  11.439  1.00  0.00    -0.063 N 
ATOM     53  H53 UNL     1      16.536 -12.845  12.307  1.00  0.00     0.275 HD
ATOM     54  H52 UNL     1      17.084 -13.521  11.011  1.00  0.00     0.275 HD
ATOM     55  H51 UNL     1      17.938 -12.221  11.634  1.00  0.00     0.275 HD
ENDBRANCH   9  52
TORSDOF 10
ENDMDL
MODEL 5
REMARK VINA RESULT: -7.277874610      2.488      7.737
REMARK  10 active torsions:
REMARK  status: ('A' for Active; 'I' for Inactive)
REMARK    1  A    between atoms: C2_2  and  O1_5 
REMARK    2  A    between atoms: O1_5  and  C5_6 
REMARK       I    between atoms: C5_6  and  N1_8 
REMARK    3  A    between atoms: C9_12  and  C10_13 
REMARK    4  A    between atoms: C10_13  and  O3_14 
REMARK    5  A    between atoms: C10_13  and  N2_16 
REMARK    6  A    between atoms: C14_20  and  C15_21 
REMARK       I    between atoms: C15_21  and  N3_23 
REMARK    7  A    between atoms: N3_23  and  C16_25 
REMARK    8  A    between atoms: C21_33  and  N5_34 
REMARK    9  A    between atoms: C23_39  and  C24_40 
REMARK   10  A    between atoms: C24_40  and  N7_44 
ROOT
HETATM    1  C16 UNL     1      12.385  -9.597  14.900  1.00  0.00     0.121 C 
HETATM    2  C17 UNL     1      11.893 -10.699  15.834  1.00  0.00     0.032 C 
HETATM    3  C18 UNL     1      10.426 -10.849  15.610  1.00  0.00     0.022 C 
HETATM    4  C19 UNL     1       9.535 -10.849  16.780  1.00  0.00     0.122 C 
HETATM    5  N4  UNL     1       9.558  -9.797  17.719  1.00  0.00    -0.359 N 
ATOM      6  H4  UNL     1       8.727  -9.755  18.308  1.00  0.00     0.162 HD
HETATM    7  C20 UNL     1      10.501  -8.796  18.003  1.00  0.00     0.252 C 
HETATM    8  O5  UNL     1      11.019  -8.720  19.185  1.00  0.00    -0.271 OA
HETATM    9  C21 UNL     1      11.019  -7.738  17.065  1.00  0.00     0.298 C 
HETATM   10  C22 UNL     1      12.462  -7.912  16.831  1.00  0.00     0.028 C 
HETATM   11  C23 UNL     1      12.987  -8.435  15.571  1.00  0.00     0.007 C 
ENDROOT
BRANCH   1  12
HETATM   12  N3  UNL     1      13.397 -10.210  14.049  1.00  0.00    -0.351 N 
HETATM   13  C15 UNL     1      14.573 -10.827  14.448  1.00  0.00     0.241 C 
HETATM   14  O4  UNL     1      14.815 -10.854  15.707  1.00  0.00    -0.271 OA
ATOM     15  H3  UNL     1      13.219 -10.183  13.044  1.00  0.00     0.163 HD
BRANCH  13  16
HETATM   16  C14 UNL     1      15.598 -11.463  13.598  1.00  0.00     0.178 C 
HETATM   17  N2  UNL     1      15.010 -12.200  12.458  1.00  0.00    -0.350 N 
HETATM   18  C11 UNL     1      14.659 -13.481  12.996  1.00  0.00     0.126 C 
HETATM   19  C12 UNL     1      15.502 -13.712  14.244  1.00  0.00     0.022 C 
HETATM   20  C13 UNL     1      16.420 -12.507  14.307  1.00  0.00     0.037 C 
BRANCH  17  21
HETATM   21  C10 UNL     1      14.868 -11.673  11.172  1.00  0.00     0.138 C 
BRANCH  21  22
HETATM   22  C9  UNL     1      15.745 -11.626  10.020  1.00  0.00     0.164 C 
HETATM   23  N1  UNL     1      16.642 -12.688   9.746  1.00  0.00    -0.316 N 
HETATM   24  C5  UNL     1      17.878 -13.032  10.345  1.00  0.00     0.364 C 
HETATM   25  C6  UNL     1      16.098 -13.469   8.609  1.00  0.00     0.129 C 
HETATM   26  O2  UNL     1      18.510 -14.026   9.936  1.00  0.00    -0.238 OA
HETATM   27  C7  UNL     1      15.714 -12.267   7.719  1.00  0.00     0.022 C 
HETATM   28  C8  UNL     1      14.981 -11.412   8.719  1.00  0.00     0.035 C 
BRANCH  24  29
HETATM   29  O1  UNL     1      18.416 -12.312  11.372  1.00  0.00    -0.294 OA
BRANCH  29  30
HETATM   30  C2  UNL     1      19.397 -11.314  11.212  1.00  0.00     0.061 C 
HETATM   31  C1  UNL     1      19.326 -10.400  12.412  1.00  0.00     0.046 C 
HETATM   32  C3  UNL     1      20.797 -11.871  11.143  1.00  0.00     0.046 C 
HETATM   33  C4  UNL     1      19.182 -10.482   9.973  1.00  0.00     0.046 C 
ENDBRANCH  29  30
ENDBRANCH  24  29
ENDBRANCH  21  22
BRANCH  21  34
HETATM   34  O3  UNL     1      13.689 -11.108  10.978  1.00  0.00    -0.348 OA
ATOM     35  H3  UNL     1      12.978 -11.520  11.455  1.00  0.00     0.219 HD
ENDBRANCH  21  34
ENDBRANCH  17  21
ENDBRANCH  13  16
ENDBRANCH   1  12
BRANCH  11  36
HETATM   36  C24 UNL     1      13.295  -7.350  14.574  1.00  0.00     0.106 C 
HETATM   37  N6  UNL     1      12.502  -7.130  13.576  1.00  0.00    -0.385 N 
ATOM     38  H62 UNL     1      11.669  -7.712  13.488  1.00  0.00     0.157 HD
ATOM     39  H61 UNL     1      12.710  -6.394  12.901  1.00  0.00     0.157 HD
BRANCH  36  40
HETATM   40  N7  UNL     1      14.424  -6.561  14.693  1.00  0.00    -0.349 N 
HETATM   41  C25 UNL     1      15.635  -6.744  14.449  1.00  0.00    -0.004 C 
HETATM   42  C26 UNL     1      16.552  -5.575  14.734  1.00  0.00     0.032 C 
HETATM   43  C33 UNL     1      16.324  -7.936  13.915  1.00  0.00     0.032 C 
HETATM   44  C27 UNL     1      17.206  -5.182  13.440  1.00  0.00     0.015 C 
HETATM   45  C31 UNL     1      17.633  -6.077  15.677  1.00  0.00     0.015 C 
HETATM   46  C28 UNL     1      17.865  -6.373  12.797  1.00  0.00    -0.013 C 
HETATM   47  C29 UNL     1      19.005  -6.799  13.692  1.00  0.00     0.009 C 
HETATM   48  C34 UNL     1      16.939  -7.525  12.574  1.00  0.00     0.015 C 
HETATM   49  C30 UNL     1      18.421  -7.196  15.021  1.00  0.00    -0.013 C 
HETATM   50  C32 UNL     1      17.496  -8.357  14.810  1.00  0.00     0.015 C 
ATOM     51  H7  UNL     1      14.225  -5.630  15.057  1.00  0.00     0.167 HD
ENDBRANCH  36  40
ENDBRANCH  11  36
BRANCH   9  52
HETATM   52  N5  UNL     1      10.175  -7.479  15.953  1.00  0.00    -0.063 N 
ATOM     53  H53 UNL     1       9.196  -7.591  16.216  1.00  0.00     0.275 HD
ATOM     54  H52 UNL     1      10.182  -6.484  15.725  1.00  0.00     0.275 HD
ATOM     55  H51 UNL     1      10.389  -8.035  15.126  1.00  0.00     0.275 HD
ENDBRANCH   9  52
TORSDOF 10
ENDMDL
