MODEL 1
REMARK VINA RESULT: -7.882672644      0.000      0.000
REMARK  8 active torsions:
REMARK  status: ('A' for Active; 'I' for Inactive)
REMARK    1  A    between atoms: C2_2  and  C3_3 
REMARK    2  A    between atoms: C9_13  and  C10_14 
REMARK    3  A    between atoms: C10_14  and  O2_15 
REMARK    4  A    between atoms: C10_14  and  N3_17 
REMARK    5  A    between atoms: C17_24  and  C18_25 
REMARK       I    between atoms: C18_25  and  N4_27 
REMARK    6  A    between atoms: N4_27  and  C19_29 
REMARK    7  A    between atoms: C32_43  and  O5_44 
REMARK    8  A    between atoms: C36_49  and  O6_50 
ROOT
HETATM    1  C3  UNL     1      16.974  -8.115  13.692  1.00  0.00     0.008 C 
HETATM    2  C4  UNL     1      17.583  -9.032  14.703  1.00  0.00     0.022 C 
HETATM    3  C5  UNL     1      16.809  -6.741  14.304  1.00  0.00     0.118 C 
HETATM    4  C6  UNL     1      15.534  -6.941  15.041  1.00  0.00     0.227 C 
HETATM    5  O1  UNL     1      15.128  -6.057  15.870  1.00  0.00    -0.273 OA
HETATM    6  N1  UNL     1      14.926  -8.210  14.661  1.00  0.00    -0.286 N 
HETATM    7  C7  UNL     1      15.520  -8.416  13.427  1.00  0.00     0.041 C 
HETATM    8  C8  UNL     1      15.328  -9.541  12.493  1.00  0.00     0.110 C 
HETATM    9  N2  UNL     1      15.581 -10.820  12.878  1.00  0.00    -0.385 N 
ATOM     10  H2  UNL     1      16.354 -10.919  13.537  1.00  0.00     0.159 HD
HETATM   11  C9  UNL     1      14.962 -12.016  12.527  1.00  0.00     0.156 C 
HETATM   12  C23 UNL     1      13.796 -12.497  13.252  1.00  0.00     0.044 C 
HETATM   13  C24 UNL     1      13.274 -11.880  14.488  1.00  0.00    -0.022 A 
HETATM   14  C25 UNL     1      14.315 -11.445  15.494  1.00  0.00     0.020 C 
HETATM   15  C26 UNL     1      13.598 -10.184  15.536  1.00  0.00     0.048 C 
HETATM   16  C27 UNL     1      12.873 -10.562  14.293  1.00  0.00     0.016 A 
HETATM   17  C28 UNL     1      11.856 -11.693  14.661  1.00  0.00     0.070 A 
HETATM   18  C29 UNL     1      11.044 -10.881  15.566  1.00  0.00     0.136 C 
HETATM   19  O4  UNL     1      10.648 -11.645  16.473  1.00  0.00    -0.297 OA
HETATM   20  C30 UNL     1      10.516  -9.505  15.811  1.00  0.00     0.062 C 
HETATM   21  C31 UNL     1       9.807  -8.852  14.703  1.00  0.00     0.044 C 
HETATM   22  C32 UNL     1       9.618  -7.435  15.267  1.00  0.00     0.119 C 
HETATM   23  C33 UNL     1      10.636  -7.295  16.383  1.00  0.00     0.037 C 
HETATM   24  C34 UNL     1      11.565  -8.519  16.219  1.00  0.00     0.004 C 
HETATM   25  C35 UNL     1      12.620  -8.113  15.284  1.00  0.00     0.067 C 
HETATM   26  C36 UNL     1      13.987  -8.841  15.516  1.00  0.00     0.144 C 
ENDROOT
BRANCH  11  27
HETATM   27  C10 UNL     1      14.734 -12.065  11.066  1.00  0.00     0.138 C 
BRANCH  27  28
HETATM   28  O2  UNL     1      13.676 -11.449  10.606  1.00  0.00    -0.348 OA
ATOM     29  H2  UNL     1      13.762 -11.005   9.771  1.00  0.00     0.219 HD
ENDBRANCH  27  28
BRANCH  27  30
HETATM   30  N3  UNL     1      15.472 -12.674  10.044  1.00  0.00    -0.345 N 
HETATM   31  C11 UNL     1      15.589 -14.051   9.817  1.00  0.00     0.087 C 
HETATM   32  C12 UNL     1      17.006 -14.603   9.754  1.00  0.00     0.026 C 
HETATM   33  C15 UNL     1      15.164 -14.323   8.358  1.00  0.00     0.030 C 
HETATM   34  C13 UNL     1      17.521 -14.375   8.376  1.00  0.00     0.007 C 
HETATM   35  C14 UNL     1      16.367 -13.784   7.621  1.00  0.00    -0.010 C 
HETATM   36  C16 UNL     1      16.307 -12.285   7.738  1.00  0.00     0.040 C 
HETATM   37  C17 UNL     1      16.187 -11.765   9.115  1.00  0.00     0.179 C 
BRANCH  37  38
HETATM   38  C18 UNL     1      17.419 -11.258   9.740  1.00  0.00     0.241 C 
HETATM   39  O3  UNL     1      17.651 -10.034   9.763  1.00  0.00    -0.271 OA
HETATM   40  N4  UNL     1      18.346 -12.149  10.317  1.00  0.00    -0.351 N 
ATOM     41  H4  UNL     1      18.153 -13.150  10.301  1.00  0.00     0.163 HD
BRANCH  40  42
HETATM   42  C19 UNL     1      19.584 -11.670  10.939  1.00  0.00     0.022 C 
HETATM   43  C20 UNL     1      19.383 -11.332  12.398  1.00  0.00     0.037 C 
HETATM   44  C21 UNL     1      20.615 -12.810  10.931  1.00  0.00     0.037 C 
HETATM   45  C22 UNL     1      20.196 -10.509  10.238  1.00  0.00     0.037 C 
ENDBRANCH  40  42
ENDBRANCH  37  38
ENDBRANCH  27  30
ENDBRANCH  11  27
BRANCH   1  46
HETATM   46  C2  UNL     1      17.879  -7.951  12.538  1.00  0.00     0.011 C 
HETATM   47  C1  UNL     1      19.298  -7.545  12.850  1.00  0.00     0.006 C 
ENDBRANCH   1  46
BRANCH  26  48
HETATM   48  O6  UNL     1      14.191  -8.475  16.897  1.00  0.00    -0.370 OA
ATOM     49  H6  UNL     1      13.649  -8.991  17.482  1.00  0.00     0.212 HD
ENDBRANCH  26  48
BRANCH  22  50
HETATM   50  O5  UNL     1       8.306  -7.400  15.779  1.00  0.00    -0.396 OA
ATOM     51  H5  UNL     1       8.265  -6.627  16.329  1.00  0.00     0.210 HD
ENDBRANCH  22  50
TORSDOF 8
ENDMDL
MODEL 2
REMARK VINA RESULT: -7.572678013      2.399      4.991
REMARK  8 active torsions:
REMARK  status: ('A' for Active; 'I' for Inactive)
REMARK    1  A    between atoms: C2_2  and  C3_3 
REMARK    2  A    between atoms: C9_13  and  C10_14 
REMARK    3  A    between atoms: C10_14  and  O2_15 
REMARK    4  A    between atoms: C10_14  and  N3_17 
REMARK    5  A    between atoms: C17_24  and  C18_25 
REMARK       I    between atoms: C18_25  and  N4_27 
REMARK    6  A    between atoms: N4_27  and  C19_29 
REMARK    7  A    between atoms: C32_43  and  O5_44 
REMARK    8  A    between atoms: C36_49  and  O6_50 
ROOT
HETATM    1  C3  UNL     1      19.730 -10.714  11.990  1.00  0.00     0.008 C 
HETATM    2  C4  UNL     1      19.743 -11.504  13.258  1.00  0.00     0.022 C 
HETATM    3  C5  UNL     1      20.757  -9.606  12.085  1.00  0.00     0.118 C 
HETATM    4  C6  UNL     1      19.975  -8.596  12.844  1.00  0.00     0.227 C 
HETATM    5  O1  UNL     1      20.553  -7.557  13.312  1.00  0.00    -0.273 OA
HETATM    6  N1  UNL     1      18.577  -9.001  12.929  1.00  0.00    -0.286 N 
HETATM    7  C7  UNL     1      18.495  -9.859  11.845  1.00  0.00     0.041 C 
HETATM    8  C8  UNL     1      17.327 -10.617  11.361  1.00  0.00     0.110 C 
HETATM    9  N2  UNL     1      16.686 -11.503  12.169  1.00  0.00    -0.385 N 
ATOM     10  H2  UNL     1      17.294 -11.998  12.822  1.00  0.00     0.159 HD
HETATM   11  C9  UNL     1      15.341 -11.850  12.255  1.00  0.00     0.156 C 
HETATM   12  C23 UNL     1      14.427 -11.096  13.101  1.00  0.00     0.044 C 
HETATM   13  C24 UNL     1      14.849 -10.040  14.044  1.00  0.00    -0.022 A 
HETATM   14  C25 UNL     1      16.102 -10.331  14.837  1.00  0.00     0.020 C 
HETATM   15  C26 UNL     1      16.538  -9.006  14.435  1.00  0.00     0.048 C 
HETATM   16  C27 UNL     1      15.469  -8.974  13.402  1.00  0.00     0.016 A 
HETATM   17  C28 UNL     1      14.098  -8.814  14.140  1.00  0.00     0.070 A 
HETATM   18  C29 UNL     1      14.380  -7.495  14.703  1.00  0.00     0.136 C 
HETATM   19  O4  UNL     1      13.818  -7.456  15.819  1.00  0.00    -0.297 OA
HETATM   20  C30 UNL     1      15.075  -6.197  14.453  1.00  0.00     0.062 C 
HETATM   21  C31 UNL     1      14.784  -5.513  13.186  1.00  0.00     0.044 C 
HETATM   22  C32 UNL     1      15.813  -4.373  13.221  1.00  0.00     0.119 C 
HETATM   23  C33 UNL     1      16.872  -4.801  14.219  1.00  0.00     0.037 C 
HETATM   24  C34 UNL     1      16.568  -6.292  14.494  1.00  0.00     0.004 C 
HETATM   25  C35 UNL     1      17.300  -7.055  13.477  1.00  0.00     0.067 C 
HETATM   26  C36 UNL     1      17.740  -8.482  13.949  1.00  0.00     0.144 C 
ENDROOT
BRANCH  11  27
HETATM   27  C10 UNL     1      14.772 -12.041  10.903  1.00  0.00     0.138 C 
BRANCH  27  28
HETATM   28  O2  UNL     1      13.618 -11.479  10.655  1.00  0.00    -0.348 OA
ATOM     29  H2  UNL     1      12.853 -11.858  11.071  1.00  0.00     0.219 HD
ENDBRANCH  27  28
BRANCH  27  30
HETATM   30  N3  UNL     1      15.263 -12.741   9.794  1.00  0.00    -0.345 N 
HETATM   31  C11 UNL     1      15.401 -12.236   8.494  1.00  0.00     0.087 C 
HETATM   32  C12 UNL     1      14.720 -13.032   7.390  1.00  0.00     0.026 C 
HETATM   33  C15 UNL     1      16.869 -12.445   8.064  1.00  0.00     0.030 C 
HETATM   34  C13 UNL     1      15.628 -14.148   7.008  1.00  0.00     0.007 C 
HETATM   35  C14 UNL     1      16.870 -13.936   7.821  1.00  0.00    -0.010 C 
HETATM   36  C16 UNL     1      16.796 -14.592   9.173  1.00  0.00     0.040 C 
HETATM   37  C17 UNL     1      15.681 -14.144  10.030  1.00  0.00     0.179 C 
BRANCH  37  38
HETATM   38  C18 UNL     1      14.505 -15.025  10.099  1.00  0.00     0.241 C 
HETATM   39  O3  UNL     1      13.511 -14.691  10.773  1.00  0.00    -0.271 OA
HETATM   40  N4  UNL     1      14.489 -16.252   9.406  1.00  0.00    -0.351 N 
ATOM     41  H4  UNL     1      15.302 -16.522   8.852  1.00  0.00     0.163 HD
BRANCH  40  42
HETATM   42  C19 UNL     1      13.332 -17.150   9.464  1.00  0.00     0.022 C 
HETATM   43  C20 UNL     1      12.043 -16.425   9.157  1.00  0.00     0.037 C 
HETATM   44  C21 UNL     1      13.470 -18.206   8.355  1.00  0.00     0.037 C 
HETATM   45  C22 UNL     1      13.201 -17.875  10.757  1.00  0.00     0.037 C 
ENDBRANCH  40  42
ENDBRANCH  37  38
ENDBRANCH  27  30
ENDBRANCH  11  27
BRANCH   1  46
HETATM   46  C2  UNL     1      20.134 -11.562  10.852  1.00  0.00     0.011 C 
HETATM   47  C1  UNL     1      21.496 -12.204  10.946  1.00  0.00     0.006 C 
ENDBRANCH   1  46
BRANCH  26  48
HETATM   48  O6  UNL     1      18.496  -8.096  15.117  1.00  0.00    -0.370 OA
ATOM     49  H6  UNL     1      18.932  -8.839  15.516  1.00  0.00     0.212 HD
ENDBRANCH  26  48
BRANCH  22  50
HETATM   50  O5  UNL     1      15.114  -3.242  13.686  1.00  0.00    -0.396 OA
ATOM     51  H5  UNL     1      15.750  -2.537  13.708  1.00  0.00     0.210 HD
ENDBRANCH  22  50
TORSDOF 8
ENDMDL
MODEL 3
REMARK VINA RESULT: -7.514696702      1.764      3.137
REMARK  8 active torsions:
REMARK  status: ('A' for Active; 'I' for Inactive)
REMARK    1  A    between atoms: C2_2  and  C3_3 
REMARK    2  A    between atoms: C9_13  and  C10_14 
REMARK    3  A    between atoms: C10_14  and  O2_15 
REMARK    4  A    between atoms: C10_14  and  N3_17 
REMARK    5  A    between atoms: C17_24  and  C18_25 
REMARK       I    between atoms: C18_25  and  N4_27 
REMARK    6  A    between atoms: N4_27  and  C19_29 
REMARK    7  A    between atoms: C32_43  and  O5_44 
REMARK    8  A    between atoms: C36_49  and  O6_50 
ROOT
HETATM    1  C3  UNL     1      16.865  -7.357  13.115  1.00  0.00     0.008 C 
HETATM    2  C4  UNL     1      17.457  -7.069  14.456  1.00  0.00     0.022 C 
HETATM    3  C5  UNL     1      16.252  -6.089  12.559  1.00  0.00     0.118 C 
HETATM    4  C6  UNL     1      14.941  -6.111  13.257  1.00  0.00     0.227 C 
HETATM    5  O1  UNL     1      14.173  -5.091  13.212  1.00  0.00    -0.273 OA
HETATM    6  N1  UNL     1      14.747  -7.394  13.924  1.00  0.00    -0.286 N 
HETATM    7  C7  UNL     1      15.611  -8.192  13.194  1.00  0.00     0.041 C 
HETATM    8  C8  UNL     1      15.890  -9.631  13.359  1.00  0.00     0.110 C 
HETATM    9  N2  UNL     1      16.358 -10.121  14.537  1.00  0.00    -0.385 N 
ATOM     10  H2  UNL     1      16.982  -9.490  15.041  1.00  0.00     0.159 HD
HETATM   11  C9  UNL     1      16.131 -11.338  15.172  1.00  0.00     0.156 C 
HETATM   12  C23 UNL     1      14.992 -11.519  16.060  1.00  0.00     0.044 C 
HETATM   13  C24 UNL     1      14.097 -10.427  16.493  1.00  0.00    -0.022 A 
HETATM   14  C25 UNL     1      14.775  -9.123  16.846  1.00  0.00     0.020 C 
HETATM   15  C26 UNL     1      13.783  -8.496  15.993  1.00  0.00     0.048 C 
HETATM   16  C27 UNL     1      13.438  -9.826  15.424  1.00  0.00     0.016 A 
HETATM   17  C28 UNL     1      12.671 -10.630  16.526  1.00  0.00     0.070 A 
HETATM   18  C29 UNL     1      11.520  -9.731  16.598  1.00  0.00     0.136 C 
HETATM   19  O4  UNL     1      11.143  -9.729  17.790  1.00  0.00    -0.297 OA
HETATM   20  C30 UNL     1      10.638  -8.830  15.798  1.00  0.00     0.062 C 
HETATM   21  C31 UNL     1      10.034  -9.388  14.582  1.00  0.00     0.044 C 
HETATM   22  C32 UNL     1       9.399  -8.134  13.963  1.00  0.00     0.119 C 
HETATM   23  C33 UNL     1      10.104  -6.954  14.604  1.00  0.00     0.037 C 
HETATM   24  C34 UNL     1      11.314  -7.574  15.339  1.00  0.00     0.004 C 
HETATM   25  C35 UNL     1      12.408  -7.623  14.363  1.00  0.00     0.067 C 
HETATM   26  C36 UNL     1      13.833  -7.510  15.002  1.00  0.00     0.144 C 
ENDROOT
BRANCH  11  27
HETATM   27  C10 UNL     1      16.224 -12.450  14.199  1.00  0.00     0.138 C 
BRANCH  27  28
HETATM   28  O2  UNL     1      17.407 -12.722  13.715  1.00  0.00    -0.348 OA
ATOM     29  H2  UNL     1      17.823 -13.523  14.011  1.00  0.00     0.219 HD
ENDBRANCH  27  28
BRANCH  27  30
HETATM   30  N3  UNL     1      15.238 -13.298  13.683  1.00  0.00    -0.345 N 
HETATM   31  C11 UNL     1      15.136 -14.678  13.906  1.00  0.00     0.087 C 
HETATM   32  C12 UNL     1      15.075 -15.556  12.665  1.00  0.00     0.026 C 
HETATM   33  C15 UNL     1      13.722 -14.958  14.463  1.00  0.00     0.030 C 
HETATM   34  C13 UNL     1      13.665 -15.571  12.187  1.00  0.00     0.007 C 
HETATM   35  C14 UNL     1      12.899 -14.784  13.209  1.00  0.00    -0.010 C 
HETATM   36  C16 UNL     1      12.879 -13.311  12.907  1.00  0.00     0.040 C 
HETATM   37  C17 UNL     1      14.206 -12.667  12.825  1.00  0.00     0.179 C 
BRANCH  37  38
HETATM   38  C18 UNL     1      14.739 -12.421  11.477  1.00  0.00     0.241 C 
HETATM   39  O3  UNL     1      14.002 -11.951  10.588  1.00  0.00    -0.271 OA
HETATM   40  N4  UNL     1      16.084 -12.713  11.176  1.00  0.00    -0.351 N 
ATOM     41  H4  UNL     1      16.687 -13.094  11.905  1.00  0.00     0.163 HD
BRANCH  40  42
HETATM   42  C19 UNL     1      16.637 -12.484   9.838  1.00  0.00     0.022 C 
HETATM   43  C20 UNL     1      16.829 -11.012   9.555  1.00  0.00     0.037 C 
HETATM   44  C21 UNL     1      18.049 -13.089   9.777  1.00  0.00     0.037 C 
HETATM   45  C22 UNL     1      15.838 -13.102   8.746  1.00  0.00     0.037 C 
ENDBRANCH  40  42
ENDBRANCH  37  38
ENDBRANCH  27  30
ENDBRANCH  11  27
BRANCH   1  46
HETATM   46  C2  UNL     1      17.919  -7.762  12.165  1.00  0.00     0.011 C 
HETATM   47  C1  UNL     1      19.214  -8.247  12.768  1.00  0.00     0.006 C 
ENDBRANCH   1  46
BRANCH  26  48
HETATM   48  O6  UNL     1      13.657  -6.255  15.693  1.00  0.00    -0.370 OA
ATOM     49  H6  UNL     1      14.231  -5.581  15.350  1.00  0.00     0.212 HD
ENDBRANCH  26  48
BRANCH  22  50
HETATM   50  O5  UNL     1       8.042  -8.169  14.336  1.00  0.00    -0.396 OA
ATOM     51  H5  UNL     1       7.653  -7.383  13.970  1.00  0.00     0.210 HD
ENDBRANCH  22  50
TORSDOF 8
ENDMDL
MODEL 4
REMARK VINA RESULT: -7.432047860      3.801      6.620
REMARK  8 active torsions:
REMARK  status: ('A' for Active; 'I' for Inactive)
REMARK    1  A    between atoms: C2_2  and  C3_3 
REMARK    2  A    between atoms: C9_13  and  C10_14 
REMARK    3  A    between atoms: C10_14  and  O2_15 
REMARK    4  A    between atoms: C10_14  and  N3_17 
REMARK    5  A    between atoms: C17_24  and  C18_25 
REMARK       I    between atoms: C18_25  and  N4_27 
REMARK    6  A    between atoms: N4_27  and  C19_29 
REMARK    7  A    between atoms: C32_43  and  O5_44 
REMARK    8  A    between atoms: C36_49  and  O6_50 
ROOT
HETATM    1  C3  UNL     1      11.472  -7.862  15.095  1.00  0.00     0.008 C 
HETATM    2  C4  UNL     1      11.241  -7.281  16.453  1.00  0.00     0.022 C 
HETATM    3  C5  UNL     1      10.847  -6.957  14.055  1.00  0.00     0.118 C 
HETATM    4  C6  UNL     1       9.437  -7.421  14.126  1.00  0.00     0.227 C 
HETATM    5  O1  UNL     1       8.517  -6.767  13.528  1.00  0.00    -0.273 OA
HETATM    6  N1  UNL     1       9.346  -8.634  14.931  1.00  0.00    -0.286 N 
HETATM    7  C7  UNL     1      10.647  -9.098  14.837  1.00  0.00     0.041 C 
HETATM    8  C8  UNL     1      11.232 -10.313  15.435  1.00  0.00     0.110 C 
HETATM    9  N2  UNL     1      11.209 -10.510  16.780  1.00  0.00    -0.385 N 
ATOM     10  H2  UNL     1      11.298  -9.658  17.335  1.00  0.00     0.159 HD
HETATM   11  C9  UNL     1      11.086 -11.677  17.527  1.00  0.00     0.156 C 
HETATM   12  C23 UNL     1       9.777 -12.210  17.873  1.00  0.00     0.044 C 
HETATM   13  C24 UNL     1       8.502 -11.506  17.625  1.00  0.00    -0.022 A 
HETATM   14  C25 UNL     1       8.505 -10.022  17.913  1.00  0.00     0.020 C 
HETATM   15  C26 UNL     1       7.899  -9.872  16.604  1.00  0.00     0.048 C 
HETATM   16  C27 UNL     1       8.283 -11.270  16.272  1.00  0.00     0.016 A 
HETATM   17  C28 UNL     1       7.367 -12.226  17.107  1.00  0.00     0.070 A 
HETATM   18  C29 UNL     1       6.110 -11.820  16.481  1.00  0.00     0.136 C 
HETATM   19  O4  UNL     1       5.233 -11.877  17.369  1.00  0.00    -0.297 OA
HETATM   20  C30 UNL     1       5.488 -11.371  15.199  1.00  0.00     0.062 C 
HETATM   21  C31 UNL     1       5.730 -12.197  14.009  1.00  0.00     0.044 C 
HETATM   22  C32 UNL     1       5.121 -11.317  12.908  1.00  0.00     0.119 C 
HETATM   23  C33 UNL     1       5.047  -9.918  13.489  1.00  0.00     0.037 C 
HETATM   24  C34 UNL     1       5.887  -9.989  14.784  1.00  0.00     0.004 C 
HETATM   25  C35 UNL     1       7.270  -9.692  14.395  1.00  0.00     0.067 C 
HETATM   26  C36 UNL     1       8.114  -9.009  15.524  1.00  0.00     0.144 C 
ENDROOT
BRANCH  11  27
HETATM   27  C10 UNL     1      11.957 -12.737  16.971  1.00  0.00     0.138 C 
BRANCH  27  28
HETATM   28  O2  UNL     1      13.246 -12.604  17.147  1.00  0.00    -0.348 OA
ATOM     29  H2  UNL     1      13.696 -11.975  16.595  1.00  0.00     0.219 HD
ENDBRANCH  27  28
BRANCH  27  30
HETATM   30  N3  UNL     1      11.642 -13.904  16.265  1.00  0.00    -0.345 N 
HETATM   31  C11 UNL     1      11.622 -15.204  16.786  1.00  0.00     0.087 C 
HETATM   32  C12 UNL     1      12.475 -16.232  16.056  1.00  0.00     0.026 C 
HETATM   33  C15 UNL     1      10.229 -15.803  16.495  1.00  0.00     0.030 C 
HETATM   34  C13 UNL     1      11.689 -16.731  14.894  1.00  0.00     0.007 C 
HETATM   35  C14 UNL     1      10.351 -16.064  15.012  1.00  0.00    -0.010 C 
HETATM   36  C16 UNL     1      10.313 -14.722  14.334  1.00  0.00     0.040 C 
HETATM   37  C17 UNL     1      11.291 -13.735  14.834  1.00  0.00     0.179 C 
BRANCH  37  38
HETATM   38  C18 UNL     1      12.506 -13.543  14.027  1.00  0.00     0.241 C 
HETATM   39  O3  UNL     1      13.435 -12.830  14.454  1.00  0.00    -0.271 OA
HETATM   40  N4  UNL     1      12.632 -14.159  12.766  1.00  0.00    -0.351 N 
ATOM     41  H4  UNL     1      11.872 -14.746  12.420  1.00  0.00     0.163 HD
BRANCH  40  42
HETATM   42  C19 UNL     1      13.829 -13.978  11.940  1.00  0.00     0.022 C 
HETATM   43  C20 UNL     1      15.071 -14.488  12.633  1.00  0.00     0.037 C 
HETATM   44  C21 UNL     1      13.692 -14.842  10.676  1.00  0.00     0.037 C 
HETATM   45  C22 UNL     1      14.044 -12.573  11.500  1.00  0.00     0.037 C 
ENDBRANCH  40  42
ENDBRANCH  37  38
ENDBRANCH  27  30
ENDBRANCH  11  27
BRANCH   1  46
HETATM   46  C2  UNL     1      12.916  -7.907  14.796  1.00  0.00     0.011 C 
HETATM   47  C1  UNL     1      13.423  -6.905  13.788  1.00  0.00     0.006 C 
ENDBRANCH   1  46
BRANCH  26  48
HETATM   48  O6  UNL     1       7.264  -7.868  15.764  1.00  0.00    -0.370 OA
ATOM     49  H6  UNL     1       7.132  -7.356  14.974  1.00  0.00     0.212 HD
ENDBRANCH  26  48
BRANCH  22  50
HETATM   50  O5  UNL     1       3.831 -11.833  12.678  1.00  0.00    -0.396 OA
ATOM     51  H5  UNL     1       3.957 -12.618  12.157  1.00  0.00     0.210 HD
ENDBRANCH  22  50
TORSDOF 8
ENDMDL
MODEL 5
REMARK VINA RESULT: -7.413416250      1.352      3.051
REMARK  8 active torsions:
REMARK  status: ('A' for Active; 'I' for Inactive)
REMARK    1  A    between atoms: C2_2  and  C3_3 
REMARK    2  A    between atoms: C9_13  and  C10_14 
REMARK    3  A    between atoms: C10_14  and  O2_15 
REMARK    4  A    between atoms: C10_14  and  N3_17 
REMARK    5  A    between atoms: C17_24  and  C18_25 
REMARK       I    between atoms: C18_25  and  N4_27 
REMARK    6  A    between atoms: N4_27  and  C19_29 
REMARK    7  A    between atoms: C32_43  and  O5_44 
REMARK    8  A    between atoms: C36_49  and  O6_50 
ROOT
HETATM    1  C3  UNL     1      16.995  -8.147  13.775  1.00  0.00     0.008 C 
HETATM    2  C4  UNL     1      17.580  -9.076  14.789  1.00  0.00     0.022 C 
HETATM    3  C5  UNL     1      16.839  -6.773  14.391  1.00  0.00     0.118 C 
HETATM    4  C6  UNL     1      15.554  -6.960  15.112  1.00  0.00     0.227 C 
HETATM    5  O1  UNL     1      15.148  -6.075  15.940  1.00  0.00    -0.273 OA
HETATM    6  N1  UNL     1      14.934  -8.221  14.718  1.00  0.00    -0.286 N 
HETATM    7  C7  UNL     1      15.541  -8.428  13.491  1.00  0.00     0.041 C 
HETATM    8  C8  UNL     1      15.346  -9.547  12.549  1.00  0.00     0.110 C 
HETATM    9  N2  UNL     1      15.578 -10.830  12.933  1.00  0.00    -0.385 N 
ATOM     10  H2  UNL     1      16.342 -10.942  13.600  1.00  0.00     0.159 HD
HETATM   11  C9  UNL     1      14.950 -12.017  12.569  1.00  0.00     0.156 C 
HETATM   12  C23 UNL     1      13.768 -12.487  13.277  1.00  0.00     0.044 C 
HETATM   13  C24 UNL     1      13.240 -11.868  14.510  1.00  0.00    -0.022 A 
HETATM   14  C25 UNL     1      14.274 -11.451  15.531  1.00  0.00     0.020 C 
HETATM   15  C26 UNL     1      13.572 -10.181  15.569  1.00  0.00     0.048 C 
HETATM   16  C27 UNL     1      12.857 -10.545  14.316  1.00  0.00     0.016 A 
HETATM   17  C28 UNL     1      11.822 -11.665  14.667  1.00  0.00     0.070 A 
HETATM   18  C29 UNL     1      11.009 -10.847  15.565  1.00  0.00     0.136 C 
HETATM   19  O4  UNL     1      10.593 -11.610  16.464  1.00  0.00    -0.297 OA
HETATM   20  C30 UNL     1      10.495  -9.466  15.810  1.00  0.00     0.062 C 
HETATM   21  C31 UNL     1       9.807  -8.799  14.697  1.00  0.00     0.044 C 
HETATM   22  C32 UNL     1       9.629  -7.383  15.265  1.00  0.00     0.119 C 
HETATM   23  C33 UNL     1      10.635  -7.259  16.393  1.00  0.00     0.037 C 
HETATM   24  C34 UNL     1      11.552  -8.495  16.236  1.00  0.00     0.004 C 
HETATM   25  C35 UNL     1      12.622  -8.098  15.315  1.00  0.00     0.067 C 
HETATM   26  C36 UNL     1      13.978  -8.843  15.560  1.00  0.00     0.144 C 
ENDROOT
BRANCH  11  27
HETATM   27  C10 UNL     1      14.738 -12.058  11.105  1.00  0.00     0.138 C 
BRANCH  27  28
HETATM   28  O2  UNL     1      13.627 -11.541  10.647  1.00  0.00    -0.348 OA
ATOM     29  H2  UNL     1      13.381 -11.760   9.757  1.00  0.00     0.219 HD
ENDBRANCH  27  28
BRANCH  27  30
HETATM   30  N3  UNL     1      15.541 -12.566  10.077  1.00  0.00    -0.345 N 
HETATM   31  C11 UNL     1      15.837 -11.926   8.867  1.00  0.00     0.087 C 
HETATM   32  C12 UNL     1      15.522 -12.708   7.599  1.00  0.00     0.026 C 
HETATM   33  C15 UNL     1      17.375 -11.869   8.733  1.00  0.00     0.030 C 
HETATM   34  C13 UNL     1      16.660 -13.632   7.341  1.00  0.00     0.007 C 
HETATM   35  C14 UNL     1      17.671 -13.312   8.401  1.00  0.00    -0.010 C 
HETATM   36  C16 UNL     1      17.451 -14.098   9.665  1.00  0.00     0.040 C 
HETATM   37  C17 UNL     1      16.134 -13.907  10.305  1.00  0.00     0.179 C 
BRANCH  37  38
HETATM   38  C18 UNL     1      15.130 -14.957  10.077  1.00  0.00     0.241 C 
HETATM   39  O3  UNL     1      13.962 -14.806  10.484  1.00  0.00    -0.271 OA
HETATM   40  N4  UNL     1      15.477 -16.143   9.399  1.00  0.00    -0.351 N 
ATOM     41  H4  UNL     1      16.433 -16.264   9.063  1.00  0.00     0.163 HD
BRANCH  40  42
HETATM   42  C19 UNL     1      14.497 -17.208   9.166  1.00  0.00     0.022 C 
HETATM   43  C20 UNL     1      13.241 -16.681   8.512  1.00  0.00     0.037 C 
HETATM   44  C21 UNL     1      15.085 -18.207   8.156  1.00  0.00     0.037 C 
HETATM   45  C22 UNL     1      14.139 -17.971  10.392  1.00  0.00     0.037 C 
ENDBRANCH  40  42
ENDBRANCH  37  38
ENDBRANCH  27  30
ENDBRANCH  11  27
BRANCH   1  46
HETATM   46  C2  UNL     1      17.916  -7.989  12.632  1.00  0.00     0.011 C 
HETATM   47  C1  UNL     1      19.245  -7.341  12.927  1.00  0.00     0.006 C 
ENDBRANCH   1  46
BRANCH  26  48
HETATM   48  O6  UNL     1      14.169  -8.486  16.945  1.00  0.00    -0.370 OA
ATOM     49  H6  UNL     1      14.529  -9.207  17.448  1.00  0.00     0.212 HD
ENDBRANCH  26  48
BRANCH  22  50
HETATM   50  O5  UNL     1       8.312  -7.334  15.761  1.00  0.00    -0.396 OA
ATOM     51  H5  UNL     1       7.864  -6.681  15.235  1.00  0.00     0.210 HD
ENDBRANCH  22  50
TORSDOF 8
ENDMDL
