MODEL 1
REMARK VINA RESULT: -7.412619403      0.000      0.000
REMARK  3 active torsions:
REMARK  status: ('A' for Active; 'I' for Inactive)
REMARK    1  A    between atoms: C1_2  and  C2_4 
REMARK    2  A    between atoms: C10_16  and  N3_17 
REMARK       I    between atoms: N3_17  and  C11_19 
REMARK       I    between atoms: C11_19  and  N4_21 
REMARK       I    between atoms: N5_34  and  C21_35 
REMARK       I    between atoms: C21_35  and  N6_37 
REMARK    3  A    between atoms: N6_37  and  C22_38 
ROOT
HETATM    1  C2  UNL     1      17.586  -6.787  15.702  1.00  0.00     0.180 C 
HETATM    2  C3  UNL     1      18.235  -6.312  14.472  1.00  0.00     0.054 C 
HETATM    3  C4  UNL     1      17.370  -5.749  13.381  1.00  0.00     0.125 C 
HETATM    4  N2  UNL     1      16.144  -5.136  13.784  1.00  0.00    -0.359 N 
ATOM      5  H2  UNL     1      16.196  -4.601  14.651  1.00  0.00     0.162 HD
HETATM    6  C5  UNL     1      14.892  -5.154  13.179  1.00  0.00     0.241 C 
HETATM    7  O2  UNL     1      14.386  -4.039  12.794  1.00  0.00    -0.271 OA
HETATM    8  C6  UNL     1      14.014  -6.355  12.906  1.00  0.00     0.278 C 
HETATM    9  O3  UNL     1      13.209  -6.569  13.992  1.00  0.00    -0.342 OA
HETATM   10  C7  UNL     1      12.538  -7.547  14.628  1.00  0.00     0.075 A 
HETATM   11  C8  UNL     1      11.202  -7.271  14.991  1.00  0.00     0.039 A 
HETATM   12  C9  UNL     1      10.375  -8.150  15.649  1.00  0.00     0.032 A 
HETATM   13  C10 UNL     1      10.841  -9.394  15.997  1.00  0.00     0.037 A 
HETATM   14  C16 UNL     1      12.177  -9.663  15.628  1.00  0.00     0.039 A 
HETATM   15  C17 UNL     1      12.995  -8.787  14.976  1.00  0.00    -0.022 A 
HETATM   16  C18 UNL     1      14.374  -9.334  14.708  1.00  0.00     0.043 C 
HETATM   17  C19 UNL     1      15.402  -8.405  15.207  1.00  0.00     0.025 C 
HETATM   18  C20 UNL     1      16.306  -8.821  16.297  1.00  0.00     0.130 C 
HETATM   19  N5  UNL     1      17.623  -8.183  16.015  1.00  0.00    -0.309 N 
HETATM   20  C21 UNL     1      18.721  -9.051  16.122  1.00  0.00     0.392 C 
HETATM   21  O7  UNL     1      18.383 -10.252  16.348  1.00  0.00    -0.230 OA
HETATM   22  N6  UNL     1      20.104  -8.718  16.007  1.00  0.00    -0.385 NA
ENDROOT
BRANCH   1  23
HETATM   23  C1  UNL     1      18.106  -5.962  16.866  1.00  0.00     0.254 C 
HETATM   24  N1  UNL     1      18.153  -4.556  16.744  1.00  0.00    -0.060 NA
HETATM   25  O1  UNL     1      18.489  -6.512  17.921  1.00  0.00    -0.275 OA
ENDBRANCH   1  23
BRANCH  22  26
HETATM   26  C22 UNL     1      21.385  -8.412  15.899  1.00  0.00     0.099 C 
HETATM   27  C23 UNL     1      21.742  -7.340  16.959  1.00  0.00     0.050 C 
HETATM   28  C24 UNL     1      23.177  -7.042  17.084  1.00  0.00    -0.010 C 
HETATM   29  C25 UNL     1      23.689  -6.466  15.783  1.00  0.00     0.009 C 
HETATM   30  C29 UNL     1      23.961  -8.272  17.423  1.00  0.00     0.009 C 
HETATM   31  C26 UNL     1      23.349  -7.498  14.731  1.00  0.00    -0.010 C 
HETATM   32  C27 UNL     1      24.188  -8.722  15.011  1.00  0.00     0.009 C 
HETATM   33  C31 UNL     1      21.881  -7.764  14.614  1.00  0.00     0.050 C 
HETATM   34  C28 UNL     1      23.714  -9.288  16.327  1.00  0.00    -0.010 C 
HETATM   35  C30 UNL     1      22.274  -9.614  16.183  1.00  0.00     0.050 C 
ENDBRANCH  22  26
BRANCH  13  36
HETATM   36  N3  UNL     1      10.142 -10.379  16.709  1.00  0.00    -0.309 N 
HETATM   37  C11 UNL     1      10.270 -10.669  18.055  1.00  0.00     0.322 C 
HETATM   38  O4  UNL     1      11.032 -10.077  18.878  1.00  0.00    -0.247 OA
HETATM   39  N4  UNL     1       9.454 -11.770  18.586  1.00  0.00    -0.332 N 
HETATM   40  C12 UNL     1       8.612 -12.444  17.621  1.00  0.00     0.142 C 
HETATM   41  C15 UNL     1       9.573 -12.103  19.977  1.00  0.00     0.142 C 
HETATM   42  C13 UNL     1       7.996 -13.686  18.211  1.00  0.00     0.160 C 
HETATM   43  S1  UNL     1       7.191 -13.284  19.767  1.00  0.00     0.147 S 
HETATM   44  O5  UNL     1       6.987 -14.558  20.528  1.00  0.00    -0.228 OA
HETATM   45  O6  UNL     1       5.865 -12.653  19.389  1.00  0.00    -0.228 OA
HETATM   46  C14 UNL     1       8.235 -12.148  20.650  1.00  0.00     0.160 C 
ATOM     47  H3  UNL     1       9.471 -10.938  16.182  1.00  0.00     0.170 HD
ENDBRANCH  13  36
TORSDOF 3
ENDMDL
MODEL 2
REMARK VINA RESULT: -7.342594685      0.256      1.071
REMARK  3 active torsions:
REMARK  status: ('A' for Active; 'I' for Inactive)
REMARK    1  A    between atoms: C1_2  and  C2_4 
REMARK    2  A    between atoms: C10_16  and  N3_17 
REMARK       I    between atoms: N3_17  and  C11_19 
REMARK       I    between atoms: C11_19  and  N4_21 
REMARK       I    between atoms: N5_34  and  C21_35 
REMARK       I    between atoms: C21_35  and  N6_37 
REMARK    3  A    between atoms: N6_37  and  C22_38 
ROOT
HETATM    1  C2  UNL     1      17.509  -6.768  15.761  1.00  0.00     0.180 C 
HETATM    2  C3  UNL     1      18.184  -6.277  14.551  1.00  0.00     0.054 C 
HETATM    3  C4  UNL     1      17.343  -5.692  13.453  1.00  0.00     0.125 C 
HETATM    4  N2  UNL     1      16.113  -5.079  13.843  1.00  0.00    -0.359 N 
ATOM      5  H2  UNL     1      16.151  -4.559  14.719  1.00  0.00     0.162 HD
HETATM    6  C5  UNL     1      14.873  -5.081  13.213  1.00  0.00     0.241 C 
HETATM    7  O2  UNL     1      14.380  -3.957  12.836  1.00  0.00    -0.271 OA
HETATM    8  C6  UNL     1      13.995  -6.273  12.904  1.00  0.00     0.278 C 
HETATM    9  O3  UNL     1      13.167  -6.500  13.971  1.00  0.00    -0.342 OA
HETATM   10  C7  UNL     1      12.480  -7.485  14.579  1.00  0.00     0.075 A 
HETATM   11  C8  UNL     1      11.138  -7.208  14.921  1.00  0.00     0.039 A 
HETATM   12  C9  UNL     1      10.295  -8.092  15.549  1.00  0.00     0.032 A 
HETATM   13  C10 UNL     1      10.747  -9.344  15.885  1.00  0.00     0.037 A 
HETATM   14  C16 UNL     1      12.089  -9.614  15.538  1.00  0.00     0.039 A 
HETATM   15  C17 UNL     1      12.924  -8.733  14.915  1.00  0.00    -0.022 A 
HETATM   16  C18 UNL     1      14.305  -9.282  14.665  1.00  0.00     0.043 C 
HETATM   17  C19 UNL     1      15.328  -8.366  15.199  1.00  0.00     0.025 C 
HETATM   18  C20 UNL     1      16.209  -8.805  16.298  1.00  0.00     0.130 C 
HETATM   19  N5  UNL     1      17.534  -8.169  16.052  1.00  0.00    -0.309 N 
HETATM   20  C21 UNL     1      18.625  -9.044  16.166  1.00  0.00     0.392 C 
HETATM   21  O7  UNL     1      18.277 -10.247  16.366  1.00  0.00    -0.230 OA
HETATM   22  N6  UNL     1      20.012  -8.717  16.083  1.00  0.00    -0.385 NA
ENDROOT
BRANCH   1  23
HETATM   23  C1  UNL     1      18.012  -5.965  16.947  1.00  0.00     0.254 C 
HETATM   24  N1  UNL     1      18.128  -4.562  16.827  1.00  0.00    -0.060 NA
HETATM   25  O1  UNL     1      18.320  -6.529  18.019  1.00  0.00    -0.275 OA
ENDBRANCH   1  23
BRANCH  22  26
HETATM   26  C22 UNL     1      21.296  -8.416  16.004  1.00  0.00     0.099 C 
HETATM   27  C23 UNL     1      22.134  -9.651  16.424  1.00  0.00     0.050 C 
HETATM   28  C24 UNL     1      23.582  -9.525  16.202  1.00  0.00    -0.010 C 
HETATM   29  C25 UNL     1      24.127  -8.398  17.050  1.00  0.00     0.009 C 
HETATM   30  C29 UNL     1      23.891  -9.255  14.762  1.00  0.00     0.009 C 
HETATM   31  C26 UNL     1      23.321  -7.180  16.657  1.00  0.00    -0.010 C 
HETATM   32  C27 UNL     1      23.677  -6.844  15.228  1.00  0.00     0.009 C 
HETATM   33  C31 UNL     1      21.855  -7.331  16.914  1.00  0.00     0.050 C 
HETATM   34  C28 UNL     1      23.172  -7.980  14.371  1.00  0.00    -0.010 C 
HETATM   35  C30 UNL     1      21.707  -8.080  14.578  1.00  0.00     0.050 C 
ENDBRANCH  22  26
BRANCH  13  36
HETATM   36  N3  UNL     1      10.030 -10.336  16.568  1.00  0.00    -0.309 N 
HETATM   37  C11 UNL     1      10.172 -10.686  17.899  1.00  0.00     0.322 C 
HETATM   38  O4  UNL     1      10.965 -10.154  18.732  1.00  0.00    -0.247 OA
HETATM   39  N4  UNL     1       9.331 -11.784  18.397  1.00  0.00    -0.332 N 
HETATM   40  C12 UNL     1       8.452 -12.391  17.420  1.00  0.00     0.142 C 
HETATM   41  C15 UNL     1       9.462 -12.179  19.771  1.00  0.00     0.142 C 
HETATM   42  C13 UNL     1       7.808 -13.637  17.969  1.00  0.00     0.160 C 
HETATM   43  S1  UNL     1       7.042 -13.277  19.555  1.00  0.00     0.147 S 
HETATM   44  O5  UNL     1       6.810 -14.574  20.266  1.00  0.00    -0.228 OA
HETATM   45  O6  UNL     1       5.729 -12.590  19.227  1.00  0.00    -0.228 OA
HETATM   46  C14 UNL     1       8.135 -12.211  20.465  1.00  0.00     0.160 C 
ATOM     47  H3  UNL     1       9.334 -10.852  16.030  1.00  0.00     0.170 HD
ENDBRANCH  13  36
TORSDOF 3
ENDMDL
MODEL 3
REMARK VINA RESULT: -7.313240100      1.343      1.980
REMARK  3 active torsions:
REMARK  status: ('A' for Active; 'I' for Inactive)
REMARK    1  A    between atoms: C1_2  and  C2_4 
REMARK    2  A    between atoms: C10_16  and  N3_17 
REMARK       I    between atoms: N3_17  and  C11_19 
REMARK       I    between atoms: C11_19  and  N4_21 
REMARK       I    between atoms: N5_34  and  C21_35 
REMARK       I    between atoms: C21_35  and  N6_37 
REMARK    3  A    between atoms: N6_37  and  C22_38 
ROOT
HETATM    1  C2  UNL     1      17.207  -7.118  15.846  1.00  0.00     0.180 C 
HETATM    2  C3  UNL     1      17.930  -6.742  14.623  1.00  0.00     0.054 C 
HETATM    3  C4  UNL     1      17.150  -6.134  13.492  1.00  0.00     0.125 C 
HETATM    4  N2  UNL     1      15.977  -5.398  13.844  1.00  0.00    -0.359 N 
ATOM      5  H2  UNL     1      16.055  -4.845  14.697  1.00  0.00     0.162 HD
HETATM    6  C5  UNL     1      14.744  -5.318  13.204  1.00  0.00     0.241 C 
HETATM    7  O2  UNL     1      14.355  -4.173  12.774  1.00  0.00    -0.271 OA
HETATM    8  C6  UNL     1      13.766  -6.441  12.939  1.00  0.00     0.278 C 
HETATM    9  O3  UNL     1      12.916  -6.547  14.006  1.00  0.00    -0.342 OA
HETATM   10  C7  UNL     1      12.140  -7.440  14.650  1.00  0.00     0.075 A 
HETATM   11  C8  UNL     1      10.827  -7.031  14.967  1.00  0.00     0.039 A 
HETATM   12  C9  UNL     1       9.905  -7.809  15.625  1.00  0.00     0.032 A 
HETATM   13  C10 UNL     1      10.243  -9.079  16.019  1.00  0.00     0.037 A 
HETATM   14  C16 UNL     1      11.558  -9.482  15.696  1.00  0.00     0.039 A 
HETATM   15  C17 UNL     1      12.471  -8.706  15.044  1.00  0.00    -0.022 A 
HETATM   16  C18 UNL     1      13.799  -9.386  14.831  1.00  0.00     0.043 C 
HETATM   17  C19 UNL     1      14.896  -8.541  15.333  1.00  0.00     0.025 C 
HETATM   18  C20 UNL     1      15.729  -9.007  16.459  1.00  0.00     0.130 C 
HETATM   19  N5  UNL     1      17.107  -8.502  16.198  1.00  0.00    -0.309 N 
HETATM   20  C21 UNL     1      18.115  -9.464  16.360  1.00  0.00     0.392 C 
HETATM   21  O7  UNL     1      17.661 -10.621  16.609  1.00  0.00    -0.230 OA
HETATM   22  N6  UNL     1      19.526  -9.264  16.275  1.00  0.00    -0.385 NA
ENDROOT
BRANCH   1  23
HETATM   23  C1  UNL     1      17.772  -6.311  17.002  1.00  0.00     0.254 C 
HETATM   24  N1  UNL     1      18.150  -4.968  16.780  1.00  0.00    -0.060 NA
HETATM   25  O1  UNL     1      17.904  -6.820  18.135  1.00  0.00    -0.275 OA
ENDBRANCH   1  23
BRANCH  22  26
HETATM   26  C22 UNL     1      20.832  -9.082  16.196  1.00  0.00     0.099 C 
HETATM   27  C23 UNL     1      21.266  -9.154  14.710  1.00  0.00     0.050 C 
HETATM   28  C24 UNL     1      22.663  -8.778  14.450  1.00  0.00    -0.010 C 
HETATM   29  C25 UNL     1      23.586  -9.746  15.156  1.00  0.00     0.009 C 
HETATM   30  C29 UNL     1      22.950  -7.387  14.923  1.00  0.00     0.009 C 
HETATM   31  C26 UNL     1      23.179  -9.693  16.611  1.00  0.00    -0.010 C 
HETATM   32  C27 UNL     1      23.531  -8.319  17.129  1.00  0.00     0.009 C 
HETATM   33  C31 UNL     1      21.759 -10.100  16.845  1.00  0.00     0.050 C 
HETATM   34  C28 UNL     1      22.644  -7.336  16.406  1.00  0.00    -0.010 C 
HETATM   35  C30 UNL     1      21.237  -7.703  16.697  1.00  0.00     0.050 C 
ENDBRANCH  22  26
BRANCH  13  36
HETATM   36  N3  UNL     1       9.437  -9.974  16.738  1.00  0.00    -0.309 N 
HETATM   37  C11 UNL     1       8.100 -10.244  16.509  1.00  0.00     0.322 C 
HETATM   38  O4  UNL     1       7.381  -9.739  15.595  1.00  0.00    -0.247 OA
HETATM   39  N4  UNL     1       7.444 -11.200  17.411  1.00  0.00    -0.332 N 
HETATM   40  C12 UNL     1       8.281 -11.744  18.461  1.00  0.00     0.142 C 
HETATM   41  C15 UNL     1       6.054 -11.494  17.207  1.00  0.00     0.142 C 
HETATM   42  C13 UNL     1       7.464 -12.528  19.454  1.00  0.00     0.160 C 
HETATM   43  S1  UNL     1       6.455 -13.738  18.590  1.00  0.00     0.147 S 
HETATM   44  O5  UNL     1       5.362 -14.179  19.515  1.00  0.00    -0.228 OA
HETATM   45  O6  UNL     1       7.389 -14.887  18.259  1.00  0.00    -0.228 OA
HETATM   46  C14 UNL     1       5.808 -12.969  17.123  1.00  0.00     0.160 C 
ATOM     47  H3  UNL     1       9.881 -10.475  17.507  1.00  0.00     0.170 HD
ENDBRANCH  13  36
TORSDOF 3
ENDMDL
MODEL 4
REMARK VINA RESULT: -7.253849758      4.305     11.855
REMARK  3 active torsions:
REMARK  status: ('A' for Active; 'I' for Inactive)
REMARK    1  A    between atoms: C1_2  and  C2_4 
REMARK    2  A    between atoms: C10_16  and  N3_17 
REMARK       I    between atoms: N3_17  and  C11_19 
REMARK       I    between atoms: C11_19  and  N4_21 
REMARK       I    between atoms: N5_34  and  C21_35 
REMARK       I    between atoms: C21_35  and  N6_37 
REMARK    3  A    between atoms: N6_37  and  C22_38 
ROOT
HETATM    1  C2  UNL     1      10.926  -9.953  16.391  1.00  0.00     0.180 C 
HETATM    2  C3  UNL     1      10.270 -10.952  15.535  1.00  0.00     0.054 C 
HETATM    3  C4  UNL     1      10.825 -12.347  15.512  1.00  0.00     0.125 C 
HETATM    4  N2  UNL     1      11.486 -12.795  16.697  1.00  0.00    -0.359 N 
ATOM      5  H2  UNL     1      11.062 -12.484  17.570  1.00  0.00     0.162 HD
HETATM    6  C5  UNL     1      12.619 -13.589  16.845  1.00  0.00     0.241 C 
HETATM    7  O2  UNL     1      12.499 -14.711  17.456  1.00  0.00    -0.271 OA
HETATM    8  C6  UNL     1      14.023 -13.295  16.365  1.00  0.00     0.278 C 
HETATM    9  O3  UNL     1      14.690 -12.609  17.345  1.00  0.00    -0.342 OA
HETATM   10  C7  UNL     1      15.698 -11.735  17.518  1.00  0.00     0.075 A 
HETATM   11  C8  UNL     1      16.635 -12.034  18.531  1.00  0.00     0.039 A 
HETATM   12  C9  UNL     1      17.719 -11.251  18.846  1.00  0.00     0.032 A 
HETATM   13  C10 UNL     1      17.944 -10.087  18.154  1.00  0.00     0.037 A 
HETATM   14  C16 UNL     1      17.004  -9.796  17.140  1.00  0.00     0.039 A 
HETATM   15  C17 UNL     1      15.928 -10.576  16.831  1.00  0.00    -0.022 A 
HETATM   16  C18 UNL     1      15.087 -10.026  15.707  1.00  0.00     0.043 C 
HETATM   17  C19 UNL     1      13.674  -9.943  16.115  1.00  0.00     0.025 C 
HETATM   18  C20 UNL     1      13.009  -8.629  16.203  1.00  0.00     0.130 C 
HETATM   19  N5  UNL     1      11.596  -8.846  15.781  1.00  0.00    -0.309 N 
HETATM   20  C21 UNL     1      11.118  -7.906  14.854  1.00  0.00     0.392 C 
HETATM   21  O7  UNL     1      12.011  -7.092  14.468  1.00  0.00    -0.230 OA
HETATM   22  N6  UNL     1       9.792  -7.792  14.339  1.00  0.00    -0.385 NA
ENDROOT
BRANCH   1  23
HETATM   23  C1  UNL     1       9.919  -9.471  17.420  1.00  0.00     0.254 C 
HETATM   24  N1  UNL     1       8.548  -9.740  17.217  1.00  0.00    -0.060 NA
HETATM   25  O1  UNL     1      10.291  -8.844  18.436  1.00  0.00    -0.275 OA
ENDBRANCH   1  23
BRANCH  22  26
HETATM   26  C22 UNL     1       8.565  -7.687  13.860  1.00  0.00     0.099 C 
HETATM   27  C23 UNL     1       8.503  -6.486  12.882  1.00  0.00     0.050 C 
HETATM   28  C24 UNL     1       7.249  -6.364  12.125  1.00  0.00    -0.010 C 
HETATM   29  C25 UNL     1       6.102  -6.125  13.083  1.00  0.00     0.009 C 
HETATM   30  C29 UNL     1       6.974  -7.598  11.323  1.00  0.00     0.009 C 
HETATM   31  C26 UNL     1       6.145  -7.287  14.050  1.00  0.00    -0.010 C 
HETATM   32  C27 UNL     1       5.795  -8.534  13.274  1.00  0.00     0.009 C 
HETATM   33  C31 UNL     1       7.425  -7.372  14.819  1.00  0.00     0.050 C 
HETATM   34  C28 UNL     1       6.912  -8.766  12.286  1.00  0.00    -0.010 C 
HETATM   35  C30 UNL     1       8.169  -8.918  13.058  1.00  0.00     0.050 C 
ENDBRANCH  22  26
BRANCH  13  36
HETATM   36  N3  UNL     1      18.971  -9.161  18.387  1.00  0.00    -0.309 N 
HETATM   37  C11 UNL     1      19.236  -8.509  19.577  1.00  0.00     0.322 C 
HETATM   38  O4  UNL     1      18.604  -8.652  20.666  1.00  0.00    -0.247 OA
HETATM   39  N4  UNL     1      20.351  -7.551  19.583  1.00  0.00    -0.332 N 
HETATM   40  C12 UNL     1      21.041  -7.387  18.320  1.00  0.00     0.142 C 
HETATM   41  C15 UNL     1      20.645  -6.848  20.800  1.00  0.00     0.142 C 
HETATM   42  C13 UNL     1      22.007  -6.232  18.375  1.00  0.00     0.160 C 
HETATM   43  S1  UNL     1      23.080  -6.406  19.806  1.00  0.00     0.147 S 
HETATM   44  O5  UNL     1      23.704  -5.073  20.085  1.00  0.00    -0.228 OA
HETATM   45  O6  UNL     1      24.128  -7.428  19.409  1.00  0.00    -0.228 OA
HETATM   46  C14 UNL     1      22.091  -6.971  21.171  1.00  0.00     0.160 C 
ATOM     47  H3  UNL     1      19.583  -8.947  17.600  1.00  0.00     0.170 HD
ENDBRANCH  13  36
TORSDOF 3
ENDMDL
MODEL 5
REMARK VINA RESULT: -7.228103625      1.019      1.362
REMARK  3 active torsions:
REMARK  status: ('A' for Active; 'I' for Inactive)
REMARK    1  A    between atoms: C1_2  and  C2_4 
REMARK    2  A    between atoms: C10_16  and  N3_17 
REMARK       I    between atoms: N3_17  and  C11_19 
REMARK       I    between atoms: C11_19  and  N4_21 
REMARK       I    between atoms: N5_34  and  C21_35 
REMARK       I    between atoms: C21_35  and  N6_37 
REMARK    3  A    between atoms: N6_37  and  C22_38 
ROOT
HETATM    1  C2  UNL     1      17.491  -6.783  15.754  1.00  0.00     0.180 C 
HETATM    2  C3  UNL     1      18.154  -6.356  14.513  1.00  0.00     0.054 C 
HETATM    3  C4  UNL     1      17.305  -5.800  13.406  1.00  0.00     0.125 C 
HETATM    4  N2  UNL     1      16.094  -5.146  13.791  1.00  0.00    -0.359 N 
ATOM      5  H2  UNL     1      16.158  -4.591  14.644  1.00  0.00     0.162 HD
HETATM    6  C5  UNL     1      14.843  -5.149  13.183  1.00  0.00     0.241 C 
HETATM    7  O2  UNL     1      14.366  -4.032  12.768  1.00  0.00    -0.271 OA
HETATM    8  C6  UNL     1      13.936  -6.335  12.940  1.00  0.00     0.278 C 
HETATM    9  O3  UNL     1      13.124  -6.501  14.029  1.00  0.00    -0.342 OA
HETATM   10  C7  UNL     1      12.428  -7.444  14.690  1.00  0.00     0.075 A 
HETATM   11  C8  UNL     1      11.098  -7.126  15.042  1.00  0.00     0.039 A 
HETATM   12  C9  UNL     1      10.249  -7.966  15.722  1.00  0.00     0.032 A 
HETATM   13  C10 UNL     1      10.683  -9.212  16.103  1.00  0.00     0.037 A 
HETATM   14  C16 UNL     1      12.013  -9.524  15.744  1.00  0.00     0.039 A 
HETATM   15  C17 UNL     1      12.853  -8.686  15.071  1.00  0.00    -0.022 A 
HETATM   16  C18 UNL     1      14.219  -9.274  14.820  1.00  0.00     0.043 C 
HETATM   17  C19 UNL     1      15.269  -8.357  15.297  1.00  0.00     0.025 C 
HETATM   18  C20 UNL     1      16.161  -8.768  16.399  1.00  0.00     0.130 C 
HETATM   19  N5  UNL     1      17.494  -8.170  16.103  1.00  0.00    -0.309 N 
HETATM   20  C21 UNL     1      18.569  -9.062  16.235  1.00  0.00     0.392 C 
HETATM   21  O7  UNL     1      18.201 -10.248  16.491  1.00  0.00    -0.230 OA
HETATM   22  N6  UNL     1      19.960  -8.767  16.114  1.00  0.00    -0.385 NA
ENDROOT
BRANCH   1  23
HETATM   23  C1  UNL     1      18.031  -5.941  16.897  1.00  0.00     0.254 C 
HETATM   24  N1  UNL     1      18.126  -4.541  16.733  1.00  0.00    -0.060 NA
HETATM   25  O1  UNL     1      18.387  -6.471  17.971  1.00  0.00    -0.275 OA
ENDBRANCH   1  23
BRANCH  22  26
HETATM   26  C22 UNL     1      21.249  -8.496  16.001  1.00  0.00     0.099 C 
HETATM   27  C23 UNL     1      21.598  -7.294  16.915  1.00  0.00     0.050 C 
HETATM   28  C24 UNL     1      23.033  -7.002  17.038  1.00  0.00    -0.010 C 
HETATM   29  C25 UNL     1      23.588  -6.615  15.685  1.00  0.00     0.009 C 
HETATM   30  C29 UNL     1      23.788  -8.185  17.562  1.00  0.00     0.009 C 
HETATM   31  C26 UNL     1      23.257  -7.776  14.774  1.00  0.00    -0.010 C 
HETATM   32  C27 UNL     1      24.067  -8.962  15.240  1.00  0.00     0.009 C 
HETATM   33  C31 UNL     1      21.789  -8.035  14.654  1.00  0.00     0.050 C 
HETATM   34  C28 UNL     1      23.551  -9.338  16.607  1.00  0.00    -0.010 C 
HETATM   35  C30 UNL     1      22.110  -9.660  16.470  1.00  0.00     0.050 C 
ENDBRANCH  22  26
BRANCH  13  36
HETATM   36  N3  UNL     1       9.959 -10.160  16.839  1.00  0.00    -0.309 N 
HETATM   37  C11 UNL     1       8.746 -10.724  16.488  1.00  0.00     0.322 C 
HETATM   38  O4  UNL     1       8.091 -10.489  15.427  1.00  0.00    -0.247 OA
HETATM   39  N4  UNL     1       8.151 -11.679  17.432  1.00  0.00    -0.332 N 
HETATM   40  C12 UNL     1       8.906 -11.911  18.646  1.00  0.00     0.142 C 
HETATM   41  C15 UNL     1       6.886 -12.273  17.102  1.00  0.00     0.142 C 
HETATM   42  C13 UNL     1       8.110 -12.722  19.635  1.00  0.00     0.160 C 
HETATM   43  S1  UNL     1       7.485 -14.207  18.838  1.00  0.00     0.147 S 
HETATM   44  O5  UNL     1       6.367 -14.749  19.675  1.00  0.00    -0.228 OA
HETATM   45  O6  UNL     1       8.656 -15.171  18.798  1.00  0.00    -0.228 OA
HETATM   46  C14 UNL     1       6.935 -13.767  17.206  1.00  0.00     0.160 C 
ATOM     47  H3  UNL     1      10.367 -10.464  17.723  1.00  0.00     0.170 HD
ENDBRANCH  13  36
TORSDOF 3
ENDMDL
