MODEL 1
REMARK VINA RESULT: 0.772139689      0.000      0.000
REMARK  4 active torsions:
REMARK  status: ('A' for Active; 'I' for Inactive)
REMARK    1  A    between atoms: C2_2  and  C3_3 
REMARK    2  A    between atoms: C3_3  and  N1_4 
REMARK       I    between atoms: N1_4  and  C4_6 
REMARK       I    between atoms: C4_6  and  N2_8 
REMARK    3  A    between atoms: C8_14  and  N4_15 
REMARK    4  A    between atoms: C14_23  and  C15_24 
ROOT
HETATM    1  N1  UNL     1      26.990   2.902 -10.034  1.00  0.00    -0.343 N 
ATOM      2  H1  UNL     1      26.680   3.050 -10.995  1.00  0.00     0.164 HD
HETATM    3  C4  UNL     1      26.515   1.760  -9.364  1.00  0.00     0.319 C 
HETATM    4  O1  UNL     1      26.886   1.573  -8.169  1.00  0.00    -0.247 OA
HETATM    5  N2  UNL     1      25.646   0.848  -9.994  1.00  0.00    -0.306 N 
HETATM    6  C5  UNL     1      25.030  -0.269  -9.308  1.00  0.00     0.137 C 
HETATM    7  C6  UNL     1      25.881  -1.435  -9.025  1.00  0.00     0.039 C 
HETATM    8  C7  UNL     1      23.794  -0.577 -10.144  1.00  0.00     0.049 A 
HETATM    9  N3  UNL     1      22.706  -1.298  -9.979  1.00  0.00    -0.337 N 
ATOM     10  H3  UNL     1      22.572  -1.822  -9.115  1.00  0.00     0.168 HD
HETATM   11  C8  UNL     1      21.794  -1.346 -10.913  1.00  0.00     0.147 A 
HETATM   12  S1  UNL     1      22.475  -0.325 -12.121  1.00  0.00    -0.054 SA
HETATM   13  C13 UNL     1      23.915   0.102 -11.323  1.00  0.00     0.042 A 
HETATM   14  C14 UNL     1      25.239   0.876 -11.355  1.00  0.00     0.239 C 
ENDROOT
BRANCH  14  15
HETATM   15  C15 UNL     1      26.169   0.194 -12.294  1.00  0.00     0.412 C 
HETATM   16  F1  UNL     1      26.873   1.158 -13.034  1.00  0.00    -0.168 F 
HETATM   17  F2  UNL     1      25.544  -0.653 -13.201  1.00  0.00    -0.168 F 
HETATM   18  F3  UNL     1      27.086  -0.559 -11.632  1.00  0.00    -0.168 F 
ENDBRANCH  14  15
BRANCH   1  19
HETATM   19  C3  UNL     1      27.886   3.882  -9.461  1.00  0.00     0.124 C 
BRANCH  19  20
HETATM   20  C2  UNL     1      27.268   5.259  -9.439  1.00  0.00     0.015 C 
HETATM   21  C1  UNL     1      25.740   5.190  -9.378  1.00  0.00     0.006 C 
ENDBRANCH  19  20
ENDBRANCH   1  19
BRANCH  11  22
HETATM   22  N4  UNL     1      20.534  -2.056 -10.948  1.00  0.00    -0.357 N 
HETATM   23  C9  UNL     1      20.009  -2.656 -12.133  1.00  0.00     0.151 C 
HETATM   24  C10 UNL     1      18.708  -3.341 -11.811  1.00  0.00     0.187 C 
HETATM   25  O2  UNL     1      17.839  -2.590 -11.071  1.00  0.00    -0.388 OA
HETATM   26  C11 UNL     1      18.345  -1.885 -10.025  1.00  0.00     0.187 C 
HETATM   27  C12 UNL     1      19.789  -2.143  -9.712  1.00  0.00     0.151 C 
ENDBRANCH  11  22
TORSDOF 4
ENDMDL
MODEL 2
REMARK VINA RESULT: 1.375780711      2.140      2.584
REMARK  4 active torsions:
REMARK  status: ('A' for Active; 'I' for Inactive)
REMARK    1  A    between atoms: C2_2  and  C3_3 
REMARK    2  A    between atoms: C3_3  and  N1_4 
REMARK       I    between atoms: N1_4  and  C4_6 
REMARK       I    between atoms: C4_6  and  N2_8 
REMARK    3  A    between atoms: C8_14  and  N4_15 
REMARK    4  A    between atoms: C14_23  and  C15_24 
ROOT
HETATM    1  N1  UNL     1      27.768   0.885  -9.803  1.00  0.00    -0.343 N 
ATOM      2  H1  UNL     1      27.144   1.670  -9.617  1.00  0.00     0.164 HD
HETATM    3  C4  UNL     1      27.246  -0.209 -10.516  1.00  0.00     0.319 C 
HETATM    4  O1  UNL     1      28.010  -1.192 -10.744  1.00  0.00    -0.247 OA
HETATM    5  N2  UNL     1      25.910  -0.222 -10.964  1.00  0.00    -0.306 N 
HETATM    6  C5  UNL     1      25.290  -1.374 -11.587  1.00  0.00     0.137 C 
HETATM    7  C6  UNL     1      25.652  -1.657 -12.984  1.00  0.00     0.039 C 
HETATM    8  C7  UNL     1      23.801  -1.162 -11.350  1.00  0.00     0.049 A 
HETATM    9  N3  UNL     1      22.719  -1.905 -11.451  1.00  0.00    -0.337 N 
ATOM     10  H3  UNL     1      22.797  -2.872 -11.767  1.00  0.00     0.168 HD
HETATM   11  C8  UNL     1      21.547  -1.415 -11.149  1.00  0.00     0.147 A 
HETATM   12  S1  UNL     1      21.947   0.196 -10.690  1.00  0.00    -0.054 SA
HETATM   13  C13 UNL     1      23.631   0.125 -10.923  1.00  0.00     0.042 A 
HETATM   14  C14 UNL     1      24.981   0.849 -10.874  1.00  0.00     0.239 C 
ENDROOT
BRANCH  14  15
HETATM   15  C15 UNL     1      25.045   1.820 -11.999  1.00  0.00     0.412 C 
HETATM   16  F1  UNL     1      24.506   3.049 -11.584  1.00  0.00    -0.168 F 
HETATM   17  F2  UNL     1      24.349   1.422 -13.135  1.00  0.00    -0.168 F 
HETATM   18  F3  UNL     1      26.325   2.048 -12.391  1.00  0.00    -0.168 F 
ENDBRANCH  14  15
BRANCH   1  19
HETATM   19  C3  UNL     1      29.127   0.979  -9.315  1.00  0.00     0.124 C 
BRANCH  19  20
HETATM   20  C2  UNL     1      29.326   0.168  -8.058  1.00  0.00     0.015 C 
HETATM   21  C1  UNL     1      28.003  -0.065  -7.322  1.00  0.00     0.006 C 
ENDBRANCH  19  20
ENDBRANCH   1  19
BRANCH  11  22
HETATM   22  N4  UNL     1      20.242  -2.040 -11.178  1.00  0.00    -0.357 N 
HETATM   23  C9  UNL     1      19.672  -2.601 -12.361  1.00  0.00     0.151 C 
HETATM   24  C10 UNL     1      18.330  -3.200 -12.034  1.00  0.00     0.187 C 
HETATM   25  O2  UNL     1      17.517  -2.394 -11.287  1.00  0.00    -0.388 OA
HETATM   26  C11 UNL     1      18.075  -1.727 -10.243  1.00  0.00     0.187 C 
HETATM   27  C12 UNL     1      19.500  -2.081  -9.938  1.00  0.00     0.151 C 
ENDBRANCH  11  22
TORSDOF 4
ENDMDL
MODEL 3
REMARK VINA RESULT: 1.480998700      1.568      1.897
REMARK  4 active torsions:
REMARK  status: ('A' for Active; 'I' for Inactive)
REMARK    1  A    between atoms: C2_2  and  C3_3 
REMARK    2  A    between atoms: C3_3  and  N1_4 
REMARK       I    between atoms: N1_4  and  C4_6 
REMARK       I    between atoms: C4_6  and  N2_8 
REMARK    3  A    between atoms: C8_14  and  N4_15 
REMARK    4  A    between atoms: C14_23  and  C15_24 
ROOT
HETATM    1  N1  UNL     1      26.644   1.594  -8.848  1.00  0.00    -0.343 N 
ATOM      2  H1  UNL     1      26.197   2.220  -9.518  1.00  0.00     0.164 HD
HETATM    3  C4  UNL     1      26.207   0.258  -8.814  1.00  0.00     0.319 C 
HETATM    4  O1  UNL     1      26.748  -0.525  -7.980  1.00  0.00    -0.247 OA
HETATM    5  N2  UNL     1      25.193  -0.205  -9.675  1.00  0.00    -0.306 N 
HETATM    6  C5  UNL     1      24.620  -1.533  -9.590  1.00  0.00     0.137 C 
HETATM    7  C6  UNL     1      25.428  -2.646 -10.112  1.00  0.00     0.039 C 
HETATM    8  C7  UNL     1      23.251  -1.386 -10.241  1.00  0.00     0.049 A 
HETATM    9  N3  UNL     1      22.157  -2.114 -10.302  1.00  0.00    -0.337 N 
ATOM     10  H3  UNL     1      22.127  -3.021  -9.837  1.00  0.00     0.168 HD
HETATM   11  C8  UNL     1      21.109  -1.685 -10.953  1.00  0.00     0.147 A 
HETATM   12  S1  UNL     1      21.657  -0.159 -11.533  1.00  0.00    -0.054 SA
HETATM   13  C13 UNL     1      23.230  -0.180 -10.885  1.00  0.00     0.042 A 
HETATM   14  C14 UNL     1      24.579   0.529 -10.724  1.00  0.00     0.239 C 
ENDROOT
BRANCH  14  15
HETATM   15  C15 UNL     1      25.304   0.478 -12.022  1.00  0.00     0.412 C 
HETATM   16  F1  UNL     1      25.217   1.729 -12.654  1.00  0.00    -0.168 F 
HETATM   17  F2  UNL     1      24.816  -0.473 -12.911  1.00  0.00    -0.168 F 
HETATM   18  F3  UNL     1      26.623   0.201 -11.848  1.00  0.00    -0.168 F 
ENDBRANCH  14  15
BRANCH   1  19
HETATM   19  C3  UNL     1      27.681   2.145  -8.004  1.00  0.00     0.124 C 
BRANCH  19  20
HETATM   20  C2  UNL     1      28.892   1.248  -7.949  1.00  0.00     0.015 C 
HETATM   21  C1  UNL     1      29.291   0.752  -9.342  1.00  0.00     0.006 C 
ENDBRANCH  19  20
ENDBRANCH   1  19
BRANCH  11  22
HETATM   22  N4  UNL     1      19.816  -2.304 -11.145  1.00  0.00    -0.357 N 
HETATM   23  C9  UNL     1      19.322  -2.698 -12.426  1.00  0.00     0.151 C 
HETATM   24  C10 UNL     1      17.970  -3.340 -12.264  1.00  0.00     0.187 C 
HETATM   25  O2  UNL     1      17.106  -2.649 -11.463  1.00  0.00    -0.388 OA
HETATM   26  C11 UNL     1      17.594  -2.131 -10.305  1.00  0.00     0.187 C 
HETATM   27  C12 UNL     1      19.003  -2.519  -9.969  1.00  0.00     0.151 C 
ENDBRANCH  11  22
TORSDOF 4
ENDMDL
MODEL 4
REMARK VINA RESULT: 2.361458659      1.939      2.322
REMARK  4 active torsions:
REMARK  status: ('A' for Active; 'I' for Inactive)
REMARK    1  A    between atoms: C2_2  and  C3_3 
REMARK    2  A    between atoms: C3_3  and  N1_4 
REMARK       I    between atoms: N1_4  and  C4_6 
REMARK       I    between atoms: C4_6  and  N2_8 
REMARK    3  A    between atoms: C8_14  and  N4_15 
REMARK    4  A    between atoms: C14_23  and  C15_24 
ROOT
HETATM    1  N1  UNL     1      26.721   1.239  -8.814  1.00  0.00    -0.343 N 
ATOM      2  H1  UNL     1      26.299   1.971  -9.385  1.00  0.00     0.164 HD
HETATM    3  C4  UNL     1      26.109  -0.028  -8.821  1.00  0.00     0.319 C 
HETATM    4  O1  UNL     1      26.619  -0.941  -8.109  1.00  0.00    -0.247 OA
HETATM    5  N2  UNL     1      24.957  -0.282  -9.592  1.00  0.00    -0.306 N 
HETATM    6  C5  UNL     1      24.218  -1.527  -9.534  1.00  0.00     0.137 C 
HETATM    7  C6  UNL     1      24.806  -2.689 -10.218  1.00  0.00     0.039 C 
HETATM    8  C7  UNL     1      22.824  -1.148 -10.015  1.00  0.00     0.049 A 
HETATM    9  N3  UNL     1      21.639  -1.721 -10.002  1.00  0.00    -0.337 N 
ATOM     10  H3  UNL     1      21.531  -2.652  -9.600  1.00  0.00     0.168 HD
HETATM   11  C8  UNL     1      20.599  -1.106 -10.500  1.00  0.00     0.147 A 
HETATM   12  S1  UNL     1      21.290   0.378 -11.033  1.00  0.00    -0.054 SA
HETATM   13  C13 UNL     1      22.903   0.098 -10.569  1.00  0.00     0.042 A 
HETATM   14  C14 UNL     1      24.347   0.610 -10.514  1.00  0.00     0.239 C 
ENDROOT
BRANCH  14  15
HETATM   15  C15 UNL     1      24.922   0.572 -11.885  1.00  0.00     0.412 C 
HETATM   16  F1  UNL     1      24.997   1.878 -12.395  1.00  0.00    -0.168 F 
HETATM   17  F2  UNL     1      24.187  -0.187 -12.790  1.00  0.00    -0.168 F 
HETATM   18  F3  UNL     1      26.180   0.062 -11.887  1.00  0.00    -0.168 F 
ENDBRANCH  14  15
BRANCH   1  19
HETATM   19  C3  UNL     1      27.905   1.578  -8.056  1.00  0.00     0.124 C 
BRANCH  19  20
HETATM   20  C2  UNL     1      29.124   0.853  -8.570  1.00  0.00     0.015 C 
HETATM   21  C1  UNL     1      29.048   0.623 -10.082  1.00  0.00     0.006 C 
ENDBRANCH  19  20
ENDBRANCH   1  19
BRANCH  11  22
HETATM   22  N4  UNL     1      19.220  -1.534 -10.587  1.00  0.00    -0.357 N 
HETATM   23  C9  UNL     1      18.674  -2.577  -9.779  1.00  0.00     0.151 C 
HETATM   24  C10 UNL     1      17.211  -2.740 -10.094  1.00  0.00     0.187 C 
HETATM   25  O2  UNL     1      16.920  -2.785 -11.428  1.00  0.00    -0.388 OA
HETATM   26  C11 UNL     1      17.548  -1.896 -12.243  1.00  0.00     0.187 C 
HETATM   27  C12 UNL     1      18.376  -0.858 -11.547  1.00  0.00     0.151 C 
ENDBRANCH  11  22
TORSDOF 4
ENDMDL
MODEL 5
REMARK VINA RESULT: 3.387948169      2.682      7.860
REMARK  4 active torsions:
REMARK  status: ('A' for Active; 'I' for Inactive)
REMARK    1  A    between atoms: C2_2  and  C3_3 
REMARK    2  A    between atoms: C3_3  and  N1_4 
REMARK       I    between atoms: N1_4  and  C4_6 
REMARK       I    between atoms: C4_6  and  N2_8 
REMARK    3  A    between atoms: C8_14  and  N4_15 
REMARK    4  A    between atoms: C14_23  and  C15_24 
ROOT
HETATM    1  N1  UNL     1      18.445  -2.273  -9.567  1.00  0.00    -0.343 N 
ATOM      2  H1  UNL     1      18.984  -3.103  -9.812  1.00  0.00     0.164 HD
HETATM    3  C4  UNL     1      19.104  -1.031  -9.610  1.00  0.00     0.319 C 
HETATM    4  O1  UNL     1      18.447   0.005  -9.299  1.00  0.00    -0.247 OA
HETATM    5  N2  UNL     1      20.460  -0.934  -9.981  1.00  0.00    -0.306 N 
HETATM    6  C5  UNL     1      21.217   0.300  -9.916  1.00  0.00     0.137 C 
HETATM    7  C6  UNL     1      20.964   1.298 -10.967  1.00  0.00     0.039 C 
HETATM    8  C7  UNL     1      22.664  -0.161  -9.818  1.00  0.00     0.049 A 
HETATM    9  N3  UNL     1      23.812   0.407  -9.516  1.00  0.00    -0.337 N 
ATOM     10  H3  UNL     1      23.841   1.400  -9.287  1.00  0.00     0.168 HD
HETATM   11  C8  UNL     1      24.916  -0.291  -9.508  1.00  0.00     0.147 A 
HETATM   12  S1  UNL     1      24.347  -1.855  -9.949  1.00  0.00    -0.054 SA
HETATM   13  C13 UNL     1      22.693  -1.494 -10.118  1.00  0.00     0.042 A 
HETATM   14  C14 UNL     1      21.281  -1.990 -10.455  1.00  0.00     0.239 C 
ENDROOT
BRANCH  14  15
HETATM   15  C15 UNL     1      21.197  -2.232 -11.920  1.00  0.00     0.412 C 
HETATM   16  F1  UNL     1      20.045  -2.984 -12.203  1.00  0.00    -0.168 F 
HETATM   17  F2  UNL     1      22.283  -2.920 -12.448  1.00  0.00    -0.168 F 
HETATM   18  F3  UNL     1      21.103  -1.068 -12.614  1.00  0.00    -0.168 F 
ENDBRANCH  14  15
BRANCH   1  19
HETATM   19  C3  UNL     1      17.057  -2.457  -9.202  1.00  0.00     0.124 C 
BRANCH  19  20
HETATM   20  C2  UNL     1      16.197  -2.752 -10.407  1.00  0.00     0.015 C 
HETATM   21  C1  UNL     1      16.948  -2.485 -11.714  1.00  0.00     0.006 C 
ENDBRANCH  19  20
ENDBRANCH   1  19
BRANCH  11  22
HETATM   22  N4  UNL     1      26.272   0.115  -9.205  1.00  0.00    -0.357 N 
HETATM   23  C9  UNL     1      27.010  -0.399  -8.096  1.00  0.00     0.151 C 
HETATM   24  C10 UNL     1      28.391   0.201  -8.094  1.00  0.00     0.187 C 
HETATM   25  O2  UNL     1      28.420   1.555  -8.273  1.00  0.00    -0.388 OA
HETATM   26  C11 UNL     1      27.608   2.086  -9.224  1.00  0.00     0.187 C 
HETATM   27  C12 UNL     1      26.882   1.091 -10.080  1.00  0.00     0.151 C 
ENDBRANCH  11  22
TORSDOF 4
ENDMDL
