MODEL 1
REMARK VINA RESULT: -3.706823157      0.000      0.000
REMARK  2 active torsions:
REMARK  status: ('A' for Active; 'I' for Inactive)
REMARK    1  A    between atoms: O1_1  and  C1_3 
REMARK    2  A    between atoms: N1_7  and  O2_8 
ROOT
HETATM    1  C1  UNL     1      -4.522  11.929   6.130  1.00  0.00     0.135 C 
HETATM    2  C2  UNL     1      -4.122  10.486   6.082  1.00  0.00     0.044 C 
HETATM    3  C3  UNL     1      -2.649  10.252   6.068  1.00  0.00     0.096 C 
HETATM    4  S1  UNL     1      -1.868  11.448   4.917  1.00  0.00    -0.055 SA
HETATM    5  N1  UNL     1      -3.247  12.135   4.026  1.00  0.00    -0.136 NA
HETATM    6  C4  UNL     1      -4.100  12.753   4.980  1.00  0.00     0.166 C 
ENDROOT
BRANCH   1   7
HETATM    7  O1  UNL     1      -5.926  11.959   6.230  1.00  0.00    -0.394 OA
ATOM      8  H1  UNL     1      -6.136  12.488   6.991  1.00  0.00     0.210 HD
ENDBRANCH   1   7
BRANCH   5   9
HETATM    9  O2  UNL     1      -3.813  11.242   3.229  1.00  0.00    -0.302 OA
ATOM     10  H2  UNL     1      -3.473  10.368   3.380  1.00  0.00     0.238 HD
ENDBRANCH   5   9
TORSDOF 2
ENDMDL
MODEL 2
REMARK VINA RESULT: -3.695066045      2.253      3.118
REMARK  2 active torsions:
REMARK  status: ('A' for Active; 'I' for Inactive)
REMARK    1  A    between atoms: O1_1  and  C1_3 
REMARK    2  A    between atoms: N1_7  and  O2_8 
ROOT
HETATM    1  C1  UNL     1      -1.291  11.381   5.747  1.00  0.00     0.135 C 
HETATM    2  C2  UNL     1      -2.305  12.453   6.005  1.00  0.00     0.044 C 
HETATM    3  C3  UNL     1      -3.655  11.950   6.390  1.00  0.00     0.096 C 
HETATM    4  S1  UNL     1      -4.090  10.531   5.311  1.00  0.00    -0.055 SA
HETATM    5  N1  UNL     1      -2.869  10.597   4.018  1.00  0.00    -0.136 NA
HETATM    6  C4  UNL     1      -1.595  10.461   4.633  1.00  0.00     0.166 C 
ENDROOT
BRANCH   1   7
HETATM    7  O1  UNL     1      -0.068  12.030   5.490  1.00  0.00    -0.394 OA
ATOM      8  H1  UNL     1       0.587  11.351   5.389  1.00  0.00     0.210 HD
ENDBRANCH   1   7
BRANCH   5   9
HETATM    9  O2  UNL     1      -3.032  11.655   3.240  1.00  0.00    -0.302 OA
ATOM     10  H2  UNL     1      -3.022  11.422   2.319  1.00  0.00     0.238 HD
ENDBRANCH   5   9
TORSDOF 2
ENDMDL
MODEL 3
REMARK VINA RESULT: -3.652771852      3.648      3.990
REMARK  2 active torsions:
REMARK  status: ('A' for Active; 'I' for Inactive)
REMARK    1  A    between atoms: O1_1  and  C1_3 
REMARK    2  A    between atoms: N1_7  and  O2_8 
ROOT
HETATM    1  C1  UNL     1      -1.562  12.177   6.909  1.00  0.00     0.135 C 
HETATM    2  C2  UNL     1      -1.610  12.137   5.412  1.00  0.00     0.044 C 
HETATM    3  C3  UNL     1      -1.600  10.764   4.829  1.00  0.00     0.096 C 
HETATM    4  S1  UNL     1      -0.362   9.747   5.724  1.00  0.00    -0.055 SA
HETATM    5  N1  UNL     1       0.561  10.943   6.665  1.00  0.00    -0.136 NA
HETATM    6  C4  UNL     1      -0.354  11.598   7.531  1.00  0.00     0.166 C 
ENDROOT
BRANCH   1   7
HETATM    7  O1  UNL     1      -1.672  13.530   7.284  1.00  0.00    -0.394 OA
ATOM      8  H1  UNL     1      -1.240  14.038   6.607  1.00  0.00     0.210 HD
ENDBRANCH   1   7
BRANCH   5   9
HETATM    9  O2  UNL     1       1.291  11.726   5.885  1.00  0.00    -0.302 OA
ATOM     10  H2  UNL     1       0.995  12.628   5.914  1.00  0.00     0.238 HD
ENDBRANCH   5   9
TORSDOF 2
ENDMDL
MODEL 4
REMARK VINA RESULT: -3.564368075      2.114      2.570
REMARK  2 active torsions:
REMARK  status: ('A' for Active; 'I' for Inactive)
REMARK    1  A    between atoms: O1_1  and  C1_3 
REMARK    2  A    between atoms: N1_7  and  O2_8 
ROOT
HETATM    1  C1  UNL     1      -2.044  11.718   6.131  1.00  0.00     0.135 C 
HETATM    2  C2  UNL     1      -3.497  12.068   6.225  1.00  0.00     0.044 C 
HETATM    3  C3  UNL     1      -4.425  10.916   6.038  1.00  0.00     0.096 C 
HETATM    4  S1  UNL     1      -3.827   9.893   4.636  1.00  0.00    -0.055 SA
HETATM    5  N1  UNL     1      -2.598  10.921   3.862  1.00  0.00    -0.136 NA
HETATM    6  C4  UNL     1      -1.593  11.181   4.831  1.00  0.00     0.166 C 
ENDROOT
BRANCH   1   7
HETATM    7  O1  UNL     1      -1.322  12.893   6.421  1.00  0.00    -0.394 OA
ATOM      8  H1  UNL     1      -0.602  12.932   5.803  1.00  0.00     0.210 HD
ENDBRANCH   1   7
BRANCH   5   9
HETATM    9  O2  UNL     1      -3.137  11.981   3.281  1.00  0.00    -0.302 OA
ATOM     10  H2  UNL     1      -3.120  11.911   2.333  1.00  0.00     0.238 HD
ENDBRANCH   5   9
TORSDOF 2
ENDMDL
MODEL 5
REMARK VINA RESULT: -3.560310727      1.138      1.199
REMARK  2 active torsions:
REMARK  status: ('A' for Active; 'I' for Inactive)
REMARK    1  A    between atoms: O1_1  and  C1_3 
REMARK    2  A    between atoms: N1_7  and  O2_8 
ROOT
HETATM    1  C1  UNL     1      -4.033  12.452   5.244  1.00  0.00     0.135 C 
HETATM    2  C2  UNL     1      -4.287  11.218   6.055  1.00  0.00     0.044 C 
HETATM    3  C3  UNL     1      -3.055  10.503   6.497  1.00  0.00     0.096 C 
HETATM    4  S1  UNL     1      -1.869  10.442   5.098  1.00  0.00    -0.055 SA
HETATM    5  N1  UNL     1      -2.848  10.938   3.697  1.00  0.00    -0.136 NA
HETATM    6  C4  UNL     1      -3.331  12.248   3.962  1.00  0.00     0.166 C 
ENDROOT
BRANCH   1   7
HETATM    7  O1  UNL     1      -5.289  13.041   4.996  1.00  0.00    -0.394 OA
ATOM      8  H1  UNL     1      -5.155  13.695   4.320  1.00  0.00     0.210 HD
ENDBRANCH   1   7
BRANCH   5   9
HETATM    9  O2  UNL     1      -3.760  10.031   3.387  1.00  0.00    -0.302 OA
ATOM     10  H2  UNL     1      -4.518  10.421   2.968  1.00  0.00     0.238 HD
ENDBRANCH   5   9
TORSDOF 2
ENDMDL
