MODEL 1
REMARK VINA RESULT: -4.600964039      0.000      0.000
REMARK  0 active torsions:
REMARK  status: ('A' for Active; 'I' for Inactive)
ROOT
HETATM    1  C1  UNL     1      -4.903   4.787  14.931  1.00  0.00     0.048 C 
HETATM    2  C2  UNL     1      -5.172   3.307  15.088  1.00  0.00     0.143 C 
HETATM    3  C3  UNL     1      -4.999   2.667  13.747  1.00  0.00     0.048 C 
HETATM    4  C4  UNL     1      -4.256   2.780  16.144  1.00  0.00     0.209 C 
HETATM    5  O1  UNL     1      -4.996   1.838  16.875  1.00  0.00    -0.352 OA
HETATM    6  C5  UNL     1      -6.276   2.402  16.901  1.00  0.00     0.219 C 
HETATM    7  C6  UNL     1      -7.296   1.297  17.145  1.00  0.00     0.078 C 
HETATM    8  C7  UNL     1      -6.441   3.419  17.991  1.00  0.00     0.078 C 
HETATM    9  N1  UNL     1      -6.474   3.018  15.599  1.00  0.00    -0.034 N 
ATOM     10  H11 UNL     1      -7.041   2.454  14.966  1.00  0.00     0.281 HD
ATOM     11  H12 UNL     1      -7.088   3.832  15.626  1.00  0.00     0.281 HD
ENDROOT
TORSDOF 0
ENDMDL
MODEL 2
REMARK VINA RESULT: -4.535877995      1.554      2.847
REMARK  0 active torsions:
REMARK  status: ('A' for Active; 'I' for Inactive)
ROOT
HETATM    1  C1  UNL     1      -6.391   3.829  17.459  1.00  0.00     0.048 C 
HETATM    2  C2  UNL     1      -5.684   4.051  16.140  1.00  0.00     0.143 C 
HETATM    3  C3  UNL     1      -6.018   5.432  15.670  1.00  0.00     0.048 C 
HETATM    4  C4  UNL     1      -4.225   3.810  16.350  1.00  0.00     0.209 C 
HETATM    5  O1  UNL     1      -3.761   3.163  15.194  1.00  0.00    -0.352 OA
HETATM    6  C5  UNL     1      -4.836   2.338  14.847  1.00  0.00     0.219 C 
HETATM    7  C6  UNL     1      -4.743   2.004  13.363  1.00  0.00     0.078 C 
HETATM    8  C7  UNL     1      -4.843   1.043  15.604  1.00  0.00     0.078 C 
HETATM    9  N1  UNL     1      -6.041   3.099  15.137  1.00  0.00    -0.034 N 
ATOM     10  H11 UNL     1      -6.462   3.521  14.309  1.00  0.00     0.281 HD
ATOM     11  H12 UNL     1      -6.835   2.515  15.398  1.00  0.00     0.281 HD
ENDROOT
TORSDOF 0
ENDMDL
MODEL 3
REMARK VINA RESULT: -4.499491224      1.292      3.401
REMARK  0 active torsions:
REMARK  status: ('A' for Active; 'I' for Inactive)
ROOT
HETATM    1  C1  UNL     1      -7.557   1.315  16.975  1.00  0.00     0.048 C 
HETATM    2  C2  UNL     1      -6.522   2.340  17.381  1.00  0.00     0.143 C 
HETATM    3  C3  UNL     1      -6.453   2.352  18.876  1.00  0.00     0.048 C 
HETATM    4  C4  UNL     1      -5.236   1.991  16.709  1.00  0.00     0.209 C 
HETATM    5  O1  UNL     1      -4.642   3.206  16.335  1.00  0.00    -0.352 OA
HETATM    6  C5  UNL     1      -5.742   3.988  15.967  1.00  0.00     0.219 C 
HETATM    7  C6  UNL     1      -5.360   5.459  16.074  1.00  0.00     0.078 C 
HETATM    8  C7  UNL     1      -6.187   3.738  14.556  1.00  0.00     0.078 C 
HETATM    9  N1  UNL     1      -6.807   3.655  16.900  1.00  0.00    -0.034 N 
ATOM     10  H11 UNL     1      -6.922   4.343  17.644  1.00  0.00     0.281 HD
ATOM     11  H12 UNL     1      -7.739   3.746  16.498  1.00  0.00     0.281 HD
ENDROOT
TORSDOF 0
ENDMDL
MODEL 4
REMARK VINA RESULT: -4.492264240      1.526      1.972
REMARK  0 active torsions:
REMARK  status: ('A' for Active; 'I' for Inactive)
ROOT
HETATM    1  C1  UNL     1      -5.619   4.782  15.729  1.00  0.00     0.048 C 
HETATM    2  C2  UNL     1      -4.616   3.749  15.266  1.00  0.00     0.143 C 
HETATM    3  C3  UNL     1      -3.867   4.329  14.107  1.00  0.00     0.048 C 
HETATM    4  C4  UNL     1      -3.758   3.382  16.431  1.00  0.00     0.209 C 
HETATM    5  O1  UNL     1      -3.521   2.003  16.330  1.00  0.00    -0.352 OA
HETATM    6  C5  UNL     1      -4.735   1.516  15.834  1.00  0.00     0.219 C 
HETATM    7  C6  UNL     1      -4.487   0.178  15.149  1.00  0.00     0.078 C 
HETATM    8  C7  UNL     1      -5.755   1.291  16.911  1.00  0.00     0.078 C 
HETATM    9  N1  UNL     1      -5.213   2.509  14.884  1.00  0.00    -0.034 N 
ATOM     10  H11 UNL     1      -5.036   2.256  13.912  1.00  0.00     0.281 HD
ATOM     11  H12 UNL     1      -6.230   2.552  14.821  1.00  0.00     0.281 HD
ENDROOT
TORSDOF 0
ENDMDL
MODEL 5
REMARK VINA RESULT: -4.404368136      2.418      3.864
REMARK  0 active torsions:
REMARK  status: ('A' for Active; 'I' for Inactive)
ROOT
HETATM    1  C1  UNL     1      -5.976   5.124  15.349  1.00  0.00     0.048 C 
HETATM    2  C2  UNL     1      -5.080   4.497  16.395  1.00  0.00     0.143 C 
HETATM    3  C3  UNL     1      -5.951   4.013  17.511  1.00  0.00     0.048 C 
HETATM    4  C4  UNL     1      -4.277   3.426  15.734  1.00  0.00     0.209 C 
HETATM    5  O1  UNL     1      -2.996   3.483  16.305  1.00  0.00    -0.352 OA
HETATM    6  C5  UNL     1      -2.803   4.855  16.498  1.00  0.00     0.219 C 
HETATM    7  C6  UNL     1      -1.756   5.058  17.586  1.00  0.00     0.078 C 
HETATM    8  C7  UNL     1      -2.314   5.552  15.263  1.00  0.00     0.078 C 
HETATM    9  N1  UNL     1      -4.091   5.392  16.905  1.00  0.00    -0.034 N 
ATOM     10  H11 UNL     1      -4.165   5.547  17.911  1.00  0.00     0.281 HD
ATOM     11  H12 UNL     1      -4.235   6.360  16.618  1.00  0.00     0.281 HD
ENDROOT
TORSDOF 0
ENDMDL
