MODEL 1
REMARK VINA RESULT: -8.681053764      0.000      0.000
REMARK  15 active torsions:
REMARK  status: ('A' for Active; 'I' for Inactive)
REMARK    1  A    between atoms: N1_1  and  C1_5 
REMARK    2  A    between atoms: C1_5  and  C2_6 
REMARK    3  A    between atoms: C2_6  and  C3_7 
REMARK    4  A    between atoms: C3_7  and  C4_8 
REMARK    5  A    between atoms: C4_8  and  N2_9 
REMARK    6  A    between atoms: N2_9  and  C5_11 
REMARK    7  A    between atoms: C6_14  and  C7_15 
REMARK       I    between atoms: C7_15  and  N4_17 
REMARK    8  A    between atoms: N4_17  and  C8_19 
REMARK    9  A    between atoms: C11_22  and  N5_23 
REMARK   10  A    between atoms: N5_23  and  C12_25 
REMARK   11  A    between atoms: C12_25  and  C13_26 
REMARK   12  A    between atoms: C13_26  and  C14_27 
REMARK   13  A    between atoms: C14_27  and  C15_28 
REMARK   14  A    between atoms: C15_28  and  C16_29 
REMARK   15  A    between atoms: C16_29  and  C17_30 
ROOT
HETATM    1  C5  UNL     1      51.683  19.048  -5.622  1.00  0.00     0.147 A 
HETATM    2  N3  UNL     1      51.339  19.981  -6.502  1.00  0.00    -0.330 N 
ATOM      3  H3  UNL     1      51.458  20.969  -6.278  1.00  0.00     0.168 HD
HETATM    4  C6  UNL     1      50.846  19.619  -7.663  1.00  0.00     0.136 A 
HETATM    5  C11 UNL     1      50.714  18.276  -7.897  1.00  0.00     0.106 A 
HETATM    6  S1  UNL     1      51.311  17.601  -6.428  1.00  0.00    -0.034 SA
ENDROOT
BRANCH   5   7
HETATM    7  N5  UNL     1      50.189  17.560  -9.024  1.00  0.00    -0.382 N 
ATOM      8  H5  UNL     1      50.802  17.117  -9.708  1.00  0.00     0.160 HD
BRANCH   7   9
HETATM    9  C12 UNL     1      48.716  17.494  -9.145  1.00  0.00     0.120 C 
BRANCH   9  10
HETATM   10  C13 UNL     1      48.320  18.113 -10.481  1.00  0.00     0.020 C 
BRANCH  10  11
HETATM   11  C14 UNL     1      47.279  19.173 -10.163  1.00  0.00     0.002 C 
BRANCH  11  12
HETATM   12  C15 UNL     1      46.821  19.910 -11.374  1.00  0.00     0.005 C 
BRANCH  12  13
HETATM   13  C16 UNL     1      45.398  19.613 -11.761  1.00  0.00     0.041 C 
BRANCH  13  14
HETATM   14  C17 UNL     1      45.436  18.529 -12.775  1.00  0.00    -0.030 A 
HETATM   15  C18 UNL     1      46.284  18.426 -13.854  1.00  0.00     0.096 A 
HETATM   16  N6  UNL     1      45.996  17.297 -14.535  1.00  0.00    -0.360 N 
HETATM   17  C19 UNL     1      44.982  16.647 -13.942  1.00  0.00     0.111 A 
ATOM     18  H6  UNL     1      46.477  16.984 -15.377  1.00  0.00     0.165 HD
HETATM   19  C20 UNL     1      44.311  15.475 -14.217  1.00  0.00     0.273 A 
HETATM   20  C23 UNL     1      44.627  17.407 -12.844  1.00  0.00     0.005 A 
HETATM   21  O2  UNL     1      44.603  14.756 -15.204  1.00  0.00    -0.266 OA
HETATM   22  N7  UNL     1      43.310  15.065 -13.420  1.00  0.00    -0.332 N 
HETATM   23  C21 UNL     1      42.936  15.777 -12.345  1.00  0.00     0.092 A 
ATOM     24  H7  UNL     1      42.823  14.195 -13.636  1.00  0.00     0.168 HD
HETATM   25  C22 UNL     1      43.583  16.969 -12.025  1.00  0.00     0.031 A 
ENDBRANCH  13  14
ENDBRANCH  12  13
ENDBRANCH  11  12
ENDBRANCH  10  11
ENDBRANCH   9  10
ENDBRANCH   7   9
ENDBRANCH   5   7
BRANCH   4  26
HETATM   26  C7  UNL     1      50.439  20.599  -8.721  1.00  0.00     0.271 C 
HETATM   27  O1  UNL     1      49.591  21.493  -8.503  1.00  0.00    -0.266 OA
HETATM   28  N4  UNL     1      51.040  20.501 -10.003  1.00  0.00    -0.351 N 
ATOM     29  H4  UNL     1      51.734  19.782 -10.210  1.00  0.00     0.163 HD
BRANCH  28  30
HETATM   30  C8  UNL     1      50.623  21.473 -11.020  1.00  0.00     0.085 A 
HETATM   31  C9  UNL     1      51.658  21.749 -12.057  1.00  0.00     0.027 A 
HETATM   32  C10 UNL     1      50.354  21.008 -12.403  1.00  0.00     0.027 A 
ENDBRANCH  28  30
ENDBRANCH   4  26
BRANCH   1  33
HETATM   33  N2  UNL     1      52.186  19.200  -4.423  1.00  0.00    -0.370 N 
ATOM     34  H2  UNL     1      52.237  20.125  -3.996  1.00  0.00     0.161 HD
BRANCH  33  35
HETATM   35  C4  UNL     1      52.663  18.051  -3.726  1.00  0.00     0.121 C 
BRANCH  35  36
HETATM   36  C3  UNL     1      54.061  18.313  -3.281  1.00  0.00     0.021 C 
BRANCH  36  37
HETATM   37  C2  UNL     1      54.207  18.355  -1.791  1.00  0.00     0.029 C 
BRANCH  37  38
HETATM   38  C1  UNL     1      54.760  19.682  -1.361  1.00  0.00     0.229 C 
BRANCH  38  39
HETATM   39  N1  UNL     1      53.692  20.674  -1.430  1.00  0.00    -0.079 N 
ATOM     40  H13 UNL     1      54.019  21.578  -1.772  1.00  0.00     0.274 HD
ATOM     41  H12 UNL     1      53.023  20.478  -2.174  1.00  0.00     0.274 HD
ATOM     42  H11 UNL     1      53.250  20.740  -0.514  1.00  0.00     0.274 HD
ENDBRANCH  38  39
ENDBRANCH  37  38
ENDBRANCH  36  37
ENDBRANCH  35  36
ENDBRANCH  33  35
ENDBRANCH   1  33
TORSDOF 15
ENDMDL
MODEL 2
REMARK VINA RESULT: -8.645563564      2.862      3.379
REMARK  15 active torsions:
REMARK  status: ('A' for Active; 'I' for Inactive)
REMARK    1  A    between atoms: N1_1  and  C1_5 
REMARK    2  A    between atoms: C1_5  and  C2_6 
REMARK    3  A    between atoms: C2_6  and  C3_7 
REMARK    4  A    between atoms: C3_7  and  C4_8 
REMARK    5  A    between atoms: C4_8  and  N2_9 
REMARK    6  A    between atoms: N2_9  and  C5_11 
REMARK    7  A    between atoms: C6_14  and  C7_15 
REMARK       I    between atoms: C7_15  and  N4_17 
REMARK    8  A    between atoms: N4_17  and  C8_19 
REMARK    9  A    between atoms: C11_22  and  N5_23 
REMARK   10  A    between atoms: N5_23  and  C12_25 
REMARK   11  A    between atoms: C12_25  and  C13_26 
REMARK   12  A    between atoms: C13_26  and  C14_27 
REMARK   13  A    between atoms: C14_27  and  C15_28 
REMARK   14  A    between atoms: C15_28  and  C16_29 
REMARK   15  A    between atoms: C16_29  and  C17_30 
ROOT
HETATM    1  C5  UNL     1      51.694  18.964  -5.587  1.00  0.00     0.147 A 
HETATM    2  N3  UNL     1      51.346  19.896  -6.466  1.00  0.00    -0.330 N 
ATOM      3  H3  UNL     1      51.447  20.885  -6.235  1.00  0.00     0.168 HD
HETATM    4  C6  UNL     1      50.872  19.533  -7.634  1.00  0.00     0.136 A 
HETATM    5  C11 UNL     1      50.764  18.189  -7.877  1.00  0.00     0.106 A 
HETATM    6  S1  UNL     1      51.354  17.516  -6.404  1.00  0.00    -0.034 SA
ENDROOT
BRANCH   5   7
HETATM    7  N5  UNL     1      50.263  17.471  -9.013  1.00  0.00    -0.382 N 
ATOM      8  H5  UNL     1      50.887  16.970  -9.646  1.00  0.00     0.160 HD
BRANCH   7   9
HETATM    9  C12 UNL     1      48.799  17.491  -9.224  1.00  0.00     0.120 C 
BRANCH   9  10
HETATM   10  C13 UNL     1      48.534  17.722 -10.708  1.00  0.00     0.020 C 
BRANCH  10  11
HETATM   11  C14 UNL     1      47.630  18.942 -10.790  1.00  0.00     0.002 C 
BRANCH  11  12
HETATM   12  C15 UNL     1      46.428  18.825  -9.918  1.00  0.00     0.005 C 
BRANCH  12  13
HETATM   13  C16 UNL     1      45.370  17.907 -10.465  1.00  0.00     0.041 C 
BRANCH  13  14
HETATM   14  C17 UNL     1      44.762  17.200  -9.309  1.00  0.00    -0.030 A 
HETATM   15  C18 UNL     1      45.420  16.539  -8.296  1.00  0.00     0.096 A 
HETATM   16  N6  UNL     1      44.510  16.027  -7.441  1.00  0.00    -0.360 N 
HETATM   17  C19 UNL     1      43.269  16.328  -7.853  1.00  0.00     0.111 A 
ATOM     18  H6  UNL     1      44.733  15.491  -6.604  1.00  0.00     0.165 HD
HETATM   19  C20 UNL     1      42.010  16.058  -7.363  1.00  0.00     0.273 A 
HETATM   20  C23 UNL     1      43.416  17.059  -9.017  1.00  0.00     0.005 A 
HETATM   21  O2  UNL     1      41.833  15.398  -6.310  1.00  0.00    -0.266 OA
HETATM   22  N7  UNL     1      40.920  16.504  -8.011  1.00  0.00    -0.332 N 
HETATM   23  C21 UNL     1      41.023  17.217  -9.143  1.00  0.00     0.092 A 
ATOM     24  H7  UNL     1      39.995  16.297  -7.634  1.00  0.00     0.168 HD
HETATM   25  C22 UNL     1      42.274  17.516  -9.681  1.00  0.00     0.031 A 
ENDBRANCH  13  14
ENDBRANCH  12  13
ENDBRANCH  11  12
ENDBRANCH  10  11
ENDBRANCH   9  10
ENDBRANCH   7   9
ENDBRANCH   5   7
BRANCH   4  26
HETATM   26  C7  UNL     1      50.463  20.512  -8.692  1.00  0.00     0.271 C 
HETATM   27  O1  UNL     1      49.601  21.393  -8.479  1.00  0.00    -0.266 OA
HETATM   28  N4  UNL     1      51.077  20.427  -9.969  1.00  0.00    -0.351 N 
ATOM     29  H4  UNL     1      51.782  19.719 -10.172  1.00  0.00     0.163 HD
BRANCH  28  30
HETATM   30  C8  UNL     1      50.657  21.398 -10.985  1.00  0.00     0.085 A 
HETATM   31  C9  UNL     1      51.707  21.712 -11.996  1.00  0.00     0.027 A 
HETATM   32  C10 UNL     1      50.431  20.940 -12.379  1.00  0.00     0.027 A 
ENDBRANCH  28  30
ENDBRANCH   4  26
BRANCH   1  33
HETATM   33  N2  UNL     1      52.180  19.117  -4.381  1.00  0.00    -0.370 N 
ATOM     34  H2  UNL     1      51.765  19.790  -3.736  1.00  0.00     0.161 HD
BRANCH  33  35
HETATM   35  C4  UNL     1      53.302  18.329  -3.986  1.00  0.00     0.121 C 
BRANCH  35  36
HETATM   36  C3  UNL     1      52.959  17.619  -2.722  1.00  0.00     0.021 C 
BRANCH  36  37
HETATM   37  C2  UNL     1      52.456  18.536  -1.649  1.00  0.00     0.029 C 
BRANCH  37  38
HETATM   38  C1  UNL     1      53.607  19.195  -0.948  1.00  0.00     0.229 C 
BRANCH  38  39
HETATM   39  N1  UNL     1      53.693  20.580  -1.397  1.00  0.00    -0.079 N 
ATOM     40  H13 UNL     1      54.577  21.020  -1.141  1.00  0.00     0.274 HD
ATOM     41  H12 UNL     1      53.786  20.658  -2.409  1.00  0.00     0.274 HD
ATOM     42  H11 UNL     1      52.886  21.089  -1.039  1.00  0.00     0.274 HD
ENDBRANCH  38  39
ENDBRANCH  37  38
ENDBRANCH  36  37
ENDBRANCH  35  36
ENDBRANCH  33  35
ENDBRANCH   1  33
TORSDOF 15
ENDMDL
MODEL 3
REMARK VINA RESULT: -8.502567603      2.150      2.888
REMARK  15 active torsions:
REMARK  status: ('A' for Active; 'I' for Inactive)
REMARK    1  A    between atoms: N1_1  and  C1_5 
REMARK    2  A    between atoms: C1_5  and  C2_6 
REMARK    3  A    between atoms: C2_6  and  C3_7 
REMARK    4  A    between atoms: C3_7  and  C4_8 
REMARK    5  A    between atoms: C4_8  and  N2_9 
REMARK    6  A    between atoms: N2_9  and  C5_11 
REMARK    7  A    between atoms: C6_14  and  C7_15 
REMARK       I    between atoms: C7_15  and  N4_17 
REMARK    8  A    between atoms: N4_17  and  C8_19 
REMARK    9  A    between atoms: C11_22  and  N5_23 
REMARK   10  A    between atoms: N5_23  and  C12_25 
REMARK   11  A    between atoms: C12_25  and  C13_26 
REMARK   12  A    between atoms: C13_26  and  C14_27 
REMARK   13  A    between atoms: C14_27  and  C15_28 
REMARK   14  A    between atoms: C15_28  and  C16_29 
REMARK   15  A    between atoms: C16_29  and  C17_30 
ROOT
HETATM    1  C5  UNL     1      51.598  19.053  -5.758  1.00  0.00     0.147 A 
HETATM    2  N3  UNL     1      51.320  20.006  -6.639  1.00  0.00    -0.330 N 
ATOM      3  H3  UNL     1      51.553  20.978  -6.436  1.00  0.00     0.168 HD
HETATM    4  C6  UNL     1      50.741  19.685  -7.772  1.00  0.00     0.136 A 
HETATM    5  C11 UNL     1      50.457  18.361  -7.978  1.00  0.00     0.106 A 
HETATM    6  S1  UNL     1      51.040  17.645  -6.523  1.00  0.00    -0.034 SA
ENDROOT
BRANCH   5   7
HETATM    7  N5  UNL     1      49.811  17.692  -9.070  1.00  0.00    -0.382 N 
ATOM      8  H5  UNL     1      50.331  17.094  -9.712  1.00  0.00     0.160 HD
BRANCH   7   9
HETATM    9  C12 UNL     1      48.356  17.911  -9.221  1.00  0.00     0.120 C 
BRANCH   9  10
HETATM   10  C13 UNL     1      47.630  16.947  -8.289  1.00  0.00     0.020 C 
BRANCH  10  11
HETATM   11  C14 UNL     1      46.458  16.394  -9.083  1.00  0.00     0.002 C 
BRANCH  11  12
HETATM   12  C15 UNL     1      45.262  17.281  -9.036  1.00  0.00     0.005 C 
BRANCH  12  13
HETATM   13  C16 UNL     1      44.378  17.171 -10.247  1.00  0.00     0.041 C 
BRANCH  13  14
HETATM   14  C17 UNL     1      44.424  18.481 -10.945  1.00  0.00    -0.030 A 
HETATM   15  C18 UNL     1      43.531  19.521 -10.825  1.00  0.00     0.096 A 
HETATM   16  N6  UNL     1      43.923  20.533 -11.627  1.00  0.00    -0.360 N 
HETATM   17  C19 UNL     1      45.050  20.198 -12.276  1.00  0.00     0.111 A 
ATOM     18  H6  UNL     1      43.435  21.423 -11.726  1.00  0.00     0.165 HD
HETATM   19  C20 UNL     1      45.852  20.845 -13.190  1.00  0.00     0.273 A 
HETATM   20  C23 UNL     1      45.370  18.921 -11.857  1.00  0.00     0.005 A 
HETATM   21  O2  UNL     1      45.596  22.005 -13.596  1.00  0.00    -0.266 OA
HETATM   22  N7  UNL     1      46.948  20.240 -13.678  1.00  0.00    -0.332 N 
HETATM   23  C21 UNL     1      47.291  19.000 -13.294  1.00  0.00     0.092 A 
ATOM     24  H7  UNL     1      47.532  20.733 -14.353  1.00  0.00     0.168 HD
HETATM   25  C22 UNL     1      46.512  18.303 -12.373  1.00  0.00     0.031 A 
ENDBRANCH  13  14
ENDBRANCH  12  13
ENDBRANCH  11  12
ENDBRANCH  10  11
ENDBRANCH   9  10
ENDBRANCH   7   9
ENDBRANCH   5   7
BRANCH   4  26
HETATM   26  C7  UNL     1      50.398  20.690  -8.829  1.00  0.00     0.271 C 
HETATM   27  O1  UNL     1      49.586  21.618  -8.619  1.00  0.00    -0.266 OA
HETATM   28  N4  UNL     1      51.017  20.575 -10.102  1.00  0.00    -0.351 N 
ATOM     29  H4  UNL     1      51.682  19.828 -10.302  1.00  0.00     0.163 HD
BRANCH  28  30
HETATM   30  C8  UNL     1      50.662  21.572 -11.117  1.00  0.00     0.085 A 
HETATM   31  C9  UNL     1      51.740  21.835 -12.113  1.00  0.00     0.027 A 
HETATM   32  C10 UNL     1      50.430  21.134 -12.516  1.00  0.00     0.027 A 
ENDBRANCH  28  30
ENDBRANCH   4  26
BRANCH   1  33
HETATM   33  N2  UNL     1      52.165  19.164  -4.583  1.00  0.00    -0.370 N 
ATOM     34  H2  UNL     1      52.241  20.075  -4.129  1.00  0.00     0.161 HD
BRANCH  33  35
HETATM   35  C4  UNL     1      52.675  17.992  -3.950  1.00  0.00     0.121 C 
BRANCH  35  36
HETATM   36  C3  UNL     1      54.040  18.290  -3.431  1.00  0.00     0.021 C 
BRANCH  36  37
HETATM   37  C2  UNL     1      54.123  18.248  -1.936  1.00  0.00     0.029 C 
BRANCH  37  38
HETATM   38  C1  UNL     1      54.733  19.515  -1.414  1.00  0.00     0.229 C 
BRANCH  38  39
HETATM   39  N1  UNL     1      53.723  20.567  -1.449  1.00  0.00    -0.079 N 
ATOM     40  H13 UNL     1      53.116  20.499  -2.266  1.00  0.00     0.274 HD
ATOM     41  H12 UNL     1      53.007  20.446  -0.733  1.00  0.00     0.274 HD
ATOM     42  H11 UNL     1      54.191  21.470  -1.384  1.00  0.00     0.274 HD
ENDBRANCH  38  39
ENDBRANCH  37  38
ENDBRANCH  36  37
ENDBRANCH  35  36
ENDBRANCH  33  35
ENDBRANCH   1  33
TORSDOF 15
ENDMDL
MODEL 4
REMARK VINA RESULT: -8.483609885      2.774      6.753
REMARK  15 active torsions:
REMARK  status: ('A' for Active; 'I' for Inactive)
REMARK    1  A    between atoms: N1_1  and  C1_5 
REMARK    2  A    between atoms: C1_5  and  C2_6 
REMARK    3  A    between atoms: C2_6  and  C3_7 
REMARK    4  A    between atoms: C3_7  and  C4_8 
REMARK    5  A    between atoms: C4_8  and  N2_9 
REMARK    6  A    between atoms: N2_9  and  C5_11 
REMARK    7  A    between atoms: C6_14  and  C7_15 
REMARK       I    between atoms: C7_15  and  N4_17 
REMARK    8  A    between atoms: N4_17  and  C8_19 
REMARK    9  A    between atoms: C11_22  and  N5_23 
REMARK   10  A    between atoms: N5_23  and  C12_25 
REMARK   11  A    between atoms: C12_25  and  C13_26 
REMARK   12  A    between atoms: C13_26  and  C14_27 
REMARK   13  A    between atoms: C14_27  and  C15_28 
REMARK   14  A    between atoms: C15_28  and  C16_29 
REMARK   15  A    between atoms: C16_29  and  C17_30 
ROOT
HETATM    1  C5  UNL     1      48.362  16.630  -7.742  1.00  0.00     0.147 A 
HETATM    2  N3  UNL     1      49.424  16.875  -6.984  1.00  0.00    -0.330 N 
ATOM      3  H3  UNL     1      49.581  16.340  -6.130  1.00  0.00     0.168 HD
HETATM    4  C6  UNL     1      50.268  17.813  -7.344  1.00  0.00     0.136 A 
HETATM    5  C11 UNL     1      49.995  18.491  -8.502  1.00  0.00     0.106 A 
HETATM    6  S1  UNL     1      48.531  17.741  -9.015  1.00  0.00    -0.034 SA
ENDROOT
BRANCH   5   7
HETATM    7  N5  UNL     1      50.680  19.574  -9.148  1.00  0.00    -0.382 N 
ATOM      8  H5  UNL     1      51.385  19.408  -9.866  1.00  0.00     0.160 HD
BRANCH   7   9
HETATM    9  C12 UNL     1      50.315  20.943  -8.722  1.00  0.00     0.120 C 
BRANCH   9  10
HETATM   10  C13 UNL     1      50.283  21.835  -9.958  1.00  0.00     0.020 C 
BRANCH  10  11
HETATM   11  C14 UNL     1      51.056  21.091 -11.035  1.00  0.00     0.002 C 
BRANCH  11  12
HETATM   12  C15 UNL     1      51.403  21.958 -12.196  1.00  0.00     0.005 C 
BRANCH  12  13
HETATM   13  C16 UNL     1      50.685  21.588 -13.464  1.00  0.00     0.041 C 
BRANCH  13  14
HETATM   14  C17 UNL     1      49.231  21.747 -13.208  1.00  0.00    -0.030 A 
HETATM   15  C18 UNL     1      48.557  22.912 -12.923  1.00  0.00     0.096 A 
HETATM   16  N6  UNL     1      47.248  22.634 -12.753  1.00  0.00    -0.360 N 
HETATM   17  C19 UNL     1      47.031  21.319 -12.916  1.00  0.00     0.111 A 
ATOM     18  H6  UNL     1      46.528  23.321 -12.532  1.00  0.00     0.165 HD
HETATM   19  C20 UNL     1      45.908  20.523 -12.854  1.00  0.00     0.273 A 
HETATM   20  C23 UNL     1      48.261  20.758 -13.201  1.00  0.00     0.005 A 
HETATM   21  O2  UNL     1      44.772  20.993 -12.599  1.00  0.00    -0.266 OA
HETATM   22  N7  UNL     1      46.002  19.201 -13.071  1.00  0.00    -0.332 N 
HETATM   23  C21 UNL     1      47.179  18.620 -13.349  1.00  0.00     0.092 A 
ATOM     24  H7  UNL     1      45.161  18.625 -13.022  1.00  0.00     0.168 HD
HETATM   25  C22 UNL     1      48.345  19.381 -13.422  1.00  0.00     0.031 A 
ENDBRANCH  13  14
ENDBRANCH  12  13
ENDBRANCH  11  12
ENDBRANCH  10  11
ENDBRANCH   9  10
ENDBRANCH   7   9
ENDBRANCH   5   7
BRANCH   4  26
HETATM   26  C7  UNL     1      51.498  18.154  -6.558  1.00  0.00     0.271 C 
HETATM   27  O1  UNL     1      52.565  18.491  -7.116  1.00  0.00    -0.266 OA
HETATM   28  N4  UNL     1      51.437  18.087  -5.142  1.00  0.00    -0.351 N 
ATOM     29  H4  UNL     1      50.580  17.814  -4.660  1.00  0.00     0.163 HD
BRANCH  28  30
HETATM   30  C8  UNL     1      52.655  18.426  -4.398  1.00  0.00     0.085 A 
HETATM   31  C9  UNL     1      52.547  18.214  -2.926  1.00  0.00     0.027 A 
HETATM   32  C10 UNL     1      53.465  17.337  -3.796  1.00  0.00     0.027 A 
ENDBRANCH  28  30
ENDBRANCH   4  26
BRANCH   1  33
HETATM   33  N2  UNL     1      47.412  15.748  -7.559  1.00  0.00    -0.370 N 
ATOM     34  H2  UNL     1      47.454  15.097  -6.775  1.00  0.00     0.161 HD
BRANCH  33  35
HETATM   35  C4  UNL     1      46.319  15.712  -8.476  1.00  0.00     0.121 C 
BRANCH  35  36
HETATM   36  C3  UNL     1      45.177  16.462  -7.879  1.00  0.00     0.021 C 
BRANCH  36  37
HETATM   37  C2  UNL     1      44.168  16.903  -8.895  1.00  0.00     0.029 C 
BRANCH  37  38
HETATM   38  C1  UNL     1      44.823  17.757  -9.940  1.00  0.00     0.229 C 
BRANCH  38  39
HETATM   39  N1  UNL     1      43.826  18.675 -10.481  1.00  0.00    -0.079 N 
ATOM     40  H13 UNL     1      44.211  19.294 -11.194  1.00  0.00     0.274 HD
ATOM     41  H12 UNL     1      43.135  18.203 -11.063  1.00  0.00     0.274 HD
ATOM     42  H11 UNL     1      43.401  19.187  -9.708  1.00  0.00     0.274 HD
ENDBRANCH  38  39
ENDBRANCH  37  38
ENDBRANCH  36  37
ENDBRANCH  35  36
ENDBRANCH  33  35
ENDBRANCH   1  33
TORSDOF 15
ENDMDL
MODEL 5
REMARK VINA RESULT: -8.481999227      1.383      2.386
REMARK  15 active torsions:
REMARK  status: ('A' for Active; 'I' for Inactive)
REMARK    1  A    between atoms: N1_1  and  C1_5 
REMARK    2  A    between atoms: C1_5  and  C2_6 
REMARK    3  A    between atoms: C2_6  and  C3_7 
REMARK    4  A    between atoms: C3_7  and  C4_8 
REMARK    5  A    between atoms: C4_8  and  N2_9 
REMARK    6  A    between atoms: N2_9  and  C5_11 
REMARK    7  A    between atoms: C6_14  and  C7_15 
REMARK       I    between atoms: C7_15  and  N4_17 
REMARK    8  A    between atoms: N4_17  and  C8_19 
REMARK    9  A    between atoms: C11_22  and  N5_23 
REMARK   10  A    between atoms: N5_23  and  C12_25 
REMARK   11  A    between atoms: C12_25  and  C13_26 
REMARK   12  A    between atoms: C13_26  and  C14_27 
REMARK   13  A    between atoms: C14_27  and  C15_28 
REMARK   14  A    between atoms: C15_28  and  C16_29 
REMARK   15  A    between atoms: C16_29  and  C17_30 
ROOT
HETATM    1  C5  UNL     1      51.515  18.924  -5.818  1.00  0.00     0.147 A 
HETATM    2  N3  UNL     1      51.272  19.902  -6.683  1.00  0.00    -0.330 N 
ATOM      3  H3  UNL     1      51.555  20.858  -6.472  1.00  0.00     0.168 HD
HETATM    4  C6  UNL     1      50.666  19.624  -7.813  1.00  0.00     0.136 A 
HETATM    5  C11 UNL     1      50.315  18.318  -8.032  1.00  0.00     0.106 A 
HETATM    6  S1  UNL     1      50.879  17.555  -6.593  1.00  0.00    -0.034 SA
ENDROOT
BRANCH   5   7
HETATM    7  N5  UNL     1      49.624  17.695  -9.124  1.00  0.00    -0.382 N 
ATOM      8  H5  UNL     1      50.089  17.026  -9.738  1.00  0.00     0.160 HD
BRANCH   7   9
HETATM    9  C12 UNL     1      48.206  18.069  -9.318  1.00  0.00     0.120 C 
BRANCH   9  10
HETATM   10  C13 UNL     1      47.360  16.805  -9.205  1.00  0.00     0.020 C 
BRANCH  10  11
HETATM   11  C14 UNL     1      46.041  17.235  -8.584  1.00  0.00     0.002 C 
BRANCH  11  12
HETATM   12  C15 UNL     1      44.860  16.749  -9.351  1.00  0.00     0.005 C 
BRANCH  12  13
HETATM   13  C16 UNL     1      44.155  17.829 -10.125  1.00  0.00     0.041 C 
BRANCH  13  14
HETATM   14  C17 UNL     1      44.649  17.760 -11.523  1.00  0.00    -0.030 A 
HETATM   15  C18 UNL     1      44.394  16.775 -12.450  1.00  0.00     0.096 A 
HETATM   16  N6  UNL     1      45.029  17.079 -13.602  1.00  0.00    -0.360 N 
HETATM   17  C19 UNL     1      45.697  18.235 -13.470  1.00  0.00     0.111 A 
ATOM     18  H6  UNL     1      45.004  16.512 -14.449  1.00  0.00     0.165 HD
HETATM   19  C20 UNL     1      46.488  18.982 -14.315  1.00  0.00     0.273 A 
HETATM   20  C23 UNL     1      45.466  18.668 -12.178  1.00  0.00     0.005 A 
HETATM   21  O2  UNL     1      46.722  18.624 -15.496  1.00  0.00    -0.266 OA
HETATM   22  N7  UNL     1      47.037  20.132 -13.890  1.00  0.00    -0.332 N 
HETATM   23  C21 UNL     1      46.836  20.584 -12.643  1.00  0.00     0.092 A 
ATOM     24  H7  UNL     1      47.620  20.673 -14.529  1.00  0.00     0.168 HD
HETATM   25  C22 UNL     1      46.045  19.865 -11.748  1.00  0.00     0.031 A 
ENDBRANCH  13  14
ENDBRANCH  12  13
ENDBRANCH  11  12
ENDBRANCH  10  11
ENDBRANCH   9  10
ENDBRANCH   7   9
ENDBRANCH   5   7
BRANCH   4  26
HETATM   26  C7  UNL     1      50.360  20.658  -8.854  1.00  0.00     0.271 C 
HETATM   27  O1  UNL     1      49.557  21.593  -8.639  1.00  0.00    -0.266 OA
HETATM   28  N4  UNL     1      51.003  20.562 -10.115  1.00  0.00    -0.351 N 
ATOM     29  H4  UNL     1      51.662  19.810 -10.319  1.00  0.00     0.163 HD
BRANCH  28  30
HETATM   30  C8  UNL     1      50.685  21.588 -11.114  1.00  0.00     0.085 A 
HETATM   31  C9  UNL     1      51.791  21.866 -12.073  1.00  0.00     0.027 A 
HETATM   32  C10 UNL     1      50.487  21.187 -12.530  1.00  0.00     0.027 A 
ENDBRANCH  28  30
ENDBRANCH   4  26
BRANCH   1  33
HETATM   33  N2  UNL     1      52.100  18.993  -4.649  1.00  0.00    -0.370 N 
ATOM     34  H2  UNL     1      52.083  19.860  -4.111  1.00  0.00     0.161 HD
BRANCH  33  35
HETATM   35  C4  UNL     1      52.762  17.836  -4.141  1.00  0.00     0.121 C 
BRANCH  35  36
HETATM   36  C3  UNL     1      54.048  18.261  -3.520  1.00  0.00     0.021 C 
BRANCH  36  37
HETATM   37  C2  UNL     1      54.007  18.262  -2.022  1.00  0.00     0.029 C 
BRANCH  37  38
HETATM   38  C1  UNL     1      54.656  19.503  -1.486  1.00  0.00     0.229 C 
BRANCH  38  39
HETATM   39  N1  UNL     1      53.660  20.568  -1.446  1.00  0.00    -0.079 N 
ATOM     40  H13 UNL     1      53.865  21.319  -2.105  1.00  0.00     0.274 HD
ATOM     41  H12 UNL     1      52.763  20.280  -1.837  1.00  0.00     0.274 HD
ATOM     42  H11 UNL     1      53.578  20.902  -0.486  1.00  0.00     0.274 HD
ENDBRANCH  38  39
ENDBRANCH  37  38
ENDBRANCH  36  37
ENDBRANCH  35  36
ENDBRANCH  33  35
ENDBRANCH   1  33
TORSDOF 15
ENDMDL
