MODEL 1
REMARK VINA RESULT: -7.736951245      0.000      0.000
REMARK  6 active torsions:
REMARK  status: ('A' for Active; 'I' for Inactive)
REMARK    1  A    between atoms: C2_2  and  C3_3 
REMARK    2  A    between atoms: C9_13  and  C10_14 
REMARK    3  A    between atoms: C10_14  and  C11_15 
REMARK    4  A    between atoms: C11_15  and  O3_17 
REMARK    5  A    between atoms: O3_17  and  C12_18 
REMARK    6  A    between atoms: C16_22  and  C17_23 
ROOT
HETATM    1  C3  UNL     1      28.524  74.412  48.073  1.00  0.00    -0.082 C 
HETATM    2  C4  UNL     1      28.058  73.512  48.914  1.00  0.00    -0.022 C 
HETATM    3  C5  UNL     1      27.692  73.266  50.325  1.00  0.00     0.056 C 
HETATM    4  C6  UNL     1      28.475  74.070  51.317  1.00  0.00     0.188 C 
HETATM    5  C7  UNL     1      28.175  73.492  52.650  1.00  0.00     0.073 C 
HETATM    6  N1  UNL     1      27.926  73.056  53.684  1.00  0.00    -0.196 NA
HETATM    7  C8  UNL     1      28.074  75.491  51.316  1.00  0.00     0.236 C 
HETATM    8  O1  UNL     1      27.689  75.895  52.454  1.00  0.00    -0.272 OA
HETATM    9  N2  UNL     1      28.002  76.534  50.378  1.00  0.00    -0.355 N 
ATOM     10  H2  UNL     1      28.020  77.445  50.838  1.00  0.00     0.162 HD
HETATM   11  C9  UNL     1      27.910  76.672  48.957  1.00  0.00     0.097 C 
HETATM   12  C19 UNL     1      28.949  75.826  48.255  1.00  0.00     0.059 C 
ENDROOT
BRANCH   1  13
HETATM   13  C2  UNL     1      28.634  73.896  46.699  1.00  0.00     0.029 C 
HETATM   14  C1  UNL     1      30.070  73.786  46.231  1.00  0.00     0.010 C 
ENDBRANCH   1  13
BRANCH  11  15
HETATM   15  C10 UNL     1      26.539  76.445  48.386  1.00  0.00     0.136 C 
BRANCH  15  16
HETATM   16  C11 UNL     1      26.204  77.653  47.585  1.00  0.00     0.261 C 
HETATM   17  O2  UNL     1      26.829  77.875  46.492  1.00  0.00    -0.265 OA
BRANCH  16  18
HETATM   18  O3  UNL     1      25.253  78.578  47.916  1.00  0.00    -0.316 OA
BRANCH  18  19
HETATM   19  C12 UNL     1      25.587  79.906  48.347  1.00  0.00     0.132 C 
HETATM   20  C13 UNL     1      25.930  80.703  47.127  1.00  0.00     0.032 C 
HETATM   21  C14 UNL     1      24.720  81.366  46.554  1.00  0.00     0.004 C 
HETATM   22  C15 UNL     1      23.972  82.253  47.504  1.00  0.00     0.015 C 
HETATM   23  C16 UNL     1      24.160  81.889  48.945  1.00  0.00     0.089 C 
HETATM   24  C18 UNL     1      24.486  80.443  49.178  1.00  0.00     0.048 C 
BRANCH  23  25
HETATM   25  C17 UNL     1      25.130  82.801  49.608  1.00  0.00     0.177 C 
HETATM   26  O4  UNL     1      25.670  82.522  50.735  1.00  0.00    -0.648 OA
HETATM   27  O5  UNL     1      25.512  84.006  49.047  1.00  0.00    -0.648 OA
ENDBRANCH  23  25
ENDBRANCH  18  19
ENDBRANCH  16  18
ENDBRANCH  15  16
ENDBRANCH  11  15
TORSDOF 6
ENDMDL
MODEL 2
REMARK VINA RESULT: -7.563236355      2.469      7.784
REMARK  6 active torsions:
REMARK  status: ('A' for Active; 'I' for Inactive)
REMARK    1  A    between atoms: C2_2  and  C3_3 
REMARK    2  A    between atoms: C9_13  and  C10_14 
REMARK    3  A    between atoms: C10_14  and  C11_15 
REMARK    4  A    between atoms: C11_15  and  O3_17 
REMARK    5  A    between atoms: O3_17  and  C12_18 
REMARK    6  A    between atoms: C16_22  and  C17_23 
ROOT
HETATM    1  C3  UNL     1      24.594  81.779  47.232  1.00  0.00    -0.082 C 
HETATM    2  C4  UNL     1      24.986  82.982  47.598  1.00  0.00    -0.022 C 
HETATM    3  C5  UNL     1      25.389  83.811  48.754  1.00  0.00     0.056 C 
HETATM    4  C6  UNL     1      24.764  83.407  50.054  1.00  0.00     0.188 C 
HETATM    5  C7  UNL     1      25.057  84.500  51.013  1.00  0.00     0.073 C 
HETATM    6  N1  UNL     1      25.300  85.339  51.761  1.00  0.00    -0.196 NA
HETATM    7  C8  UNL     1      25.340  82.152  50.576  1.00  0.00     0.236 C 
HETATM    8  O1  UNL     1      25.830  82.281  51.739  1.00  0.00    -0.272 OA
HETATM    9  N2  UNL     1      25.494  80.831  50.127  1.00  0.00    -0.355 N 
ATOM     10  H2  UNL     1      25.614  80.186  50.909  1.00  0.00     0.162 HD
HETATM   11  C9  UNL     1      25.531  80.139  48.874  1.00  0.00     0.097 C 
HETATM   12  C19 UNL     1      24.360  80.527  47.999  1.00  0.00     0.059 C 
ENDROOT
BRANCH   1  13
HETATM   13  C2  UNL     1      24.351  81.683  45.784  1.00  0.00     0.029 C 
HETATM   14  C1  UNL     1      25.476  82.275  44.962  1.00  0.00     0.010 C 
ENDBRANCH   1  13
BRANCH  11  15
HETATM   15  C10 UNL     1      26.832  80.244  48.131  1.00  0.00     0.136 C 
BRANCH  15  16
HETATM   16  C11 UNL     1      26.988  78.982  47.360  1.00  0.00     0.261 C 
HETATM   17  O2  UNL     1      26.345  78.832  46.264  1.00  0.00    -0.265 OA
BRANCH  16  18
HETATM   18  O3  UNL     1      27.784  77.931  47.722  1.00  0.00    -0.316 OA
BRANCH  18  19
HETATM   19  C12 UNL     1      27.458  77.056  48.812  1.00  0.00     0.132 C 
HETATM   20  C13 UNL     1      26.435  76.082  48.318  1.00  0.00     0.032 C 
HETATM   21  C14 UNL     1      27.081  74.862  47.743  1.00  0.00     0.004 C 
HETATM   22  C15 UNL     1      28.013  74.142  48.671  1.00  0.00     0.015 C 
HETATM   23  C16 UNL     1      28.605  75.016  49.733  1.00  0.00     0.089 C 
HETATM   24  C18 UNL     1      28.702  76.465  49.355  1.00  0.00     0.048 C 
BRANCH  23  25
HETATM   25  C17 UNL     1      27.919  74.817  51.038  1.00  0.00     0.177 C 
HETATM   26  O4  UNL     1      27.309  73.730  51.330  1.00  0.00    -0.648 OA
HETATM   27  O5  UNL     1      27.900  75.793  52.018  1.00  0.00    -0.648 OA
ENDBRANCH  23  25
ENDBRANCH  18  19
ENDBRANCH  16  18
ENDBRANCH  15  16
ENDBRANCH  11  15
TORSDOF 6
ENDMDL
MODEL 3
REMARK VINA RESULT: -7.525275900      2.778      8.125
REMARK  6 active torsions:
REMARK  status: ('A' for Active; 'I' for Inactive)
REMARK    1  A    between atoms: C2_2  and  C3_3 
REMARK    2  A    between atoms: C9_13  and  C10_14 
REMARK    3  A    between atoms: C10_14  and  C11_15 
REMARK    4  A    between atoms: C11_15  and  O3_17 
REMARK    5  A    between atoms: O3_17  and  C12_18 
REMARK    6  A    between atoms: C16_22  and  C17_23 
ROOT
HETATM    1  C3  UNL     1      24.566  81.803  47.332  1.00  0.00    -0.082 C 
HETATM    2  C4  UNL     1      25.041  82.993  47.639  1.00  0.00    -0.022 C 
HETATM    3  C5  UNL     1      25.470  83.861  48.757  1.00  0.00     0.056 C 
HETATM    4  C6  UNL     1      24.767  83.593  50.053  1.00  0.00     0.188 C 
HETATM    5  C7  UNL     1      25.114  84.719  50.954  1.00  0.00     0.073 C 
HETATM    6  N1  UNL     1      25.399  85.582  51.657  1.00  0.00    -0.196 NA
HETATM    7  C8  UNL     1      25.218  82.332  50.675  1.00  0.00     0.236 C 
HETATM    8  O1  UNL     1      25.675  82.497  51.847  1.00  0.00    -0.272 OA
HETATM    9  N2  UNL     1      25.280  80.977  50.314  1.00  0.00    -0.355 N 
ATOM     10  H2  UNL     1      25.317  80.377  51.139  1.00  0.00     0.162 HD
HETATM   11  C9  UNL     1      25.304  80.204  49.110  1.00  0.00     0.097 C 
HETATM   12  C19 UNL     1      24.201  80.626  48.164  1.00  0.00     0.059 C 
ENDROOT
BRANCH   1  13
HETATM   13  C2  UNL     1      24.367  81.633  45.884  1.00  0.00     0.029 C 
HETATM   14  C1  UNL     1      25.468  82.273  45.065  1.00  0.00     0.010 C 
ENDBRANCH   1  13
BRANCH  11  15
HETATM   15  C10 UNL     1      26.635  80.157  48.415  1.00  0.00     0.136 C 
BRANCH  15  16
HETATM   16  C11 UNL     1      26.655  78.904  47.613  1.00  0.00     0.261 C 
HETATM   17  O2  UNL     1      26.726  78.976  46.338  1.00  0.00    -0.265 OA
BRANCH  16  18
HETATM   18  O3  UNL     1      26.607  77.638  48.128  1.00  0.00    -0.316 OA
BRANCH  18  19
HETATM   19  C12 UNL     1      27.716  76.730  48.043  1.00  0.00     0.132 C 
HETATM   20  C13 UNL     1      28.389  76.714  49.379  1.00  0.00     0.032 C 
HETATM   21  C14 UNL     1      27.804  75.664  50.269  1.00  0.00     0.004 C 
HETATM   22  C15 UNL     1      27.828  74.273  49.709  1.00  0.00     0.015 C 
HETATM   23  C16 UNL     1      27.854  74.224  48.212  1.00  0.00     0.089 C 
HETATM   24  C18 UNL     1      27.239  75.420  47.546  1.00  0.00     0.048 C 
BRANCH  23  25
HETATM   25  C17 UNL     1      29.223  73.938  47.707  1.00  0.00     0.177 C 
HETATM   26  O4  UNL     1      29.508  73.954  46.459  1.00  0.00    -0.648 OA
HETATM   27  O5  UNL     1      30.275  73.639  48.554  1.00  0.00    -0.648 OA
ENDBRANCH  23  25
ENDBRANCH  18  19
ENDBRANCH  16  18
ENDBRANCH  15  16
ENDBRANCH  11  15
TORSDOF 6
ENDMDL
MODEL 4
REMARK VINA RESULT: -7.342926400      3.169      5.048
REMARK  6 active torsions:
REMARK  status: ('A' for Active; 'I' for Inactive)
REMARK    1  A    between atoms: C2_2  and  C3_3 
REMARK    2  A    between atoms: C9_13  and  C10_14 
REMARK    3  A    between atoms: C10_14  and  C11_15 
REMARK    4  A    between atoms: C11_15  and  O3_17 
REMARK    5  A    between atoms: O3_17  and  C12_18 
REMARK    6  A    between atoms: C16_22  and  C17_23 
ROOT
HETATM    1  C3  UNL     1      28.294  75.327  48.144  1.00  0.00    -0.082 C 
HETATM    2  C4  UNL     1      28.707  74.613  47.116  1.00  0.00    -0.022 C 
HETATM    3  C5  UNL     1      28.265  73.881  45.910  1.00  0.00     0.056 C 
HETATM    4  C6  UNL     1      26.888  73.298  46.010  1.00  0.00     0.188 C 
HETATM    5  C7  UNL     1      26.738  72.385  44.850  1.00  0.00     0.073 C 
HETATM    6  N1  UNL     1      26.616  71.693  43.941  1.00  0.00    -0.196 NA
HETATM    7  C8  UNL     1      25.842  74.338  45.933  1.00  0.00     0.236 C 
HETATM    8  O1  UNL     1      25.020  74.140  44.987  1.00  0.00    -0.272 OA
HETATM    9  N2  UNL     1      25.505  75.506  46.634  1.00  0.00    -0.355 N 
ATOM     10  H2  UNL     1      24.522  75.745  46.504  1.00  0.00     0.162 HD
HETATM   11  C9  UNL     1      26.161  76.455  47.481  1.00  0.00     0.097 C 
HETATM   12  C19 UNL     1      26.941  75.765  48.578  1.00  0.00     0.059 C 
ENDROOT
BRANCH   1  13
HETATM   13  C2  UNL     1      29.402  75.759  49.010  1.00  0.00     0.029 C 
HETATM   14  C1  UNL     1      30.480  76.503  48.251  1.00  0.00     0.010 C 
ENDBRANCH   1  13
BRANCH  11  15
HETATM   15  C10 UNL     1      27.004  77.470  46.762  1.00  0.00     0.136 C 
BRANCH  15  16
HETATM   16  C11 UNL     1      26.925  78.729  47.550  1.00  0.00     0.261 C 
HETATM   17  O2  UNL     1      27.612  78.842  48.622  1.00  0.00    -0.265 OA
BRANCH  16  18
HETATM   18  O3  UNL     1      26.164  79.817  47.223  1.00  0.00    -0.316 OA
BRANCH  18  19
HETATM   19  C12 UNL     1      25.638  80.021  45.902  1.00  0.00     0.132 C 
HETATM   20  C13 UNL     1      24.767  81.237  45.947  1.00  0.00     0.032 C 
HETATM   21  C14 UNL     1      25.549  82.476  45.653  1.00  0.00     0.004 C 
HETATM   22  C15 UNL     1      26.285  82.467  44.346  1.00  0.00     0.015 C 
HETATM   23  C16 UNL     1      26.618  81.093  43.849  1.00  0.00     0.089 C 
HETATM   24  C18 UNL     1      26.755  80.063  44.932  1.00  0.00     0.048 C 
BRANCH  23  25
HETATM   25  C17 UNL     1      25.679  80.666  42.778  1.00  0.00     0.177 C 
HETATM   26  O4  UNL     1      24.746  81.427  42.344  1.00  0.00    -0.648 OA
HETATM   27  O5  UNL     1      25.758  79.420  42.182  1.00  0.00    -0.648 OA
ENDBRANCH  23  25
ENDBRANCH  18  19
ENDBRANCH  16  18
ENDBRANCH  15  16
ENDBRANCH  11  15
TORSDOF 6
ENDMDL
MODEL 5
REMARK VINA RESULT: -7.308679623      2.541      7.878
REMARK  6 active torsions:
REMARK  status: ('A' for Active; 'I' for Inactive)
REMARK    1  A    between atoms: C2_2  and  C3_3 
REMARK    2  A    between atoms: C9_13  and  C10_14 
REMARK    3  A    between atoms: C10_14  and  C11_15 
REMARK    4  A    between atoms: C11_15  and  O3_17 
REMARK    5  A    between atoms: O3_17  and  C12_18 
REMARK    6  A    between atoms: C16_22  and  C17_23 
ROOT
HETATM    1  C3  UNL     1      24.800  81.674  46.714  1.00  0.00    -0.082 C 
HETATM    2  C4  UNL     1      25.172  82.833  47.219  1.00  0.00    -0.022 C 
HETATM    3  C5  UNL     1      25.479  83.551  48.474  1.00  0.00     0.056 C 
HETATM    4  C6  UNL     1      24.733  83.050  49.672  1.00  0.00     0.188 C 
HETATM    5  C7  UNL     1      24.951  84.049  50.746  1.00  0.00     0.073 C 
HETATM    6  N1  UNL     1      25.136  84.815  51.583  1.00  0.00    -0.196 NA
HETATM    7  C8  UNL     1      25.242  81.742  50.132  1.00  0.00     0.236 C 
HETATM    8  O1  UNL     1      25.626  81.760  51.341  1.00  0.00    -0.272 OA
HETATM    9  N2  UNL     1      25.421  80.462  49.584  1.00  0.00    -0.355 N 
ATOM     10  H2  UNL     1      25.460  79.750  50.314  1.00  0.00     0.162 HD
HETATM   11  C9  UNL     1      25.562  79.880  48.284  1.00  0.00     0.097 C 
HETATM   12  C19 UNL     1      24.481  80.366  47.344  1.00  0.00     0.059 C 
ENDROOT
BRANCH   1  13
HETATM   13  C2  UNL     1      24.688  81.708  45.248  1.00  0.00     0.029 C 
HETATM   14  C1  UNL     1      25.931  82.257  44.580  1.00  0.00     0.010 C 
ENDBRANCH   1  13
BRANCH  11  15
HETATM   15  C10 UNL     1      26.927  80.022  47.672  1.00  0.00     0.136 C 
BRANCH  15  16
HETATM   16  C11 UNL     1      27.818  79.071  48.389  1.00  0.00     0.261 C 
HETATM   17  O2  UNL     1      28.439  79.461  49.437  1.00  0.00    -0.265 OA
BRANCH  16  18
HETATM   18  O3  UNL     1      28.040  77.772  48.024  1.00  0.00    -0.316 OA
BRANCH  18  19
HETATM   19  C12 UNL     1      27.709  76.664  48.876  1.00  0.00     0.132 C 
HETATM   20  C13 UNL     1      26.506  75.992  48.292  1.00  0.00     0.032 C 
HETATM   21  C14 UNL     1      26.898  74.922  47.325  1.00  0.00     0.004 C 
HETATM   22  C15 UNL     1      27.809  73.868  47.880  1.00  0.00     0.015 C 
HETATM   23  C16 UNL     1      28.635  74.332  49.040  1.00  0.00     0.089 C 
HETATM   24  C18 UNL     1      28.903  75.808  49.054  1.00  0.00     0.048 C 
BRANCH  23  25
HETATM   25  C17 UNL     1      28.073  73.848  50.328  1.00  0.00     0.177 C 
HETATM   26  O4  UNL     1      27.533  72.693  50.447  1.00  0.00    -0.648 OA
HETATM   27  O5  UNL     1      28.100  74.614  51.480  1.00  0.00    -0.648 OA
ENDBRANCH  23  25
ENDBRANCH  18  19
ENDBRANCH  16  18
ENDBRANCH  15  16
ENDBRANCH  11  15
TORSDOF 6
ENDMDL
