MODEL 1
REMARK VINA RESULT: -6.169120050      0.000      0.000
REMARK  4 active torsions:
REMARK  status: ('A' for Active; 'I' for Inactive)
REMARK    1  A    between atoms: C2_2  and  C3_3 
REMARK    2  A    between atoms: C4_5  and  O2_6 
REMARK    3  A    between atoms: C5_9  and  O4_10 
REMARK    4  A    between atoms: C7_12  and  O5_13 
ROOT
HETATM    1  C3  UNL     1      10.213 -40.698 -78.577  1.00  0.00     0.160 C 
HETATM    2  O1  UNL     1       9.821 -40.006 -79.725  1.00  0.00    -0.331 OA
HETATM    3  C4  UNL     1       8.677 -39.268 -79.429  1.00  0.00     0.413 C 
HETATM    4  O3  UNL     1       8.935 -38.270 -78.481  1.00  0.00    -0.306 OA
HETATM    5  C5  UNL     1       9.255 -38.921 -77.297  1.00  0.00     0.295 C 
HETATM    6  C7  UNL     1      10.560 -39.665 -77.562  1.00  0.00     0.202 C 
ENDROOT
BRANCH   1   7
HETATM    7  C2  UNL     1      11.307 -41.656 -78.914  1.00  0.00     0.030 C 
HETATM    8  C1  UNL     1      12.061 -41.315 -80.151  1.00  0.00     0.007 C 
ENDBRANCH   1   7
BRANCH   6   9
HETATM    9  O5  UNL     1      11.001 -40.161 -76.358  1.00  0.00    -0.388 OA
ATOM     10  H5  UNL     1      11.924 -40.383 -76.331  1.00  0.00     0.210 HD
ENDBRANCH   6   9
BRANCH   3  11
HETATM   11  O2  UNL     1       8.160 -38.732 -80.609  1.00  0.00    -0.349 OA
ATOM     12  H2  UNL     1       8.795 -38.844 -81.307  1.00  0.00     0.215 HD
ENDBRANCH   3  11
BRANCH   5  13
HETATM   13  O4  UNL     1       9.323 -38.095 -76.206  1.00  0.00    -0.363 OA
HETATM   14  C6  UNL     1       8.396 -38.379 -75.218  1.00  0.00     0.204 C 
ENDBRANCH   5  13
TORSDOF 4
ENDMDL
MODEL 2
REMARK VINA RESULT: -5.780861656      2.322      3.477
REMARK  4 active torsions:
REMARK  status: ('A' for Active; 'I' for Inactive)
REMARK    1  A    between atoms: C2_2  and  C3_3 
REMARK    2  A    between atoms: C4_5  and  O2_6 
REMARK    3  A    between atoms: C5_9  and  O4_10 
REMARK    4  A    between atoms: C7_12  and  O5_13 
ROOT
HETATM    1  C3  UNL     1      11.540 -41.024 -77.759  1.00  0.00     0.160 C 
HETATM    2  O1  UNL     1      11.178 -40.269 -76.642  1.00  0.00    -0.331 OA
HETATM    3  C4  UNL     1       9.864 -39.835 -76.806  1.00  0.00     0.413 C 
HETATM    4  O3  UNL     1       8.963 -40.907 -76.820  1.00  0.00    -0.306 OA
HETATM    5  C5  UNL     1       9.241 -41.644 -77.964  1.00  0.00     0.295 C 
HETATM    6  C7  UNL     1      10.644 -42.213 -77.771  1.00  0.00     0.202 C 
ENDROOT
BRANCH   1   7
HETATM    7  C2  UNL     1      13.002 -41.326 -77.712  1.00  0.00     0.030 C 
HETATM    8  C1  UNL     1      13.753 -40.907 -78.926  1.00  0.00     0.007 C 
ENDBRANCH   1   7
BRANCH   6   9
HETATM    9  O5  UNL     1      10.871 -43.100 -78.796  1.00  0.00    -0.388 OA
ATOM     10  H5  UNL     1      10.662 -42.771 -79.663  1.00  0.00     0.210 HD
ENDBRANCH   6   9
BRANCH   3  11
HETATM   11  O2  UNL     1       9.555 -38.920 -75.800  1.00  0.00    -0.349 OA
ATOM     12  H2  UNL     1       8.612 -38.804 -75.763  1.00  0.00     0.215 HD
ENDBRANCH   3  11
BRANCH   5  13
HETATM   13  O4  UNL     1       8.309 -42.607 -78.248  1.00  0.00    -0.363 OA
HETATM   14  C6  UNL     1       7.260 -42.667 -77.346  1.00  0.00     0.204 C 
ENDBRANCH   5  13
TORSDOF 4
ENDMDL
MODEL 3
REMARK VINA RESULT: -5.645594843      1.442      2.899
REMARK  4 active torsions:
REMARK  status: ('A' for Active; 'I' for Inactive)
REMARK    1  A    between atoms: C2_2  and  C3_3 
REMARK    2  A    between atoms: C4_5  and  O2_6 
REMARK    3  A    between atoms: C5_9  and  O4_10 
REMARK    4  A    between atoms: C7_12  and  O5_13 
ROOT
HETATM    1  C3  UNL     1      10.261 -40.605 -79.168  1.00  0.00     0.160 C 
HETATM    2  O1  UNL     1      11.075 -41.447 -78.407  1.00  0.00    -0.331 OA
HETATM    3  C4  UNL     1      11.765 -40.673 -77.476  1.00  0.00     0.413 C 
HETATM    4  O3  UNL     1      10.898 -40.080 -76.550  1.00  0.00    -0.306 OA
HETATM    5  C5  UNL     1      10.119 -39.174 -77.259  1.00  0.00     0.295 C 
HETATM    6  C7  UNL     1       9.278 -40.004 -78.224  1.00  0.00     0.202 C 
ENDROOT
BRANCH   1   7
HETATM    7  C2  UNL     1       9.669 -41.370 -80.306  1.00  0.00     0.030 C 
HETATM    8  C1  UNL     1      10.547 -41.462 -81.504  1.00  0.00     0.007 C 
ENDBRANCH   1   7
BRANCH   6   9
HETATM    9  O5  UNL     1       8.363 -39.157 -78.803  1.00  0.00    -0.388 OA
ATOM     10  H5  UNL     1       7.467 -39.472 -78.799  1.00  0.00     0.210 HD
ENDBRANCH   6   9
BRANCH   3  11
HETATM   11  O2  UNL     1      12.725 -41.464 -76.844  1.00  0.00    -0.349 OA
ATOM     12  H2  UNL     1      12.299 -42.013 -76.196  1.00  0.00     0.215 HD
ENDBRANCH   3  11
BRANCH   5  13
HETATM   13  O4  UNL     1       9.364 -38.348 -76.468  1.00  0.00    -0.363 OA
HETATM   14  C6  UNL     1       8.778 -38.978 -75.384  1.00  0.00     0.204 C 
ENDBRANCH   5  13
TORSDOF 4
ENDMDL
MODEL 4
REMARK VINA RESULT: -5.568839910      2.430      3.653
REMARK  4 active torsions:
REMARK  status: ('A' for Active; 'I' for Inactive)
REMARK    1  A    between atoms: C2_2  and  C3_3 
REMARK    2  A    between atoms: C4_5  and  O2_6 
REMARK    3  A    between atoms: C5_9  and  O4_10 
REMARK    4  A    between atoms: C7_12  and  O5_13 
ROOT
HETATM    1  C3  UNL     1      11.451 -42.481 -79.437  1.00  0.00     0.160 C 
HETATM    2  O1  UNL     1      12.825 -42.258 -79.321  1.00  0.00    -0.331 OA
HETATM    3  C4  UNL     1      13.027 -40.939 -78.917  1.00  0.00     0.413 C 
HETATM    4  O3  UNL     1      12.517 -40.707 -77.634  1.00  0.00    -0.306 OA
HETATM    5  C5  UNL     1      11.138 -40.843 -77.724  1.00  0.00     0.295 C 
HETATM    6  C7  UNL     1      10.880 -42.306 -78.073  1.00  0.00     0.202 C 
ENDROOT
BRANCH   1   7
HETATM    7  C2  UNL     1      11.208 -43.813 -80.066  1.00  0.00     0.030 C 
HETATM    8  C1  UNL     1      10.139 -43.815 -81.101  1.00  0.00     0.007 C 
ENDBRANCH   1   7
BRANCH   6   9
HETATM    9  O5  UNL     1       9.525 -42.516 -77.981  1.00  0.00    -0.388 OA
ATOM     10  H5  UNL     1       9.149 -42.337 -77.128  1.00  0.00     0.210 HD
ENDBRANCH   6   9
BRANCH   3  11
HETATM   11  O2  UNL     1      14.388 -40.642 -78.988  1.00  0.00    -0.349 OA
ATOM     12  H2  UNL     1      14.801 -41.220 -79.620  1.00  0.00     0.215 HD
ENDBRANCH   3  11
BRANCH   5  13
HETATM   13  O4  UNL     1      10.462 -40.434 -76.605  1.00  0.00    -0.363 OA
HETATM   14  C6  UNL     1       9.742 -39.264 -76.771  1.00  0.00     0.204 C 
ENDBRANCH   5  13
TORSDOF 4
ENDMDL
MODEL 5
REMARK VINA RESULT: -5.415150109      1.439      4.544
REMARK  4 active torsions:
REMARK  status: ('A' for Active; 'I' for Inactive)
REMARK    1  A    between atoms: C2_2  and  C3_3 
REMARK    2  A    between atoms: C4_5  and  O2_6 
REMARK    3  A    between atoms: C5_9  and  O4_10 
REMARK    4  A    between atoms: C7_12  and  O5_13 
ROOT
HETATM    1  C3  UNL     1       9.537 -39.873 -76.865  1.00  0.00     0.160 C 
HETATM    2  O1  UNL     1      10.905 -40.009 -76.623  1.00  0.00    -0.331 OA
HETATM    3  C4  UNL     1      11.383 -41.082 -77.372  1.00  0.00     0.413 C 
HETATM    4  O3  UNL     1      11.286 -40.838 -78.747  1.00  0.00    -0.306 OA
HETATM    5  C5  UNL     1       9.931 -40.773 -79.044  1.00  0.00     0.295 C 
HETATM    6  C7  UNL     1       9.396 -39.546 -78.311  1.00  0.00     0.202 C 
ENDROOT
BRANCH   1   7
HETATM    7  C2  UNL     1       8.955 -38.871 -75.924  1.00  0.00     0.030 C 
HETATM    8  C1  UNL     1       8.109 -39.457 -74.850  1.00  0.00     0.007 C 
ENDBRANCH   1   7
BRANCH   6   9
HETATM    9  O5  UNL     1       8.104 -39.346 -78.737  1.00  0.00    -0.388 OA
ATOM     10  H5  UNL     1       7.906 -39.703 -79.594  1.00  0.00     0.210 HD
ENDBRANCH   6   9
BRANCH   3  11
HETATM   11  O2  UNL     1      12.698 -41.356 -76.993  1.00  0.00    -0.349 OA
ATOM     12  H2  UNL     1      12.828 -41.077 -76.094  1.00  0.00     0.215 HD
ENDBRANCH   3  11
BRANCH   5  13
HETATM   13  O4  UNL     1       9.653 -40.757 -80.385  1.00  0.00    -0.363 OA
HETATM   14  C6  UNL     1      10.765 -40.890 -81.198  1.00  0.00     0.204 C 
ENDBRANCH   5  13
TORSDOF 4
ENDMDL
