MODEL 1
REMARK VINA RESULT: -5.797670966      0.000      0.000
REMARK  10 active torsions:
REMARK  status: ('A' for Active; 'I' for Inactive)
REMARK    1  A    between atoms: N1_2  and  C2_3 
REMARK    2  A    between atoms: N1_2  and  C4_7 
REMARK    3  A    between atoms: C2_3  and  C3_4 
REMARK    4  A    between atoms: C3_4  and  O1_5 
REMARK    5  A    between atoms: C4_7  and  O2_8 
REMARK    6  A    between atoms: C4_7  and  C5_10 
REMARK    7  A    between atoms: C7_13  and  O4_14 
REMARK    8  A    between atoms: O4_14  and  C8_15 
REMARK    9  A    between atoms: C8_15  and  C9_17 
REMARK   10  A    between atoms: C13_22  and  O7_23 
ROOT
HETATM    1  C5  UNL     1     -25.786 -14.112   6.174  1.00  0.00     0.203 C 
HETATM    2  O3  UNL     1     -26.044 -15.147   5.323  1.00  0.00    -0.375 OA
HETATM    3  C6  UNL     1     -27.168 -14.758   4.567  1.00  0.00     0.204 C 
HETATM    4  C7  UNL     1     -26.751 -13.685   3.625  1.00  0.00     0.191 C 
HETATM    5  C13 UNL     1     -25.533 -12.932   3.992  1.00  0.00     0.094 C 
HETATM    6  C14 UNL     1     -24.384 -13.392   3.084  1.00  0.00     0.046 C 
HETATM    7  C15 UNL     1     -23.155 -13.450   3.935  1.00  0.00     0.000 A 
HETATM    8  C16 UNL     1     -22.257 -12.299   3.589  1.00  0.00     0.032 A 
HETATM    9  C17 UNL     1     -22.083 -11.570   4.851  1.00  0.00    -0.030 A 
HETATM   10  C18 UNL     1     -22.789 -12.105   5.815  1.00  0.00    -0.025 A 
HETATM   11  C19 UNL     1     -23.562 -13.292   5.360  1.00  0.00     0.022 A 
HETATM   12  C20 UNL     1     -25.055 -13.031   5.384  1.00  0.00     0.068 C 
ENDROOT
BRANCH   1  13
HETATM   13  C4  UNL     1     -25.160 -14.423   7.429  1.00  0.00     0.143 C 
BRANCH  13  14
HETATM   14  N1  UNL     1     -24.756 -15.656   7.900  1.00  0.00    -0.366 N 
HETATM   15  C1  UNL     1     -23.335 -16.080   7.606  1.00  0.00     0.151 C 
BRANCH  14  16
HETATM   16  C2  UNL     1     -25.544 -16.553   8.692  1.00  0.00     0.150 C 
BRANCH  16  17
HETATM   17  C3  UNL     1     -26.153 -17.692   7.915  1.00  0.00     0.183 C 
BRANCH  17  18
HETATM   18  O1  UNL     1     -27.186 -17.333   7.097  1.00  0.00    -0.399 OA
ATOM     19  H1  UNL     1     -27.720 -18.058   6.795  1.00  0.00     0.209 HD
ENDBRANCH  17  18
ENDBRANCH  16  17
ENDBRANCH  14  16
ENDBRANCH  13  14
BRANCH  13  20
HETATM   20  O2  UNL     1     -24.919 -13.434   8.270  1.00  0.00    -0.347 OA
ATOM     21  H2  UNL     1     -24.283 -12.808   7.945  1.00  0.00     0.219 HD
ENDBRANCH  13  20
ENDBRANCH   1  13
BRANCH   5  22
HETATM   22  O7  UNL     1     -25.693 -11.559   3.690  1.00  0.00    -0.387 OA
ATOM     23  H7  UNL     1     -24.965 -11.248   3.166  1.00  0.00     0.210 HD
ENDBRANCH   5  22
BRANCH   4  24
HETATM   24  O4  UNL     1     -26.677 -14.268   2.322  1.00  0.00    -0.305 OA
BRANCH  24  25
HETATM   25  C8  UNL     1     -27.768 -14.844   1.702  1.00  0.00     0.317 C 
HETATM   26  O5  UNL     1     -28.852 -14.209   1.737  1.00  0.00    -0.257 OA
BRANCH  25  27
HETATM   27  C9  UNL     1     -27.675 -16.153   1.020  1.00  0.00     0.149 A 
HETATM   28  C10 UNL     1     -27.490 -16.384  -0.321  1.00  0.00     0.045 A 
HETATM   29  C11 UNL     1     -27.463 -17.744  -0.529  1.00  0.00     0.027 A 
HETATM   30  C12 UNL     1     -27.638 -18.298   0.722  1.00  0.00     0.143 A 
HETATM   31  O6  UNL     1     -27.757 -17.307   1.596  1.00  0.00    -0.317 OA
ENDBRANCH  25  27
ENDBRANCH  24  25
ENDBRANCH   4  24
TORSDOF 10
ENDMDL
MODEL 2
REMARK VINA RESULT: -5.742187611      4.452      6.599
REMARK  10 active torsions:
REMARK  status: ('A' for Active; 'I' for Inactive)
REMARK    1  A    between atoms: N1_2  and  C2_3 
REMARK    2  A    between atoms: N1_2  and  C4_7 
REMARK    3  A    between atoms: C2_3  and  C3_4 
REMARK    4  A    between atoms: C3_4  and  O1_5 
REMARK    5  A    between atoms: C4_7  and  O2_8 
REMARK    6  A    between atoms: C4_7  and  C5_10 
REMARK    7  A    between atoms: C7_13  and  O4_14 
REMARK    8  A    between atoms: O4_14  and  C8_15 
REMARK    9  A    between atoms: C8_15  and  C9_17 
REMARK   10  A    between atoms: C13_22  and  O7_23 
ROOT
HETATM    1  C5  UNL     1     -22.416 -11.706   3.810  1.00  0.00     0.203 C 
HETATM    2  O3  UNL     1     -22.587 -12.401   2.648  1.00  0.00    -0.375 OA
HETATM    3  C6  UNL     1     -21.298 -12.790   2.234  1.00  0.00     0.204 C 
HETATM    4  C7  UNL     1     -20.811 -13.852   3.156  1.00  0.00     0.191 C 
HETATM    5  C13 UNL     1     -21.448 -13.901   4.488  1.00  0.00     0.094 C 
HETATM    6  C14 UNL     1     -22.406 -15.100   4.527  1.00  0.00     0.046 C 
HETATM    7  C15 UNL     1     -23.617 -14.663   5.289  1.00  0.00     0.000 A 
HETATM    8  C16 UNL     1     -23.609 -15.307   6.644  1.00  0.00     0.032 A 
HETATM    9  C17 UNL     1     -23.637 -14.184   7.590  1.00  0.00    -0.030 A 
HETATM   10  C18 UNL     1     -23.599 -13.033   6.968  1.00  0.00    -0.025 A 
HETATM   11  C19 UNL     1     -23.539 -13.188   5.490  1.00  0.00     0.022 A 
HETATM   12  C20 UNL     1     -22.210 -12.719   4.932  1.00  0.00     0.068 C 
ENDROOT
BRANCH   1  13
HETATM   13  C4  UNL     1     -23.382 -10.692   4.127  1.00  0.00     0.143 C 
BRANCH  13  14
HETATM   14  N1  UNL     1     -24.512 -10.336   3.418  1.00  0.00    -0.366 N 
HETATM   15  C1  UNL     1     -25.640 -11.342   3.358  1.00  0.00     0.151 C 
BRANCH  14  16
HETATM   16  C2  UNL     1     -24.739  -9.076   2.775  1.00  0.00     0.150 C 
BRANCH  16  17
HETATM   17  C3  UNL     1     -25.714  -8.180   3.496  1.00  0.00     0.183 C 
BRANCH  17  18
HETATM   18  O1  UNL     1     -25.525  -8.107   4.847  1.00  0.00    -0.399 OA
ATOM     19  H1  UNL     1     -26.075  -8.692   5.354  1.00  0.00     0.209 HD
ENDBRANCH  17  18
ENDBRANCH  16  17
ENDBRANCH  14  16
ENDBRANCH  13  14
BRANCH  13  20
HETATM   20  O2  UNL     1     -23.210  -9.986   5.229  1.00  0.00    -0.347 OA
ATOM     21  H2  UNL     1     -24.020  -9.804   5.692  1.00  0.00     0.219 HD
ENDBRANCH  13  20
ENDBRANCH   1  13
BRANCH   5  22
HETATM   22  O7  UNL     1     -20.483 -14.187   5.484  1.00  0.00    -0.387 OA
ATOM     23  H7  UNL     1     -19.981 -13.408   5.692  1.00  0.00     0.210 HD
ENDBRANCH   5  22
BRANCH   4  24
HETATM   24  O4  UNL     1     -20.888 -15.094   2.451  1.00  0.00    -0.305 OA
BRANCH  24  25
HETATM   25  C8  UNL     1     -19.816 -15.631   1.768  1.00  0.00     0.317 C 
HETATM   26  O5  UNL     1     -18.927 -14.835   1.373  1.00  0.00    -0.257 OA
BRANCH  25  27
HETATM   27  C9  UNL     1     -19.707 -17.082   1.506  1.00  0.00     0.149 A 
HETATM   28  C10 UNL     1     -18.799 -17.961   2.044  1.00  0.00     0.045 A 
HETATM   29  C11 UNL     1     -19.049 -19.213   1.533  1.00  0.00     0.027 A 
HETATM   30  C12 UNL     1     -20.122 -19.043   0.683  1.00  0.00     0.143 A 
HETATM   31  O6  UNL     1     -20.466 -17.761   0.711  1.00  0.00    -0.317 OA
ENDBRANCH  25  27
ENDBRANCH  24  25
ENDBRANCH   4  24
TORSDOF 10
ENDMDL
MODEL 3
REMARK VINA RESULT: -5.689088960      2.726      5.416
REMARK  10 active torsions:
REMARK  status: ('A' for Active; 'I' for Inactive)
REMARK    1  A    between atoms: N1_2  and  C2_3 
REMARK    2  A    between atoms: N1_2  and  C4_7 
REMARK    3  A    between atoms: C2_3  and  C3_4 
REMARK    4  A    between atoms: C3_4  and  O1_5 
REMARK    5  A    between atoms: C4_7  and  O2_8 
REMARK    6  A    between atoms: C4_7  and  C5_10 
REMARK    7  A    between atoms: C7_13  and  O4_14 
REMARK    8  A    between atoms: O4_14  and  C8_15 
REMARK    9  A    between atoms: C8_15  and  C9_17 
REMARK   10  A    between atoms: C13_22  and  O7_23 
ROOT
HETATM    1  C5  UNL     1     -26.029 -13.717   4.752  1.00  0.00     0.203 C 
HETATM    2  O3  UNL     1     -25.106 -13.795   3.750  1.00  0.00    -0.375 OA
HETATM    3  C6  UNL     1     -24.408 -12.571   3.768  1.00  0.00     0.204 C 
HETATM    4  C7  UNL     1     -23.543 -12.543   4.978  1.00  0.00     0.191 C 
HETATM    5  C13 UNL     1     -23.940 -13.439   6.084  1.00  0.00     0.094 C 
HETATM    6  C14 UNL     1     -22.974 -14.631   6.116  1.00  0.00     0.046 C 
HETATM    7  C15 UNL     1     -23.791 -15.843   6.438  1.00  0.00     0.000 A 
HETATM    8  C16 UNL     1     -23.515 -16.266   7.851  1.00  0.00     0.032 A 
HETATM    9  C17 UNL     1     -24.826 -16.235   8.511  1.00  0.00    -0.030 A 
HETATM   10  C18 UNL     1     -25.760 -15.807   7.702  1.00  0.00    -0.025 A 
HETATM   11  C19 UNL     1     -25.232 -15.475   6.351  1.00  0.00     0.022 A 
HETATM   12  C20 UNL     1     -25.310 -13.987   6.070  1.00  0.00     0.068 C 
ENDROOT
BRANCH   1  13
HETATM   13  C4  UNL     1     -27.242 -14.471   4.600  1.00  0.00     0.143 C 
BRANCH  13  14
HETATM   14  N1  UNL     1     -28.372 -14.443   5.392  1.00  0.00    -0.366 N 
HETATM   15  C1  UNL     1     -28.990 -15.770   5.768  1.00  0.00     0.151 C 
BRANCH  14  16
HETATM   16  C2  UNL     1     -28.986 -13.269   5.938  1.00  0.00     0.150 C 
BRANCH  16  17
HETATM   17  C3  UNL     1     -29.169 -13.305   7.434  1.00  0.00     0.183 C 
BRANCH  17  18
HETATM   18  O1  UNL     1     -28.015 -13.165   8.151  1.00  0.00    -0.399 OA
ATOM     19  H1  UNL     1     -27.826 -12.276   8.426  1.00  0.00     0.209 HD
ENDBRANCH  17  18
ENDBRANCH  16  17
ENDBRANCH  14  16
ENDBRANCH  13  14
BRANCH  13  20
HETATM   20  O2  UNL     1     -27.334 -15.310   3.583  1.00  0.00    -0.347 OA
ATOM     21  H2  UNL     1     -27.492 -14.879   2.751  1.00  0.00     0.219 HD
ENDBRANCH  13  20
ENDBRANCH   1  13
BRANCH   5  22
HETATM   22  O7  UNL     1     -23.749 -12.796   7.331  1.00  0.00    -0.387 OA
ATOM     23  H7  UNL     1     -23.648 -13.439   8.023  1.00  0.00     0.210 HD
ENDBRANCH   5  22
BRANCH   4  24
HETATM   24  O4  UNL     1     -22.197 -12.753   4.543  1.00  0.00    -0.305 OA
BRANCH  24  25
HETATM   25  C8  UNL     1     -21.747 -12.359   3.299  1.00  0.00     0.317 C 
HETATM   26  O5  UNL     1     -21.899 -11.151   2.986  1.00  0.00    -0.257 OA
BRANCH  25  27
HETATM   27  C9  UNL     1     -21.111 -13.312   2.363  1.00  0.00     0.149 A 
HETATM   28  C10 UNL     1     -20.825 -14.637   2.589  1.00  0.00     0.045 A 
HETATM   29  C11 UNL     1     -20.235 -15.153   1.458  1.00  0.00     0.027 A 
HETATM   30  C12 UNL     1     -20.184 -14.098   0.571  1.00  0.00     0.143 A 
HETATM   31  O6  UNL     1     -20.717 -13.038   1.164  1.00  0.00    -0.317 OA
ENDBRANCH  25  27
ENDBRANCH  24  25
ENDBRANCH   4  24
TORSDOF 10
ENDMDL
MODEL 4
REMARK VINA RESULT: -5.565414074      4.192      7.330
REMARK  10 active torsions:
REMARK  status: ('A' for Active; 'I' for Inactive)
REMARK    1  A    between atoms: N1_2  and  C2_3 
REMARK    2  A    between atoms: N1_2  and  C4_7 
REMARK    3  A    between atoms: C2_3  and  C3_4 
REMARK    4  A    between atoms: C3_4  and  O1_5 
REMARK    5  A    between atoms: C4_7  and  O2_8 
REMARK    6  A    between atoms: C4_7  and  C5_10 
REMARK    7  A    between atoms: C7_13  and  O4_14 
REMARK    8  A    between atoms: O4_14  and  C8_15 
REMARK    9  A    between atoms: C8_15  and  C9_17 
REMARK   10  A    between atoms: C13_22  and  O7_23 
ROOT
HETATM    1  C5  UNL     1     -21.907 -13.304   2.983  1.00  0.00     0.203 C 
HETATM    2  O3  UNL     1     -21.331 -12.090   3.222  1.00  0.00    -0.375 OA
HETATM    3  C6  UNL     1     -22.228 -11.128   2.716  1.00  0.00     0.204 C 
HETATM    4  C7  UNL     1     -23.418 -11.083   3.608  1.00  0.00     0.191 C 
HETATM    5  C13 UNL     1     -23.664 -12.286   4.430  1.00  0.00     0.094 C 
HETATM    6  C14 UNL     1     -23.272 -11.973   5.881  1.00  0.00     0.046 C 
HETATM    7  C15 UNL     1     -22.614 -13.201   6.427  1.00  0.00     0.000 A 
HETATM    8  C16 UNL     1     -23.547 -13.878   7.388  1.00  0.00     0.032 A 
HETATM    9  C17 UNL     1     -23.726 -15.230   6.844  1.00  0.00    -0.030 A 
HETATM   10  C18 UNL     1     -23.087 -15.379   5.711  1.00  0.00    -0.025 A 
HETATM   11  C19 UNL     1     -22.367 -14.144   5.299  1.00  0.00     0.022 A 
HETATM   12  C20 UNL     1     -22.972 -13.533   4.050  1.00  0.00     0.068 C 
ENDROOT
BRANCH   1  13
HETATM   13  C4  UNL     1     -21.033 -14.429   2.799  1.00  0.00     0.143 C 
BRANCH  13  14
HETATM   14  N1  UNL     1     -20.658 -15.035   1.616  1.00  0.00    -0.366 N 
HETATM   15  C1  UNL     1     -20.373 -14.136   0.435  1.00  0.00     0.151 C 
BRANCH  14  16
HETATM   16  C2  UNL     1     -20.461 -16.441   1.418  1.00  0.00     0.150 C 
BRANCH  16  17
HETATM   17  C3  UNL     1     -19.048 -16.907   1.655  1.00  0.00     0.183 C 
BRANCH  17  18
HETATM   18  O1  UNL     1     -18.769 -17.238   2.950  1.00  0.00    -0.399 OA
ATOM     19  H1  UNL     1     -17.856 -17.439   3.118  1.00  0.00     0.209 HD
ENDBRANCH  17  18
ENDBRANCH  16  17
ENDBRANCH  14  16
ENDBRANCH  13  14
BRANCH  13  20
HETATM   20  O2  UNL     1     -20.495 -14.986   3.868  1.00  0.00    -0.347 OA
ATOM     21  H2  UNL     1     -19.840 -14.441   4.289  1.00  0.00     0.219 HD
ENDBRANCH  13  20
ENDBRANCH   1  13
BRANCH   5  22
HETATM   22  O7  UNL     1     -25.050 -12.567   4.491  1.00  0.00    -0.387 OA
ATOM     23  H7  UNL     1     -25.538 -11.932   3.980  1.00  0.00     0.210 HD
ENDBRANCH   5  22
BRANCH   4  24
HETATM   24  O4  UNL     1     -23.323  -9.885   4.383  1.00  0.00    -0.305 OA
BRANCH  24  25
HETATM   25  C8  UNL     1     -23.958  -8.713   4.023  1.00  0.00     0.317 C 
HETATM   26  O5  UNL     1     -25.168  -8.591   4.343  1.00  0.00    -0.257 OA
BRANCH  25  27
HETATM   27  C9  UNL     1     -23.254  -7.639   3.291  1.00  0.00     0.149 A 
HETATM   28  C10 UNL     1     -23.217  -6.302   3.605  1.00  0.00     0.045 A 
HETATM   29  C11 UNL     1     -22.450  -5.655   2.663  1.00  0.00     0.027 A 
HETATM   30  C12 UNL     1     -22.043  -6.646   1.794  1.00  0.00     0.143 A 
HETATM   31  O6  UNL     1     -22.550  -7.796   2.219  1.00  0.00    -0.317 OA
ENDBRANCH  25  27
ENDBRANCH  24  25
ENDBRANCH   4  24
TORSDOF 10
ENDMDL
MODEL 5
REMARK VINA RESULT: -5.553997581      2.765      5.461
REMARK  10 active torsions:
REMARK  status: ('A' for Active; 'I' for Inactive)
REMARK    1  A    between atoms: N1_2  and  C2_3 
REMARK    2  A    between atoms: N1_2  and  C4_7 
REMARK    3  A    between atoms: C2_3  and  C3_4 
REMARK    4  A    between atoms: C3_4  and  O1_5 
REMARK    5  A    between atoms: C4_7  and  O2_8 
REMARK    6  A    between atoms: C4_7  and  C5_10 
REMARK    7  A    between atoms: C7_13  and  O4_14 
REMARK    8  A    between atoms: O4_14  and  C8_15 
REMARK    9  A    between atoms: C8_15  and  C9_17 
REMARK   10  A    between atoms: C13_22  and  O7_23 
ROOT
HETATM    1  C5  UNL     1     -25.929 -13.597   4.883  1.00  0.00     0.203 C 
HETATM    2  O3  UNL     1     -25.019 -13.595   3.867  1.00  0.00    -0.375 OA
HETATM    3  C6  UNL     1     -24.345 -12.361   3.950  1.00  0.00     0.204 C 
HETATM    4  C7  UNL     1     -23.464 -12.387   5.149  1.00  0.00     0.191 C 
HETATM    5  C13 UNL     1     -23.828 -13.356   6.204  1.00  0.00     0.094 C 
HETATM    6  C14 UNL     1     -22.838 -14.527   6.153  1.00  0.00     0.046 C 
HETATM    7  C15 UNL     1     -23.626 -15.773   6.411  1.00  0.00     0.000 A 
HETATM    8  C16 UNL     1     -23.322 -16.274   7.792  1.00  0.00     0.032 A 
HETATM    9  C17 UNL     1     -24.624 -16.310   8.469  1.00  0.00    -0.030 A 
HETATM   10  C18 UNL     1     -25.578 -15.853   7.699  1.00  0.00    -0.025 A 
HETATM   11  C19 UNL     1     -25.075 -15.430   6.364  1.00  0.00     0.022 A 
HETATM   12  C20 UNL     1     -25.186 -13.930   6.174  1.00  0.00     0.068 C 
ENDROOT
BRANCH   1  13
HETATM   13  C4  UNL     1     -27.128 -14.366   4.701  1.00  0.00     0.143 C 
BRANCH  13  14
HETATM   14  N1  UNL     1     -28.220 -14.460   5.541  1.00  0.00    -0.366 N 
HETATM   15  C1  UNL     1     -28.969 -15.772   5.562  1.00  0.00     0.151 C 
BRANCH  14  16
HETATM   16  C2  UNL     1     -28.679 -13.442   6.439  1.00  0.00     0.150 C 
BRANCH  16  17
HETATM   17  C3  UNL     1     -29.156 -12.184   5.758  1.00  0.00     0.183 C 
BRANCH  17  18
HETATM   18  O1  UNL     1     -28.448 -11.061   6.080  1.00  0.00    -0.399 OA
ATOM     19  H1  UNL     1     -28.577 -10.330   5.488  1.00  0.00     0.209 HD
ENDBRANCH  17  18
ENDBRANCH  16  17
ENDBRANCH  14  16
ENDBRANCH  13  14
BRANCH  13  20
HETATM   20  O2  UNL     1     -27.247 -15.089   3.602  1.00  0.00    -0.347 OA
ATOM     21  H2  UNL     1     -26.606 -15.787   3.538  1.00  0.00     0.219 HD
ENDBRANCH  13  20
ENDBRANCH   1  13
BRANCH   5  22
HETATM   22  O7  UNL     1     -23.633 -12.784   7.485  1.00  0.00    -0.387 OA
ATOM     23  H7  UNL     1     -24.345 -13.026   8.066  1.00  0.00     0.210 HD
ENDBRANCH   5  22
BRANCH   4  24
HETATM   24  O4  UNL     1     -22.120 -12.542   4.685  1.00  0.00    -0.305 OA
BRANCH  24  25
HETATM   25  C8  UNL     1     -21.767 -12.386   3.361  1.00  0.00     0.317 C 
HETATM   26  O5  UNL     1     -22.018 -11.277   2.824  1.00  0.00    -0.257 OA
BRANCH  25  27
HETATM   27  C9  UNL     1     -21.120 -13.472   2.593  1.00  0.00     0.149 A 
HETATM   28  C10 UNL     1     -20.627 -13.409   1.312  1.00  0.00     0.045 A 
HETATM   29  C11 UNL     1     -20.110 -14.641   0.984  1.00  0.00     0.027 A 
HETATM   30  C12 UNL     1     -20.315 -15.422   2.103  1.00  0.00     0.143 A 
HETATM   31  O6  UNL     1     -20.916 -14.674   3.020  1.00  0.00    -0.317 OA
ENDBRANCH  25  27
ENDBRANCH  24  25
ENDBRANCH   4  24
TORSDOF 10
ENDMDL
