MODEL 1
REMARK VINA RESULT: -6.564120072      0.000      0.000
REMARK  7 active torsions:
REMARK  status: ('A' for Active; 'I' for Inactive)
REMARK    1  A    between atoms: N1_2  and  C2_4 
REMARK    2  A    between atoms: N3_9  and  C5_10 
REMARK    3  A    between atoms: C5_10  and  C6_11 
REMARK    4  A    between atoms: C6_11  and  N4_12 
REMARK    5  A    between atoms: N4_12  and  C7_13 
REMARK    6  A    between atoms: N4_12  and  C11_21 
REMARK       I    between atoms: N6_16  and  C9_18 
REMARK    7  A    between atoms: C14_24  and  S1_25 
ROOT
HETATM    1  C7  UNL     1     -23.412 -13.137   4.014  1.00  0.00     0.193 C 
HETATM    2  C8  UNL     1     -24.609 -13.451   3.346  1.00  0.00     0.137 C 
HETATM    3  N5  UNL     1     -25.608 -13.733   2.795  1.00  0.00    -0.188 NA
HETATM    4  N6  UNL     1     -23.292 -13.172   5.269  1.00  0.00    -0.304 N 
ATOM      5  H6  UNL     1     -22.367 -12.920   5.616  1.00  0.00     0.171 HD
HETATM    6  C9  UNL     1     -24.217 -13.499   6.255  1.00  0.00     0.219 C 
HETATM    7  C10 UNL     1     -23.749 -13.605   7.685  1.00  0.00     0.117 C 
HETATM    8  O1  UNL     1     -25.456 -13.727   6.072  1.00  0.00    -0.274 OA
ENDROOT
BRANCH   1   9
HETATM    9  N4  UNL     1     -22.260 -12.757   3.239  1.00  0.00    -0.323 N 
BRANCH   9  10
HETATM   10  C6  UNL     1     -21.921 -11.396   3.000  1.00  0.00     0.152 C 
BRANCH  10  11
HETATM   11  C5  UNL     1     -22.919 -10.506   2.380  1.00  0.00     0.167 C 
BRANCH  11  12
HETATM   12  N3  UNL     1     -23.167  -9.242   2.984  1.00  0.00    -0.191 N 
HETATM   13  C2  UNL     1     -24.282  -9.035   3.761  1.00  0.00     0.679 A 
HETATM   14  N2  UNL     1     -24.246  -7.778   4.215  1.00  0.00    -0.201 N 
HETATM   15  C3  UNL     1     -23.149  -7.138   3.768  1.00  0.00     0.124 A 
ATOM     16  H2  UNL     1     -24.954  -7.360   4.818  1.00  0.00     0.183 HD
HETATM   17  C4  UNL     1     -22.500  -8.084   3.003  1.00  0.00     0.126 A 
BRANCH  13  18
HETATM   18  N1  UNL     1     -25.191  -9.931   3.989  1.00  0.00    -0.230 N 
HETATM   19  C1  UNL     1     -26.438  -9.926   3.261  1.00  0.00     0.165 C 
ATOM     20  H1  UNL     1     -25.023 -10.650   4.692  1.00  0.00     0.177 HD
ENDBRANCH  13  18
ENDBRANCH  11  12
ENDBRANCH  10  11
ENDBRANCH   9  10
BRANCH   9  21
HETATM   21  C11 UNL     1     -21.513 -13.812   2.709  1.00  0.00     0.036 A 
HETATM   22  C12 UNL     1     -21.489 -13.975   1.323  1.00  0.00     0.031 A 
HETATM   23  C13 UNL     1     -20.764 -15.027   0.807  1.00  0.00     0.028 A 
HETATM   24  C14 UNL     1     -20.064 -15.922   1.586  1.00  0.00     0.080 A 
HETATM   25  C15 UNL     1     -20.100 -15.745   2.945  1.00  0.00     0.028 A 
HETATM   26  C16 UNL     1     -20.834 -14.679   3.486  1.00  0.00     0.031 A 
BRANCH  24  27
HETATM   27  S1  UNL     1     -19.148 -17.254   0.932  1.00  0.00     0.137 S 
HETATM   28  O2  UNL     1     -20.060 -18.194   0.185  1.00  0.00    -0.591 OA
HETATM   29  O3  UNL     1     -18.037 -16.841   0.050  1.00  0.00    -0.591 OA
HETATM   30  O4  UNL     1     -18.530 -18.146   2.229  1.00  0.00    -0.591 OA
ENDBRANCH  24  27
ENDBRANCH   9  21
ENDBRANCH   1   9
TORSDOF 7
ENDMDL
MODEL 2
REMARK VINA RESULT: -6.534825147      0.807      1.639
REMARK  7 active torsions:
REMARK  status: ('A' for Active; 'I' for Inactive)
REMARK    1  A    between atoms: N1_2  and  C2_4 
REMARK    2  A    between atoms: N3_9  and  C5_10 
REMARK    3  A    between atoms: C5_10  and  C6_11 
REMARK    4  A    between atoms: C6_11  and  N4_12 
REMARK    5  A    between atoms: N4_12  and  C7_13 
REMARK    6  A    between atoms: N4_12  and  C11_21 
REMARK       I    between atoms: N6_16  and  C9_18 
REMARK    7  A    between atoms: C14_24  and  S1_25 
ROOT
HETATM    1  C7  UNL     1     -23.225 -13.164   3.917  1.00  0.00     0.193 C 
HETATM    2  C8  UNL     1     -24.497 -13.292   3.334  1.00  0.00     0.137 C 
HETATM    3  N5  UNL     1     -25.562 -13.419   2.851  1.00  0.00    -0.188 NA
HETATM    4  N6  UNL     1     -23.010 -13.333   5.147  1.00  0.00    -0.304 N 
ATOM      5  H6  UNL     1     -22.038 -13.209   5.432  1.00  0.00     0.171 HD
HETATM    6  C9  UNL     1     -23.882 -13.662   6.180  1.00  0.00     0.219 C 
HETATM    7  C10 UNL     1     -23.315 -13.952   7.547  1.00  0.00     0.117 C 
HETATM    8  O1  UNL     1     -25.148 -13.747   6.090  1.00  0.00    -0.274 OA
ENDROOT
BRANCH   1   9
HETATM    9  N4  UNL     1     -22.105 -12.826   3.078  1.00  0.00    -0.323 N 
BRANCH   9  10
HETATM   10  C6  UNL     1     -21.775 -11.480   2.758  1.00  0.00     0.152 C 
BRANCH  10  11
HETATM   11  C5  UNL     1     -21.899 -10.444   3.798  1.00  0.00     0.167 C 
BRANCH  11  12
HETATM   12  N3  UNL     1     -23.007  -9.552   3.738  1.00  0.00    -0.191 N 
HETATM   13  C2  UNL     1     -22.887  -8.312   3.156  1.00  0.00     0.679 A 
HETATM   14  N2  UNL     1     -24.077  -7.707   3.217  1.00  0.00    -0.201 N 
HETATM   15  C3  UNL     1     -24.986  -8.496   3.819  1.00  0.00     0.124 A 
ATOM     16  H2  UNL     1     -24.269  -6.773   2.856  1.00  0.00     0.183 HD
HETATM   17  C4  UNL     1     -24.281  -9.639   4.130  1.00  0.00     0.126 A 
BRANCH  13  18
HETATM   18  N1  UNL     1     -21.788  -7.846   2.648  1.00  0.00    -0.230 N 
HETATM   19  C1  UNL     1     -21.816  -6.825   1.628  1.00  0.00     0.165 C 
ATOM     20  H1  UNL     1     -20.892  -8.207   2.974  1.00  0.00     0.177 HD
ENDBRANCH  13  18
ENDBRANCH  11  12
ENDBRANCH  10  11
ENDBRANCH   9  10
BRANCH   9  21
HETATM   21  C11 UNL     1     -21.379 -13.909   2.573  1.00  0.00     0.036 A 
HETATM   22  C12 UNL     1     -21.401 -14.134   1.196  1.00  0.00     0.031 A 
HETATM   23  C13 UNL     1     -20.697 -15.213   0.705  1.00  0.00     0.028 A 
HETATM   24  C14 UNL     1     -19.976 -16.075   1.501  1.00  0.00     0.080 A 
HETATM   25  C15 UNL     1     -19.967 -15.837   2.851  1.00  0.00     0.028 A 
HETATM   26  C16 UNL     1     -20.679 -14.743   3.367  1.00  0.00     0.031 A 
BRANCH  24  27
HETATM   27  S1  UNL     1     -19.087 -17.441   0.879  1.00  0.00     0.137 S 
HETATM   28  O2  UNL     1     -20.007 -18.350   0.105  1.00  0.00    -0.591 OA
HETATM   29  O3  UNL     1     -17.934 -17.069   0.033  1.00  0.00    -0.591 OA
HETATM   30  O4  UNL     1     -18.542 -18.350   2.197  1.00  0.00    -0.591 OA
ENDBRANCH  24  27
ENDBRANCH   9  21
ENDBRANCH   1   9
TORSDOF 7
ENDMDL
MODEL 3
REMARK VINA RESULT: -6.453894172      1.989      4.605
REMARK  7 active torsions:
REMARK  status: ('A' for Active; 'I' for Inactive)
REMARK    1  A    between atoms: N1_2  and  C2_4 
REMARK    2  A    between atoms: N3_9  and  C5_10 
REMARK    3  A    between atoms: C5_10  and  C6_11 
REMARK    4  A    between atoms: C6_11  and  N4_12 
REMARK    5  A    between atoms: N4_12  and  C7_13 
REMARK    6  A    between atoms: N4_12  and  C11_21 
REMARK       I    between atoms: N6_16  and  C9_18 
REMARK    7  A    between atoms: C14_24  and  S1_25 
ROOT
HETATM    1  C7  UNL     1     -23.252 -11.146   3.333  1.00  0.00     0.193 C 
HETATM    2  C8  UNL     1     -24.545 -11.532   2.941  1.00  0.00     0.137 C 
HETATM    3  N5  UNL     1     -25.636 -11.838   2.625  1.00  0.00    -0.188 NA
HETATM    4  N6  UNL     1     -22.737 -10.039   3.019  1.00  0.00    -0.304 N 
ATOM      5  H6  UNL     1     -21.791  -9.892   3.372  1.00  0.00     0.171 HD
HETATM    6  C9  UNL     1     -23.250  -8.984   2.270  1.00  0.00     0.219 C 
HETATM    7  C10 UNL     1     -22.460  -7.703   2.182  1.00  0.00     0.117 C 
HETATM    8  O1  UNL     1     -24.350  -8.988   1.632  1.00  0.00    -0.274 OA
ENDROOT
BRANCH   1   9
HETATM    9  N4  UNL     1     -22.467 -12.050   4.132  1.00  0.00    -0.323 N 
BRANCH   9  10
HETATM   10  C6  UNL     1     -22.386 -11.936   5.547  1.00  0.00     0.152 C 
BRANCH  10  11
HETATM   11  C5  UNL     1     -23.522 -12.388   6.370  1.00  0.00     0.167 C 
BRANCH  11  12
HETATM   12  N3  UNL     1     -23.610 -13.769   6.704  1.00  0.00    -0.191 N 
HETATM   13  C2  UNL     1     -24.437 -14.616   6.003  1.00  0.00     0.679 A 
HETATM   14  N2  UNL     1     -24.300 -15.844   6.510  1.00  0.00    -0.201 N 
HETATM   15  C3  UNL     1     -23.415 -15.850   7.524  1.00  0.00     0.124 A 
ATOM     16  H2  UNL     1     -24.800 -16.667   6.175  1.00  0.00     0.183 HD
HETATM   17  C4  UNL     1     -23.005 -14.536   7.615  1.00  0.00     0.126 A 
BRANCH  13  18
HETATM   18  N1  UNL     1     -25.203 -14.245   5.025  1.00  0.00    -0.230 N 
HETATM   19  C1  UNL     1     -26.641 -14.265   5.160  1.00  0.00     0.165 C 
ATOM     20  H1  UNL     1     -24.785 -13.934   4.149  1.00  0.00     0.177 HD
ENDBRANCH  13  18
ENDBRANCH  11  12
ENDBRANCH  10  11
ENDBRANCH   9  10
BRANCH   9  21
HETATM   21  C11 UNL     1     -21.763 -13.029   3.424  1.00  0.00     0.036 A 
HETATM   22  C12 UNL     1     -21.380 -14.187   4.101  1.00  0.00     0.031 A 
HETATM   23  C13 UNL     1     -20.672 -15.142   3.403  1.00  0.00     0.028 A 
HETATM   24  C14 UNL     1     -20.325 -15.010   2.076  1.00  0.00     0.080 A 
HETATM   25  C15 UNL     1     -20.710 -13.865   1.429  1.00  0.00     0.028 A 
HETATM   26  C16 UNL     1     -21.432 -12.884   2.126  1.00  0.00     0.031 A 
BRANCH  24  27
HETATM   27  S1  UNL     1     -19.428 -16.218   1.193  1.00  0.00     0.137 S 
HETATM   28  O2  UNL     1     -20.367 -17.060   0.368  1.00  0.00    -0.591 OA
HETATM   29  O3  UNL     1     -18.371 -15.661   0.324  1.00  0.00    -0.591 OA
HETATM   30  O4  UNL     1     -18.731 -17.272   2.317  1.00  0.00    -0.591 OA
ENDBRANCH  24  27
ENDBRANCH   9  21
ENDBRANCH   1   9
TORSDOF 7
ENDMDL
MODEL 4
REMARK VINA RESULT: -6.449737868      1.398      2.108
REMARK  7 active torsions:
REMARK  status: ('A' for Active; 'I' for Inactive)
REMARK    1  A    between atoms: N1_2  and  C2_4 
REMARK    2  A    between atoms: N3_9  and  C5_10 
REMARK    3  A    between atoms: C5_10  and  C6_11 
REMARK    4  A    between atoms: C6_11  and  N4_12 
REMARK    5  A    between atoms: N4_12  and  C7_13 
REMARK    6  A    between atoms: N4_12  and  C11_21 
REMARK       I    between atoms: N6_16  and  C9_18 
REMARK    7  A    between atoms: C14_24  and  S1_25 
ROOT
HETATM    1  C7  UNL     1     -24.230 -12.686   4.665  1.00  0.00     0.193 C 
HETATM    2  C8  UNL     1     -25.238 -12.817   3.694  1.00  0.00     0.137 C 
HETATM    3  N5  UNL     1     -26.080 -12.948   2.885  1.00  0.00    -0.188 NA
HETATM    4  N6  UNL     1     -24.385 -13.019   5.871  1.00  0.00    -0.304 N 
ATOM      5  H6  UNL     1     -23.569 -12.868   6.464  1.00  0.00     0.171 HD
HETATM    6  C9  UNL     1     -25.489 -13.559   6.524  1.00  0.00     0.219 C 
HETATM    7  C10 UNL     1     -25.341 -14.006   7.956  1.00  0.00     0.117 C 
HETATM    8  O1  UNL     1     -26.648 -13.720   6.023  1.00  0.00    -0.274 OA
ENDROOT
BRANCH   1   9
HETATM    9  N4  UNL     1     -22.953 -12.148   4.276  1.00  0.00    -0.323 N 
BRANCH   9  10
HETATM   10  C6  UNL     1     -22.590 -10.796   4.527  1.00  0.00     0.152 C 
BRANCH  10  11
HETATM   11  C5  UNL     1     -23.540  -9.722   4.186  1.00  0.00     0.167 C 
BRANCH  11  12
HETATM   12  N3  UNL     1     -23.632  -9.304   2.830  1.00  0.00    -0.191 N 
HETATM   13  C2  UNL     1     -23.013  -8.153   2.400  1.00  0.00     0.679 A 
HETATM   14  N2  UNL     1     -23.243  -8.021   1.090  1.00  0.00    -0.201 N 
HETATM   15  C3  UNL     1     -23.992  -9.040   0.629  1.00  0.00     0.124 A 
ATOM     16  H2  UNL     1     -22.897  -7.252   0.517  1.00  0.00     0.183 HD
HETATM   17  C4  UNL     1     -24.215  -9.820   1.744  1.00  0.00     0.126 A 
BRANCH  13  18
HETATM   18  N1  UNL     1     -22.335  -7.358   3.168  1.00  0.00    -0.230 N 
HETATM   19  C1  UNL     1     -22.890  -6.100   3.610  1.00  0.00     0.165 C 
ATOM     20  H1  UNL     1     -21.396  -7.624   3.463  1.00  0.00     0.177 HD
ENDBRANCH  13  18
ENDBRANCH  11  12
ENDBRANCH  10  11
ENDBRANCH   9  10
BRANCH   9  21
HETATM   21  C11 UNL     1     -22.102 -13.032   3.605  1.00  0.00     0.036 A 
HETATM   22  C12 UNL     1     -21.719 -12.720   2.301  1.00  0.00     0.031 A 
HETATM   23  C13 UNL     1     -20.894 -13.603   1.639  1.00  0.00     0.028 A 
HETATM   24  C14 UNL     1     -20.431 -14.774   2.198  1.00  0.00     0.080 A 
HETATM   25  C15 UNL     1     -20.819 -15.063   3.480  1.00  0.00     0.028 A 
HETATM   26  C16 UNL     1     -21.658 -14.174   4.168  1.00  0.00     0.031 A 
BRANCH  24  27
HETATM   27  S1  UNL     1     -19.388 -15.893   1.359  1.00  0.00     0.137 S 
HETATM   28  O2  UNL     1     -20.192 -16.730   0.397  1.00  0.00    -0.591 OA
HETATM   29  O3  UNL     1     -18.274 -15.246   0.637  1.00  0.00    -0.591 OA
HETATM   30  O4  UNL     1     -18.763 -16.974   2.499  1.00  0.00    -0.591 OA
ENDBRANCH  24  27
ENDBRANCH   9  21
ENDBRANCH   1   9
TORSDOF 7
ENDMDL
MODEL 5
REMARK VINA RESULT: -6.392278164      1.124      1.800
REMARK  7 active torsions:
REMARK  status: ('A' for Active; 'I' for Inactive)
REMARK    1  A    between atoms: N1_2  and  C2_4 
REMARK    2  A    between atoms: N3_9  and  C5_10 
REMARK    3  A    between atoms: C5_10  and  C6_11 
REMARK    4  A    between atoms: C6_11  and  N4_12 
REMARK    5  A    between atoms: N4_12  and  C7_13 
REMARK    6  A    between atoms: N4_12  and  C11_21 
REMARK       I    between atoms: N6_16  and  C9_18 
REMARK    7  A    between atoms: C14_24  and  S1_25 
ROOT
HETATM    1  C7  UNL     1     -23.518 -12.726   4.543  1.00  0.00     0.193 C 
HETATM    2  C8  UNL     1     -23.355 -12.607   5.934  1.00  0.00     0.137 C 
HETATM    3  N5  UNL     1     -23.235 -12.494   7.098  1.00  0.00    -0.188 NA
HETATM    4  N6  UNL     1     -24.564 -13.181   4.007  1.00  0.00    -0.304 N 
ATOM      5  H6  UNL     1     -24.544 -13.210   2.987  1.00  0.00     0.171 HD
HETATM    6  C9  UNL     1     -25.742 -13.650   4.580  1.00  0.00     0.219 C 
HETATM    7  C10 UNL     1     -26.901 -13.997   3.680  1.00  0.00     0.117 C 
HETATM    8  O1  UNL     1     -25.951 -13.823   5.823  1.00  0.00    -0.274 OA
ENDROOT
BRANCH   1   9
HETATM    9  N4  UNL     1     -22.446 -12.309   3.677  1.00  0.00    -0.323 N 
BRANCH   9  10
HETATM   10  C6  UNL     1     -22.180 -10.939   3.404  1.00  0.00     0.152 C 
BRANCH  10  11
HETATM   11  C5  UNL     1     -23.255 -10.096   2.852  1.00  0.00     0.167 C 
BRANCH  11  12
HETATM   12  N3  UNL     1     -23.154  -8.685   3.002  1.00  0.00    -0.191 N 
HETATM   13  C2  UNL     1     -24.015  -7.997   3.826  1.00  0.00     0.679 A 
HETATM   14  N2  UNL     1     -23.676  -6.704   3.795  1.00  0.00    -0.201 N 
HETATM   15  C3  UNL     1     -22.622  -6.503   2.981  1.00  0.00     0.124 A 
ATOM     16  H2  UNL     1     -24.152  -5.969   4.318  1.00  0.00     0.183 HD
HETATM   17  C4  UNL     1     -22.324  -7.763   2.505  1.00  0.00     0.126 A 
BRANCH  13  18
HETATM   18  N1  UNL     1     -24.979  -8.545   4.497  1.00  0.00    -0.230 N 
HETATM   19  C1  UNL     1     -26.320  -8.013   4.441  1.00  0.00     0.165 C 
ATOM     20  H1  UNL     1     -24.786  -9.364   5.074  1.00  0.00     0.177 HD
ENDBRANCH  13  18
ENDBRANCH  11  12
ENDBRANCH  10  11
ENDBRANCH   9  10
BRANCH   9  21
HETATM   21  C11 UNL     1     -21.701 -13.340   3.097  1.00  0.00     0.036 A 
HETATM   22  C12 UNL     1     -21.602 -13.381   1.706  1.00  0.00     0.031 A 
HETATM   23  C13 UNL     1     -20.880 -14.410   1.138  1.00  0.00     0.028 A 
HETATM   24  C14 UNL     1     -20.255 -15.394   1.872  1.00  0.00     0.080 A 
HETATM   25  C15 UNL     1     -20.365 -15.336   3.237  1.00  0.00     0.028 A 
HETATM   26  C16 UNL     1     -21.096 -14.296   3.830  1.00  0.00     0.031 A 
BRANCH  24  27
HETATM   27  S1  UNL     1     -19.343 -16.696   1.153  1.00  0.00     0.137 S 
HETATM   28  O2  UNL     1     -20.267 -17.626   0.409  1.00  0.00    -0.591 OA
HETATM   29  O3  UNL     1     -18.266 -16.244   0.249  1.00  0.00    -0.591 OA
HETATM   30  O4  UNL     1     -18.674 -17.614   2.405  1.00  0.00    -0.591 OA
ENDBRANCH  24  27
ENDBRANCH   9  21
ENDBRANCH   1   9
TORSDOF 7
ENDMDL
