MODEL 1
REMARK VINA RESULT: -6.563186993      0.000      0.000
REMARK  4 active torsions:
REMARK  status: ('A' for Active; 'I' for Inactive)
REMARK    1  A    between atoms: C2_2  and  N1_4 
REMARK    2  A    between atoms: C7_8  and  N2_9 
REMARK    3  A    between atoms: C7_8  and  C8_13 
REMARK    4  A    between atoms: C8_13  and  N3_14 
ROOT
HETATM    1  N1  UNL     1      -5.820   2.626  16.218  1.00  0.00    -0.409 N 
HETATM    2  C4  UNL     1      -5.964   4.034  16.207  1.00  0.00     0.117 C 
HETATM    3  C5  UNL     1      -6.375   4.501  14.851  1.00  0.00     0.022 C 
HETATM    4  C6  UNL     1      -5.445   3.997  13.805  1.00  0.00     0.042 C 
HETATM    5  C7  UNL     1      -3.996   4.031  14.120  1.00  0.00     0.143 C 
HETATM    6  C11 UNL     1      -3.603   3.188  15.315  1.00  0.00     0.059 C 
HETATM    7  C12 UNL     1      -4.597   2.129  15.663  1.00  0.00     0.119 C 
ENDROOT
BRANCH   5   8
HETATM    8  N2  UNL     1      -3.566   5.401  14.449  1.00  0.00    -0.069 N 
ATOM      9  H23 UNL     1      -4.338   6.064  14.389  1.00  0.00     0.275 HD
ATOM     10  H22 UNL     1      -3.354   5.502  15.441  1.00  0.00     0.275 HD
ATOM     11  H21 UNL     1      -2.779   5.683  13.864  1.00  0.00     0.275 HD
ENDBRANCH   5   8
BRANCH   5  12
HETATM   12  C8  UNL     1      -3.210   3.509  12.938  1.00  0.00     0.188 C 
BRANCH  12  13
HETATM   13  N3  UNL     1      -3.897   2.554  12.121  1.00  0.00    -0.284 N 
HETATM   14  C9  UNL     1      -4.667   2.758  11.050  1.00  0.00     0.201 A 
HETATM   15  N4  UNL     1      -5.087   1.560  10.621  1.00  0.00    -0.346 N 
HETATM   16  C10 UNL     1      -4.580   0.631  11.418  1.00  0.00     0.198 A 
ATOM     17  H4  UNL     1      -5.693   1.391   9.817  1.00  0.00     0.167 HD
HETATM   18  N5  UNL     1      -3.855   1.255  12.329  1.00  0.00    -0.293 N 
ATOM     19  H5  UNL     1      -3.340   0.799  13.083  1.00  0.00     0.188 HD
ENDBRANCH  12  13
ENDBRANCH   5  12
BRANCH   1  20
HETATM   20  C2  UNL     1      -6.242   1.936  17.389  1.00  0.00     0.070 C 
HETATM   21  C1  UNL     1      -6.310   2.744  18.639  1.00  0.00     0.031 C 
HETATM   22  C3  UNL     1      -7.609   1.323  17.158  1.00  0.00     0.031 C 
ENDBRANCH   1  20
TORSDOF 4
ENDMDL
MODEL 2
REMARK VINA RESULT: -6.540024672      1.775      2.930
REMARK  4 active torsions:
REMARK  status: ('A' for Active; 'I' for Inactive)
REMARK    1  A    between atoms: C2_2  and  N1_4 
REMARK    2  A    between atoms: C7_8  and  N2_9 
REMARK    3  A    between atoms: C7_8  and  C8_13 
REMARK    4  A    between atoms: C8_13  and  N3_14 
ROOT
HETATM    1  N1  UNL     1      -5.642   2.978  16.318  1.00  0.00    -0.409 N 
HETATM    2  C4  UNL     1      -4.792   1.861  16.137  1.00  0.00     0.117 C 
HETATM    3  C5  UNL     1      -3.364   2.296  16.124  1.00  0.00     0.022 C 
HETATM    4  C6  UNL     1      -3.140   3.373  15.124  1.00  0.00     0.042 C 
HETATM    5  C7  UNL     1      -3.811   3.222  13.810  1.00  0.00     0.143 C 
HETATM    6  C11 UNL     1      -5.322   3.182  13.888  1.00  0.00     0.059 C 
HETATM    7  C12 UNL     1      -5.879   3.765  15.146  1.00  0.00     0.119 C 
ENDROOT
BRANCH   5   8
HETATM    8  N2  UNL     1      -3.419   1.955  13.168  1.00  0.00    -0.069 N 
ATOM      9  H23 UNL     1      -3.686   1.933  12.183  1.00  0.00     0.275 HD
ATOM     10  H22 UNL     1      -2.409   1.886  13.054  1.00  0.00     0.275 HD
ATOM     11  H21 UNL     1      -3.798   1.159  13.680  1.00  0.00     0.275 HD
ENDBRANCH   5   8
BRANCH   5  12
HETATM   12  C8  UNL     1      -3.448   4.389  12.920  1.00  0.00     0.188 C 
BRANCH  12  13
HETATM   13  N3  UNL     1      -2.333   4.171  12.048  1.00  0.00    -0.284 N 
HETATM   14  C9  UNL     1      -2.319   3.970  10.729  1.00  0.00     0.201 A 
HETATM   15  N4  UNL     1      -1.041   3.816  10.356  1.00  0.00    -0.346 N 
HETATM   16  C10 UNL     1      -0.278   3.921  11.435  1.00  0.00     0.198 A 
ATOM     17  H4  UNL     1      -0.712   3.647   9.406  1.00  0.00     0.167 HD
HETATM   18  N5  UNL     1      -1.083   4.138  12.460  1.00  0.00    -0.293 N 
ATOM     19  H5  UNL     1      -0.781   4.261  13.427  1.00  0.00     0.188 HD
ENDBRANCH  12  13
ENDBRANCH   5  12
BRANCH   1  20
HETATM   20  C2  UNL     1      -6.796   2.795  17.130  1.00  0.00     0.070 C 
HETATM   21  C1  UNL     1      -7.659   1.628  16.792  1.00  0.00     0.031 C 
HETATM   22  C3  UNL     1      -6.384   2.661  18.582  1.00  0.00     0.031 C 
ENDBRANCH   1  20
TORSDOF 4
ENDMDL
MODEL 3
REMARK VINA RESULT: -6.224341677      1.541      3.849
REMARK  4 active torsions:
REMARK  status: ('A' for Active; 'I' for Inactive)
REMARK    1  A    between atoms: C2_2  and  N1_4 
REMARK    2  A    between atoms: C7_8  and  N2_9 
REMARK    3  A    between atoms: C7_8  and  C8_13 
REMARK    4  A    between atoms: C8_13  and  N3_14 
ROOT
HETATM    1  N1  UNL     1      -5.656   3.014  16.319  1.00  0.00    -0.409 N 
HETATM    2  C4  UNL     1      -4.756   1.941  16.117  1.00  0.00     0.117 C 
HETATM    3  C5  UNL     1      -3.353   2.446  16.069  1.00  0.00     0.022 C 
HETATM    4  C6  UNL     1      -3.207   3.532  15.063  1.00  0.00     0.042 C 
HETATM    5  C7  UNL     1      -3.902   3.346  13.766  1.00  0.00     0.143 C 
HETATM    6  C11 UNL     1      -5.407   3.231  13.882  1.00  0.00     0.059 C 
HETATM    7  C12 UNL     1      -5.962   3.787  15.153  1.00  0.00     0.119 C 
ENDROOT
BRANCH   5   8
HETATM    8  N2  UNL     1      -3.464   2.099  13.114  1.00  0.00    -0.069 N 
ATOM      9  H23 UNL     1      -3.616   2.126  12.106  1.00  0.00     0.275 HD
ATOM     10  H22 UNL     1      -2.449   2.010  13.114  1.00  0.00     0.275 HD
ATOM     11  H21 UNL     1      -3.915   1.291  13.543  1.00  0.00     0.275 HD
ENDBRANCH   5   8
BRANCH   5  12
HETATM   12  C8  UNL     1      -3.621   4.529  12.868  1.00  0.00     0.188 C 
BRANCH  12  13
HETATM   13  N3  UNL     1      -3.105   5.690  13.529  1.00  0.00    -0.284 N 
HETATM   14  C9  UNL     1      -1.844   6.117  13.626  1.00  0.00     0.201 A 
HETATM   15  N4  UNL     1      -1.855   7.251  14.339  1.00  0.00    -0.346 N 
HETATM   16  C10 UNL     1      -3.108   7.518  14.677  1.00  0.00     0.198 A 
ATOM     17  H4  UNL     1      -1.038   7.812  14.581  1.00  0.00     0.167 HD
HETATM   18  N5  UNL     1      -3.859   6.555  14.174  1.00  0.00    -0.293 N 
ATOM     19  H5  UNL     1      -4.873   6.490  14.271  1.00  0.00     0.188 HD
ENDBRANCH  12  13
ENDBRANCH   5  12
BRANCH   1  20
HETATM   20  C2  UNL     1      -6.779   2.775  17.160  1.00  0.00     0.070 C 
HETATM   21  C1  UNL     1      -7.608   1.583  16.825  1.00  0.00     0.031 C 
HETATM   22  C3  UNL     1      -6.321   2.631  18.597  1.00  0.00     0.031 C 
ENDBRANCH   1  20
TORSDOF 4
ENDMDL
MODEL 4
REMARK VINA RESULT: -6.094091621      1.708      2.056
REMARK  4 active torsions:
REMARK  status: ('A' for Active; 'I' for Inactive)
REMARK    1  A    between atoms: C2_2  and  N1_4 
REMARK    2  A    between atoms: C7_8  and  N2_9 
REMARK    3  A    between atoms: C7_8  and  C8_13 
REMARK    4  A    between atoms: C8_13  and  N3_14 
ROOT
HETATM    1  N1  UNL     1      -5.858   2.172  15.952  1.00  0.00    -0.409 N 
HETATM    2  C4  UNL     1      -5.439   3.524  15.963  1.00  0.00     0.117 C 
HETATM    3  C5  UNL     1      -5.734   4.167  14.650  1.00  0.00     0.022 C 
HETATM    4  C6  UNL     1      -5.156   3.383  13.526  1.00  0.00     0.042 C 
HETATM    5  C7  UNL     1      -3.790   2.837  13.718  1.00  0.00     0.143 C 
HETATM    6  C11 UNL     1      -3.671   1.862  14.870  1.00  0.00     0.059 C 
HETATM    7  C12 UNL     1      -4.972   1.261  15.293  1.00  0.00     0.119 C 
ENDROOT
BRANCH   5   8
HETATM    8  N2  UNL     1      -2.835   3.917  14.020  1.00  0.00    -0.069 N 
ATOM      9  H23 UNL     1      -1.996   3.851  13.444  1.00  0.00     0.275 HD
ATOM     10  H22 UNL     1      -3.173   4.822  13.694  1.00  0.00     0.275 HD
ATOM     11  H21 UNL     1      -2.611   3.933  15.015  1.00  0.00     0.275 HD
ENDBRANCH   5   8
BRANCH   5  12
HETATM   12  C8  UNL     1      -3.362   2.098  12.471  1.00  0.00     0.188 C 
BRANCH  12  13
HETATM   13  N3  UNL     1      -2.488   2.824  11.599  1.00  0.00    -0.284 N 
HETATM   14  C9  UNL     1      -2.784   3.754  10.689  1.00  0.00     0.201 A 
HETATM   15  N4  UNL     1      -1.635   4.146  10.122  1.00  0.00    -0.346 N 
HETATM   16  C10 UNL     1      -0.644   3.464  10.678  1.00  0.00     0.198 A 
ATOM     17  H4  UNL     1      -1.539   4.848   9.389  1.00  0.00     0.167 HD
HETATM   18  N5  UNL     1      -1.182   2.661  11.578  1.00  0.00    -0.293 N 
ATOM     19  H5  UNL     1      -0.663   2.011  12.169  1.00  0.00     0.188 HD
ENDBRANCH  12  13
ENDBRANCH   5  12
BRANCH   1  20
HETATM   20  C2  UNL     1      -6.427   1.656  17.149  1.00  0.00     0.070 C 
HETATM   21  C1  UNL     1      -6.198   2.456  18.385  1.00  0.00     0.031 C 
HETATM   22  C3  UNL     1      -7.923   1.491  16.975  1.00  0.00     0.031 C 
ENDBRANCH   1  20
TORSDOF 4
ENDMDL
MODEL 5
REMARK VINA RESULT: -6.022535548      0.882      1.355
REMARK  4 active torsions:
REMARK  status: ('A' for Active; 'I' for Inactive)
REMARK    1  A    between atoms: C2_2  and  N1_4 
REMARK    2  A    between atoms: C7_8  and  N2_9 
REMARK    3  A    between atoms: C7_8  and  C8_13 
REMARK    4  A    between atoms: C8_13  and  N3_14 
ROOT
HETATM    1  N1  UNL     1      -6.187   3.458  15.987  1.00  0.00    -0.409 N 
HETATM    2  C4  UNL     1      -6.015   4.861  16.048  1.00  0.00     0.117 C 
HETATM    3  C5  UNL     1      -6.165   5.459  14.690  1.00  0.00     0.022 C 
HETATM    4  C6  UNL     1      -5.262   4.798  13.709  1.00  0.00     0.042 C 
HETATM    5  C7  UNL     1      -3.884   4.493  14.163  1.00  0.00     0.143 C 
HETATM    6  C11 UNL     1      -3.817   3.540  15.338  1.00  0.00     0.059 C 
HETATM    7  C12 UNL     1      -5.052   2.719  15.524  1.00  0.00     0.119 C 
ENDROOT
BRANCH   5   8
HETATM    8  N2  UNL     1      -3.200   5.717  14.615  1.00  0.00    -0.069 N 
ATOM      9  H23 UNL     1      -2.841   5.621  15.564  1.00  0.00     0.275 HD
ATOM     10  H22 UNL     1      -2.315   5.856  14.129  1.00  0.00     0.275 HD
ATOM     11  H21 UNL     1      -3.813   6.527  14.523  1.00  0.00     0.275 HD
ENDBRANCH   5   8
BRANCH   5  12
HETATM   12  C8  UNL     1      -3.110   3.852  13.034  1.00  0.00     0.188 C 
BRANCH  12  13
HETATM   13  N3  UNL     1      -3.769   2.758  12.385  1.00  0.00    -0.284 N 
HETATM   14  C9  UNL     1      -3.645   1.447  12.605  1.00  0.00     0.201 A 
HETATM   15  N4  UNL     1      -4.464   0.815  11.753  1.00  0.00    -0.346 N 
HETATM   16  C10 UNL     1      -5.083   1.727  11.018  1.00  0.00     0.198 A 
ATOM     17  H4  UNL     1      -4.589  -0.195  11.682  1.00  0.00     0.167 HD
HETATM   18  N5  UNL     1      -4.648   2.909  11.417  1.00  0.00    -0.293 N 
ATOM     19  H5  UNL     1      -4.947   3.805  11.032  1.00  0.00     0.188 HD
ENDBRANCH  12  13
ENDBRANCH   5  12
BRANCH   1  20
HETATM   20  C2  UNL     1      -6.874   2.837  17.069  1.00  0.00     0.070 C 
HETATM   21  C1  UNL     1      -7.714   1.657  16.722  1.00  0.00     0.031 C 
HETATM   22  C3  UNL     1      -5.880   2.404  18.126  1.00  0.00     0.031 C 
ENDBRANCH   1  20
TORSDOF 4
ENDMDL
