MODEL 1
REMARK VINA RESULT: -10.350863296      0.000      0.000
REMARK  13 active torsions:
REMARK  status: ('A' for Active; 'I' for Inactive)
REMARK    1  A    between atoms: N1_1  and  C1_5 
REMARK    2  A    between atoms: C3_7  and  C4_8 
REMARK    3  A    between atoms: C4_8  and  N2_9 
REMARK    4  A    between atoms: C4_8  and  C5_12 
REMARK    5  A    between atoms: N3_18  and  C8_19 
REMARK    6  A    between atoms: C8_19  and  C9_20 
REMARK    7  A    between atoms: C9_20  and  O3_21 
REMARK    8  A    between atoms: O3_21  and  C10_22 
REMARK    9  A    between atoms: C10_22  and  S1_24 
REMARK   10  A    between atoms: S1_24  and  C11_25 
REMARK   11  A    between atoms: C11_25  and  C12_26 
REMARK   12  A    between atoms: C12_26  and  C13_27 
REMARK   13  A    between atoms: C13_27  and  C19_33 
ROOT
HETATM    1  C1  UNL     1      68.098  37.266  37.502  1.00  0.00     0.283 C 
HETATM    2  C2  UNL     1      69.278  38.125  37.213  1.00  0.00     0.062 C 
HETATM    3  C3  UNL     1      70.123  38.489  38.385  1.00  0.00     0.032 C 
HETATM    4  C6  UNL     1      69.542  38.184  39.717  1.00  0.00     0.051 C 
HETATM    5  C7  UNL     1      68.075  38.009  39.809  1.00  0.00     0.060 C 
HETATM    6  N3  UNL     1      67.392  37.524  38.695  1.00  0.00    -0.364 N 
ENDROOT
BRANCH   6   7
HETATM    7  C8  UNL     1      66.400  36.539  38.928  1.00  0.00     0.151 C 
BRANCH   7   8
HETATM    8  C9  UNL     1      66.492  35.740  40.172  1.00  0.00     0.199 C 
BRANCH   8   9
HETATM    9  O3  UNL     1      67.337  34.629  39.950  1.00  0.00    -0.311 OA
BRANCH   9  10
HETATM   10  C10 UNL     1      67.467  33.549  40.786  1.00  0.00     0.322 C 
HETATM   11  O4  UNL     1      68.180  33.602  41.815  1.00  0.00    -0.252 OA
BRANCH  10  12
HETATM   12  S1  UNL     1      66.631  32.013  40.452  1.00  0.00    -0.061 SA
BRANCH  12  13
HETATM   13  C11 UNL     1      66.008  31.249  41.946  1.00  0.00     0.089 C 
BRANCH  13  14
HETATM   14  C12 UNL     1      64.768  30.413  41.689  1.00  0.00     0.054 C 
BRANCH  14  15
HETATM   15  C13 UNL     1      63.587  30.934  42.491  1.00  0.00     0.029 C 
HETATM   16  C14 UNL     1      63.422  30.518  43.741  1.00  0.00    -0.069 C 
HETATM   17  C15 UNL     1      62.341  30.908  44.657  1.00  0.00     0.034 C 
HETATM   18  C18 UNL     1      64.354  29.575  44.455  1.00  0.00     0.034 C 
HETATM   19  C16 UNL     1      62.462  29.902  45.810  1.00  0.00     0.005 C 
HETATM   20  C17 UNL     1      63.950  29.723  45.910  1.00  0.00     0.005 C 
BRANCH  15  21
HETATM   21  C19 UNL     1      62.658  31.879  41.863  1.00  0.00     0.414 C 
HETATM   22  F4  UNL     1      61.334  31.499  42.097  1.00  0.00    -0.166 F 
HETATM   23  F5  UNL     1      62.869  31.891  40.468  1.00  0.00    -0.166 F 
HETATM   24  F6  UNL     1      62.819  33.155  42.316  1.00  0.00    -0.166 F 
ENDBRANCH  15  21
ENDBRANCH  14  15
ENDBRANCH  13  14
ENDBRANCH  12  13
ENDBRANCH  10  12
ENDBRANCH   9  10
ENDBRANCH   8   9
ENDBRANCH   7   8
ENDBRANCH   6   7
BRANCH   1  25
HETATM   25  N1  UNL     1      68.498  35.865  37.550  1.00  0.00    -0.058 N 
ATOM     26  H13 UNL     1      68.240  35.365  36.699  1.00  0.00     0.276 HD
ATOM     27  H12 UNL     1      69.510  35.755  37.486  1.00  0.00     0.276 HD
ATOM     28  H11 UNL     1      68.118  35.420  38.385  1.00  0.00     0.276 HD
ENDBRANCH   1  25
BRANCH   3  29
HETATM   29  C4  UNL     1      70.709  39.872  38.351  1.00  0.00     0.267 C 
BRANCH  29  30
HETATM   30  N2  UNL     1      70.394  40.666  37.232  1.00  0.00    -0.141 N 
HETATM   31  O1  UNL     1      70.866  40.609  36.082  1.00  0.00    -0.536 OA
HETATM   32  O2  UNL     1      69.431  41.644  37.404  1.00  0.00    -0.536 OA
ENDBRANCH  29  30
BRANCH  29  33
HETATM   33  C5  UNL     1      72.222  39.838  38.531  1.00  0.00     0.413 C 
HETATM   34  F1  UNL     1      72.752  38.803  37.756  1.00  0.00    -0.169 F 
HETATM   35  F2  UNL     1      72.828  41.034  38.290  1.00  0.00    -0.169 F 
HETATM   36  F3  UNL     1      72.452  39.444  39.846  1.00  0.00    -0.169 F 
ENDBRANCH  29  33
ENDBRANCH   3  29
TORSDOF 13
ENDMDL
MODEL 2
REMARK VINA RESULT: -10.105386220      1.481      2.036
REMARK  13 active torsions:
REMARK  status: ('A' for Active; 'I' for Inactive)
REMARK    1  A    between atoms: N1_1  and  C1_5 
REMARK    2  A    between atoms: C3_7  and  C4_8 
REMARK    3  A    between atoms: C4_8  and  N2_9 
REMARK    4  A    between atoms: C4_8  and  C5_12 
REMARK    5  A    between atoms: N3_18  and  C8_19 
REMARK    6  A    between atoms: C8_19  and  C9_20 
REMARK    7  A    between atoms: C9_20  and  O3_21 
REMARK    8  A    between atoms: O3_21  and  C10_22 
REMARK    9  A    between atoms: C10_22  and  S1_24 
REMARK   10  A    between atoms: S1_24  and  C11_25 
REMARK   11  A    between atoms: C11_25  and  C12_26 
REMARK   12  A    between atoms: C12_26  and  C13_27 
REMARK   13  A    between atoms: C13_27  and  C19_33 
ROOT
HETATM    1  C1  UNL     1      68.075  37.247  37.530  1.00  0.00     0.283 C 
HETATM    2  C2  UNL     1      69.255  38.105  37.240  1.00  0.00     0.062 C 
HETATM    3  C3  UNL     1      70.109  38.458  38.410  1.00  0.00     0.032 C 
HETATM    4  C6  UNL     1      69.535  38.144  39.743  1.00  0.00     0.051 C 
HETATM    5  C7  UNL     1      68.068  37.973  39.842  1.00  0.00     0.060 C 
HETATM    6  N3  UNL     1      67.376  37.498  38.729  1.00  0.00    -0.364 N 
ENDROOT
BRANCH   6   7
HETATM    7  C8  UNL     1      66.384  36.514  38.961  1.00  0.00     0.151 C 
BRANCH   7   8
HETATM    8  C9  UNL     1      66.368  35.837  40.278  1.00  0.00     0.199 C 
BRANCH   8   9
HETATM    9  O3  UNL     1      65.059  35.882  40.808  1.00  0.00    -0.311 OA
BRANCH   9  10
HETATM   10  C10 UNL     1      64.564  35.049  41.780  1.00  0.00     0.322 C 
HETATM   11  O4  UNL     1      65.289  34.628  42.710  1.00  0.00    -0.252 OA
BRANCH  10  12
HETATM   12  S1  UNL     1      62.864  34.523  41.771  1.00  0.00    -0.061 SA
BRANCH  12  13
HETATM   13  C11 UNL     1      62.504  33.390  43.109  1.00  0.00     0.089 C 
BRANCH  13  14
HETATM   14  C12 UNL     1      62.212  31.986  42.610  1.00  0.00     0.054 C 
BRANCH  14  15
HETATM   15  C13 UNL     1      63.453  31.113  42.688  1.00  0.00     0.029 C 
HETATM   16  C14 UNL     1      63.728  30.482  43.824  1.00  0.00    -0.069 C 
HETATM   17  C15 UNL     1      64.880  29.607  44.081  1.00  0.00     0.034 C 
HETATM   18  C18 UNL     1      62.869  30.538  45.059  1.00  0.00     0.034 C 
HETATM   19  C16 UNL     1      64.867  29.429  45.606  1.00  0.00     0.005 C 
HETATM   20  C17 UNL     1      63.395  29.390  45.900  1.00  0.00     0.005 C 
BRANCH  15  21
HETATM   21  C19 UNL     1      64.316  30.992  41.509  1.00  0.00     0.414 C 
HETATM   22  F4  UNL     1      65.493  31.726  41.682  1.00  0.00    -0.166 F 
HETATM   23  F5  UNL     1      63.645  31.503  40.378  1.00  0.00    -0.166 F 
HETATM   24  F6  UNL     1      64.659  29.701  41.237  1.00  0.00    -0.166 F 
ENDBRANCH  15  21
ENDBRANCH  14  15
ENDBRANCH  13  14
ENDBRANCH  12  13
ENDBRANCH  10  12
ENDBRANCH   9  10
ENDBRANCH   8   9
ENDBRANCH   7   8
ENDBRANCH   6   7
BRANCH   1  25
HETATM   25  N1  UNL     1      68.471  35.845  37.564  1.00  0.00    -0.058 N 
ATOM     26  H13 UNL     1      69.138  35.618  36.826  1.00  0.00     0.276 HD
ATOM     27  H12 UNL     1      69.062  35.635  38.368  1.00  0.00     0.276 HD
ATOM     28  H11 UNL     1      67.646  35.246  37.531  1.00  0.00     0.276 HD
ENDBRANCH   1  25
BRANCH   3  29
HETATM   29  C4  UNL     1      70.698  39.839  38.383  1.00  0.00     0.267 C 
BRANCH  29  30
HETATM   30  N2  UNL     1      70.371  40.646  37.277  1.00  0.00    -0.141 N 
HETATM   31  O1  UNL     1      70.896  40.668  36.148  1.00  0.00    -0.536 OA
HETATM   32  O2  UNL     1      69.326  41.539  37.435  1.00  0.00    -0.536 OA
ENDBRANCH  29  30
BRANCH  29  33
HETATM   33  C5  UNL     1      72.214  39.799  38.543  1.00  0.00     0.413 C 
HETATM   34  F1  UNL     1      72.734  38.794  37.723  1.00  0.00    -0.169 F 
HETATM   35  F2  UNL     1      72.816  41.004  38.339  1.00  0.00    -0.169 F 
HETATM   36  F3  UNL     1      72.460  39.356  39.839  1.00  0.00    -0.169 F 
ENDBRANCH  29  33
ENDBRANCH   3  29
TORSDOF 13
ENDMDL
MODEL 3
REMARK VINA RESULT: -10.057771757      1.075      1.536
REMARK  13 active torsions:
REMARK  status: ('A' for Active; 'I' for Inactive)
REMARK    1  A    between atoms: N1_1  and  C1_5 
REMARK    2  A    between atoms: C3_7  and  C4_8 
REMARK    3  A    between atoms: C4_8  and  N2_9 
REMARK    4  A    between atoms: C4_8  and  C5_12 
REMARK    5  A    between atoms: N3_18  and  C8_19 
REMARK    6  A    between atoms: C8_19  and  C9_20 
REMARK    7  A    between atoms: C9_20  and  O3_21 
REMARK    8  A    between atoms: O3_21  and  C10_22 
REMARK    9  A    between atoms: C10_22  and  S1_24 
REMARK   10  A    between atoms: S1_24  and  C11_25 
REMARK   11  A    between atoms: C11_25  and  C12_26 
REMARK   12  A    between atoms: C12_26  and  C13_27 
REMARK   13  A    between atoms: C13_27  and  C19_33 
ROOT
HETATM    1  C1  UNL     1      67.091  37.691  38.200  1.00  0.00     0.283 C 
HETATM    2  C2  UNL     1      68.065  38.690  37.685  1.00  0.00     0.062 C 
HETATM    3  C3  UNL     1      69.494  38.453  38.040  1.00  0.00     0.032 C 
HETATM    4  C6  UNL     1      69.734  37.417  39.077  1.00  0.00     0.051 C 
HETATM    5  C7  UNL     1      68.614  37.065  39.978  1.00  0.00     0.060 C 
HETATM    6  N3  UNL     1      67.311  37.188  39.499  1.00  0.00    -0.364 N 
ENDROOT
BRANCH   6   7
HETATM    7  C8  UNL     1      66.414  36.133  39.799  1.00  0.00     0.151 C 
BRANCH   7   8
HETATM    8  C9  UNL     1      66.921  34.993  40.595  1.00  0.00     0.199 C 
BRANCH   8   9
HETATM    9  O3  UNL     1      66.009  34.710  41.637  1.00  0.00    -0.311 OA
BRANCH   9  10
HETATM   10  C10 UNL     1      66.209  33.802  42.646  1.00  0.00     0.322 C 
HETATM   11  O4  UNL     1      66.084  34.126  43.850  1.00  0.00    -0.252 OA
BRANCH  10  12
HETATM   12  S1  UNL     1      66.655  32.114  42.300  1.00  0.00    -0.061 SA
BRANCH  12  13
HETATM   13  C11 UNL     1      65.716  31.437  40.936  1.00  0.00     0.089 C 
BRANCH  13  14
HETATM   14  C12 UNL     1      64.763  30.343  41.381  1.00  0.00     0.054 C 
BRANCH  14  15
HETATM   15  C13 UNL     1      63.646  30.911  42.238  1.00  0.00     0.029 C 
HETATM   16  C14 UNL     1      63.541  30.523  43.504  1.00  0.00    -0.069 C 
HETATM   17  C15 UNL     1      62.526  30.961  44.472  1.00  0.00     0.034 C 
HETATM   18  C18 UNL     1      64.486  29.567  44.182  1.00  0.00     0.034 C 
HETATM   19  C16 UNL     1      62.685  29.972  45.636  1.00  0.00     0.005 C 
HETATM   20  C17 UNL     1      64.171  29.753  45.655  1.00  0.00     0.005 C 
BRANCH  15  21
HETATM   21  C19 UNL     1      62.709  31.871  41.645  1.00  0.00     0.414 C 
HETATM   22  F4  UNL     1      62.860  31.915  40.256  1.00  0.00    -0.166 F 
HETATM   23  F5  UNL     1      62.970  33.160  42.154  1.00  0.00    -0.166 F 
HETATM   24  F6  UNL     1      61.407  31.575  41.919  1.00  0.00    -0.166 F 
ENDBRANCH  15  21
ENDBRANCH  14  15
ENDBRANCH  13  14
ENDBRANCH  12  13
ENDBRANCH  10  12
ENDBRANCH   9  10
ENDBRANCH   8   9
ENDBRANCH   7   8
ENDBRANCH   6   7
BRANCH   1  25
HETATM   25  N1  UNL     1      67.039  36.539  37.309  1.00  0.00    -0.058 N 
ATOM     26  H13 UNL     1      67.479  36.731  36.410  1.00  0.00     0.276 HD
ATOM     27  H12 UNL     1      67.656  35.788  37.619  1.00  0.00     0.276 HD
ATOM     28  H11 UNL     1      66.075  36.221  37.203  1.00  0.00     0.276 HD
ENDBRANCH   1  25
BRANCH   3  29
HETATM   29  C4  UNL     1      70.304  39.688  38.307  1.00  0.00     0.267 C 
BRANCH  29  30
HETATM   30  N2  UNL     1      70.383  40.632  37.265  1.00  0.00    -0.141 N 
HETATM   31  O1  UNL     1      69.979  41.809  37.252  1.00  0.00    -0.536 OA
HETATM   32  O2  UNL     1      70.989  40.224  36.090  1.00  0.00    -0.536 OA
ENDBRANCH  29  30
BRANCH  29  33
HETATM   33  C5  UNL     1      71.713  39.338  38.772  1.00  0.00     0.413 C 
HETATM   34  F1  UNL     1      71.682  39.032  40.135  1.00  0.00    -0.169 F 
HETATM   35  F2  UNL     1      72.306  38.360  38.031  1.00  0.00    -0.169 F 
HETATM   36  F3  UNL     1      72.456  40.512  38.693  1.00  0.00    -0.169 F 
ENDBRANCH  29  33
ENDBRANCH   3  29
TORSDOF 13
ENDMDL
MODEL 4
REMARK VINA RESULT: -10.024235033      1.172      1.737
REMARK  13 active torsions:
REMARK  status: ('A' for Active; 'I' for Inactive)
REMARK    1  A    between atoms: N1_1  and  C1_5 
REMARK    2  A    between atoms: C3_7  and  C4_8 
REMARK    3  A    between atoms: C4_8  and  N2_9 
REMARK    4  A    between atoms: C4_8  and  C5_12 
REMARK    5  A    between atoms: N3_18  and  C8_19 
REMARK    6  A    between atoms: C8_19  and  C9_20 
REMARK    7  A    between atoms: C9_20  and  O3_21 
REMARK    8  A    between atoms: O3_21  and  C10_22 
REMARK    9  A    between atoms: C10_22  and  S1_24 
REMARK   10  A    between atoms: S1_24  and  C11_25 
REMARK   11  A    between atoms: C11_25  and  C12_26 
REMARK   12  A    between atoms: C12_26  and  C13_27 
REMARK   13  A    between atoms: C13_27  and  C19_33 
ROOT
HETATM    1  C1  UNL     1      67.375  38.152  39.221  1.00  0.00     0.283 C 
HETATM    2  C2  UNL     1      68.249  39.301  38.864  1.00  0.00     0.062 C 
HETATM    3  C3  UNL     1      69.248  39.051  37.785  1.00  0.00     0.032 C 
HETATM    4  C6  UNL     1      69.429  37.630  37.395  1.00  0.00     0.051 C 
HETATM    5  C7  UNL     1      69.012  36.588  38.359  1.00  0.00     0.060 C 
HETATM    6  N3  UNL     1      67.967  36.873  39.236  1.00  0.00    -0.364 N 
ENDROOT
BRANCH   6   7
HETATM    7  C8  UNL     1      66.995  35.859  39.429  1.00  0.00     0.151 C 
BRANCH   7   8
HETATM    8  C9  UNL     1      66.978  35.148  40.727  1.00  0.00     0.199 C 
BRANCH   8   9
HETATM    9  O3  UNL     1      67.832  34.024  40.654  1.00  0.00    -0.311 OA
BRANCH   9  10
HETATM   10  C10 UNL     1      67.746  32.905  41.443  1.00  0.00     0.322 C 
HETATM   11  O4  UNL     1      68.495  32.745  42.434  1.00  0.00    -0.252 OA
BRANCH  10  12
HETATM   12  S1  UNL     1      66.562  31.620  41.101  1.00  0.00    -0.061 SA
BRANCH  12  13
HETATM   13  C11 UNL     1      64.879  32.174  41.349  1.00  0.00     0.089 C 
BRANCH  13  14
HETATM   14  C12 UNL     1      63.913  31.016  41.524  1.00  0.00     0.054 C 
BRANCH  14  15
HETATM   15  C13 UNL     1      63.002  31.245  42.717  1.00  0.00     0.029 C 
HETATM   16  C14 UNL     1      63.278  30.637  43.866  1.00  0.00    -0.069 C 
HETATM   17  C15 UNL     1      62.509  30.737  45.115  1.00  0.00     0.034 C 
HETATM   18  C18 UNL     1      64.469  29.745  44.093  1.00  0.00     0.034 C 
HETATM   19  C16 UNL     1      63.078  29.605  45.982  1.00  0.00     0.005 C 
HETATM   20  C17 UNL     1      64.531  29.627  45.605  1.00  0.00     0.005 C 
BRANCH  15  21
HETATM   21  C19 UNL     1      61.840  32.129  42.571  1.00  0.00     0.414 C 
HETATM   22  F4  UNL     1      61.567  32.363  41.220  1.00  0.00    -0.166 F 
HETATM   23  F5  UNL     1      62.112  33.370  43.183  1.00  0.00    -0.166 F 
HETATM   24  F6  UNL     1      60.715  31.620  43.148  1.00  0.00    -0.166 F 
ENDBRANCH  15  21
ENDBRANCH  14  15
ENDBRANCH  13  14
ENDBRANCH  12  13
ENDBRANCH  10  12
ENDBRANCH   9  10
ENDBRANCH   8   9
ENDBRANCH   7   8
ENDBRANCH   6   7
BRANCH   1  25
HETATM   25  N1  UNL     1      66.246  38.078  38.302  1.00  0.00    -0.058 N 
ATOM     26  H13 UNL     1      65.454  38.635  38.624  1.00  0.00     0.276 HD
ATOM     27  H12 UNL     1      66.431  38.572  37.430  1.00  0.00     0.276 HD
ATOM     28  H11 UNL     1      65.987  37.104  38.142  1.00  0.00     0.276 HD
ENDBRANCH   1  25
BRANCH   3  29
HETATM   29  C4  UNL     1      70.570  39.741  37.960  1.00  0.00     0.267 C 
BRANCH  29  30
HETATM   30  N2  UNL     1      71.367  39.884  36.809  1.00  0.00    -0.141 N 
HETATM   31  O1  UNL     1      72.261  39.128  36.385  1.00  0.00    -0.536 OA
HETATM   32  O2  UNL     1      71.146  41.001  36.023  1.00  0.00    -0.536 OA
ENDBRANCH  29  30
BRANCH  29  33
HETATM   33  C5  UNL     1      71.395  39.089  39.064  1.00  0.00     0.413 C 
HETATM   34  F1  UNL     1      70.598  38.937  40.202  1.00  0.00    -0.169 F 
HETATM   35  F2  UNL     1      71.991  37.924  38.684  1.00  0.00    -0.169 F 
HETATM   36  F3  UNL     1      72.361  40.020  39.434  1.00  0.00    -0.169 F 
ENDBRANCH  29  33
ENDBRANCH   3  29
TORSDOF 13
ENDMDL
MODEL 5
REMARK VINA RESULT: -9.995975360      1.644      2.329
REMARK  13 active torsions:
REMARK  status: ('A' for Active; 'I' for Inactive)
REMARK    1  A    between atoms: N1_1  and  C1_5 
REMARK    2  A    between atoms: C3_7  and  C4_8 
REMARK    3  A    between atoms: C4_8  and  N2_9 
REMARK    4  A    between atoms: C4_8  and  C5_12 
REMARK    5  A    between atoms: N3_18  and  C8_19 
REMARK    6  A    between atoms: C8_19  and  C9_20 
REMARK    7  A    between atoms: C9_20  and  O3_21 
REMARK    8  A    between atoms: O3_21  and  C10_22 
REMARK    9  A    between atoms: C10_22  and  S1_24 
REMARK   10  A    between atoms: S1_24  and  C11_25 
REMARK   11  A    between atoms: C11_25  and  C12_26 
REMARK   12  A    between atoms: C12_26  and  C13_27 
REMARK   13  A    between atoms: C13_27  and  C19_33 
ROOT
HETATM    1  C1  UNL     1      68.018  37.446  37.394  1.00  0.00     0.283 C 
HETATM    2  C2  UNL     1      69.247  38.245  37.140  1.00  0.00     0.062 C 
HETATM    3  C3  UNL     1      70.073  38.570  38.338  1.00  0.00     0.032 C 
HETATM    4  C6  UNL     1      69.437  38.296  39.651  1.00  0.00     0.051 C 
HETATM    5  C7  UNL     1      67.961  38.194  39.698  1.00  0.00     0.060 C 
HETATM    6  N3  UNL     1      67.289  37.741  38.564  1.00  0.00    -0.364 N 
ENDROOT
BRANCH   6   7
HETATM    7  C8  UNL     1      66.244  36.806  38.767  1.00  0.00     0.151 C 
BRANCH   7   8
HETATM    8  C9  UNL     1      66.103  36.199  40.110  1.00  0.00     0.199 C 
BRANCH   8   9
HETATM    9  O3  UNL     1      66.554  34.861  40.066  1.00  0.00    -0.311 OA
BRANCH   9  10
HETATM   10  C10 UNL     1      67.782  34.419  40.490  1.00  0.00     0.322 C 
HETATM   11  O4  UNL     1      68.840  34.806  39.942  1.00  0.00    -0.252 OA
BRANCH  10  12
HETATM   12  S1  UNL     1      67.937  33.272  41.843  1.00  0.00    -0.061 SA
BRANCH  12  13
HETATM   13  C11 UNL     1      66.748  31.940  41.734  1.00  0.00     0.089 C 
BRANCH  13  14
HETATM   14  C12 UNL     1      65.730  31.985  42.858  1.00  0.00     0.054 C 
BRANCH  14  15
HETATM   15  C13 UNL     1      64.352  32.343  42.329  1.00  0.00     0.029 C 
HETATM   16  C14 UNL     1      63.881  33.568  42.531  1.00  0.00    -0.069 C 
HETATM   17  C15 UNL     1      62.576  34.086  42.098  1.00  0.00     0.034 C 
HETATM   18  C18 UNL     1      64.637  34.666  43.232  1.00  0.00     0.034 C 
HETATM   19  C16 UNL     1      62.437  35.408  42.867  1.00  0.00     0.005 C 
HETATM   20  C17 UNL     1      63.851  35.914  42.870  1.00  0.00     0.005 C 
BRANCH  15  21
HETATM   21  C19 UNL     1      63.576  31.326  41.611  1.00  0.00     0.414 C 
HETATM   22  F4  UNL     1      62.310  31.177  42.185  1.00  0.00    -0.166 F 
HETATM   23  F5  UNL     1      64.240  30.085  41.688  1.00  0.00    -0.166 F 
HETATM   24  F6  UNL     1      63.410  31.625  40.291  1.00  0.00    -0.166 F 
ENDBRANCH  15  21
ENDBRANCH  14  15
ENDBRANCH  13  14
ENDBRANCH  12  13
ENDBRANCH  10  12
ENDBRANCH   9  10
ENDBRANCH   8   9
ENDBRANCH   7   8
ENDBRANCH   6   7
BRANCH   1  25
HETATM   25  N1  UNL     1      68.347  36.028  37.454  1.00  0.00    -0.058 N 
ATOM     26  H13 UNL     1      69.353  35.871  37.522  1.00  0.00     0.276 HD
ATOM     27  H12 UNL     1      68.071  35.609  38.341  1.00  0.00     0.276 HD
ATOM     28  H11 UNL     1      67.938  35.538  36.657  1.00  0.00     0.276 HD
ENDBRANCH   1  25
BRANCH   3  29
HETATM   29  C4  UNL     1      70.727  39.922  38.321  1.00  0.00     0.267 C 
BRANCH  29  30
HETATM   30  N2  UNL     1      70.483  40.730  37.195  1.00  0.00    -0.141 N 
HETATM   31  O1  UNL     1      71.003  40.666  36.066  1.00  0.00    -0.536 OA
HETATM   32  O2  UNL     1      69.540  41.734  37.331  1.00  0.00    -0.536 OA
ENDBRANCH  29  30
BRANCH  29  33
HETATM   33  C5  UNL     1      72.231  39.814  38.544  1.00  0.00     0.413 C 
HETATM   34  F1  UNL     1      72.741  38.793  37.737  1.00  0.00    -0.169 F 
HETATM   35  F2  UNL     1      72.894  40.993  38.377  1.00  0.00    -0.169 F 
HETATM   36  F3  UNL     1      72.403  39.351  39.846  1.00  0.00    -0.169 F 
ENDBRANCH  29  33
ENDBRANCH   3  29
TORSDOF 13
ENDMDL
