MODEL 1
REMARK VINA RESULT: -6.101937995      0.000      0.000
REMARK  5 active torsions:
REMARK  status: ('A' for Active; 'I' for Inactive)
REMARK       I    between atoms: C1_2  and  N1_3 
REMARK    1  A    between atoms: C1_2  and  S2_12 
REMARK    2  A    between atoms: N1_3  and  C2_5 
REMARK    3  A    between atoms: S2_12  and  C4_13 
REMARK    4  A    between atoms: C4_13  and  C5_14 
REMARK    5  A    between atoms: C5_14  and  N4_15 
ROOT
HETATM    1  O1  UNL     1      -1.930   4.136  13.382  1.00  0.00    -0.260 OA
HETATM    2  C1  UNL     1      -3.025   3.709  13.825  1.00  0.00     0.285 C 
HETATM    3  N1  UNL     1      -3.297   2.343  13.761  1.00  0.00    -0.297 N 
ATOM      4  H1  UNL     1      -3.065   1.728  14.542  1.00  0.00     0.171 HD
ENDROOT
BRANCH   2   5
HETATM    5  S2  UNL     1      -4.164   4.896  14.507  1.00  0.00    -0.067 SA
BRANCH   5   6
HETATM    6  C4  UNL     1      -5.862   4.254  14.503  1.00  0.00     0.114 C 
BRANCH   6   7
HETATM    7  C5  UNL     1      -6.210   3.748  15.847  1.00  0.00     0.283 C 
BRANCH   7   8
HETATM    8  N4  UNL     1      -6.344   2.333  15.972  1.00  0.00     0.089 N 
HETATM    9  C6  UNL     1      -5.216   1.685  16.569  1.00  0.00     0.272 C 
HETATM   10  C7  UNL     1      -5.636   1.328  17.951  1.00  0.00     0.032 C 
HETATM   11  C8  UNL     1      -7.129   1.529  18.003  1.00  0.00     0.032 C 
HETATM   12  C9  UNL     1      -7.521   1.846  16.579  1.00  0.00     0.272 C 
ENDBRANCH   7   8
ENDBRANCH   6   7
ENDBRANCH   5   6
ENDBRANCH   2   5
BRANCH   3  13
HETATM   13  C2  UNL     1      -3.857   1.867  12.675  1.00  0.00     0.167 A 
HETATM   14  N2  UNL     1      -4.426   2.559  11.678  1.00  0.00    -0.279 N 
HETATM   15  N3  UNL     1      -4.915   1.920  10.697  1.00  0.00    -0.303 N 
ATOM     16  H2  UNL     1      -4.464   3.577  11.706  1.00  0.00     0.189 HD
HETATM   17  C3  UNL     1      -4.864   0.599  10.664  1.00  0.00     0.160 A 
ATOM     18  H3  UNL     1      -5.351   2.430   9.928  1.00  0.00     0.186 HD
HETATM   19  S1  UNL     1      -4.061   0.262  12.136  1.00  0.00    -0.046 SA
ENDBRANCH   3  13
TORSDOF 5
ENDMDL
MODEL 2
REMARK VINA RESULT: -6.071185143      1.965      3.633
REMARK  5 active torsions:
REMARK  status: ('A' for Active; 'I' for Inactive)
REMARK       I    between atoms: C1_2  and  N1_3 
REMARK    1  A    between atoms: C1_2  and  S2_12 
REMARK    2  A    between atoms: N1_3  and  C2_5 
REMARK    3  A    between atoms: S2_12  and  C4_13 
REMARK    4  A    between atoms: C4_13  and  C5_14 
REMARK    5  A    between atoms: C5_14  and  N4_15 
ROOT
HETATM    1  O1  UNL     1      -1.746   1.003  11.425  1.00  0.00    -0.260 OA
HETATM    2  C1  UNL     1      -2.796   1.626  11.721  1.00  0.00     0.285 C 
HETATM    3  N1  UNL     1      -2.918   2.965  11.352  1.00  0.00    -0.297 N 
ATOM      4  H1  UNL     1      -3.350   3.225  10.465  1.00  0.00     0.171 HD
ENDROOT
BRANCH   2   5
HETATM    5  S2  UNL     1      -4.066   0.741  12.601  1.00  0.00    -0.067 SA
BRANCH   5   6
HETATM    6  C4  UNL     1      -4.113   1.228  14.349  1.00  0.00     0.114 C 
BRANCH   6   7
HETATM    7  C5  UNL     1      -4.988   2.407  14.518  1.00  0.00     0.283 C 
BRANCH   7   8
HETATM    8  N4  UNL     1      -5.250   2.810  15.862  1.00  0.00     0.089 N 
HETATM    9  C6  UNL     1      -6.547   3.379  16.063  1.00  0.00     0.272 C 
HETATM   10  C7  UNL     1      -7.345   2.339  16.766  1.00  0.00     0.032 C 
HETATM   11  C8  UNL     1      -6.363   1.287  17.215  1.00  0.00     0.032 C 
HETATM   12  C9  UNL     1      -5.007   1.863  16.879  1.00  0.00     0.272 C 
ENDBRANCH   7   8
ENDBRANCH   6   7
ENDBRANCH   5   6
ENDBRANCH   2   5
BRANCH   3  13
HETATM   13  C2  UNL     1      -2.463   3.883  12.171  1.00  0.00     0.167 A 
HETATM   14  N2  UNL     1      -1.363   3.824  12.935  1.00  0.00    -0.279 N 
HETATM   15  N3  UNL     1      -1.077   4.821  13.666  1.00  0.00    -0.303 N 
ATOM     16  H2  UNL     1      -0.768   2.996  12.928  1.00  0.00     0.189 HD
HETATM   17  C3  UNL     1      -1.852   5.892  13.672  1.00  0.00     0.160 A 
ATOM     18  H3  UNL     1      -0.244   4.795  14.254  1.00  0.00     0.186 HD
HETATM   19  S1  UNL     1      -3.062   5.432  12.554  1.00  0.00    -0.046 SA
ENDBRANCH   3  13
TORSDOF 5
ENDMDL
MODEL 3
REMARK VINA RESULT: -6.057130677      1.713      1.916
REMARK  5 active torsions:
REMARK  status: ('A' for Active; 'I' for Inactive)
REMARK       I    between atoms: C1_2  and  N1_3 
REMARK    1  A    between atoms: C1_2  and  S2_12 
REMARK    2  A    between atoms: N1_3  and  C2_5 
REMARK    3  A    between atoms: S2_12  and  C4_13 
REMARK    4  A    between atoms: C4_13  and  C5_14 
REMARK    5  A    between atoms: C5_14  and  N4_15 
ROOT
HETATM    1  O1  UNL     1      -2.929   1.819  15.897  1.00  0.00    -0.260 OA
HETATM    2  C1  UNL     1      -3.878   2.107  15.125  1.00  0.00     0.285 C 
HETATM    3  N1  UNL     1      -4.371   1.131  14.261  1.00  0.00    -0.297 N 
ATOM      4  H1  UNL     1      -5.151   0.534  14.538  1.00  0.00     0.171 HD
ENDROOT
BRANCH   2   5
HETATM    5  S2  UNL     1      -4.528   3.764  15.193  1.00  0.00    -0.067 SA
BRANCH   5   6
HETATM    6  C4  UNL     1      -6.342   3.754  15.260  1.00  0.00     0.114 C 
BRANCH   6   7
HETATM    7  C5  UNL     1      -6.796   4.135  16.613  1.00  0.00     0.283 C 
BRANCH   7   8
HETATM    8  N4  UNL     1      -7.320   3.083  17.422  1.00  0.00     0.089 N 
HETATM    9  C6  UNL     1      -7.483   1.838  16.735  1.00  0.00     0.272 C 
HETATM   10  C7  UNL     1      -6.381   0.960  17.215  1.00  0.00     0.032 C 
HETATM   11  C8  UNL     1      -5.781   1.654  18.411  1.00  0.00     0.032 C 
HETATM   12  C9  UNL     1      -6.684   2.839  18.658  1.00  0.00     0.272 C 
ENDBRANCH   7   8
ENDBRANCH   6   7
ENDBRANCH   5   6
ENDBRANCH   2   5
BRANCH   3  13
HETATM   13  C2  UNL     1      -3.809   0.996  13.084  1.00  0.00     0.167 A 
HETATM   14  N2  UNL     1      -2.807   1.723  12.568  1.00  0.00    -0.279 N 
HETATM   15  N3  UNL     1      -2.388   1.440  11.405  1.00  0.00    -0.303 N 
ATOM     16  H2  UNL     1      -2.391   2.487  13.100  1.00  0.00     0.189 HD
HETATM   17  C3  UNL     1      -2.931   0.449  10.718  1.00  0.00     0.160 A 
ATOM     18  H3  UNL     1      -1.626   1.981  10.996  1.00  0.00     0.186 HD
HETATM   19  S1  UNL     1      -4.116  -0.106  11.820  1.00  0.00    -0.046 SA
ENDBRANCH   3  13
TORSDOF 5
ENDMDL
MODEL 4
REMARK VINA RESULT: -6.041644063      2.201      4.808
REMARK  5 active torsions:
REMARK  status: ('A' for Active; 'I' for Inactive)
REMARK       I    between atoms: C1_2  and  N1_3 
REMARK    1  A    between atoms: C1_2  and  S2_12 
REMARK    2  A    between atoms: N1_3  and  C2_5 
REMARK    3  A    between atoms: S2_12  and  C4_13 
REMARK    4  A    between atoms: C4_13  and  C5_14 
REMARK    5  A    between atoms: C5_14  and  N4_15 
ROOT
HETATM    1  O1  UNL     1      -1.648   4.108  13.316  1.00  0.00    -0.260 OA
HETATM    2  C1  UNL     1      -2.812   4.487  13.599  1.00  0.00     0.285 C 
HETATM    3  N1  UNL     1      -3.236   4.443  14.927  1.00  0.00    -0.297 N 
ATOM      4  H1  UNL     1      -3.127   5.254  15.536  1.00  0.00     0.171 HD
ENDROOT
BRANCH   2   5
HETATM    5  S2  UNL     1      -3.847   5.057  12.267  1.00  0.00    -0.067 SA
BRANCH   5   6
HETATM    6  C4  UNL     1      -4.318   3.690  11.171  1.00  0.00     0.114 C 
BRANCH   6   7
HETATM    7  C5  UNL     1      -4.710   2.515  11.976  1.00  0.00     0.283 C 
BRANCH   7   8
HETATM    8  N4  UNL     1      -3.695   1.537  12.201  1.00  0.00     0.089 N 
HETATM    9  C6  UNL     1      -4.184   0.278  12.674  1.00  0.00     0.272 C 
HETATM   10  C7  UNL     1      -4.101  -0.653  11.517  1.00  0.00     0.032 C 
HETATM   11  C8  UNL     1      -3.272   0.048  10.471  1.00  0.00     0.032 C 
HETATM   12  C9  UNL     1      -2.780   1.303  11.153  1.00  0.00     0.272 C 
ENDBRANCH   7   8
ENDBRANCH   6   7
ENDBRANCH   5   6
ENDBRANCH   2   5
BRANCH   3  13
HETATM   13  C2  UNL     1      -3.776   3.336  15.374  1.00  0.00     0.167 A 
HETATM   14  N2  UNL     1      -3.157   2.183  15.667  1.00  0.00    -0.279 N 
HETATM   15  N3  UNL     1      -3.851   1.213  16.097  1.00  0.00    -0.303 N 
ATOM     16  H2  UNL     1      -2.149   2.089  15.547  1.00  0.00     0.189 HD
HETATM   17  C3  UNL     1      -5.158   1.339  16.250  1.00  0.00     0.160 A 
ATOM     18  H3  UNL     1      -3.397   0.328  16.326  1.00  0.00     0.186 HD
HETATM   19  S1  UNL     1      -5.397   2.955  15.745  1.00  0.00    -0.046 SA
ENDBRANCH   3  13
TORSDOF 5
ENDMDL
MODEL 5
REMARK VINA RESULT: -6.023454756      2.683      3.708
REMARK  5 active torsions:
REMARK  status: ('A' for Active; 'I' for Inactive)
REMARK       I    between atoms: C1_2  and  N1_3 
REMARK    1  A    between atoms: C1_2  and  S2_12 
REMARK    2  A    between atoms: N1_3  and  C2_5 
REMARK    3  A    between atoms: S2_12  and  C4_13 
REMARK    4  A    between atoms: C4_13  and  C5_14 
REMARK    5  A    between atoms: C5_14  and  N4_15 
ROOT
HETATM    1  O1  UNL     1      -3.565   0.693   9.939  1.00  0.00    -0.260 OA
HETATM    2  C1  UNL     1      -3.624   1.360  11.002  1.00  0.00     0.285 C 
HETATM    3  N1  UNL     1      -3.394   2.734  10.956  1.00  0.00    -0.297 N 
ATOM      4  H1  UNL     1      -4.167   3.389  10.835  1.00  0.00     0.171 HD
ENDROOT
BRANCH   2   5
HETATM    5  S2  UNL     1      -4.001   0.488  12.508  1.00  0.00    -0.067 SA
BRANCH   5   6
HETATM    6  C4  UNL     1      -4.133   1.630  13.912  1.00  0.00     0.114 C 
BRANCH   6   7
HETATM    7  C5  UNL     1      -4.485   0.881  15.136  1.00  0.00     0.283 C 
BRANCH   7   8
HETATM    8  N4  UNL     1      -4.823   1.665  16.280  1.00  0.00     0.089 N 
HETATM    9  C6  UNL     1      -5.259   2.993  15.975  1.00  0.00     0.272 C 
HETATM   10  C7  UNL     1      -6.733   2.995  16.180  1.00  0.00     0.032 C 
HETATM   11  C8  UNL     1      -7.060   1.710  16.897  1.00  0.00     0.032 C 
HETATM   12  C9  UNL     1      -5.716   1.097  17.213  1.00  0.00     0.272 C 
ENDBRANCH   7   8
ENDBRANCH   6   7
ENDBRANCH   5   6
ENDBRANCH   2   5
BRANCH   3  13
HETATM   13  C2  UNL     1      -2.161   3.165  11.070  1.00  0.00     0.167 A 
HETATM   14  N2  UNL     1      -1.394   3.169  12.170  1.00  0.00    -0.279 N 
HETATM   15  N3  UNL     1      -0.214   3.626  12.086  1.00  0.00    -0.303 N 
ATOM     16  H2  UNL     1      -1.752   2.812  13.055  1.00  0.00     0.189 HD
HETATM   17  C3  UNL     1       0.247   4.088  10.936  1.00  0.00     0.160 A 
ATOM     18  H3  UNL     1       0.385   3.636  12.912  1.00  0.00     0.186 HD
HETATM   19  S1  UNL     1      -1.106   3.847   9.917  1.00  0.00    -0.046 SA
ENDBRANCH   3  13
TORSDOF 5
ENDMDL
