MODEL 1
REMARK VINA RESULT: -7.574948596      0.000      0.000
REMARK  3 active torsions:
REMARK  status: ('A' for Active; 'I' for Inactive)
REMARK    1  A    between atoms: C2_7  and  C3_8 
REMARK    2  A    between atoms: C7_12  and  C8_13 
REMARK    3  A    between atoms: C8_13  and  C9_14 
ROOT
HETATM    1  C3  UNL     1      -3.750   3.963  12.458  1.00  0.00     0.056 C 
HETATM    2  C4  UNL     1      -2.703   4.792  13.115  1.00  0.00     0.012 C 
HETATM    3  C5  UNL     1      -3.358   5.994  13.767  1.00  0.00     0.001 C 
HETATM    4  C6  UNL     1      -4.253   5.577  14.914  1.00  0.00     0.005 C 
HETATM    5  C7  UNL     1      -4.734   4.179  14.784  1.00  0.00    -0.013 C 
HETATM    6  C13 UNL     1      -4.888   3.712  13.361  1.00  0.00     0.017 C 
ENDROOT
BRANCH   1   7
HETATM    7  C2  UNL     1      -3.162   2.630  12.062  1.00  0.00     0.117 A 
HETATM    8  N3  UNL     1      -1.870   2.364  11.759  1.00  0.00    -0.272 N 
HETATM    9  N2  UNL     1      -1.746   1.084  11.463  1.00  0.00    -0.225 N 
ATOM     10  H3  UNL     1      -1.111   3.045  11.758  1.00  0.00     0.190 HD
HETATM   11  N1  UNL     1      -2.927   0.512  11.568  1.00  0.00    -0.223 N 
ATOM     12  H2  UNL     1      -0.880   0.616  11.198  1.00  0.00     0.210 HD
HETATM   13  C1  UNL     1      -3.174  -0.898  11.315  1.00  0.00     0.202 C 
HETATM   14  N5  UNL     1      -3.788   1.447  11.930  1.00  0.00    -0.270 N 
ATOM     15  H5  UNL     1      -4.784   1.293  12.088  1.00  0.00     0.190 HD
ENDBRANCH   1   7
BRANCH   5  16
HETATM   16  C8  UNL     1      -5.922   3.795  15.604  1.00  0.00     0.011 C 
BRANCH  16  17
HETATM   17  C9  UNL     1      -6.133   2.355  15.869  1.00  0.00     0.013 C 
HETATM   18  C10 UNL     1      -7.312   2.165  16.847  1.00  0.00     0.034 C 
HETATM   19  C11 UNL     1      -6.582   1.731  18.094  1.00  0.00     0.232 C 
HETATM   20  N4  UNL     1      -5.682   0.721  17.512  1.00  0.00    -0.075 N 
HETATM   21  C12 UNL     1      -5.037   1.582  16.494  1.00  0.00     0.237 C 
ATOM     22  H42 UNL     1      -5.061   0.234  18.158  1.00  0.00     0.277 HD
ATOM     23  H41 UNL     1      -6.116  -0.139  17.176  1.00  0.00     0.277 HD
ENDBRANCH  16  17
ENDBRANCH   5  16
TORSDOF 3
ENDMDL
MODEL 2
REMARK VINA RESULT: -7.438795807      0.935      1.346
REMARK  3 active torsions:
REMARK  status: ('A' for Active; 'I' for Inactive)
REMARK    1  A    between atoms: C2_7  and  C3_8 
REMARK    2  A    between atoms: C7_12  and  C8_13 
REMARK    3  A    between atoms: C8_13  and  C9_14 
ROOT
HETATM    1  C3  UNL     1      -4.207   3.528  12.181  1.00  0.00     0.056 C 
HETATM    2  C4  UNL     1      -2.806   3.831  12.581  1.00  0.00     0.012 C 
HETATM    3  C5  UNL     1      -2.789   5.100  13.408  1.00  0.00     0.001 C 
HETATM    4  C6  UNL     1      -3.500   4.904  14.729  1.00  0.00     0.005 C 
HETATM    5  C7  UNL     1      -4.497   3.806  14.684  1.00  0.00    -0.013 C 
HETATM    6  C13 UNL     1      -5.126   3.603  13.332  1.00  0.00     0.017 C 
ENDROOT
BRANCH   1   7
HETATM    7  C2  UNL     1      -4.278   2.131  11.614  1.00  0.00     0.117 A 
HETATM    8  N3  UNL     1      -5.106   1.684  10.641  1.00  0.00    -0.272 N 
HETATM    9  N2  UNL     1      -4.869   0.406  10.419  1.00  0.00    -0.225 N 
ATOM     10  H3  UNL     1      -5.804   2.247  10.156  1.00  0.00     0.190 HD
HETATM   11  N1  UNL     1      -3.907   0.011  11.224  1.00  0.00    -0.223 N 
ATOM     12  H2  UNL     1      -5.352  -0.179   9.737  1.00  0.00     0.210 HD
HETATM   13  C1  UNL     1      -3.380  -1.345  11.261  1.00  0.00     0.202 C 
HETATM   14  N5  UNL     1      -3.545   1.054  11.951  1.00  0.00    -0.270 N 
ATOM     15  H5  UNL     1      -2.817   1.044  12.664  1.00  0.00     0.190 HD
ENDBRANCH   1   7
BRANCH   5  16
HETATM   16  C8  UNL     1      -5.530   3.787  15.763  1.00  0.00     0.011 C 
BRANCH  16  17
HETATM   17  C9  UNL     1      -6.120   2.478  16.120  1.00  0.00     0.013 C 
HETATM   18  C10 UNL     1      -6.964   2.613  17.406  1.00  0.00     0.034 C 
HETATM   19  C11 UNL     1      -6.094   1.879  18.397  1.00  0.00     0.232 C 
HETATM   20  N4  UNL     1      -5.785   0.674  17.606  1.00  0.00    -0.075 N 
HETATM   21  C12 UNL     1      -5.212   1.349  16.418  1.00  0.00     0.237 C 
ATOM     22  H42 UNL     1      -5.203  -0.032  18.056  1.00  0.00     0.277 HD
ATOM     23  H41 UNL     1      -6.556   0.028  17.438  1.00  0.00     0.277 HD
ENDBRANCH  16  17
ENDBRANCH   5  16
TORSDOF 3
ENDMDL
MODEL 3
REMARK VINA RESULT: -6.746754980      1.988      4.565
REMARK  3 active torsions:
REMARK  status: ('A' for Active; 'I' for Inactive)
REMARK    1  A    between atoms: C2_7  and  C3_8 
REMARK    2  A    between atoms: C7_12  and  C8_13 
REMARK    3  A    between atoms: C8_13  and  C9_14 
ROOT
HETATM    1  C3  UNL     1      -4.498   3.070  14.921  1.00  0.00     0.056 C 
HETATM    2  C4  UNL     1      -5.944   3.313  14.668  1.00  0.00     0.012 C 
HETATM    3  C5  UNL     1      -6.445   4.374  15.628  1.00  0.00     0.001 C 
HETATM    4  C6  UNL     1      -5.805   5.716  15.347  1.00  0.00     0.005 C 
HETATM    5  C7  UNL     1      -4.497   5.591  14.657  1.00  0.00    -0.013 C 
HETATM    6  C13 UNL     1      -3.741   4.334  14.995  1.00  0.00     0.017 C 
ENDROOT
BRANCH   1   7
HETATM    7  C2  UNL     1      -3.922   2.244  13.797  1.00  0.00     0.117 A 
HETATM    8  N3  UNL     1      -2.893   2.575  12.983  1.00  0.00    -0.272 N 
HETATM    9  N2  UNL     1      -2.682   1.595  12.125  1.00  0.00    -0.225 N 
ATOM     10  H3  UNL     1      -2.363   3.445  13.025  1.00  0.00     0.190 HD
HETATM   11  N1  UNL     1      -3.550   0.634  12.363  1.00  0.00    -0.223 N 
ATOM     12  H2  UNL     1      -1.967   1.583  11.398  1.00  0.00     0.210 HD
HETATM   13  C1  UNL     1      -3.617  -0.608  11.610  1.00  0.00     0.202 C 
HETATM   14  N5  UNL     1      -4.304   1.024  13.376  1.00  0.00    -0.270 N 
ATOM     15  H5  UNL     1      -5.065   0.479  13.780  1.00  0.00     0.190 HD
ENDBRANCH   1   7
BRANCH   5  16
HETATM   16  C8  UNL     1      -3.597   6.783  14.698  1.00  0.00     0.011 C 
BRANCH  16  17
HETATM   17  C9  UNL     1      -3.113   7.317  13.406  1.00  0.00     0.013 C 
HETATM   18  C10 UNL     1      -4.132   7.005  12.290  1.00  0.00     0.034 C 
HETATM   19  C11 UNL     1      -3.389   5.948  11.511  1.00  0.00     0.232 C 
HETATM   20  N4  UNL     1      -2.070   6.597  11.414  1.00  0.00    -0.075 N 
HETATM   21  C12 UNL     1      -1.835   6.805  12.862  1.00  0.00     0.237 C 
ATOM     22  H42 UNL     1      -1.347   6.091  10.902  1.00  0.00     0.277 HD
ATOM     23  H41 UNL     1      -2.009   7.422  10.818  1.00  0.00     0.277 HD
ENDBRANCH  16  17
ENDBRANCH   5  16
TORSDOF 3
ENDMDL
MODEL 4
REMARK VINA RESULT: -6.739170986      1.627      4.950
REMARK  3 active torsions:
REMARK  status: ('A' for Active; 'I' for Inactive)
REMARK    1  A    between atoms: C2_7  and  C3_8 
REMARK    2  A    between atoms: C7_12  and  C8_13 
REMARK    3  A    between atoms: C8_13  and  C9_14 
ROOT
HETATM    1  C3  UNL     1      -3.774   4.277  14.842  1.00  0.00     0.056 C 
HETATM    2  C4  UNL     1      -5.014   4.982  14.421  1.00  0.00     0.012 C 
HETATM    3  C5  UNL     1      -4.650   6.100  13.464  1.00  0.00     0.001 C 
HETATM    4  C6  UNL     1      -4.095   5.553  12.167  1.00  0.00     0.005 C 
HETATM    5  C7  UNL     1      -3.510   4.198  12.322  1.00  0.00    -0.013 C 
HETATM    6  C13 UNL     1      -2.927   3.933  13.684  1.00  0.00     0.017 C 
ENDROOT
BRANCH   1   7
HETATM    7  C2  UNL     1      -4.139   2.996  15.552  1.00  0.00     0.117 A 
HETATM    8  N3  UNL     1      -3.502   1.805  15.470  1.00  0.00    -0.272 N 
HETATM    9  N2  UNL     1      -4.119   0.927  16.237  1.00  0.00    -0.225 N 
ATOM     10  H3  UNL     1      -2.676   1.615  14.904  1.00  0.00     0.190 HD
HETATM   11  N1  UNL     1      -5.141   1.519  16.816  1.00  0.00    -0.223 N 
ATOM     12  H2  UNL     1      -3.849  -0.049  16.360  1.00  0.00     0.210 HD
HETATM   13  C1  UNL     1      -6.054   0.856  17.735  1.00  0.00     0.202 C 
HETATM   14  N5  UNL     1      -5.157   2.774  16.403  1.00  0.00    -0.270 N 
ATOM     15  H5  UNL     1      -5.843   3.474  16.689  1.00  0.00     0.190 HD
ENDBRANCH   1   7
BRANCH   5  16
HETATM   16  C8  UNL     1      -2.584   3.736  11.245  1.00  0.00     0.011 C 
BRANCH  16  17
HETATM   17  C9  UNL     1      -2.805   2.383  10.688  1.00  0.00     0.013 C 
HETATM   18  C10 UNL     1      -4.263   1.942  10.936  1.00  0.00     0.034 C 
HETATM   19  C11 UNL     1      -4.065   0.883  11.992  1.00  0.00     0.232 C 
HETATM   20  N4  UNL     1      -2.955   0.131  11.382  1.00  0.00    -0.075 N 
HETATM   21  C12 UNL     1      -2.006   1.258  11.223  1.00  0.00     0.237 C 
ATOM     22  H42 UNL     1      -2.616  -0.682  11.894  1.00  0.00     0.277 HD
ATOM     23  H41 UNL     1      -3.173  -0.405  10.542  1.00  0.00     0.277 HD
ENDBRANCH  16  17
ENDBRANCH   5  16
TORSDOF 3
ENDMDL
MODEL 5
REMARK VINA RESULT: -6.691376913      2.196      4.810
REMARK  3 active torsions:
REMARK  status: ('A' for Active; 'I' for Inactive)
REMARK    1  A    between atoms: C2_7  and  C3_8 
REMARK    2  A    between atoms: C7_12  and  C8_13 
REMARK    3  A    between atoms: C8_13  and  C9_14 
ROOT
HETATM    1  C3  UNL     1      -4.261   3.178  14.813  1.00  0.00     0.056 C 
HETATM    2  C4  UNL     1      -5.748   3.181  14.851  1.00  0.00     0.012 C 
HETATM    3  C5  UNL     1      -6.220   4.316  15.738  1.00  0.00     0.001 C 
HETATM    4  C6  UNL     1      -5.877   5.662  15.136  1.00  0.00     0.005 C 
HETATM    5  C7  UNL     1      -4.727   5.593  14.202  1.00  0.00    -0.013 C 
HETATM    6  C13 UNL     1      -3.723   4.523  14.540  1.00  0.00     0.017 C 
ENDROOT
BRANCH   1   7
HETATM    7  C2  UNL     1      -3.788   2.252  13.719  1.00  0.00     0.117 A 
HETATM    8  N3  UNL     1      -2.765   2.461  12.856  1.00  0.00    -0.272 N 
HETATM    9  N2  UNL     1      -2.659   1.424  12.048  1.00  0.00    -0.225 N 
ATOM     10  H3  UNL     1      -2.172   3.289  12.835  1.00  0.00     0.190 HD
HETATM   11  N1  UNL     1      -3.586   0.547  12.364  1.00  0.00    -0.223 N 
ATOM     12  H2  UNL     1      -1.972   1.321  11.301  1.00  0.00     0.210 HD
HETATM   13  C1  UNL     1      -3.772  -0.725  11.682  1.00  0.00     0.202 C 
HETATM   14  N5  UNL     1      -4.274   1.045  13.377  1.00  0.00    -0.270 N 
ATOM     15  H5  UNL     1      -5.059   0.581  13.834  1.00  0.00     0.190 HD
ENDBRANCH   1   7
BRANCH   5  16
HETATM   16  C8  UNL     1      -4.045   6.882  13.875  1.00  0.00     0.011 C 
BRANCH  16  17
HETATM   17  C9  UNL     1      -2.622   7.017  14.256  1.00  0.00     0.013 C 
HETATM   18  C10 UNL     1      -2.437   8.240  15.180  1.00  0.00     0.034 C 
HETATM   19  C11 UNL     1      -1.716   9.190  14.255  1.00  0.00     0.232 C 
HETATM   20  N4  UNL     1      -0.701   8.275  13.705  1.00  0.00    -0.075 N 
HETATM   21  C12 UNL     1      -1.620   7.234  13.189  1.00  0.00     0.237 C 
ATOM     22  H42 UNL     1      -0.040   8.672  13.039  1.00  0.00     0.277 HD
ATOM     23  H41 UNL     1       0.028   7.964  14.346  1.00  0.00     0.277 HD
ENDBRANCH  16  17
ENDBRANCH   5  16
TORSDOF 3
ENDMDL
