MODEL 1
REMARK VINA RESULT: -6.901204249      0.000      0.000
REMARK  5 active torsions:
REMARK  status: ('A' for Active; 'I' for Inactive)
REMARK    1  A    between atoms: O1_1  and  C1_3 
REMARK    2  A    between atoms: C5_7  and  C6_8 
REMARK    3  A    between atoms: C6_8  and  C7_9 
REMARK    4  A    between atoms: C7_9  and  N1_10 
REMARK    5  A    between atoms: N2_13  and  C10_14 
ROOT
HETATM    1  N1  UNL     1      17.397   2.771  13.246  1.00  0.00    -0.371 N 
HETATM    2  C8  UNL     1      17.507   2.239  11.946  1.00  0.00     0.083 C 
HETATM    3  C9  UNL     1      18.952   2.168  11.461  1.00  0.00     0.169 C 
HETATM    4  N2  UNL     1      19.537   3.455  11.584  1.00  0.00    -0.355 N 
HETATM    5  C13 UNL     1      18.836   4.512  12.281  1.00  0.00     0.145 C 
HETATM    6  C14 UNL     1      18.027   4.032  13.458  1.00  0.00     0.147 C 
ENDROOT
BRANCH   1   7
HETATM    7  C7  UNL     1      16.214   2.577  13.988  1.00  0.00     0.063 C 
BRANCH   7   8
HETATM    8  C6  UNL     1      16.053   3.568  15.115  1.00  0.00     0.051 C 
BRANCH   8   9
HETATM    9  C5  UNL     1      15.924   2.858  16.413  1.00  0.00     0.019 C 
HETATM   10  C1  UNL     1      16.084   1.367  16.379  1.00  0.00     0.122 C 
HETATM   11  C2  UNL     1      15.326   0.850  17.604  1.00  0.00     0.032 C 
HETATM   12  C3  UNL     1      14.745   2.081  18.251  1.00  0.00     0.003 C 
HETATM   13  C4  UNL     1      14.520   2.987  17.029  1.00  0.00     0.007 C 
BRANCH  10  14
HETATM   14  O1  UNL     1      17.435   1.032  16.472  1.00  0.00    -0.395 OA
ATOM     15  H1  UNL     1      17.783   1.300  17.314  1.00  0.00     0.210 HD
ENDBRANCH  10  14
ENDBRANCH   8   9
ENDBRANCH   7   8
ENDBRANCH   1   7
BRANCH   4  16
HETATM   16  C10 UNL     1      20.833   3.820  11.059  1.00  0.00     0.146 A 
HETATM   17  N3  UNL     1      21.930   4.102  11.760  1.00  0.00    -0.346 N 
HETATM   18  C11 UNL     1      23.021   4.416  11.142  1.00  0.00     0.097 A 
ATOM     19  H3  UNL     1      21.909   4.071  12.780  1.00  0.00     0.167 HD
HETATM   20  C12 UNL     1      22.996   4.441   9.768  1.00  0.00     0.070 A 
HETATM   21  S1  UNL     1      21.369   4.004   9.449  1.00  0.00    -0.065 SA
ENDBRANCH   4  16
TORSDOF 5
ENDMDL
MODEL 2
REMARK VINA RESULT: -6.872179844      0.971      1.173
REMARK  5 active torsions:
REMARK  status: ('A' for Active; 'I' for Inactive)
REMARK    1  A    between atoms: O1_1  and  C1_3 
REMARK    2  A    between atoms: C5_7  and  C6_8 
REMARK    3  A    between atoms: C6_8  and  C7_9 
REMARK    4  A    between atoms: C7_9  and  N1_10 
REMARK    5  A    between atoms: N2_13  and  C10_14 
ROOT
HETATM    1  N1  UNL     1      18.063   4.426  14.055  1.00  0.00    -0.371 N 
HETATM    2  C8  UNL     1      17.782   4.073  12.720  1.00  0.00     0.083 C 
HETATM    3  C9  UNL     1      19.010   3.550  11.980  1.00  0.00     0.169 C 
HETATM    4  N2  UNL     1      20.051   4.508  12.092  1.00  0.00    -0.355 N 
HETATM    5  C13 UNL     1      19.907   5.642  12.980  1.00  0.00     0.145 C 
HETATM    6  C14 UNL     1      19.148   5.332  14.243  1.00  0.00     0.147 C 
ENDROOT
BRANCH   1   7
HETATM    7  C7  UNL     1      17.010   4.575  14.980  1.00  0.00     0.063 C 
BRANCH   7   8
HETATM    8  C6  UNL     1      16.040   3.418  14.963  1.00  0.00     0.051 C 
BRANCH   8   9
HETATM    9  C5  UNL     1      15.954   2.798  16.309  1.00  0.00     0.019 C 
HETATM   10  C1  UNL     1      16.036   1.301  16.363  1.00  0.00     0.122 C 
HETATM   11  C2  UNL     1      15.328   0.902  17.660  1.00  0.00     0.032 C 
HETATM   12  C3  UNL     1      14.850   2.201  18.258  1.00  0.00     0.003 C 
HETATM   13  C4  UNL     1      14.598   3.041  16.995  1.00  0.00     0.007 C 
BRANCH  10  14
HETATM   14  O1  UNL     1      17.371   0.899  16.399  1.00  0.00    -0.395 OA
ATOM     15  H1  UNL     1      17.656   0.631  15.534  1.00  0.00     0.210 HD
ENDBRANCH  10  14
ENDBRANCH   8   9
ENDBRANCH   7   8
ENDBRANCH   1   7
BRANCH   4  16
HETATM   16  C10 UNL     1      21.302   4.446  11.372  1.00  0.00     0.146 A 
HETATM   17  N3  UNL     1      22.506   4.789  11.827  1.00  0.00    -0.346 N 
HETATM   18  C11 UNL     1      23.537   4.678  11.056  1.00  0.00     0.097 A 
ATOM     19  H3  UNL     1      22.613   5.137  12.780  1.00  0.00     0.167 HD
HETATM   20  C12 UNL     1      23.338   4.201   9.782  1.00  0.00     0.070 A 
HETATM   21  S1  UNL     1      21.643   3.940   9.777  1.00  0.00    -0.065 SA
ENDBRANCH   4  16
TORSDOF 5
ENDMDL
MODEL 3
REMARK VINA RESULT: -6.867349652      1.160      1.384
REMARK  5 active torsions:
REMARK  status: ('A' for Active; 'I' for Inactive)
REMARK    1  A    between atoms: O1_1  and  C1_3 
REMARK    2  A    between atoms: C5_7  and  C6_8 
REMARK    3  A    between atoms: C6_8  and  C7_9 
REMARK    4  A    between atoms: C7_9  and  N1_10 
REMARK    5  A    between atoms: N2_13  and  C10_14 
ROOT
HETATM    1  N1  UNL     1      17.721   2.031  13.067  1.00  0.00    -0.371 N 
HETATM    2  C8  UNL     1      17.860   1.256  11.899  1.00  0.00     0.083 C 
HETATM    3  C9  UNL     1      19.208   1.463  11.214  1.00  0.00     0.169 C 
HETATM    4  N2  UNL     1      19.392   2.851  10.983  1.00  0.00    -0.355 N 
HETATM    5  C13 UNL     1      18.478   3.814  11.557  1.00  0.00     0.145 C 
HETATM    6  C14 UNL     1      17.964   3.428  12.920  1.00  0.00     0.147 C 
ENDROOT
BRANCH   1   7
HETATM    7  C7  UNL     1      16.725   1.708  14.012  1.00  0.00     0.063 C 
BRANCH   7   8
HETATM    8  C6  UNL     1      17.253   1.628  15.424  1.00  0.00     0.051 C 
BRANCH   8   9
HETATM    9  C5  UNL     1      16.180   1.957  16.396  1.00  0.00     0.019 C 
HETATM   10  C1  UNL     1      15.028   0.999  16.470  1.00  0.00     0.122 C 
HETATM   11  C2  UNL     1      13.853   1.818  17.010  1.00  0.00     0.032 C 
HETATM   12  C3  UNL     1      14.398   3.214  17.182  1.00  0.00     0.003 C 
HETATM   13  C4  UNL     1      15.449   3.268  16.060  1.00  0.00     0.007 C 
BRANCH  10  14
HETATM   14  O1  UNL     1      15.331  -0.044  17.346  1.00  0.00    -0.395 OA
ATOM     15  H1  UNL     1      16.272  -0.129  17.440  1.00  0.00     0.210 HD
ENDBRANCH  10  14
ENDBRANCH   8   9
ENDBRANCH   7   8
ENDBRANCH   1   7
BRANCH   4  16
HETATM   16  C10 UNL     1      20.465   3.415  10.196  1.00  0.00     0.146 A 
HETATM   17  N3  UNL     1      21.723   3.614  10.585  1.00  0.00    -0.346 N 
HETATM   18  C11 UNL     1      22.572   4.135   9.761  1.00  0.00     0.097 A 
ATOM     19  H3  UNL     1      22.015   3.358  11.528  1.00  0.00     0.167 HD
HETATM   20  C12 UNL     1      22.129   4.460   8.502  1.00  0.00     0.070 A 
HETATM   21  S1  UNL     1      20.482   3.988   8.588  1.00  0.00    -0.065 SA
ENDBRANCH   4  16
TORSDOF 5
ENDMDL
MODEL 4
REMARK VINA RESULT: -6.811759605      0.969      1.497
REMARK  5 active torsions:
REMARK  status: ('A' for Active; 'I' for Inactive)
REMARK    1  A    between atoms: O1_1  and  C1_3 
REMARK    2  A    between atoms: C5_7  and  C6_8 
REMARK    3  A    between atoms: C6_8  and  C7_9 
REMARK    4  A    between atoms: C7_9  and  N1_10 
REMARK    5  A    between atoms: N2_13  and  C10_14 
ROOT
HETATM    1  N1  UNL     1      17.197   4.577  13.905  1.00  0.00    -0.371 N 
HETATM    2  C8  UNL     1      18.435   4.539  14.578  1.00  0.00     0.083 C 
HETATM    3  C9  UNL     1      19.600   4.961  13.687  1.00  0.00     0.169 C 
HETATM    4  N2  UNL     1      19.584   4.167  12.511  1.00  0.00    -0.355 N 
HETATM    5  C13 UNL     1      18.461   3.299  12.231  1.00  0.00     0.145 C 
HETATM    6  C14 UNL     1      17.135   3.858  12.676  1.00  0.00     0.147 C 
ENDROOT
BRANCH   1   7
HETATM    7  C7  UNL     1      15.996   4.579  14.643  1.00  0.00     0.063 C 
BRANCH   7   8
HETATM    8  C6  UNL     1      15.411   3.199  14.825  1.00  0.00     0.051 C 
BRANCH   8   9
HETATM    9  C5  UNL     1      15.594   2.742  16.225  1.00  0.00     0.019 C 
HETATM   10  C1  UNL     1      15.735   1.263  16.434  1.00  0.00     0.122 C 
HETATM   11  C2  UNL     1      15.291   1.013  17.877  1.00  0.00     0.032 C 
HETATM   12  C3  UNL     1      14.888   2.368  18.401  1.00  0.00     0.003 C 
HETATM   13  C4  UNL     1      14.380   3.048  17.119  1.00  0.00     0.007 C 
BRANCH  10  14
HETATM   14  O1  UNL     1      17.067   0.884  16.267  1.00  0.00    -0.395 OA
ATOM     15  H1  UNL     1      17.642   1.620  16.439  1.00  0.00     0.210 HD
ENDBRANCH  10  14
ENDBRANCH   8   9
ENDBRANCH   7   8
ENDBRANCH   1   7
BRANCH   4  16
HETATM   16  C10 UNL     1      20.634   4.154  11.517  1.00  0.00     0.146 A 
HETATM   17  N3  UNL     1      21.929   4.390  11.717  1.00  0.00    -0.346 N 
HETATM   18  C11 UNL     1      22.749   4.345  10.720  1.00  0.00     0.097 A 
ATOM     19  H3  UNL     1      22.272   4.605  12.654  1.00  0.00     0.167 HD
HETATM   20  C12 UNL     1      22.236   4.049   9.480  1.00  0.00     0.070 A 
HETATM   21  S1  UNL     1      20.571   3.852   9.838  1.00  0.00    -0.065 SA
ENDBRANCH   4  16
TORSDOF 5
ENDMDL
MODEL 5
REMARK VINA RESULT: -6.806028534      1.848      2.324
REMARK  5 active torsions:
REMARK  status: ('A' for Active; 'I' for Inactive)
REMARK    1  A    between atoms: O1_1  and  C1_3 
REMARK    2  A    between atoms: C5_7  and  C6_8 
REMARK    3  A    between atoms: C6_8  and  C7_9 
REMARK    4  A    between atoms: C7_9  and  N1_10 
REMARK    5  A    between atoms: N2_13  and  C10_14 
ROOT
HETATM    1  N1  UNL     1      17.345   2.056  13.182  1.00  0.00    -0.371 N 
HETATM    2  C8  UNL     1      17.937   3.309  13.435  1.00  0.00     0.083 C 
HETATM    3  C9  UNL     1      18.065   4.162  12.176  1.00  0.00     0.169 C 
HETATM    4  N2  UNL     1      18.756   3.413  11.188  1.00  0.00    -0.355 N 
HETATM    5  C13 UNL     1      19.031   2.008  11.397  1.00  0.00     0.145 C 
HETATM    6  C14 UNL     1      17.946   1.281  12.148  1.00  0.00     0.147 C 
ENDROOT
BRANCH   1   7
HETATM    7  C7  UNL     1      16.817   1.299  14.248  1.00  0.00     0.063 C 
BRANCH   7   8
HETATM    8  C6  UNL     1      17.316   1.753  15.599  1.00  0.00     0.051 C 
BRANCH   8   9
HETATM    9  C5  UNL     1      16.173   2.015  16.509  1.00  0.00     0.019 C 
HETATM   10  C1  UNL     1      15.053   1.017  16.482  1.00  0.00     0.122 C 
HETATM   11  C2  UNL     1      13.818   1.779  16.970  1.00  0.00     0.032 C 
HETATM   12  C3  UNL     1      14.302   3.186  17.216  1.00  0.00     0.003 C 
HETATM   13  C4  UNL     1      15.418   3.310  16.166  1.00  0.00     0.007 C 
BRANCH  10  14
HETATM   14  O1  UNL     1      15.338  -0.042  17.345  1.00  0.00    -0.395 OA
ATOM     15  H1  UNL     1      15.959   0.234  18.008  1.00  0.00     0.210 HD
ENDBRANCH  10  14
ENDBRANCH   8   9
ENDBRANCH   7   8
ENDBRANCH   1   7
BRANCH   4  16
HETATM   16  C10 UNL     1      19.222   3.951   9.930  1.00  0.00     0.146 A 
HETATM   17  N3  UNL     1      20.295   3.565   9.243  1.00  0.00    -0.346 N 
HETATM   18  C11 UNL     1      20.585   4.149   8.127  1.00  0.00     0.097 A 
ATOM     19  H3  UNL     1      20.886   2.811   9.595  1.00  0.00     0.167 HD
HETATM   20  C12 UNL     1      19.755   5.156   7.695  1.00  0.00     0.070 A 
HETATM   21  S1  UNL     1      18.589   5.198   8.952  1.00  0.00    -0.065 SA
ENDBRANCH   4  16
TORSDOF 5
ENDMDL
