MODEL 1
REMARK VINA RESULT: -7.831831324      0.000      0.000
REMARK  4 active torsions:
REMARK  status: ('A' for Active; 'I' for Inactive)
REMARK       I    between atoms: C1_2  and  N1_3 
REMARK       I    between atoms: C1_2  and  N2_12 
REMARK    1  A    between atoms: N1_3  and  C2_5 
REMARK    2  A    between atoms: C2_5  and  C3_6 
REMARK    3  A    between atoms: C3_6  and  C4_7 
REMARK    4  A    between atoms: C11_16  and  C12_17 
ROOT
HETATM    1  O1  UNL     1      18.367   3.160  13.313  1.00  0.00    -0.247 OA
HETATM    2  C1  UNL     1      17.369   2.433  13.147  1.00  0.00     0.319 C 
HETATM    3  N1  UNL     1      16.197   2.731  13.877  1.00  0.00    -0.343 N 
ATOM      4  H1  UNL     1      15.395   2.121  13.723  1.00  0.00     0.164 HD
HETATM    5  N2  UNL     1      17.493   1.355  12.229  1.00  0.00    -0.322 N 
HETATM    6  C8  UNL     1      16.486   0.369  11.868  1.00  0.00     0.128 C 
HETATM    7  C9  UNL     1      16.663   0.299  10.365  1.00  0.00     0.022 C 
HETATM    8  C10 UNL     1      18.179   0.218  10.265  1.00  0.00     0.035 C 
HETATM    9  C11 UNL     1      18.671   1.012  11.458  1.00  0.00     0.166 C 
ENDROOT
BRANCH   9  10
HETATM   10  C12 UNL     1      19.452   2.193  11.041  1.00  0.00     0.171 A 
HETATM   11  N3  UNL     1      20.582   2.644  11.598  1.00  0.00    -0.332 N 
HETATM   12  C13 UNL     1      20.985   3.749  10.927  1.00  0.00     0.206 A 
ATOM     13  H3  UNL     1      21.060   2.226  12.397  1.00  0.00     0.168 HD
HETATM   14  N4  UNL     1      20.062   3.934   9.961  1.00  0.00    -0.255 N 
HETATM   15  O3  UNL     1      19.166   2.994  10.056  1.00  0.00    -0.221 OA
ATOM     16  H4  UNL     1      20.066   4.685   9.270  1.00  0.00     0.195 HD
ENDBRANCH   9  10
BRANCH   3  17
HETATM   17  C2  UNL     1      16.022   3.787  14.798  1.00  0.00     0.125 C 
BRANCH  17  18
HETATM   18  C3  UNL     1      14.778   3.750  15.616  1.00  0.00     0.026 C 
BRANCH  18  19
HETATM   19  C4  UNL     1      14.969   2.885  16.852  1.00  0.00     0.013 C 
HETATM   20  C5  UNL     1      14.011   1.709  16.811  1.00  0.00     0.033 C 
HETATM   21  C6  UNL     1      14.795   0.644  17.513  1.00  0.00     0.168 C 
HETATM   22  O2  UNL     1      16.082   1.079  17.678  1.00  0.00    -0.391 OA
HETATM   23  C7  UNL     1      16.295   2.147  16.812  1.00  0.00     0.172 C 
ENDBRANCH  18  19
ENDBRANCH  17  18
ENDBRANCH   3  17
TORSDOF 4
ENDMDL
MODEL 2
REMARK VINA RESULT: -7.597942612      1.650      2.852
REMARK  4 active torsions:
REMARK  status: ('A' for Active; 'I' for Inactive)
REMARK       I    between atoms: C1_2  and  N1_3 
REMARK       I    between atoms: C1_2  and  N2_12 
REMARK    1  A    between atoms: N1_3  and  C2_5 
REMARK    2  A    between atoms: C2_5  and  C3_6 
REMARK    3  A    between atoms: C3_6  and  C4_7 
REMARK    4  A    between atoms: C11_16  and  C12_17 
ROOT
HETATM    1  O1  UNL     1      15.788   2.494  12.441  1.00  0.00    -0.247 OA
HETATM    2  C1  UNL     1      16.403   3.457  12.937  1.00  0.00     0.319 C 
HETATM    3  N1  UNL     1      15.907   4.020  14.135  1.00  0.00    -0.343 N 
ATOM      4  H1  UNL     1      16.428   4.807  14.520  1.00  0.00     0.164 HD
HETATM    5  N2  UNL     1      17.560   3.915  12.252  1.00  0.00    -0.322 N 
HETATM    6  C8  UNL     1      18.438   5.016  12.618  1.00  0.00     0.128 C 
HETATM    7  C9  UNL     1      19.801   4.409  12.360  1.00  0.00     0.022 C 
HETATM    8  C10 UNL     1      19.569   3.766  11.002  1.00  0.00     0.035 C 
HETATM    9  C11 UNL     1      18.106   3.371  11.025  1.00  0.00     0.166 C 
ENDROOT
BRANCH   9  10
HETATM   10  C12 UNL     1      17.934   1.909  10.916  1.00  0.00     0.171 A 
HETATM   11  N3  UNL     1      18.426   0.981  11.746  1.00  0.00    -0.332 N 
HETATM   12  C13 UNL     1      18.046  -0.241  11.302  1.00  0.00     0.206 A 
ATOM     13  H3  UNL     1      18.992   1.163  12.574  1.00  0.00     0.168 HD
HETATM   14  N4  UNL     1      17.318  -0.005  10.190  1.00  0.00    -0.255 N 
HETATM   15  O3  UNL     1      17.272   1.281   9.989  1.00  0.00    -0.221 OA
ATOM     16  H4  UNL     1      16.878  -0.715   9.605  1.00  0.00     0.195 HD
ENDBRANCH   9  10
BRANCH   3  17
HETATM   17  C2  UNL     1      14.766   3.603  14.854  1.00  0.00     0.125 C 
BRANCH  17  18
HETATM   18  C3  UNL     1      14.666   4.073  16.263  1.00  0.00     0.026 C 
BRANCH  18  19
HETATM   19  C4  UNL     1      14.968   2.942  17.234  1.00  0.00     0.013 C 
HETATM   20  C5  UNL     1      13.939   1.839  17.075  1.00  0.00     0.033 C 
HETATM   21  C6  UNL     1      14.741   0.616  17.398  1.00  0.00     0.168 C 
HETATM   22  O2  UNL     1      16.064   0.960  17.462  1.00  0.00    -0.391 OA
HETATM   23  C7  UNL     1      16.225   2.190  16.834  1.00  0.00     0.172 C 
ENDBRANCH  18  19
ENDBRANCH  17  18
ENDBRANCH   3  17
TORSDOF 4
ENDMDL
MODEL 3
REMARK VINA RESULT: -7.542895055      1.852      3.236
REMARK  4 active torsions:
REMARK  status: ('A' for Active; 'I' for Inactive)
REMARK       I    between atoms: C1_2  and  N1_3 
REMARK       I    between atoms: C1_2  and  N2_12 
REMARK    1  A    between atoms: N1_3  and  C2_5 
REMARK    2  A    between atoms: C2_5  and  C3_6 
REMARK    3  A    between atoms: C3_6  and  C4_7 
REMARK    4  A    between atoms: C11_16  and  C12_17 
ROOT
HETATM    1  O1  UNL     1      15.559   3.011  12.567  1.00  0.00    -0.247 OA
HETATM    2  C1  UNL     1      16.354   3.893  12.943  1.00  0.00     0.319 C 
HETATM    3  N1  UNL     1      15.987   4.698  14.044  1.00  0.00    -0.343 N 
ATOM      4  H1  UNL     1      16.656   5.412  14.331  1.00  0.00     0.164 HD
HETATM    5  N2  UNL     1      17.575   4.018  12.226  1.00  0.00    -0.322 N 
HETATM    6  C8  UNL     1      18.655   4.964  12.460  1.00  0.00     0.128 C 
HETATM    7  C9  UNL     1      19.870   4.071  12.313  1.00  0.00     0.022 C 
HETATM    8  C10 UNL     1      19.507   3.308  11.048  1.00  0.00     0.035 C 
HETATM    9  C11 UNL     1      17.995   3.216  11.094  1.00  0.00     0.166 C 
ENDROOT
BRANCH   9  10
HETATM   10  C12 UNL     1      17.537   1.815  11.178  1.00  0.00     0.171 A 
HETATM   11  N3  UNL     1      16.517   1.264  10.509  1.00  0.00    -0.332 N 
HETATM   12  C13 UNL     1      16.421  -0.040  10.863  1.00  0.00     0.206 A 
ATOM     13  H3  UNL     1      15.912   1.746   9.844  1.00  0.00     0.168 HD
HETATM   14  N4  UNL     1      17.412  -0.239  11.756  1.00  0.00    -0.255 N 
HETATM   15  O3  UNL     1      18.055   0.881  11.921  1.00  0.00    -0.221 OA
ATOM     16  H4  UNL     1      17.623  -1.121  12.224  1.00  0.00     0.195 HD
ENDBRANCH   9  10
BRANCH   3  17
HETATM   17  C2  UNL     1      14.791   4.614  14.788  1.00  0.00     0.125 C 
BRANCH  17  18
HETATM   18  C3  UNL     1      14.903   4.035  16.156  1.00  0.00     0.026 C 
BRANCH  18  19
HETATM   19  C4  UNL     1      14.906   2.515  16.100  1.00  0.00     0.013 C 
HETATM   20  C5  UNL     1      15.935   1.966  17.071  1.00  0.00     0.033 C 
HETATM   21  C6  UNL     1      15.307   0.673  17.492  1.00  0.00     0.168 C 
HETATM   22  O2  UNL     1      14.018   0.639  17.035  1.00  0.00    -0.391 OA
HETATM   23  C7  UNL     1      13.639   1.936  16.702  1.00  0.00     0.172 C 
ENDBRANCH  18  19
ENDBRANCH  17  18
ENDBRANCH   3  17
TORSDOF 4
ENDMDL
MODEL 4
REMARK VINA RESULT: -7.509466703      1.558      3.059
REMARK  4 active torsions:
REMARK  status: ('A' for Active; 'I' for Inactive)
REMARK       I    between atoms: C1_2  and  N1_3 
REMARK       I    between atoms: C1_2  and  N2_12 
REMARK    1  A    between atoms: N1_3  and  C2_5 
REMARK    2  A    between atoms: C2_5  and  C3_6 
REMARK    3  A    between atoms: C3_6  and  C4_7 
REMARK    4  A    between atoms: C11_16  and  C12_17 
ROOT
HETATM    1  O1  UNL     1      16.700   2.713  12.988  1.00  0.00    -0.247 OA
HETATM    2  C1  UNL     1      17.768   3.304  13.234  1.00  0.00     0.319 C 
HETATM    3  N1  UNL     1      17.992   3.757  14.553  1.00  0.00    -0.343 N 
ATOM      4  H1  UNL     1      18.874   4.238  14.728  1.00  0.00     0.164 HD
HETATM    5  N2  UNL     1      18.681   3.475  12.158  1.00  0.00    -0.322 N 
HETATM    6  C8  UNL     1      19.980   4.131  12.185  1.00  0.00     0.128 C 
HETATM    7  C9  UNL     1      20.817   3.167  11.369  1.00  0.00     0.022 C 
HETATM    8  C10 UNL     1      19.884   2.911  10.194  1.00  0.00     0.035 C 
HETATM    9  C11 UNL     1      18.497   3.027  10.792  1.00  0.00     0.166 C 
ENDROOT
BRANCH   9  10
HETATM   10  C12 UNL     1      17.755   1.755  10.698  1.00  0.00     0.171 A 
HETATM   11  N3  UNL     1      18.084   0.591  11.271  1.00  0.00    -0.332 N 
HETATM   12  C13 UNL     1      17.149  -0.333  10.943  1.00  0.00     0.206 A 
ATOM     13  H3  UNL     1      18.903   0.426  11.856  1.00  0.00     0.168 HD
HETATM   14  N4  UNL     1      16.263   0.320  10.164  1.00  0.00    -0.255 N 
HETATM   15  O3  UNL     1      16.651   1.556  10.038  1.00  0.00    -0.221 OA
ATOM     16  H4  UNL     1      15.427  -0.087   9.744  1.00  0.00     0.195 HD
ENDBRANCH   9  10
BRANCH   3  17
HETATM   17  C2  UNL     1      17.120   3.612  15.654  1.00  0.00     0.125 C 
BRANCH  17  18
HETATM   18  C3  UNL     1      17.119   2.281  16.323  1.00  0.00     0.026 C 
BRANCH  18  19
HETATM   19  C4  UNL     1      15.838   2.076  17.117  1.00  0.00     0.013 C 
HETATM   20  C5  UNL     1      14.660   2.641  16.346  1.00  0.00     0.033 C 
HETATM   21  C6  UNL     1      13.549   1.726  16.760  1.00  0.00     0.168 C 
HETATM   22  O2  UNL     1      14.082   0.664  17.439  1.00  0.00    -0.391 OA
HETATM   23  C7  UNL     1      15.445   0.611  17.164  1.00  0.00     0.172 C 
ENDBRANCH  18  19
ENDBRANCH  17  18
ENDBRANCH   3  17
TORSDOF 4
ENDMDL
MODEL 5
REMARK VINA RESULT: -7.272321849      1.921      3.140
REMARK  4 active torsions:
REMARK  status: ('A' for Active; 'I' for Inactive)
REMARK       I    between atoms: C1_2  and  N1_3 
REMARK       I    between atoms: C1_2  and  N2_12 
REMARK    1  A    between atoms: N1_3  and  C2_5 
REMARK    2  A    between atoms: C2_5  and  C3_6 
REMARK    3  A    between atoms: C3_6  and  C4_7 
REMARK    4  A    between atoms: C11_16  and  C12_17 
ROOT
HETATM    1  O1  UNL     1      16.537   3.073  12.604  1.00  0.00    -0.247 OA
HETATM    2  C1  UNL     1      16.717   4.157  13.192  1.00  0.00     0.319 C 
HETATM    3  N1  UNL     1      15.939   4.431  14.339  1.00  0.00    -0.343 N 
ATOM      4  H1  UNL     1      16.105   5.325  14.801  1.00  0.00     0.164 HD
HETATM    5  N2  UNL     1      17.697   5.034  12.655  1.00  0.00    -0.322 N 
HETATM    6  C8  UNL     1      18.086   6.347  13.148  1.00  0.00     0.128 C 
HETATM    7  C9  UNL     1      19.595   6.274  13.033  1.00  0.00     0.022 C 
HETATM    8  C10 UNL     1      19.741   5.679  11.641  1.00  0.00     0.035 C 
HETATM    9  C11 UNL     1      18.519   4.797  11.486  1.00  0.00     0.166 C 
ENDROOT
BRANCH   9  10
HETATM   10  C12 UNL     1      18.890   3.377  11.321  1.00  0.00     0.171 A 
HETATM   11  N3  UNL     1      18.318   2.491  10.496  1.00  0.00    -0.332 N 
HETATM   12  C13 UNL     1      18.945   1.299  10.641  1.00  0.00     0.206 A 
ATOM     13  H3  UNL     1      17.540   2.681   9.865  1.00  0.00     0.168 HD
HETATM   14  N4  UNL     1      19.899   1.510  11.570  1.00  0.00    -0.255 N 
HETATM   15  O3  UNL     1      19.839   2.752  11.954  1.00  0.00    -0.221 OA
ATOM     16  H4  UNL     1      20.558   0.811  11.916  1.00  0.00     0.195 HD
ENDBRANCH   9  10
BRANCH   3  17
HETATM   17  C2  UNL     1      14.956   3.595  14.911  1.00  0.00     0.125 C 
BRANCH  17  18
HETATM   18  C3  UNL     1      14.531   3.931  16.299  1.00  0.00     0.026 C 
BRANCH  18  19
HETATM   19  C4  UNL     1      14.956   2.841  17.272  1.00  0.00     0.013 C 
HETATM   20  C5  UNL     1      13.988   1.676  17.193  1.00  0.00     0.033 C 
HETATM   21  C6  UNL     1      14.879   0.510  17.493  1.00  0.00     0.168 C 
HETATM   22  O2  UNL     1      16.180   0.933  17.475  1.00  0.00    -0.391 OA
HETATM   23  C7  UNL     1      16.231   2.156  16.815  1.00  0.00     0.172 C 
ENDBRANCH  18  19
ENDBRANCH  17  18
ENDBRANCH   3  17
TORSDOF 4
ENDMDL
