MODEL 1
REMARK VINA RESULT: -7.000920045      0.000      0.000
REMARK  4 active torsions:
REMARK  status: ('A' for Active; 'I' for Inactive)
REMARK    1  A    between atoms: C2_5  and  C3_6 
REMARK    2  A    between atoms: C3_6  and  C4_7 
REMARK    3  A    between atoms: C4_7  and  C5_8 
REMARK    4  A    between atoms: C10_15  and  C11_16 
ROOT
HETATM    1  C1  UNL     1      -3.585  -0.053  10.338  1.00  0.00     0.179 C 
HETATM    2  N1  UNL     1      -3.688   0.615  11.613  1.00  0.00    -0.281 N 
HETATM    3  N2  UNL     1      -4.330   0.128  12.659  1.00  0.00    -0.286 N 
ATOM      4  H2  UNL     1      -4.821  -0.766  12.687  1.00  0.00     0.188 HD
HETATM    5  C2  UNL     1      -4.236   0.981  13.663  1.00  0.00     0.097 A 
HETATM    6  N3  UNL     1      -3.508   2.024  13.200  1.00  0.00    -0.331 N 
ATOM      7  H3  UNL     1      -3.259   2.852  13.742  1.00  0.00     0.168 HD
HETATM    8  C10 UNL     1      -3.160   1.808  11.924  1.00  0.00     0.130 A 
ENDROOT
BRANCH   8   9
HETATM    9  C11 UNL     1      -2.368   2.700  11.066  1.00  0.00     0.216 C 
HETATM   10  C12 UNL     1      -3.159   3.896  10.588  1.00  0.00     0.272 C 
HETATM   11  N4  UNL     1      -2.259   5.032  10.523  1.00  0.00    -0.070 N 
HETATM   12  C13 UNL     1      -1.000   4.676   9.906  1.00  0.00     0.258 C 
ATOM     13  H42 UNL     1      -2.694   5.826  10.052  1.00  0.00     0.277 HD
ATOM     14  H41 UNL     1      -2.119   5.451  11.442  1.00  0.00     0.277 HD
HETATM   15  C14 UNL     1      -0.312   3.538  10.645  1.00  0.00     0.196 C 
HETATM   16  O1  UNL     1      -1.183   3.129  11.660  1.00  0.00    -0.375 OA
ENDBRANCH   8   9
BRANCH   5  17
HETATM   17  C3  UNL     1      -4.758   0.942  15.045  1.00  0.00     0.078 C 
BRANCH  17  18
HETATM   18  C4  UNL     1      -3.947   1.715  16.030  1.00  0.00     0.012 C 
BRANCH  18  19
HETATM   19  C5  UNL     1      -4.743   2.783  16.686  1.00  0.00    -0.014 C 
HETATM   20  C6  UNL     1      -4.793   3.960  15.699  1.00  0.00     0.004 C 
HETATM   21  C7  UNL     1      -6.167   4.545  15.819  1.00  0.00     0.000 C 
HETATM   22  C8  UNL     1      -6.837   3.802  16.978  1.00  0.00     0.000 C 
HETATM   23  C9  UNL     1      -6.224   2.408  16.792  1.00  0.00     0.004 C 
ENDBRANCH  18  19
ENDBRANCH  17  18
ENDBRANCH   5  17
TORSDOF 4
ENDMDL
MODEL 2
REMARK VINA RESULT: -6.885567199      1.153      1.696
REMARK  4 active torsions:
REMARK  status: ('A' for Active; 'I' for Inactive)
REMARK    1  A    between atoms: C2_5  and  C3_6 
REMARK    2  A    between atoms: C3_6  and  C4_7 
REMARK    3  A    between atoms: C4_7  and  C5_8 
REMARK    4  A    between atoms: C10_15  and  C11_16 
ROOT
HETATM    1  C1  UNL     1      -3.521   0.337  10.029  1.00  0.00     0.179 C 
HETATM    2  N1  UNL     1      -3.673   0.782  11.394  1.00  0.00    -0.281 N 
HETATM    3  N2  UNL     1      -4.109   0.021  12.380  1.00  0.00    -0.286 N 
ATOM      4  H2  UNL     1      -4.385  -0.957  12.294  1.00  0.00     0.188 HD
HETATM    5  C2  UNL     1      -4.131   0.726  13.497  1.00  0.00     0.097 A 
HETATM    6  N3  UNL     1      -3.690   1.963  13.166  1.00  0.00    -0.331 N 
ATOM      7  H3  UNL     1      -3.592   2.743  13.815  1.00  0.00     0.168 HD
HETATM    8  C10 UNL     1      -3.401   2.010  11.858  1.00  0.00     0.130 A 
ENDROOT
BRANCH   8   9
HETATM    9  C11 UNL     1      -2.896   3.170  11.111  1.00  0.00     0.216 C 
HETATM   10  C12 UNL     1      -1.464   2.989  10.660  1.00  0.00     0.272 C 
HETATM   11  N4  UNL     1      -1.318   3.628   9.366  1.00  0.00    -0.070 N 
HETATM   12  C13 UNL     1      -1.948   4.930   9.343  1.00  0.00     0.258 C 
ATOM     13  H42 UNL     1      -0.338   3.682   9.085  1.00  0.00     0.277 HD
ATOM     14  H41 UNL     1      -1.664   3.032   8.614  1.00  0.00     0.277 HD
HETATM   15  C14 UNL     1      -3.427   4.847   9.692  1.00  0.00     0.196 C 
HETATM   16  O1  UNL     1      -3.691   3.513  10.019  1.00  0.00    -0.375 OA
ENDBRANCH   8   9
BRANCH   5  17
HETATM   17  C3  UNL     1      -4.524   0.378  14.878  1.00  0.00     0.078 C 
BRANCH  17  18
HETATM   18  C4  UNL     1      -4.343   1.482  15.865  1.00  0.00     0.012 C 
BRANCH  18  19
HETATM   19  C5  UNL     1      -5.640   2.074  16.277  1.00  0.00    -0.014 C 
HETATM   20  C6  UNL     1      -5.768   1.838  17.791  1.00  0.00     0.004 C 
HETATM   21  C7  UNL     1      -6.413   3.069  18.351  1.00  0.00     0.000 C 
HETATM   22  C8  UNL     1      -6.790   3.929  17.140  1.00  0.00     0.000 C 
HETATM   23  C9  UNL     1      -5.618   3.603  16.206  1.00  0.00     0.004 C 
ENDBRANCH  18  19
ENDBRANCH  17  18
ENDBRANCH   5  17
TORSDOF 4
ENDMDL
MODEL 3
REMARK VINA RESULT: -6.871212853      1.997      3.703
REMARK  4 active torsions:
REMARK  status: ('A' for Active; 'I' for Inactive)
REMARK    1  A    between atoms: C2_5  and  C3_6 
REMARK    2  A    between atoms: C3_6  and  C4_7 
REMARK    3  A    between atoms: C4_7  and  C5_8 
REMARK    4  A    between atoms: C10_15  and  C11_16 
ROOT
HETATM    1  C1  UNL     1      -4.034   5.264  10.759  1.00  0.00     0.179 C 
HETATM    2  N1  UNL     1      -4.238   4.673  12.060  1.00  0.00    -0.281 N 
HETATM    3  N2  UNL     1      -4.497   5.361  13.157  1.00  0.00    -0.286 N 
ATOM      4  H2  UNL     1      -4.582   6.376  13.212  1.00  0.00     0.188 HD
HETATM    5  C2  UNL     1      -4.627   4.526  14.172  1.00  0.00     0.097 A 
HETATM    6  N3  UNL     1      -4.439   3.286  13.663  1.00  0.00    -0.331 N 
ATOM      7  H3  UNL     1      -4.476   2.420  14.201  1.00  0.00     0.168 HD
HETATM    8  C10 UNL     1      -4.195   3.365  12.348  1.00  0.00     0.130 A 
ENDROOT
BRANCH   8   9
HETATM    9  C11 UNL     1      -3.939   2.244  11.433  1.00  0.00     0.216 C 
HETATM   10  C12 UNL     1      -2.466   1.929  11.301  1.00  0.00     0.272 C 
HETATM   11  N4  UNL     1      -2.326   0.492  11.153  1.00  0.00    -0.070 N 
HETATM   12  C13 UNL     1      -3.290  -0.040  10.215  1.00  0.00     0.258 C 
ATOM     13  H42 UNL     1      -1.373   0.234  10.897  1.00  0.00     0.277 HD
ATOM     14  H41 UNL     1      -2.381   0.017  12.054  1.00  0.00     0.277 HD
HETATM   15  C14 UNL     1      -4.718   0.280  10.629  1.00  0.00     0.196 C 
HETATM   16  O1  UNL     1      -4.637   1.085  11.770  1.00  0.00    -0.375 OA
ENDBRANCH   8   9
BRANCH   5  17
HETATM   17  C3  UNL     1      -4.917   4.750  15.604  1.00  0.00     0.078 C 
BRANCH  17  18
HETATM   18  C4  UNL     1      -6.327   4.467  15.998  1.00  0.00     0.012 C 
BRANCH  18  19
HETATM   19  C5  UNL     1      -6.407   3.459  17.085  1.00  0.00    -0.014 C 
HETATM   20  C6  UNL     1      -7.502   2.460  16.675  1.00  0.00     0.004 C 
HETATM   21  C7  UNL     1      -7.018   1.111  17.113  1.00  0.00     0.000 C 
HETATM   22  C8  UNL     1      -5.732   1.366  17.904  1.00  0.00     0.000 C 
HETATM   23  C9  UNL     1      -5.169   2.560  17.122  1.00  0.00     0.004 C 
ENDBRANCH  18  19
ENDBRANCH  17  18
ENDBRANCH   5  17
TORSDOF 4
ENDMDL
MODEL 4
REMARK VINA RESULT: -6.723477457      1.540      2.224
REMARK  4 active torsions:
REMARK  status: ('A' for Active; 'I' for Inactive)
REMARK    1  A    between atoms: C2_5  and  C3_6 
REMARK    2  A    between atoms: C3_6  and  C4_7 
REMARK    3  A    between atoms: C4_7  and  C5_8 
REMARK    4  A    between atoms: C10_15  and  C11_16 
ROOT
HETATM    1  C1  UNL     1      -2.022   1.010  11.051  1.00  0.00     0.179 C 
HETATM    2  N1  UNL     1      -2.728   2.035  11.784  1.00  0.00    -0.281 N 
HETATM    3  N2  UNL     1      -3.623   1.794  12.724  1.00  0.00    -0.286 N 
ATOM      4  H2  UNL     1      -3.917   0.870  13.038  1.00  0.00     0.188 HD
HETATM    5  C2  UNL     1      -4.078   2.942  13.193  1.00  0.00     0.097 A 
HETATM    6  N3  UNL     1      -3.429   3.911  12.506  1.00  0.00    -0.331 N 
ATOM      7  H3  UNL     1      -3.562   4.914  12.639  1.00  0.00     0.168 HD
HETATM    8  C10 UNL     1      -2.584   3.358  11.625  1.00  0.00     0.130 A 
ENDROOT
BRANCH   8   9
HETATM    9  C11 UNL     1      -1.698   4.068  10.692  1.00  0.00     0.216 C 
HETATM   10  C12 UNL     1      -0.249   4.017  11.119  1.00  0.00     0.272 C 
HETATM   11  N4  UNL     1       0.568   3.936   9.923  1.00  0.00    -0.070 N 
HETATM   12  C13 UNL     1       0.120   4.869   8.911  1.00  0.00     0.258 C 
ATOM     13  H42 UNL     1       1.558   4.064  10.136  1.00  0.00     0.277 HD
ATOM     14  H41 UNL     1       0.607   2.983   9.560  1.00  0.00     0.277 HD
HETATM   15  C14 UNL     1      -1.336   4.638   8.535  1.00  0.00     0.196 C 
HETATM   16  O1  UNL     1      -1.815   3.627   9.375  1.00  0.00    -0.375 OA
ENDBRANCH   8   9
BRANCH   5  17
HETATM   17  C3  UNL     1      -5.076   3.257  14.238  1.00  0.00     0.078 C 
BRANCH  17  18
HETATM   18  C4  UNL     1      -4.488   3.631  15.556  1.00  0.00     0.012 C 
BRANCH  18  19
HETATM   19  C5  UNL     1      -5.072   2.839  16.668  1.00  0.00    -0.014 C 
HETATM   20  C6  UNL     1      -6.580   3.140  16.674  1.00  0.00     0.004 C 
HETATM   21  C7  UNL     1      -7.260   1.849  17.014  1.00  0.00     0.000 C 
HETATM   22  C8  UNL     1      -6.137   0.862  17.350  1.00  0.00     0.000 C 
HETATM   23  C9  UNL     1      -5.060   1.338  16.368  1.00  0.00     0.004 C 
ENDBRANCH  18  19
ENDBRANCH  17  18
ENDBRANCH   5  17
TORSDOF 4
ENDMDL
MODEL 5
REMARK VINA RESULT: -6.674469642      3.532      5.311
REMARK  4 active torsions:
REMARK  status: ('A' for Active; 'I' for Inactive)
REMARK    1  A    between atoms: C2_5  and  C3_6 
REMARK    2  A    between atoms: C3_6  and  C4_7 
REMARK    3  A    between atoms: C4_7  and  C5_8 
REMARK    4  A    between atoms: C10_15  and  C11_16 
ROOT
HETATM    1  C1  UNL     1      -4.438   1.562  15.921  1.00  0.00     0.179 C 
HETATM    2  N1  UNL     1      -4.289   2.792  15.180  1.00  0.00    -0.281 N 
HETATM    3  N2  UNL     1      -4.063   3.970  15.732  1.00  0.00    -0.286 N 
ATOM      4  H2  UNL     1      -3.969   4.146  16.732  1.00  0.00     0.188 HD
HETATM    5  C2  UNL     1      -3.979   4.885  14.783  1.00  0.00     0.097 A 
HETATM    6  N3  UNL     1      -4.161   4.228  13.614  1.00  0.00    -0.331 N 
ATOM      7  H3  UNL     1      -4.153   4.662  12.690  1.00  0.00     0.168 HD
HETATM    8  C10 UNL     1      -4.355   2.923  13.848  1.00  0.00     0.130 A 
ENDROOT
BRANCH   8   9
HETATM    9  C11 UNL     1      -4.589   1.875  12.845  1.00  0.00     0.216 C 
HETATM   10  C12 UNL     1      -5.185   2.420  11.567  1.00  0.00     0.272 C 
HETATM   11  N4  UNL     1      -4.639   1.660  10.458  1.00  0.00    -0.070 N 
HETATM   12  C13 UNL     1      -4.643   0.240  10.736  1.00  0.00     0.258 C 
ATOM     13  H42 UNL     1      -5.125   1.871   9.586  1.00  0.00     0.277 HD
ATOM     14  H41 UNL     1      -3.708   1.988  10.202  1.00  0.00     0.277 HD
HETATM   15  C14 UNL     1      -3.859  -0.089  11.998  1.00  0.00     0.196 C 
HETATM   16  O1  UNL     1      -3.449   1.129  12.549  1.00  0.00    -0.375 OA
ENDBRANCH   8   9
BRANCH   5  17
HETATM   17  C3  UNL     1      -3.740   6.343  14.834  1.00  0.00     0.078 C 
BRANCH  17  18
HETATM   18  C4  UNL     1      -3.098   6.904  13.611  1.00  0.00     0.012 C 
BRANCH  18  19
HETATM   19  C5  UNL     1      -2.513   8.246  13.858  1.00  0.00    -0.014 C 
HETATM   20  C6  UNL     1      -2.578   8.478  15.377  1.00  0.00     0.004 C 
HETATM   21  C7  UNL     1      -1.317   9.201  15.741  1.00  0.00     0.000 C 
HETATM   22  C8  UNL     1      -0.618   9.514  14.414  1.00  0.00     0.000 C 
HETATM   23  C9  UNL     1      -1.003   8.266  13.609  1.00  0.00     0.004 C 
ENDBRANCH  18  19
ENDBRANCH  17  18
ENDBRANCH   5  17
TORSDOF 4
ENDMDL
