MODEL 1
REMARK VINA RESULT: -6.782738971      0.000      0.000
REMARK  3 active torsions:
REMARK  status: ('A' for Active; 'I' for Inactive)
REMARK       I    between atoms: C1_2  and  N1_3 
REMARK    1  A    between atoms: C1_2  and  C7_11 
REMARK    2  A    between atoms: N1_3  and  N2_5 
REMARK    3  A    between atoms: N4_15  and  C9_16 
ROOT
HETATM    1  C7  UNL     1      -3.120   2.712  12.236  1.00  0.00     0.191 A 
HETATM    2  N3  UNL     1      -2.467   1.670  11.690  1.00  0.00    -0.332 N 
ATOM      3  H3  UNL     1      -2.632   0.683  11.887  1.00  0.00     0.168 HD
HETATM    4  C8  UNL     1      -1.541   2.179  10.821  1.00  0.00     0.202 A 
HETATM    5  N4  UNL     1      -1.638   3.504  10.846  1.00  0.00    -0.281 N 
HETATM    6  N5  UNL     1      -2.592   3.816  11.701  1.00  0.00    -0.277 N 
ATOM      7  H5  UNL     1      -2.886   4.767  11.923  1.00  0.00     0.189 HD
ENDROOT
BRANCH   1   8
HETATM    8  C1  UNL     1      -4.189   2.621  13.252  1.00  0.00     0.301 C 
HETATM    9  O1  UNL     1      -5.326   2.992  12.869  1.00  0.00    -0.263 OA
HETATM   10  N1  UNL     1      -3.950   2.152  14.559  1.00  0.00    -0.282 N 
ATOM     11  H1  UNL     1      -3.020   1.850  14.848  1.00  0.00     0.184 HD
BRANCH  10  12
HETATM   12  N2  UNL     1      -5.020   2.115  15.438  1.00  0.00    -0.229 NA
HETATM   13  C2  UNL     1      -5.229   0.863  16.106  1.00  0.00     0.113 C 
HETATM   14  C3  UNL     1      -6.135   1.157  17.308  1.00  0.00     0.016 C 
HETATM   15  C4  UNL     1      -7.138   2.235  17.023  1.00  0.00     0.002 C 
HETATM   16  C5  UNL     1      -6.509   3.548  16.585  1.00  0.00     0.016 C 
HETATM   17  C6  UNL     1      -5.025   3.227  16.380  1.00  0.00     0.113 C 
ENDBRANCH  10  12
ENDBRANCH   1   8
BRANCH   5  18
HETATM   18  C9  UNL     1      -0.811   4.425  10.074  1.00  0.00     0.109 C 
HETATM   19  C10 UNL     1      -0.781   4.040   8.624  1.00  0.00     0.027 C 
HETATM   20  C11 UNL     1       0.568   4.516   8.129  1.00  0.00     0.002 C 
HETATM   21  C12 UNL     1       1.380   4.848   9.351  1.00  0.00     0.002 C 
HETATM   22  C13 UNL     1       0.651   4.164  10.478  1.00  0.00     0.027 C 
ENDBRANCH   5  18
TORSDOF 3
ENDMDL
MODEL 2
REMARK VINA RESULT: -6.733185811      0.960      1.343
REMARK  3 active torsions:
REMARK  status: ('A' for Active; 'I' for Inactive)
REMARK       I    between atoms: C1_2  and  N1_3 
REMARK    1  A    between atoms: C1_2  and  C7_11 
REMARK    2  A    between atoms: N1_3  and  N2_5 
REMARK    3  A    between atoms: N4_15  and  C9_16 
ROOT
HETATM    1  C7  UNL     1      -3.283   3.349  12.289  1.00  0.00     0.191 A 
HETATM    2  N3  UNL     1      -3.473   3.410  10.958  1.00  0.00    -0.332 N 
ATOM      3  H3  UNL     1      -4.355   3.264  10.467  1.00  0.00     0.168 HD
HETATM    4  C8  UNL     1      -2.265   3.702  10.387  1.00  0.00     0.202 A 
HETATM    5  N4  UNL     1      -1.367   3.815  11.358  1.00  0.00    -0.281 N 
HETATM    6  N5  UNL     1      -1.989   3.601  12.502  1.00  0.00    -0.277 N 
ATOM      7  H5  UNL     1      -1.544   3.625  13.419  1.00  0.00     0.189 HD
ENDROOT
BRANCH   1   8
HETATM    8  C1  UNL     1      -4.320   3.032  13.293  1.00  0.00     0.301 C 
HETATM    9  O1  UNL     1      -5.502   3.259  12.932  1.00  0.00    -0.263 OA
HETATM   10  N1  UNL     1      -4.006   2.514  14.565  1.00  0.00    -0.282 N 
ATOM     11  H1  UNL     1      -3.040   2.332  14.835  1.00  0.00     0.184 HD
BRANCH  10  12
HETATM   12  N2  UNL     1      -5.053   2.260  15.435  1.00  0.00    -0.229 NA
HETATM   13  C2  UNL     1      -5.107   0.930  15.968  1.00  0.00     0.113 C 
HETATM   14  C3  UNL     1      -6.025   0.988  17.194  1.00  0.00     0.016 C 
HETATM   15  C4  UNL     1      -7.151   1.965  17.025  1.00  0.00     0.002 C 
HETATM   16  C5  UNL     1      -6.685   3.381  16.727  1.00  0.00     0.016 C 
HETATM   17  C6  UNL     1      -5.176   3.259  16.489  1.00  0.00     0.113 C 
ENDBRANCH  10  12
ENDBRANCH   1   8
BRANCH   5  18
HETATM   18  C9  UNL     1       0.051   4.103  11.168  1.00  0.00     0.109 C 
HETATM   19  C10 UNL     1       0.366   5.528  11.520  1.00  0.00     0.027 C 
HETATM   20  C11 UNL     1       1.539   5.890  10.635  1.00  0.00     0.002 C 
HETATM   21  C12 UNL     1       1.643   4.807   9.596  1.00  0.00     0.002 C 
HETATM   22  C13 UNL     1       0.309   4.111   9.651  1.00  0.00     0.027 C 
ENDBRANCH   5  18
TORSDOF 3
ENDMDL
MODEL 3
REMARK VINA RESULT: -6.694648135      0.966      1.300
REMARK  3 active torsions:
REMARK  status: ('A' for Active; 'I' for Inactive)
REMARK       I    between atoms: C1_2  and  N1_3 
REMARK    1  A    between atoms: C1_2  and  C7_11 
REMARK    2  A    between atoms: N1_3  and  N2_5 
REMARK    3  A    between atoms: N4_15  and  C9_16 
ROOT
HETATM    1  C7  UNL     1      -3.345   3.059  12.172  1.00  0.00     0.191 A 
HETATM    2  N3  UNL     1      -2.356   2.197  11.870  1.00  0.00    -0.332 N 
ATOM      3  H3  UNL     1      -2.180   1.299  12.319  1.00  0.00     0.168 HD
HETATM    4  C8  UNL     1      -1.632   2.749  10.850  1.00  0.00     0.202 A 
HETATM    5  N4  UNL     1      -2.178   3.922  10.545  1.00  0.00    -0.281 N 
HETATM    6  N5  UNL     1      -3.210   4.100  11.347  1.00  0.00    -0.277 N 
ATOM      7  H5  UNL     1      -3.819   4.918  11.338  1.00  0.00     0.189 HD
ENDROOT
BRANCH   1   8
HETATM    8  C1  UNL     1      -4.352   2.874  13.238  1.00  0.00     0.301 C 
HETATM    9  O1  UNL     1      -5.511   3.268  12.955  1.00  0.00    -0.263 OA
HETATM   10  N1  UNL     1      -4.034   2.299  14.484  1.00  0.00    -0.282 N 
ATOM     11  H1  UNL     1      -3.088   1.981  14.692  1.00  0.00     0.184 HD
BRANCH  10  12
HETATM   12  N2  UNL     1      -5.050   2.180  15.418  1.00  0.00    -0.229 NA
HETATM   13  C2  UNL     1      -5.151   0.903  16.063  1.00  0.00     0.113 C 
HETATM   14  C3  UNL     1      -6.004   1.116  17.320  1.00  0.00     0.016 C 
HETATM   15  C4  UNL     1      -7.080   2.141  17.119  1.00  0.00     0.002 C 
HETATM   16  C5  UNL     1      -6.551   3.498  16.682  1.00  0.00     0.016 C 
HETATM   17  C6  UNL     1      -5.065   3.267  16.389  1.00  0.00     0.113 C 
ENDBRANCH  10  12
ENDBRANCH   1   8
BRANCH   5  18
HETATM   18  C9  UNL     1      -1.691   4.839   9.519  1.00  0.00     0.109 C 
HETATM   19  C10 UNL     1      -2.798   5.251   8.593  1.00  0.00     0.027 C 
HETATM   20  C11 UNL     1      -2.112   5.519   7.271  1.00  0.00     0.002 C 
HETATM   21  C12 UNL     1      -0.725   4.947   7.385  1.00  0.00     0.002 C 
HETATM   22  C13 UNL     1      -0.802   4.018   8.568  1.00  0.00     0.027 C 
ENDBRANCH   5  18
TORSDOF 3
ENDMDL
MODEL 4
REMARK VINA RESULT: -6.663401131      1.885      7.718
REMARK  3 active torsions:
REMARK  status: ('A' for Active; 'I' for Inactive)
REMARK       I    between atoms: C1_2  and  N1_3 
REMARK    1  A    between atoms: C1_2  and  C7_11 
REMARK    2  A    between atoms: N1_3  and  N2_5 
REMARK    3  A    between atoms: N4_15  and  C9_16 
ROOT
HETATM    1  C7  UNL     1      -4.135   2.522  12.291  1.00  0.00     0.191 A 
HETATM    2  N3  UNL     1      -4.102   1.205  12.568  1.00  0.00    -0.332 N 
ATOM      3  H3  UNL     1      -3.887   0.454  11.912  1.00  0.00     0.168 HD
HETATM    4  C8  UNL     1      -4.409   1.059  13.893  1.00  0.00     0.202 A 
HETATM    5  N4  UNL     1      -4.624   2.268  14.401  1.00  0.00    -0.281 N 
HETATM    6  N5  UNL     1      -4.456   3.143  13.428  1.00  0.00    -0.277 N 
ATOM      7  H5  UNL     1      -4.556   4.153  13.531  1.00  0.00     0.189 HD
ENDROOT
BRANCH   1   8
HETATM    8  C1  UNL     1      -3.891   3.128  10.966  1.00  0.00     0.301 C 
HETATM    9  O1  UNL     1      -4.409   2.522   9.995  1.00  0.00    -0.263 OA
HETATM   10  N1  UNL     1      -3.128   4.301  10.802  1.00  0.00    -0.282 N 
ATOM     11  H1  UNL     1      -2.720   4.780  11.604  1.00  0.00     0.184 HD
BRANCH  10  12
HETATM   12  N2  UNL     1      -2.951   4.781   9.515  1.00  0.00    -0.229 NA
HETATM   13  C2  UNL     1      -3.852   5.822   9.113  1.00  0.00     0.113 C 
HETATM   14  C3  UNL     1      -3.225   6.490   7.884  1.00  0.00     0.016 C 
HETATM   15  C4  UNL     1      -2.484   5.518   7.014  1.00  0.00     0.002 C 
HETATM   16  C5  UNL     1      -1.383   4.768   7.746  1.00  0.00     0.016 C 
HETATM   17  C6  UNL     1      -1.567   5.135   9.222  1.00  0.00     0.113 C 
ENDBRANCH  10  12
ENDBRANCH   1   8
BRANCH   5  18
HETATM   18  C9  UNL     1      -4.997   2.549  15.783  1.00  0.00     0.109 C 
HETATM   19  C10 UNL     1      -5.740   1.393  16.388  1.00  0.00     0.027 C 
HETATM   20  C11 UNL     1      -6.660   2.023  17.412  1.00  0.00     0.002 C 
HETATM   21  C12 UNL     1      -6.659   3.502  17.136  1.00  0.00     0.002 C 
HETATM   22  C13 UNL     1      -6.102   3.619  15.742  1.00  0.00     0.027 C 
ENDBRANCH   5  18
TORSDOF 3
ENDMDL
MODEL 5
REMARK VINA RESULT: -6.547351858      1.121      1.460
REMARK  3 active torsions:
REMARK  status: ('A' for Active; 'I' for Inactive)
REMARK       I    between atoms: C1_2  and  N1_3 
REMARK    1  A    between atoms: C1_2  and  C7_11 
REMARK    2  A    between atoms: N1_3  and  N2_5 
REMARK    3  A    between atoms: N4_15  and  C9_16 
ROOT
HETATM    1  C7  UNL     1      -3.313   3.302  12.292  1.00  0.00     0.191 A 
HETATM    2  N3  UNL     1      -3.096   2.603  11.162  1.00  0.00    -0.332 N 
ATOM      3  H3  UNL     1      -3.620   1.788  10.846  1.00  0.00     0.168 HD
HETATM    4  C8  UNL     1      -2.042   3.188  10.517  1.00  0.00     0.202 A 
HETATM    5  N4  UNL     1      -1.634   4.221  11.247  1.00  0.00    -0.281 N 
HETATM    6  N5  UNL     1      -2.407   4.282  12.315  1.00  0.00    -0.277 N 
ATOM      7  H5  UNL     1      -2.323   4.980  13.054  1.00  0.00     0.189 HD
ENDROOT
BRANCH   1   8
HETATM    8  C1  UNL     1      -4.345   2.999  13.306  1.00  0.00     0.301 C 
HETATM    9  O1  UNL     1      -5.526   3.257  12.962  1.00  0.00    -0.263 OA
HETATM   10  N1  UNL     1      -4.027   2.462  14.568  1.00  0.00    -0.282 N 
ATOM     11  H1  UNL     1      -3.062   2.255  14.825  1.00  0.00     0.184 HD
BRANCH  10  12
HETATM   12  N2  UNL     1      -5.069   2.224  15.450  1.00  0.00    -0.229 NA
HETATM   13  C2  UNL     1      -5.131   0.897  15.991  1.00  0.00     0.113 C 
HETATM   14  C3  UNL     1      -6.037   0.972  17.225  1.00  0.00     0.016 C 
HETATM   15  C4  UNL     1      -7.154   1.959  17.061  1.00  0.00     0.002 C 
HETATM   16  C5  UNL     1      -6.676   3.369  16.751  1.00  0.00     0.016 C 
HETATM   17  C6  UNL     1      -5.171   3.230  16.500  1.00  0.00     0.113 C 
ENDBRANCH  10  12
ENDBRANCH   1   8
BRANCH   5  18
HETATM   18  C9  UNL     1      -0.517   5.100  10.918  1.00  0.00     0.109 C 
HETATM   19  C10 UNL     1       0.756   4.320  10.760  1.00  0.00     0.027 C 
HETATM   20  C11 UNL     1       1.849   5.286  11.165  1.00  0.00     0.002 C 
HETATM   21  C12 UNL     1       1.168   6.444  11.843  1.00  0.00     0.002 C 
HETATM   22  C13 UNL     1      -0.204   5.921  12.181  1.00  0.00     0.027 C 
ENDBRANCH   5  18
TORSDOF 3
ENDMDL
