MODEL 1
REMARK VINA RESULT: -5.032081812      0.000      0.000
REMARK  2 active torsions:
REMARK  status: ('A' for Active; 'I' for Inactive)
REMARK    1  A    between atoms: O1_1  and  C1_3 
REMARK    2  A    between atoms: C6_10  and  O4_11 
ROOT
HETATM    1  C1  UNL     1       6.379  -8.749  28.587  1.00  0.00     0.145 C 
HETATM    2  C2  UNL     1       6.232  -7.283  28.820  1.00  0.00     0.200 C 
HETATM    3  O2  UNL     1       5.770  -6.685  27.683  1.00  0.00    -0.373 OA
HETATM    4  C3  UNL     1       5.565  -7.628  26.712  1.00  0.00     0.112 C 
HETATM    5  C4  UNL     1       5.946  -7.186  25.327  1.00  0.00     0.208 C 
HETATM    6  O3  UNL     1       4.799  -6.614  24.842  1.00  0.00    -0.385 OA
HETATM    7  C5  UNL     1       3.715  -7.345  25.296  1.00  0.00     0.202 C 
HETATM    8  C6  UNL     1       4.110  -7.945  26.629  1.00  0.00     0.178 C 
HETATM    9  C7  UNL     1       6.424  -8.823  27.062  1.00  0.00     0.077 C 
ENDROOT
BRANCH   8  10
HETATM   10  O4  UNL     1       3.390  -7.283  27.626  1.00  0.00    -0.390 OA
ATOM     11  H4  UNL     1       2.535  -7.678  27.754  1.00  0.00     0.210 HD
ENDBRANCH   8  10
BRANCH   1  12
HETATM   12  O1  UNL     1       5.269  -9.491  28.978  1.00  0.00    -0.393 OA
ATOM     13  H1  UNL     1       5.167  -9.559  29.920  1.00  0.00     0.210 HD
ENDBRANCH   1  12
TORSDOF 2
ENDMDL
MODEL 2
REMARK VINA RESULT: -4.986682588      1.610      3.586
REMARK  2 active torsions:
REMARK  status: ('A' for Active; 'I' for Inactive)
REMARK    1  A    between atoms: O1_1  and  C1_3 
REMARK    2  A    between atoms: C6_10  and  O4_11 
ROOT
HETATM    1  C1  UNL     1       5.952  -7.742  23.521  1.00  0.00     0.145 C 
HETATM    2  C2  UNL     1       5.554  -6.321  23.732  1.00  0.00     0.200 C 
HETATM    3  O2  UNL     1       4.775  -6.226  24.849  1.00  0.00    -0.373 OA
HETATM    4  C3  UNL     1       4.639  -7.461  25.426  1.00  0.00     0.112 C 
HETATM    5  C4  UNL     1       3.271  -7.737  25.985  1.00  0.00     0.208 C 
HETATM    6  O3  UNL     1       3.349  -7.277  27.274  1.00  0.00    -0.385 OA
HETATM    7  C5  UNL     1       4.608  -7.565  27.771  1.00  0.00     0.202 C 
HETATM    8  C6  UNL     1       5.561  -7.565  26.594  1.00  0.00     0.178 C 
HETATM    9  C7  UNL     1       4.908  -8.489  24.350  1.00  0.00     0.077 C 
ENDROOT
BRANCH   8  10
HETATM   10  O4  UNL     1       6.372  -6.433  26.701  1.00  0.00    -0.390 OA
ATOM     11  H4  UNL     1       5.865  -5.635  26.606  1.00  0.00     0.210 HD
ENDBRANCH   8  10
BRANCH   1  12
HETATM   12  O1  UNL     1       7.188  -8.064  24.073  1.00  0.00    -0.393 OA
ATOM     13  H1  UNL     1       7.156  -8.795  24.679  1.00  0.00     0.210 HD
ENDBRANCH   1  12
TORSDOF 2
ENDMDL
MODEL 3
REMARK VINA RESULT: -4.733989526      7.858      8.891
REMARK  2 active torsions:
REMARK  status: ('A' for Active; 'I' for Inactive)
REMARK    1  A    between atoms: O1_1  and  C1_3 
REMARK    2  A    between atoms: C6_10  and  O4_11 
ROOT
HETATM    1  C1  UNL     1       3.067  -1.231  22.599  1.00  0.00     0.145 C 
HETATM    2  C2  UNL     1       1.698  -0.936  22.088  1.00  0.00     0.200 C 
HETATM    3  O2  UNL     1       1.575  -1.410  20.813  1.00  0.00    -0.373 OA
HETATM    4  C3  UNL     1       2.737  -2.027  20.433  1.00  0.00     0.112 C 
HETATM    5  C4  UNL     1       3.126  -1.788  19.001  1.00  0.00     0.208 C 
HETATM    6  O3  UNL     1       2.508  -2.805  18.323  1.00  0.00    -0.385 OA
HETATM    7  C5  UNL     1       2.559  -3.949  19.099  1.00  0.00     0.202 C 
HETATM    8  C6  UNL     1       2.572  -3.505  20.546  1.00  0.00     0.178 C 
HETATM    9  C7  UNL     1       3.842  -1.474  21.305  1.00  0.00     0.077 C 
ENDROOT
BRANCH   8  10
HETATM   10  O4  UNL     1       1.336  -3.835  21.107  1.00  0.00    -0.390 OA
ATOM     11  H4  UNL     1       0.823  -3.057  21.292  1.00  0.00     0.210 HD
ENDBRANCH   8  10
BRANCH   1  12
HETATM   12  O1  UNL     1       3.149  -2.415  23.326  1.00  0.00    -0.393 OA
ATOM     13  H1  UNL     1       3.566  -3.125  22.854  1.00  0.00     0.210 HD
ENDBRANCH   1  12
TORSDOF 2
ENDMDL
MODEL 4
REMARK VINA RESULT: -4.704447049      6.543      8.289
REMARK  2 active torsions:
REMARK  status: ('A' for Active; 'I' for Inactive)
REMARK    1  A    between atoms: O1_1  and  C1_3 
REMARK    2  A    between atoms: C6_10  and  O4_11 
ROOT
HETATM    1  C1  UNL     1       2.682  -3.709  23.018  1.00  0.00     0.145 C 
HETATM    2  C2  UNL     1       3.992  -4.083  22.411  1.00  0.00     0.200 C 
HETATM    3  O2  UNL     1       3.994  -3.748  21.088  1.00  0.00    -0.373 OA
HETATM    4  C3  UNL     1       2.806  -3.152  20.758  1.00  0.00     0.112 C 
HETATM    5  C4  UNL     1       2.277  -3.533  19.403  1.00  0.00     0.208 C 
HETATM    6  O3  UNL     1       2.836  -2.605  18.564  1.00  0.00    -0.385 OA
HETATM    7  C5  UNL     1       2.870  -1.385  19.215  1.00  0.00     0.202 C 
HETATM    8  C6  UNL     1       2.995  -1.674  20.696  1.00  0.00     0.178 C 
HETATM    9  C7  UNL     1       1.787  -3.589  21.785  1.00  0.00     0.077 C 
ENDROOT
BRANCH   8  10
HETATM   10  O4  UNL     1       4.283  -1.311  21.097  1.00  0.00    -0.390 OA
ATOM     11  H4  UNL     1       4.429  -1.515  22.013  1.00  0.00     0.210 HD
ENDBRANCH   8  10
BRANCH   1  12
HETATM   12  O1  UNL     1       2.683  -2.454  23.619  1.00  0.00    -0.393 OA
ATOM     13  H1  UNL     1       3.196  -1.807  23.151  1.00  0.00     0.210 HD
ENDBRANCH   1  12
TORSDOF 2
ENDMDL
MODEL 5
REMARK VINA RESULT: -4.573684019      1.630      2.506
REMARK  2 active torsions:
REMARK  status: ('A' for Active; 'I' for Inactive)
REMARK    1  A    between atoms: O1_1  and  C1_3 
REMARK    2  A    between atoms: C6_10  and  O4_11 
ROOT
HETATM    1  C1  UNL     1       6.230  -7.799  28.077  1.00  0.00     0.145 C 
HETATM    2  C2  UNL     1       6.548  -8.975  27.217  1.00  0.00     0.200 C 
HETATM    3  O2  UNL     1       5.731  -8.974  26.123  1.00  0.00    -0.373 OA
HETATM    4  C3  UNL     1       4.908  -7.880  26.159  1.00  0.00     0.112 C 
HETATM    5  C4  UNL     1       3.506  -8.143  25.685  1.00  0.00     0.208 C 
HETATM    6  O3  UNL     1       3.567  -7.900  24.338  1.00  0.00    -0.385 OA
HETATM    7  C5  UNL     1       4.413  -6.827  24.121  1.00  0.00     0.202 C 
HETATM    8  C6  UNL     1       5.436  -6.833  25.237  1.00  0.00     0.178 C 
HETATM    9  C7  UNL     1       4.826  -7.430  27.600  1.00  0.00     0.077 C 
ENDROOT
BRANCH   8  10
HETATM   10  O4  UNL     1       6.664  -7.213  24.690  1.00  0.00    -0.390 OA
ATOM     11  H4  UNL     1       7.389  -6.888  25.211  1.00  0.00     0.210 HD
ENDBRANCH   8  10
BRANCH   1  12
HETATM   12  O1  UNL     1       7.029  -6.688  27.824  1.00  0.00    -0.393 OA
ATOM     13  H1  UNL     1       6.587  -5.860  27.966  1.00  0.00     0.210 HD
ENDBRANCH   1  12
TORSDOF 2
ENDMDL
