MODEL 1
REMARK VINA RESULT: -6.009252593      0.000      0.000
REMARK  7 active torsions:
REMARK  status: ('A' for Active; 'I' for Inactive)
REMARK    1  A    between atoms: O1_1  and  C1_3 
REMARK    2  A    between atoms: C1_3  and  C2_4 
REMARK    3  A    between atoms: C2_4  and  C3_5 
REMARK    4  A    between atoms: C3_5  and  O2_6 
REMARK    5  A    between atoms: C4_9  and  N1_10 
REMARK    6  A    between atoms: C9_15  and  O3_16 
REMARK    7  A    between atoms: C10_18  and  O4_19 
ROOT
HETATM    1  C2  UNL     1       5.998  -5.186  27.131  1.00  0.00     0.081 C 
HETATM    2  S1  UNL     1       5.483  -5.460  25.408  1.00  0.00    -0.123 SA
HETATM    3  C4  UNL     1       6.354  -3.985  24.770  1.00  0.00     0.182 C 
HETATM    4  C9  UNL     1       6.113  -3.058  25.936  1.00  0.00     0.181 C 
HETATM    5  C10 UNL     1       6.434  -3.768  27.181  1.00  0.00     0.172 C 
ENDROOT
BRANCH   1   6
HETATM    6  C1  UNL     1       4.894  -5.513  28.102  1.00  0.00     0.189 C 
BRANCH   6   7
HETATM    7  O1  UNL     1       5.432  -5.912  29.313  1.00  0.00    -0.399 OA
ATOM      8  H1  UNL     1       5.542  -5.160  29.883  1.00  0.00     0.209 HD
ENDBRANCH   6   7
ENDBRANCH   1   6
BRANCH   1   9
HETATM    9  C3  UNL     1       7.180  -6.110  27.390  1.00  0.00     0.189 C 
BRANCH   9  10
HETATM   10  O2  UNL     1       8.174  -5.492  28.116  1.00  0.00    -0.399 OA
ATOM     11  H2  UNL     1       8.977  -6.000  28.129  1.00  0.00     0.209 HD
ENDBRANCH   9  10
ENDBRANCH   1   9
BRANCH   5  12
HETATM   12  O4  UNL     1       5.767  -3.163  28.267  1.00  0.00    -0.391 OA
ATOM     13  H4  UNL     1       5.577  -2.267  28.016  1.00  0.00     0.210 HD
ENDBRANCH   5  12
BRANCH   3  14
HETATM   14  N1  UNL     1       5.835  -3.524  23.538  1.00  0.00    -0.350 N 
HETATM   15  C5  UNL     1       4.716  -2.839  23.287  1.00  0.00     0.092 A 
HETATM   16  C6  UNL     1       4.585  -2.592  21.954  1.00  0.00     0.019 A 
HETATM   17  C7  UNL     1       5.687  -3.154  21.328  1.00  0.00     0.019 A 
HETATM   18  C8  UNL     1       6.426  -3.715  22.338  1.00  0.00     0.092 A 
ENDBRANCH   3  14
BRANCH   4  19
HETATM   19  O3  UNL     1       6.989  -1.969  25.773  1.00  0.00    -0.390 OA
ATOM     20  H3  UNL     1       6.446  -1.198  25.661  1.00  0.00     0.210 HD
ENDBRANCH   4  19
TORSDOF 7
ENDMDL
MODEL 2
REMARK VINA RESULT: -5.357517158      2.012      2.487
REMARK  7 active torsions:
REMARK  status: ('A' for Active; 'I' for Inactive)
REMARK    1  A    between atoms: O1_1  and  C1_3 
REMARK    2  A    between atoms: C1_3  and  C2_4 
REMARK    3  A    between atoms: C2_4  and  C3_5 
REMARK    4  A    between atoms: C3_5  and  O2_6 
REMARK    5  A    between atoms: C4_9  and  N1_10 
REMARK    6  A    between atoms: C9_15  and  O3_16 
REMARK    7  A    between atoms: C10_18  and  O4_19 
ROOT
HETATM    1  C2  UNL     1       5.845  -4.237  26.231  1.00  0.00     0.081 C 
HETATM    2  S1  UNL     1       4.310  -3.794  25.361  1.00  0.00    -0.123 SA
HETATM    3  C4  UNL     1       5.156  -2.764  24.110  1.00  0.00     0.182 C 
HETATM    4  C9  UNL     1       6.221  -2.164  24.994  1.00  0.00     0.181 C 
HETATM    5  C10 UNL     1       6.843  -3.236  25.781  1.00  0.00     0.172 C 
ENDROOT
BRANCH   1   6
HETATM    6  C1  UNL     1       5.649  -4.267  27.724  1.00  0.00     0.189 C 
BRANCH   6   7
HETATM    7  O1  UNL     1       4.807  -3.240  28.112  1.00  0.00    -0.399 OA
ATOM      8  H1  UNL     1       4.744  -3.211  29.060  1.00  0.00     0.209 HD
ENDBRANCH   6   7
ENDBRANCH   1   6
BRANCH   1   9
HETATM    9  C3  UNL     1       6.237  -5.627  25.752  1.00  0.00     0.189 C 
BRANCH   9  10
HETATM   10  O2  UNL     1       5.249  -6.211  24.988  1.00  0.00    -0.399 OA
ATOM     11  H2  UNL     1       5.584  -6.540  24.162  1.00  0.00     0.209 HD
ENDBRANCH   9  10
ENDBRANCH   1   9
BRANCH   5  12
HETATM   12  O4  UNL     1       7.446  -2.697  26.937  1.00  0.00    -0.391 OA
ATOM     13  H4  UNL     1       8.387  -2.750  26.815  1.00  0.00     0.210 HD
ENDBRANCH   5  12
BRANCH   3  14
HETATM   14  N1  UNL     1       4.300  -1.819  23.499  1.00  0.00    -0.350 N 
HETATM   15  C5  UNL     1       3.770  -0.699  23.999  1.00  0.00     0.092 A 
HETATM   16  C6  UNL     1       2.995  -0.070  23.073  1.00  0.00     0.019 A 
HETATM   17  C7  UNL     1       3.039  -0.839  21.920  1.00  0.00     0.019 A 
HETATM   18  C8  UNL     1       3.850  -1.901  22.227  1.00  0.00     0.092 A 
ENDBRANCH   3  14
BRANCH   4  19
HETATM   19  O3  UNL     1       7.178  -1.588  24.138  1.00  0.00    -0.390 OA
ATOM     20  H3  UNL     1       7.526  -0.829  24.591  1.00  0.00     0.210 HD
ENDBRANCH   4  19
TORSDOF 7
ENDMDL
MODEL 3
REMARK VINA RESULT: -5.314675704      1.691      2.632
REMARK  7 active torsions:
REMARK  status: ('A' for Active; 'I' for Inactive)
REMARK    1  A    between atoms: O1_1  and  C1_3 
REMARK    2  A    between atoms: C1_3  and  C2_4 
REMARK    3  A    between atoms: C2_4  and  C3_5 
REMARK    4  A    between atoms: C3_5  and  O2_6 
REMARK    5  A    between atoms: C4_9  and  N1_10 
REMARK    6  A    between atoms: C9_15  and  O3_16 
REMARK    7  A    between atoms: C10_18  and  O4_19 
ROOT
HETATM    1  C2  UNL     1       5.978  -4.534  26.955  1.00  0.00     0.081 C 
HETATM    2  S1  UNL     1       5.761  -3.295  25.640  1.00  0.00    -0.123 SA
HETATM    3  C4  UNL     1       5.545  -4.539  24.318  1.00  0.00     0.182 C 
HETATM    4  C9  UNL     1       6.531  -5.568  24.813  1.00  0.00     0.181 C 
HETATM    5  C10 UNL     1       6.301  -5.796  26.245  1.00  0.00     0.172 C 
ENDROOT
BRANCH   1   6
HETATM    6  C1  UNL     1       7.028  -4.112  27.949  1.00  0.00     0.189 C 
BRANCH   6   7
HETATM    7  O1  UNL     1       6.617  -4.423  29.233  1.00  0.00    -0.399 OA
ATOM      8  H1  UNL     1       6.573  -3.634  29.760  1.00  0.00     0.209 HD
ENDBRANCH   6   7
ENDBRANCH   1   6
BRANCH   1   9
HETATM    9  C3  UNL     1       4.639  -4.657  27.668  1.00  0.00     0.189 C 
BRANCH   9  10
HETATM   10  O2  UNL     1       4.360  -5.958  28.028  1.00  0.00    -0.399 OA
ATOM     11  H2  UNL     1       3.621  -6.014  28.623  1.00  0.00     0.209 HD
ENDBRANCH   9  10
ENDBRANCH   1   9
BRANCH   5  12
HETATM   12  O4  UNL     1       7.464  -6.325  26.842  1.00  0.00    -0.391 OA
ATOM     13  H4  UNL     1       8.037  -6.609  26.139  1.00  0.00     0.210 HD
ENDBRANCH   5  12
BRANCH   3  14
HETATM   14  N1  UNL     1       5.825  -4.032  23.028  1.00  0.00    -0.350 N 
HETATM   15  C5  UNL     1       6.935  -4.139  22.292  1.00  0.00     0.092 A 
HETATM   16  C6  UNL     1       6.791  -3.500  21.097  1.00  0.00     0.019 A 
HETATM   17  C7  UNL     1       5.515  -2.958  21.080  1.00  0.00     0.019 A 
HETATM   18  C8  UNL     1       4.959  -3.309  22.284  1.00  0.00     0.092 A 
ENDBRANCH   3  14
BRANCH   4  19
HETATM   19  O3  UNL     1       6.271  -6.752  24.098  1.00  0.00    -0.390 OA
ATOM     20  H3  UNL     1       5.333  -6.782  23.953  1.00  0.00     0.210 HD
ENDBRANCH   4  19
TORSDOF 7
ENDMDL
MODEL 4
REMARK VINA RESULT: -5.305367767      3.117      4.678
REMARK  7 active torsions:
REMARK  status: ('A' for Active; 'I' for Inactive)
REMARK    1  A    between atoms: O1_1  and  C1_3 
REMARK    2  A    between atoms: C1_3  and  C2_4 
REMARK    3  A    between atoms: C2_4  and  C3_5 
REMARK    4  A    between atoms: C3_5  and  O2_6 
REMARK    5  A    between atoms: C4_9  and  N1_10 
REMARK    6  A    between atoms: C9_15  and  O3_16 
REMARK    7  A    between atoms: C10_18  and  O4_19 
ROOT
HETATM    1  C2  UNL     1       5.323  -2.703  24.163  1.00  0.00     0.081 C 
HETATM    2  S1  UNL     1       4.295  -1.327  23.562  1.00  0.00    -0.123 SA
HETATM    3  C4  UNL     1       3.950  -2.112  21.948  1.00  0.00     0.182 C 
HETATM    4  C9  UNL     1       5.292  -2.764  21.722  1.00  0.00     0.181 C 
HETATM    5  C10 UNL     1       5.689  -3.469  22.946  1.00  0.00     0.172 C 
ENDROOT
BRANCH   1   6
HETATM    6  C1  UNL     1       6.510  -2.210  24.948  1.00  0.00     0.189 C 
BRANCH   6   7
HETATM    7  O1  UNL     1       6.755  -3.055  26.016  1.00  0.00    -0.399 OA
ATOM      8  H1  UNL     1       7.575  -2.820  26.435  1.00  0.00     0.209 HD
ENDBRANCH   6   7
ENDBRANCH   1   6
BRANCH   1   9
HETATM    9  C3  UNL     1       4.440  -3.547  25.072  1.00  0.00     0.189 C 
BRANCH   9  10
HETATM   10  O2  UNL     1       3.573  -2.775  25.816  1.00  0.00    -0.399 OA
ATOM     11  H2  UNL     1       2.701  -3.152  25.854  1.00  0.00     0.209 HD
ENDBRANCH   9  10
ENDBRANCH   1   9
BRANCH   5  12
HETATM   12  O4  UNL     1       7.089  -3.645  22.969  1.00  0.00    -0.391 OA
ATOM     13  H4  UNL     1       7.419  -3.173  23.725  1.00  0.00     0.210 HD
ENDBRANCH   5  12
BRANCH   3  14
HETATM   14  N1  UNL     1       3.573  -1.184  20.949  1.00  0.00    -0.350 N 
HETATM   15  C5  UNL     1       2.945  -1.390  19.788  1.00  0.00     0.092 A 
HETATM   16  C6  UNL     1       2.772  -0.219  19.114  1.00  0.00     0.019 A 
HETATM   17  C7  UNL     1       3.322   0.784  19.898  1.00  0.00     0.019 A 
HETATM   18  C8  UNL     1       3.802   0.146  21.013  1.00  0.00     0.092 A 
ENDBRANCH   3  14
BRANCH   4  19
HETATM   19  O3  UNL     1       5.119  -3.690  20.677  1.00  0.00    -0.390 OA
ATOM     20  H3  UNL     1       5.799  -4.345  20.778  1.00  0.00     0.210 HD
ENDBRANCH   4  19
TORSDOF 7
ENDMDL
MODEL 5
REMARK VINA RESULT: -5.237079216      3.041      4.053
REMARK  7 active torsions:
REMARK  status: ('A' for Active; 'I' for Inactive)
REMARK    1  A    between atoms: O1_1  and  C1_3 
REMARK    2  A    between atoms: C1_3  and  C2_4 
REMARK    3  A    between atoms: C2_4  and  C3_5 
REMARK    4  A    between atoms: C3_5  and  O2_6 
REMARK    5  A    between atoms: C4_9  and  N1_10 
REMARK    6  A    between atoms: C9_15  and  O3_16 
REMARK    7  A    between atoms: C10_18  and  O4_19 
ROOT
HETATM    1  C2  UNL     1       5.662  -3.757  23.810  1.00  0.00     0.081 C 
HETATM    2  S1  UNL     1       4.258  -2.848  23.094  1.00  0.00    -0.123 SA
HETATM    3  C4  UNL     1       5.227  -1.331  22.777  1.00  0.00     0.182 C 
HETATM    4  C9  UNL     1       6.104  -1.363  24.005  1.00  0.00     0.181 C 
HETATM    5  C10 UNL     1       6.658  -2.713  24.157  1.00  0.00     0.172 C 
ENDROOT
BRANCH   1   6
HETATM    6  C1  UNL     1       5.238  -4.602  24.982  1.00  0.00     0.189 C 
BRANCH   6   7
HETATM    7  O1  UNL     1       5.388  -5.944  24.677  1.00  0.00    -0.399 OA
ATOM      8  H1  UNL     1       6.221  -6.261  25.006  1.00  0.00     0.209 HD
ENDBRANCH   6   7
ENDBRANCH   1   6
BRANCH   1   9
HETATM    9  C3  UNL     1       6.205  -4.662  22.714  1.00  0.00     0.189 C 
BRANCH   9  10
HETATM   10  O2  UNL     1       7.520  -5.011  22.933  1.00  0.00    -0.399 OA
ATOM     11  H2  UNL     1       7.617  -5.935  23.134  1.00  0.00     0.209 HD
ENDBRANCH   9  10
ENDBRANCH   1   9
BRANCH   5  12
HETATM   12  O4  UNL     1       7.040  -2.930  25.498  1.00  0.00    -0.391 OA
ATOM     13  H4  UNL     1       7.945  -2.653  25.580  1.00  0.00     0.210 HD
ENDBRANCH   5  12
BRANCH   3  14
HETATM   14  N1  UNL     1       4.423  -0.173  22.661  1.00  0.00    -0.350 N 
HETATM   15  C5  UNL     1       4.520   0.851  21.809  1.00  0.00     0.092 A 
HETATM   16  C6  UNL     1       3.540   1.768  22.036  1.00  0.00     0.019 A 
HETATM   17  C7  UNL     1       2.779   1.295  23.094  1.00  0.00     0.019 A 
HETATM   18  C8  UNL     1       3.357   0.102  23.446  1.00  0.00     0.092 A 
ENDBRANCH   3  14
BRANCH   4  19
HETATM   19  O3  UNL     1       7.147  -0.446  23.779  1.00  0.00    -0.390 OA
ATOM     20  H3  UNL     1       7.946  -0.863  24.078  1.00  0.00     0.210 HD
ENDBRANCH   4  19
TORSDOF 7
ENDMDL
