MODEL 1
REMARK VINA RESULT: -8.274150874      0.000      0.000
REMARK  5 active torsions:
REMARK  status: ('A' for Active; 'I' for Inactive)
REMARK    1  A    between atoms: C1_2  and  C2_4 
REMARK       I    between atoms: N2_8  and  C6_9 
REMARK       I    between atoms: C6_9  and  N3_11 
REMARK    2  A    between atoms: N3_11  and  C7_13 
REMARK    3  A    between atoms: C7_13  and  C8_14 
REMARK    4  A    between atoms: C12_20  and  C13_21 
REMARK    5  A    between atoms: C12_20  and  C14_24 
ROOT
HETATM    1  C7  UNL     1      70.243  -2.759 102.373  1.00  0.00     0.114 C 
HETATM    2  C9  UNL     1      70.774  -3.940 101.654  1.00  0.00     0.041 C 
HETATM    3  C10 UNL     1      71.119  -5.095 102.561  1.00  0.00     0.005 C 
HETATM    4  C11 UNL     1      70.071  -5.395 103.565  1.00  0.00     0.030 C 
HETATM    5  C12 UNL     1      69.498  -4.245 104.318  1.00  0.00     0.129 C 
HETATM    6  C15 UNL     1      69.327  -3.011 103.515  1.00  0.00     0.070 C 
ENDROOT
BRANCH   1   7
HETATM    7  N3  UNL     1      69.490  -1.927 101.421  1.00  0.00    -0.325 N 
HETATM    8  C6  UNL     1      68.390  -2.373 100.657  1.00  0.00     0.320 C 
HETATM    9  N2  UNL     1      67.724  -1.493  99.764  1.00  0.00    -0.321 N 
HETATM   10  O2  UNL     1      67.937  -3.549 100.712  1.00  0.00    -0.247 OA
HETATM   11  C2  UNL     1      68.036  -0.089  99.490  1.00  0.00     0.178 C 
HETATM   12  C5  UNL     1      66.596  -1.828  98.941  1.00  0.00     0.129 C 
HETATM   13  C3  UNL     1      67.515   0.175  98.105  1.00  0.00     0.036 C 
HETATM   14  C4  UNL     1      66.959  -1.136  97.649  1.00  0.00     0.022 C 
ATOM     15  H3  UNL     1      69.784  -0.957 101.303  1.00  0.00     0.165 HD
BRANCH  11  16
HETATM   16  C1  UNL     1      67.302   0.793 100.434  1.00  0.00     0.254 C 
HETATM   17  N1  UNL     1      67.410   0.684 101.842  1.00  0.00    -0.060 NA
HETATM   18  O1  UNL     1      66.550   1.676  99.963  1.00  0.00    -0.275 OA
ENDBRANCH  11  16
ENDBRANCH   1   7
BRANCH   1  19
HETATM   19  C8  UNL     1      71.407  -1.905 102.770  1.00  0.00     0.259 C 
HETATM   20  N4  UNL     1      71.541  -1.459 104.092  1.00  0.00    -0.060 NA
HETATM   21  O3  UNL     1      72.251  -1.602 101.912  1.00  0.00    -0.274 OA
ENDBRANCH   1  19
BRANCH   5  22
HETATM   22  C13 UNL     1      68.117  -4.683 104.765  1.00  0.00     0.250 C 
HETATM   23  N5  UNL     1      67.837  -6.003 105.177  1.00  0.00    -0.061 NA
HETATM   24  O4  UNL     1      67.179  -3.865 104.778  1.00  0.00    -0.275 OA
ENDBRANCH   5  22
BRANCH   5  25
HETATM   25  C14 UNL     1      70.241  -4.014 105.589  1.00  0.00     0.191 C 
HETATM   26  O5  UNL     1      71.311  -4.568 105.834  1.00  0.00    -0.647 OA
HETATM   27  O6  UNL     1      69.688  -3.142 106.500  1.00  0.00    -0.647 OA
ENDBRANCH   5  25
TORSDOF 5
ENDMDL
MODEL 2
REMARK VINA RESULT: -6.988630285      1.522      1.925
REMARK  5 active torsions:
REMARK  status: ('A' for Active; 'I' for Inactive)
REMARK    1  A    between atoms: C1_2  and  C2_4 
REMARK       I    between atoms: N2_8  and  C6_9 
REMARK       I    between atoms: C6_9  and  N3_11 
REMARK    2  A    between atoms: N3_11  and  C7_13 
REMARK    3  A    between atoms: C7_13  and  C8_14 
REMARK    4  A    between atoms: C12_20  and  C13_21 
REMARK    5  A    between atoms: C12_20  and  C14_24 
ROOT
HETATM    1  C7  UNL     1      69.696  -3.468 100.915  1.00  0.00     0.114 C 
HETATM    2  C9  UNL     1      69.204  -4.654 100.176  1.00  0.00     0.041 C 
HETATM    3  C10 UNL     1      69.316  -5.942 100.953  1.00  0.00     0.005 C 
HETATM    4  C11 UNL     1      68.836  -5.834 102.351  1.00  0.00     0.030 C 
HETATM    5  C12 UNL     1      69.298  -4.661 103.144  1.00  0.00     0.129 C 
HETATM    6  C15 UNL     1      69.402  -3.402 102.370  1.00  0.00     0.070 C 
ENDROOT
BRANCH   1   7
HETATM    7  N3  UNL     1      69.101  -2.261 100.321  1.00  0.00    -0.325 N 
HETATM    8  C6  UNL     1      68.031  -2.261  99.401  1.00  0.00     0.320 C 
HETATM    9  N2  UNL     1      67.522  -1.041  98.883  1.00  0.00    -0.321 N 
HETATM   10  O2  UNL     1      67.472  -3.313  98.986  1.00  0.00    -0.247 OA
HETATM   11  C2  UNL     1      67.981   0.318  99.176  1.00  0.00     0.178 C 
HETATM   12  C5  UNL     1      66.439  -0.913  97.949  1.00  0.00     0.129 C 
HETATM   13  C3  UNL     1      67.600   1.138  97.976  1.00  0.00     0.036 C 
HETATM   14  C4  UNL     1      66.966   0.165  97.034  1.00  0.00     0.022 C 
ATOM     15  H3  UNL     1      69.491  -1.358 100.593  1.00  0.00     0.165 HD
BRANCH  11  16
HETATM   16  C1  UNL     1      67.255   0.861 100.354  1.00  0.00     0.254 C 
HETATM   17  N1  UNL     1      67.442   0.377 101.672  1.00  0.00    -0.060 NA
HETATM   18  O1  UNL     1      66.437   1.791 100.174  1.00  0.00    -0.275 OA
ENDBRANCH  11  16
ENDBRANCH   1   7
BRANCH   1  19
HETATM   19  C8  UNL     1      71.162  -3.334 100.637  1.00  0.00     0.259 C 
HETATM   20  N4  UNL     1      71.726  -3.932  99.502  1.00  0.00    -0.060 NA
HETATM   21  O3  UNL     1      71.866  -2.683 101.424  1.00  0.00    -0.274 OA
ENDBRANCH   1  19
BRANCH   5  22
HETATM   22  C13 UNL     1      68.250  -4.442 104.217  1.00  0.00     0.250 C 
HETATM   23  N5  UNL     1      67.551  -5.508 104.823  1.00  0.00    -0.061 NA
HETATM   24  O4  UNL     1      67.979  -3.288 104.595  1.00  0.00    -0.275 OA
ENDBRANCH   5  22
BRANCH   5  25
HETATM   25  C14 UNL     1      70.541  -4.983 103.901  1.00  0.00     0.191 C 
HETATM   26  O5  UNL     1      70.736  -4.580 105.046  1.00  0.00    -0.647 OA
HETATM   27  O6  UNL     1      71.484  -5.764 103.271  1.00  0.00    -0.647 OA
ENDBRANCH   5  25
TORSDOF 5
ENDMDL
MODEL 3
REMARK VINA RESULT: -6.573665688      2.931      6.048
REMARK  5 active torsions:
REMARK  status: ('A' for Active; 'I' for Inactive)
REMARK    1  A    between atoms: C1_2  and  C2_4 
REMARK       I    between atoms: N2_8  and  C6_9 
REMARK       I    between atoms: C6_9  and  N3_11 
REMARK    2  A    between atoms: N3_11  and  C7_13 
REMARK    3  A    between atoms: C7_13  and  C8_14 
REMARK    4  A    between atoms: C12_20  and  C13_21 
REMARK    5  A    between atoms: C12_20  and  C14_24 
ROOT
HETATM    1  C7  UNL     1      70.431  -2.120 103.011  1.00  0.00     0.114 C 
HETATM    2  C9  UNL     1      70.133  -2.604 104.379  1.00  0.00     0.041 C 
HETATM    3  C10 UNL     1      69.290  -3.855 104.407  1.00  0.00     0.005 C 
HETATM    4  C11 UNL     1      69.747  -4.900 103.461  1.00  0.00     0.030 C 
HETATM    5  C12 UNL     1      70.063  -4.471 102.070  1.00  0.00     0.129 C 
HETATM    6  C15 UNL     1      70.714  -3.143 101.972  1.00  0.00     0.070 C 
ENDROOT
BRANCH   1   7
HETATM    7  N3  UNL     1      71.619  -1.253 103.066  1.00  0.00    -0.325 N 
HETATM    8  C6  UNL     1      72.579  -1.269 104.101  1.00  0.00     0.320 C 
HETATM    9  N2  UNL     1      73.696  -0.394 104.064  1.00  0.00    -0.321 N 
HETATM   10  O2  UNL     1      72.512  -2.037 105.099  1.00  0.00    -0.247 OA
HETATM   11  C2  UNL     1      74.022   0.603 103.043  1.00  0.00     0.178 C 
HETATM   12  C5  UNL     1      74.737  -0.320 105.052  1.00  0.00     0.129 C 
HETATM   13  C3  UNL     1      74.861   1.635 103.742  1.00  0.00     0.036 C 
HETATM   14  C4  UNL     1      74.933   1.172 105.162  1.00  0.00     0.022 C 
ATOM     15  H3  UNL     1      71.759  -0.592 102.302  1.00  0.00     0.165 HD
BRANCH  11  16
HETATM   16  C1  UNL     1      74.847  -0.012 101.971  1.00  0.00     0.254 C 
HETATM   17  N1  UNL     1      76.200   0.336 101.736  1.00  0.00    -0.060 NA
HETATM   18  O1  UNL     1      74.322  -0.881 101.239  1.00  0.00    -0.275 OA
ENDBRANCH  11  16
ENDBRANCH   1   7
BRANCH   1  19
HETATM   19  C8  UNL     1      69.322  -1.202 102.600  1.00  0.00     0.259 C 
HETATM   20  N4  UNL     1      69.340  -0.587 101.341  1.00  0.00    -0.060 NA
HETATM   21  O3  UNL     1      68.387  -0.997 103.390  1.00  0.00    -0.274 OA
ENDBRANCH   1  19
BRANCH   5  22
HETATM   22  C13 UNL     1      71.044  -5.492 101.529  1.00  0.00     0.250 C 
HETATM   23  N5  UNL     1      70.891  -6.878 101.745  1.00  0.00    -0.061 NA
HETATM   24  O4  UNL     1      72.028  -5.119 100.866  1.00  0.00    -0.275 OA
ENDBRANCH   5  22
BRANCH   5  25
HETATM   25  C14 UNL     1      68.870  -4.600 101.186  1.00  0.00     0.191 C 
HETATM   26  O5  UNL     1      68.682  -3.859 100.223  1.00  0.00    -0.647 OA
HETATM   27  O6  UNL     1      67.965  -5.596 101.481  1.00  0.00    -0.647 OA
ENDBRANCH   5  25
TORSDOF 5
ENDMDL
MODEL 4
REMARK VINA RESULT: -6.551776516      3.611      4.877
REMARK  5 active torsions:
REMARK  status: ('A' for Active; 'I' for Inactive)
REMARK    1  A    between atoms: C1_2  and  C2_4 
REMARK       I    between atoms: N2_8  and  C6_9 
REMARK       I    between atoms: C6_9  and  N3_11 
REMARK    2  A    between atoms: N3_11  and  C7_13 
REMARK    3  A    between atoms: C7_13  and  C8_14 
REMARK    4  A    between atoms: C12_20  and  C13_21 
REMARK    5  A    between atoms: C12_20  and  C14_24 
ROOT
HETATM    1  C7  UNL     1      69.937  -4.623 101.313  1.00  0.00     0.114 C 
HETATM    2  C9  UNL     1      69.208  -5.318 102.399  1.00  0.00     0.041 C 
HETATM    3  C10 UNL     1      69.247  -4.588 103.718  1.00  0.00     0.005 C 
HETATM    4  C11 UNL     1      68.962  -3.139 103.603  1.00  0.00     0.030 C 
HETATM    5  C12 UNL     1      69.666  -2.387 102.527  1.00  0.00     0.129 C 
HETATM    6  C15 UNL     1      69.836  -3.142 101.263  1.00  0.00     0.070 C 
ENDROOT
BRANCH   1   7
HETATM    7  N3  UNL     1      69.435  -5.112 100.020  1.00  0.00    -0.325 N 
HETATM    8  C6  UNL     1      68.782  -6.349  99.825  1.00  0.00     0.320 C 
HETATM    9  N2  UNL     1      68.330  -6.732  98.535  1.00  0.00    -0.321 N 
HETATM   10  O2  UNL     1      68.565  -7.173 100.755  1.00  0.00    -0.247 OA
HETATM   11  C2  UNL     1      68.455  -5.987  97.282  1.00  0.00     0.178 C 
HETATM   12  C5  UNL     1      67.652  -7.958  98.215  1.00  0.00     0.129 C 
HETATM   13  C3  UNL     1      68.424  -7.022  96.194  1.00  0.00     0.036 C 
HETATM   14  C4  UNL     1      68.318  -8.329  96.912  1.00  0.00     0.022 C 
ATOM     15  H3  UNL     1      69.569  -4.515  99.204  1.00  0.00     0.165 HD
BRANCH  11  16
HETATM   16  C1  UNL     1      67.283  -5.091  97.099  1.00  0.00     0.254 C 
HETATM   17  N1  UNL     1      66.090  -5.496  96.452  1.00  0.00    -0.060 NA
HETATM   18  O1  UNL     1      67.353  -3.921  97.538  1.00  0.00    -0.275 OA
ENDBRANCH  11  16
ENDBRANCH   1   7
BRANCH   1  19
HETATM   19  C8  UNL     1      71.362  -5.083 101.354  1.00  0.00     0.259 C 
HETATM   20  N4  UNL     1      71.760  -6.081 102.254  1.00  0.00    -0.060 NA
HETATM   21  O3  UNL     1      72.182  -4.569 100.578  1.00  0.00    -0.274 OA
ENDBRANCH   1  19
BRANCH   5  22
HETATM   22  C13 UNL     1      68.797  -1.185 102.217  1.00  0.00     0.250 C 
HETATM   23  N5  UNL     1      68.830  -0.526 100.970  1.00  0.00    -0.061 NA
HETATM   24  O4  UNL     1      68.016  -0.743 103.080  1.00  0.00    -0.275 OA
ENDBRANCH   5  22
BRANCH   5  25
HETATM   25  C14 UNL     1      70.941  -1.801 103.030  1.00  0.00     0.191 C 
HETATM   26  O5  UNL     1      71.876  -1.521 102.283  1.00  0.00    -0.647 OA
HETATM   27  O6  UNL     1      71.045  -1.574 104.385  1.00  0.00    -0.647 OA
ENDBRANCH   5  25
TORSDOF 5
ENDMDL
MODEL 5
REMARK VINA RESULT: -6.519087390      1.139      1.503
REMARK  5 active torsions:
REMARK  status: ('A' for Active; 'I' for Inactive)
REMARK    1  A    between atoms: C1_2  and  C2_4 
REMARK       I    between atoms: N2_8  and  C6_9 
REMARK       I    between atoms: C6_9  and  N3_11 
REMARK    2  A    between atoms: N3_11  and  C7_13 
REMARK    3  A    between atoms: C7_13  and  C8_14 
REMARK    4  A    between atoms: C12_20  and  C13_21 
REMARK    5  A    between atoms: C12_20  and  C14_24 
ROOT
HETATM    1  C7  UNL     1      70.260  -2.820 101.537  1.00  0.00     0.114 C 
HETATM    2  C9  UNL     1      71.136  -3.590 100.623  1.00  0.00     0.041 C 
HETATM    3  C10 UNL     1      71.611  -4.899 101.201  1.00  0.00     0.005 C 
HETATM    4  C11 UNL     1      70.534  -5.688 101.846  1.00  0.00     0.030 C 
HETATM    5  C12 UNL     1      69.621  -4.966 102.774  1.00  0.00     0.129 C 
HETATM    6  C15 UNL     1      69.283  -3.587 102.352  1.00  0.00     0.070 C 
ENDROOT
BRANCH   1   7
HETATM    7  N3  UNL     1      69.471  -1.866 100.742  1.00  0.00    -0.325 N 
HETATM    8  C6  UNL     1      68.369  -2.213  99.931  1.00  0.00     0.320 C 
HETATM    9  N2  UNL     1      67.667  -1.218  99.201  1.00  0.00    -0.321 N 
HETATM   10  O2  UNL     1      67.946  -3.394  99.802  1.00  0.00    -0.247 OA
HETATM   11  C2  UNL     1      67.940   0.219  99.152  1.00  0.00     0.178 C 
HETATM   12  C5  UNL     1      66.533  -1.446  98.349  1.00  0.00     0.129 C 
HETATM   13  C3  UNL     1      67.389   0.689  97.835  1.00  0.00     0.036 C 
HETATM   14  C4  UNL     1      66.856  -0.546  97.181  1.00  0.00     0.022 C 
ATOM     15  H3  UNL     1      69.740  -0.883 100.778  1.00  0.00     0.165 HD
BRANCH  11  16
HETATM   16  C1  UNL     1      67.202   0.919 100.236  1.00  0.00     0.254 C 
HETATM   17  N1  UNL     1      67.417   0.662 101.612  1.00  0.00    -0.060 NA
HETATM   18  O1  UNL     1      66.348   1.776  99.917  1.00  0.00    -0.275 OA
ENDBRANCH  11  16
ENDBRANCH   1   7
BRANCH   1  19
HETATM   19  C8  UNL     1      71.137  -1.955 102.389  1.00  0.00     0.259 C 
HETATM   20  N4  UNL     1      70.762  -1.639 103.702  1.00  0.00    -0.060 NA
HETATM   21  O3  UNL     1      72.201  -1.526 101.916  1.00  0.00    -0.274 OA
ENDBRANCH   1  19
BRANCH   5  22
HETATM   22  C13 UNL     1      68.329  -5.759 102.792  1.00  0.00     0.250 C 
HETATM   23  N5  UNL     1      67.689  -6.141 103.990  1.00  0.00    -0.061 NA
HETATM   24  O4  UNL     1      67.792  -6.097 101.721  1.00  0.00    -0.275 OA
ENDBRANCH   5  22
BRANCH   5  25
HETATM   25  C14 UNL     1      70.117  -5.039 104.178  1.00  0.00     0.191 C 
HETATM   26  O5  UNL     1      69.492  -4.561 105.122  1.00  0.00    -0.647 OA
HETATM   27  O6  UNL     1      71.321  -5.673 104.394  1.00  0.00    -0.647 OA
ENDBRANCH   5  25
TORSDOF 5
ENDMDL
