MODEL 1
REMARK VINA RESULT: -6.719327349      0.000      0.000
REMARK  5 active torsions:
REMARK  status: ('A' for Active; 'I' for Inactive)
REMARK    1  A    between atoms: C2_2  and  C4_4 
REMARK    2  A    between atoms: C4_4  and  C5_5 
REMARK    3  A    between atoms: C5_5  and  O1_6 
REMARK    4  A    between atoms: C5_5  and  C6_8 
REMARK    5  A    between atoms: C12_14  and  N1_15 
ROOT
HETATM    1  C6  UNL     1     -21.559  -0.475 -25.537  1.00  0.00    -0.011 C 
HETATM    2  C7  UNL     1     -20.356  -1.270 -25.146  1.00  0.00     0.017 C 
HETATM    3  C8  UNL     1     -20.165  -1.250 -23.635  1.00  0.00    -0.011 C 
HETATM    4  C9  UNL     1     -21.363  -1.824 -22.923  1.00  0.00     0.009 C 
HETATM    5  C10 UNL     1     -22.571  -1.005 -23.296  1.00  0.00    -0.011 C 
HETATM    6  C11 UNL     1     -22.390   0.439 -22.867  1.00  0.00     0.043 C 
HETATM    7  C12 UNL     1     -21.204   0.979 -23.598  1.00  0.00     0.125 C 
HETATM    8  C13 UNL     1     -19.984   0.173 -23.209  1.00  0.00     0.043 C 
HETATM    9  C14 UNL     1     -21.389   0.957 -25.101  1.00  0.00     0.050 C 
HETATM   10  C15 UNL     1     -22.755  -1.042 -24.769  1.00  0.00     0.017 C 
ENDROOT
BRANCH   1  11
HETATM   11  C5  UNL     1     -21.865  -0.630 -26.986  1.00  0.00     0.127 C 
BRANCH  11  12
HETATM   12  C4  UNL     1     -21.765   0.589 -27.811  1.00  0.00     0.036 C 
BRANCH  12  13
HETATM   13  C2  UNL     1     -20.600   0.551 -28.741  1.00  0.00    -0.020 C 
HETATM   14  C1  UNL     1     -21.011   0.514 -30.196  1.00  0.00     0.009 C 
HETATM   15  C3  UNL     1     -19.656   1.713 -28.575  1.00  0.00     0.009 C 
ENDBRANCH  12  13
ENDBRANCH  11  12
BRANCH  11  16
HETATM   16  O1  UNL     1     -21.111  -1.675 -27.500  1.00  0.00    -0.395 OA
ATOM     17  H1  UNL     1     -21.653  -2.390 -27.813  1.00  0.00     0.210 HD
ENDBRANCH  11  16
ENDBRANCH   1  11
BRANCH   7  18
HETATM   18  N1  UNL     1     -21.026   2.367 -23.187  1.00  0.00    -0.070 N 
ATOM     19  H13 UNL     1     -21.764   2.981 -23.531  1.00  0.00     0.275 HD
ATOM     20  H12 UNL     1     -21.188   2.510 -22.189  1.00  0.00     0.275 HD
ATOM     21  H11 UNL     1     -20.095   2.661 -23.483  1.00  0.00     0.275 HD
ENDBRANCH   7  18
TORSDOF 5
ENDMDL
MODEL 2
REMARK VINA RESULT: -6.713010670      1.857      2.988
REMARK  5 active torsions:
REMARK  status: ('A' for Active; 'I' for Inactive)
REMARK    1  A    between atoms: C2_2  and  C4_4 
REMARK    2  A    between atoms: C4_4  and  C5_5 
REMARK    3  A    between atoms: C5_5  and  O1_6 
REMARK    4  A    between atoms: C5_5  and  C6_8 
REMARK    5  A    between atoms: C12_14  and  N1_15 
ROOT
HETATM    1  C6  UNL     1     -21.538   0.476 -25.512  1.00  0.00    -0.011 C 
HETATM    2  C7  UNL     1     -22.725   1.272 -25.075  1.00  0.00     0.017 C 
HETATM    3  C8  UNL     1     -22.876   1.227 -23.561  1.00  0.00    -0.011 C 
HETATM    4  C9  UNL     1     -21.656   1.782 -22.871  1.00  0.00     0.009 C 
HETATM    5  C10 UNL     1     -20.464   0.962 -23.290  1.00  0.00    -0.011 C 
HETATM    6  C11 UNL     1     -20.643  -0.488 -22.881  1.00  0.00     0.043 C 
HETATM    7  C12 UNL     1     -21.851  -1.009 -23.589  1.00  0.00     0.125 C 
HETATM    8  C13 UNL     1     -23.055  -0.202 -23.155  1.00  0.00     0.043 C 
HETATM    9  C14 UNL     1     -21.706  -0.962 -25.096  1.00  0.00     0.050 C 
HETATM   10  C15 UNL     1     -20.318   1.023 -24.767  1.00  0.00     0.017 C 
ENDROOT
BRANCH   1  11
HETATM   11  C5  UNL     1     -21.270   0.654 -26.966  1.00  0.00     0.127 C 
BRANCH  11  12
HETATM   12  C4  UNL     1     -21.326  -0.563 -27.797  1.00  0.00     0.036 C 
BRANCH  12  13
HETATM   13  C2  UNL     1     -22.474  -0.548 -28.748  1.00  0.00    -0.020 C 
HETATM   14  C1  UNL     1     -22.037  -0.500 -30.195  1.00  0.00     0.009 C 
HETATM   15  C3  UNL     1     -23.396  -1.731 -28.601  1.00  0.00     0.009 C 
ENDBRANCH  12  13
ENDBRANCH  11  12
BRANCH  11  16
HETATM   16  O1  UNL     1     -22.085   1.664 -27.457  1.00  0.00    -0.395 OA
ATOM     17  H1  UNL     1     -22.851   1.805 -26.914  1.00  0.00     0.210 HD
ENDBRANCH  11  16
ENDBRANCH   1  11
BRANCH   7  18
HETATM   18  N1  UNL     1     -22.028  -2.403 -23.197  1.00  0.00    -0.070 N 
ATOM     19  H13 UNL     1     -21.143  -2.890 -23.056  1.00  0.00     0.275 HD
ATOM     20  H12 UNL     1     -22.390  -2.506 -22.249  1.00  0.00     0.275 HD
ATOM     21  H11 UNL     1     -22.619  -2.849 -23.898  1.00  0.00     0.275 HD
ENDBRANCH   7  18
TORSDOF 5
ENDMDL
MODEL 3
REMARK VINA RESULT: -6.695935504      1.801      2.731
REMARK  5 active torsions:
REMARK  status: ('A' for Active; 'I' for Inactive)
REMARK    1  A    between atoms: C2_2  and  C4_4 
REMARK    2  A    between atoms: C4_4  and  C5_5 
REMARK    3  A    between atoms: C5_5  and  O1_6 
REMARK    4  A    between atoms: C5_5  and  C6_8 
REMARK    5  A    between atoms: C12_14  and  N1_15 
ROOT
HETATM    1  C6  UNL     1     -21.781   0.588 -25.456  1.00  0.00    -0.011 C 
HETATM    2  C7  UNL     1     -22.692   1.454 -24.647  1.00  0.00     0.017 C 
HETATM    3  C8  UNL     1     -22.444   1.254 -23.158  1.00  0.00    -0.011 C 
HETATM    4  C9  UNL     1     -21.021   1.590 -22.789  1.00  0.00     0.009 C 
HETATM    5  C10 UNL     1     -20.104   0.699 -23.584  1.00  0.00    -0.011 C 
HETATM    6  C11 UNL     1     -20.363  -0.761 -23.259  1.00  0.00     0.043 C 
HETATM    7  C12 UNL     1     -21.774  -1.063 -23.646  1.00  0.00     0.125 C 
HETATM    8  C13 UNL     1     -22.701  -0.185 -22.834  1.00  0.00     0.043 C 
HETATM    9  C14 UNL     1     -22.027  -0.861 -25.126  1.00  0.00     0.050 C 
HETATM   10  C15 UNL     1     -20.346   0.911 -25.034  1.00  0.00     0.017 C 
ENDROOT
BRANCH   1  11
HETATM   11  C5  UNL     1     -21.884   0.900 -26.908  1.00  0.00     0.127 C 
BRANCH  11  12
HETATM   12  C4  UNL     1     -22.278  -0.213 -27.792  1.00  0.00     0.036 C 
BRANCH  12  13
HETATM   13  C2  UNL     1     -21.277  -0.466 -28.867  1.00  0.00    -0.020 C 
HETATM   14  C1  UNL     1     -21.845  -0.274 -30.256  1.00  0.00     0.009 C 
HETATM   15  C3  UNL     1     -20.049   0.401 -28.765  1.00  0.00     0.009 C 
ENDBRANCH  12  13
ENDBRANCH  11  12
BRANCH  11  16
HETATM   16  O1  UNL     1     -22.691   2.016 -27.077  1.00  0.00    -0.395 OA
ATOM     17  H1  UNL     1     -22.954   2.399 -26.248  1.00  0.00     0.210 HD
ENDBRANCH  11  16
ENDBRANCH   1  11
BRANCH   7  18
HETATM   18  N1  UNL     1     -22.029  -2.464 -23.334  1.00  0.00    -0.070 N 
ATOM     19  H13 UNL     1     -21.292  -3.086 -23.668  1.00  0.00     0.275 HD
ATOM     20  H12 UNL     1     -21.938  -2.672 -22.339  1.00  0.00     0.275 HD
ATOM     21  H11 UNL     1     -22.948  -2.703 -23.706  1.00  0.00     0.275 HD
ENDBRANCH   7  18
TORSDOF 5
ENDMDL
MODEL 4
REMARK VINA RESULT: -6.691983630      0.738      1.113
REMARK  5 active torsions:
REMARK  status: ('A' for Active; 'I' for Inactive)
REMARK    1  A    between atoms: C2_2  and  C4_4 
REMARK    2  A    between atoms: C4_4  and  C5_5 
REMARK    3  A    between atoms: C5_5  and  O1_6 
REMARK    4  A    between atoms: C5_5  and  C6_8 
REMARK    5  A    between atoms: C12_14  and  N1_15 
ROOT
HETATM    1  C6  UNL     1     -21.273  -0.527 -25.448  1.00  0.00    -0.011 C 
HETATM    2  C7  UNL     1     -20.329  -1.398 -24.684  1.00  0.00     0.017 C 
HETATM    3  C8  UNL     1     -20.542  -1.240 -23.184  1.00  0.00    -0.011 C 
HETATM    4  C9  UNL     1     -21.950  -1.607 -22.789  1.00  0.00     0.009 C 
HETATM    5  C10 UNL     1     -22.900  -0.710 -23.538  1.00  0.00    -0.011 C 
HETATM    6  C11 UNL     1     -22.654   0.745 -23.182  1.00  0.00     0.043 C 
HETATM    7  C12 UNL     1     -21.258   1.078 -23.597  1.00  0.00     0.125 C 
HETATM    8  C13 UNL     1     -20.298   0.194 -22.830  1.00  0.00     0.043 C 
HETATM    9  C14 UNL     1     -21.040   0.917 -25.088  1.00  0.00     0.050 C 
HETATM   10  C15 UNL     1     -22.692  -0.882 -24.998  1.00  0.00     0.017 C 
ENDROOT
BRANCH   1  11
HETATM   11  C5  UNL     1     -21.203  -0.801 -26.909  1.00  0.00     0.127 C 
BRANCH  11  12
HETATM   12  C4  UNL     1     -20.811   0.330 -27.771  1.00  0.00     0.036 C 
BRANCH  12  13
HETATM   13  C2  UNL     1     -21.776   0.556 -28.885  1.00  0.00    -0.020 C 
HETATM   14  C1  UNL     1     -21.187   0.249 -30.243  1.00  0.00     0.009 C 
HETATM   15  C3  UNL     1     -23.044  -0.247 -28.757  1.00  0.00     0.009 C 
ENDBRANCH  12  13
ENDBRANCH  11  12
BRANCH  11  16
HETATM   16  O1  UNL     1     -20.413  -1.922 -27.123  1.00  0.00    -0.395 OA
ATOM     17  H1  UNL     1     -20.882  -2.610 -27.581  1.00  0.00     0.210 HD
ENDBRANCH  11  16
ENDBRANCH   1  11
BRANCH   7  18
HETATM   18  N1  UNL     1     -21.016   2.475 -23.256  1.00  0.00    -0.070 N 
ATOM     19  H13 UNL     1     -21.167   2.674 -22.267  1.00  0.00     0.275 HD
ATOM     20  H12 UNL     1     -20.028   2.728 -23.293  1.00  0.00     0.275 HD
ATOM     21  H11 UNL     1     -21.596   3.049 -23.869  1.00  0.00     0.275 HD
ENDBRANCH   7  18
TORSDOF 5
ENDMDL
MODEL 5
REMARK VINA RESULT: -6.639135528      1.911      2.823
REMARK  5 active torsions:
REMARK  status: ('A' for Active; 'I' for Inactive)
REMARK    1  A    between atoms: C2_2  and  C4_4 
REMARK    2  A    between atoms: C4_4  and  C5_5 
REMARK    3  A    between atoms: C5_5  and  O1_6 
REMARK    4  A    between atoms: C5_5  and  C6_8 
REMARK    5  A    between atoms: C12_14  and  N1_15 
ROOT
HETATM    1  C6  UNL     1     -21.704   0.551 -25.105  1.00  0.00    -0.011 C 
HETATM    2  C7  UNL     1     -22.922   0.219 -24.304  1.00  0.00     0.017 C 
HETATM    3  C8  UNL     1     -22.542  -0.507 -23.021  1.00  0.00    -0.011 C 
HETATM    4  C9  UNL     1     -21.627   0.333 -22.165  1.00  0.00     0.009 C 
HETATM    5  C10 UNL     1     -20.388   0.644 -22.962  1.00  0.00    -0.011 C 
HETATM    6  C11 UNL     1     -19.665  -0.634 -23.345  1.00  0.00     0.043 C 
HETATM    7  C12 UNL     1     -20.592  -1.435 -24.200  1.00  0.00     0.125 C 
HETATM    8  C13 UNL     1     -21.830  -1.769 -23.396  1.00  0.00     0.043 C 
HETATM    9  C14 UNL     1     -20.976  -0.715 -25.476  1.00  0.00     0.050 C 
HETATM   10  C15 UNL     1     -20.769   1.363 -24.205  1.00  0.00     0.017 C 
ENDROOT
BRANCH   1  11
HETATM   11  C5  UNL     1     -22.039   1.416 -26.270  1.00  0.00     0.127 C 
BRANCH  11  12
HETATM   12  C4  UNL     1     -22.348   0.722 -27.534  1.00  0.00     0.036 C 
BRANCH  12  13
HETATM   13  C2  UNL     1     -21.486   1.182 -28.660  1.00  0.00    -0.020 C 
HETATM   14  C1  UNL     1     -20.089   1.553 -28.216  1.00  0.00     0.009 C 
HETATM   15  C3  UNL     1     -21.347   0.169 -29.767  1.00  0.00     0.009 C 
ENDBRANCH  12  13
ENDBRANCH  11  12
BRANCH  11  16
HETATM   16  O1  UNL     1     -23.037   2.307 -25.901  1.00  0.00    -0.395 OA
ATOM     17  H1  UNL     1     -22.839   3.198 -26.166  1.00  0.00     0.210 HD
ENDBRANCH  11  16
ENDBRANCH   1  11
BRANCH   7  18
HETATM   18  N1  UNL     1     -19.901  -2.666 -24.569  1.00  0.00    -0.070 N 
ATOM     19  H13 UNL     1     -20.311  -3.121 -25.385  1.00  0.00     0.275 HD
ATOM     20  H12 UNL     1     -18.974  -2.498 -24.961  1.00  0.00     0.275 HD
ATOM     21  H11 UNL     1     -19.881  -3.269 -23.747  1.00  0.00     0.275 HD
ENDBRANCH   7  18
TORSDOF 5
ENDMDL
