MODEL 1
REMARK VINA RESULT: -6.429902025      0.000      0.000
REMARK  6 active torsions:
REMARK  status: ('A' for Active; 'I' for Inactive)
REMARK    1  A    between atoms: C2_2  and  C3_3 
REMARK    2  A    between atoms: C3_3  and  O1_5 
REMARK    3  A    between atoms: C3_3  and  C5_7 
REMARK    4  A    between atoms: C5_7  and  C6_8 
REMARK    5  A    between atoms: C6_8  and  C8_10 
REMARK    6  A    between atoms: C15_17  and  N1_18 
ROOT
HETATM    1  C8  UNL     1     -21.324  -0.895 -25.457  1.00  0.00     0.020 C 
HETATM    2  C9  UNL     1     -20.985  -1.775 -24.280  1.00  0.00     0.007 C 
HETATM    3  C10 UNL     1     -22.018  -1.617 -23.172  1.00  0.00     0.001 C 
HETATM    4  C11 UNL     1     -22.522  -0.218 -23.136  1.00  0.00     0.011 C 
HETATM    5  C12 UNL     1     -21.476   0.734 -23.608  1.00  0.00    -0.019 C 
HETATM    6  C13 UNL     1     -22.083   2.141 -23.409  1.00  0.00     0.017 C 
HETATM    7  C14 UNL     1     -20.226   0.709 -22.768  1.00  0.00     0.017 C 
HETATM    8  C15 UNL     1     -21.154   0.566 -25.104  1.00  0.00     0.195 C 
ENDROOT
BRANCH   1   9
HETATM    9  C6  UNL     1     -20.829  -1.308 -26.762  1.00  0.00    -0.010 C 
HETATM   10  C7  UNL     1     -20.013  -2.632 -26.597  1.00  0.00     0.010 C 
BRANCH   9  11
HETATM   11  C5  UNL     1     -21.558  -1.411 -27.997  1.00  0.00     0.042 C 
BRANCH  11  12
HETATM   12  C3  UNL     1     -21.890  -0.320 -28.923  1.00  0.00     0.054 C 
HETATM   13  C4  UNL     1     -22.604  -1.059 -30.124  1.00  0.00     0.045 C 
BRANCH  12  14
HETATM   14  C2  UNL     1     -20.766   0.386 -29.603  1.00  0.00     0.033 C 
HETATM   15  C1  UNL     1     -20.443   1.710 -28.943  1.00  0.00     0.008 C 
ENDBRANCH  12  14
BRANCH  12  16
HETATM   16  O1  UNL     1     -22.903   0.552 -28.532  1.00  0.00    -0.390 OA
ATOM     17  H1  UNL     1     -22.850   1.389 -28.979  1.00  0.00     0.210 HD
ENDBRANCH  12  16
ENDBRANCH  11  12
ENDBRANCH   9  11
ENDBRANCH   1   9
BRANCH   8  18
HETATM   18  N1  UNL     1     -22.200   1.299 -25.775  1.00  0.00    -0.074 N 
ATOM     19  H13 UNL     1     -22.689   0.741 -26.475  1.00  0.00     0.274 HD
ATOM     20  H12 UNL     1     -23.001   1.489 -25.172  1.00  0.00     0.274 HD
ATOM     21  H11 UNL     1     -21.782   2.146 -26.160  1.00  0.00     0.274 HD
ENDBRANCH   8  18
TORSDOF 6
ENDMDL
MODEL 2
REMARK VINA RESULT: -6.427753180      1.610      3.120
REMARK  6 active torsions:
REMARK  status: ('A' for Active; 'I' for Inactive)
REMARK    1  A    between atoms: C2_2  and  C3_3 
REMARK    2  A    between atoms: C3_3  and  O1_5 
REMARK    3  A    between atoms: C3_3  and  C5_7 
REMARK    4  A    between atoms: C5_7  and  C6_8 
REMARK    5  A    between atoms: C6_8  and  C8_10 
REMARK    6  A    between atoms: C15_17  and  N1_18 
ROOT
HETATM    1  C8  UNL     1     -21.706   0.883 -25.506  1.00  0.00     0.020 C 
HETATM    2  C9  UNL     1     -22.025   1.761 -24.322  1.00  0.00     0.007 C 
HETATM    3  C10 UNL     1     -20.979   1.593 -23.228  1.00  0.00     0.001 C 
HETATM    4  C11 UNL     1     -20.483   0.192 -23.203  1.00  0.00     0.011 C 
HETATM    5  C12 UNL     1     -21.538  -0.754 -23.665  1.00  0.00    -0.019 C 
HETATM    6  C13 UNL     1     -20.936  -2.164 -23.479  1.00  0.00     0.017 C 
HETATM    7  C14 UNL     1     -22.778  -0.726 -22.809  1.00  0.00     0.017 C 
HETATM    8  C15 UNL     1     -21.879  -0.578 -25.157  1.00  0.00     0.195 C 
ENDROOT
BRANCH   1   9
HETATM    9  C6  UNL     1     -22.215   1.303 -26.803  1.00  0.00    -0.010 C 
HETATM   10  C7  UNL     1     -23.040   2.619 -26.620  1.00  0.00     0.010 C 
BRANCH   9  11
HETATM   11  C5  UNL     1     -21.497   1.423 -28.043  1.00  0.00     0.042 C 
BRANCH  11  12
HETATM   12  C3  UNL     1     -21.134   0.339 -28.964  1.00  0.00     0.054 C 
HETATM   13  C4  UNL     1     -20.389   1.086 -30.141  1.00  0.00     0.045 C 
BRANCH  12  14
HETATM   14  C2  UNL     1     -22.236  -0.368 -29.681  1.00  0.00     0.033 C 
HETATM   15  C1  UNL     1     -22.586  -1.687 -29.025  1.00  0.00     0.008 C 
ENDBRANCH  12  14
BRANCH  12  16
HETATM   16  O1  UNL     1     -20.130  -0.532 -28.549  1.00  0.00    -0.390 OA
ATOM     17  H1  UNL     1     -20.203  -0.755 -27.629  1.00  0.00     0.210 HD
ENDBRANCH  12  16
ENDBRANCH  11  12
ENDBRANCH   9  11
ENDBRANCH   1   9
BRANCH   8  18
HETATM   18  N1  UNL     1     -20.845  -1.313 -25.843  1.00  0.00    -0.074 N 
ATOM     19  H13 UNL     1     -19.967  -1.342 -25.324  1.00  0.00     0.274 HD
ATOM     20  H12 UNL     1     -21.019  -2.318 -25.866  1.00  0.00     0.274 HD
ATOM     21  H11 UNL     1     -20.744  -0.906 -26.773  1.00  0.00     0.274 HD
ENDBRANCH   8  18
TORSDOF 6
ENDMDL
MODEL 3
REMARK VINA RESULT: -6.072066093      2.181      5.624
REMARK  6 active torsions:
REMARK  status: ('A' for Active; 'I' for Inactive)
REMARK    1  A    between atoms: C2_2  and  C3_3 
REMARK    2  A    between atoms: C3_3  and  O1_5 
REMARK    3  A    between atoms: C3_3  and  C5_7 
REMARK    4  A    between atoms: C5_7  and  C6_8 
REMARK    5  A    between atoms: C6_8  and  C8_10 
REMARK    6  A    between atoms: C15_17  and  N1_18 
ROOT
HETATM    1  C8  UNL     1     -22.116   0.571 -26.109  1.00  0.00     0.020 C 
HETATM    2  C9  UNL     1     -22.441   1.261 -27.411  1.00  0.00     0.007 C 
HETATM    3  C10 UNL     1     -22.911   0.254 -28.452  1.00  0.00     0.001 C 
HETATM    4  C11 UNL     1     -22.203  -1.041 -28.271  1.00  0.00     0.011 C 
HETATM    5  C12 UNL     1     -20.844  -0.826 -27.699  1.00  0.00    -0.019 C 
HETATM    6  C13 UNL     1     -20.184  -2.223 -27.674  1.00  0.00     0.017 C 
HETATM    7  C14 UNL     1     -19.958   0.026 -28.571  1.00  0.00     0.017 C 
HETATM    8  C15 UNL     1     -20.887  -0.298 -26.253  1.00  0.00     0.195 C 
ENDROOT
BRANCH   1   9
HETATM    9  C6  UNL     1     -22.209   1.365 -24.893  1.00  0.00    -0.010 C 
HETATM   10  C7  UNL     1     -23.172   2.571 -25.149  1.00  0.00     0.010 C 
BRANCH   9  11
HETATM   11  C5  UNL     1     -22.450   0.909 -23.551  1.00  0.00     0.042 C 
BRANCH  11  12
HETATM   12  C3  UNL     1     -21.444   0.612 -22.523  1.00  0.00     0.054 C 
HETATM   13  C4  UNL     1     -22.038  -0.650 -21.779  1.00  0.00     0.045 C 
BRANCH  12  14
HETATM   14  C2  UNL     1     -21.272   1.590 -21.409  1.00  0.00     0.033 C 
HETATM   15  C1  UNL     1     -20.822   2.947 -21.909  1.00  0.00     0.008 C 
ENDBRANCH  12  14
BRANCH  12  16
HETATM   16  O1  UNL     1     -20.229   0.091 -22.962  1.00  0.00    -0.390 OA
ATOM     17  H1  UNL     1     -20.344  -0.632 -23.567  1.00  0.00     0.210 HD
ENDBRANCH  12  16
ENDBRANCH  11  12
ENDBRANCH   9  11
ENDBRANCH   1   9
BRANCH   8  18
HETATM   18  N1  UNL     1     -21.096  -1.480 -25.452  1.00  0.00    -0.074 N 
ATOM     19  H13 UNL     1     -20.583  -1.459 -24.571  1.00  0.00     0.274 HD
ATOM     20  H12 UNL     1     -22.036  -1.532 -25.059  1.00  0.00     0.274 HD
ATOM     21  H11 UNL     1     -20.862  -2.288 -26.031  1.00  0.00     0.274 HD
ENDBRANCH   8  18
TORSDOF 6
ENDMDL
MODEL 4
REMARK VINA RESULT: -6.060994192      1.949      5.305
REMARK  6 active torsions:
REMARK  status: ('A' for Active; 'I' for Inactive)
REMARK    1  A    between atoms: C2_2  and  C3_3 
REMARK    2  A    between atoms: C3_3  and  O1_5 
REMARK    3  A    between atoms: C3_3  and  C5_7 
REMARK    4  A    between atoms: C5_7  and  C6_8 
REMARK    5  A    between atoms: C6_8  and  C8_10 
REMARK    6  A    between atoms: C15_17  and  N1_18 
ROOT
HETATM    1  C8  UNL     1     -20.930  -0.583 -26.100  1.00  0.00     0.020 C 
HETATM    2  C9  UNL     1     -20.604  -1.291 -27.391  1.00  0.00     0.007 C 
HETATM    3  C10 UNL     1     -20.132  -0.301 -28.447  1.00  0.00     0.001 C 
HETATM    4  C11 UNL     1     -20.839   0.997 -28.286  1.00  0.00     0.011 C 
HETATM    5  C12 UNL     1     -22.199   0.792 -27.712  1.00  0.00    -0.019 C 
HETATM    6  C13 UNL     1     -22.858   2.189 -27.708  1.00  0.00     0.017 C 
HETATM    7  C14 UNL     1     -23.084  -0.072 -28.572  1.00  0.00     0.017 C 
HETATM    8  C15 UNL     1     -22.159   0.285 -26.258  1.00  0.00     0.195 C 
ENDROOT
BRANCH   1   9
HETATM    9  C6  UNL     1     -20.838  -1.358 -24.872  1.00  0.00    -0.010 C 
HETATM   10  C7  UNL     1     -19.884  -2.574 -25.113  1.00  0.00     0.010 C 
BRANCH   9  11
HETATM   11  C5  UNL     1     -20.591  -0.884 -23.538  1.00  0.00     0.042 C 
BRANCH  11  12
HETATM   12  C3  UNL     1     -21.592  -0.577 -22.508  1.00  0.00     0.054 C 
HETATM   13  C4  UNL     1     -21.005   0.705 -21.792  1.00  0.00     0.045 C 
BRANCH  12  14
HETATM   14  C2  UNL     1     -21.746  -1.535 -21.374  1.00  0.00     0.033 C 
HETATM   15  C1  UNL     1     -22.286  -2.874 -21.831  1.00  0.00     0.008 C 
ENDBRANCH  12  14
BRANCH  12  16
HETATM   16  O1  UNL     1     -22.815  -0.076 -22.947  1.00  0.00    -0.390 OA
ATOM     17  H1  UNL     1     -22.713   0.661 -23.537  1.00  0.00     0.210 HD
ENDBRANCH  12  16
ENDBRANCH  11  12
ENDBRANCH   9  11
ENDBRANCH   1   9
BRANCH   8  18
HETATM   18  N1  UNL     1     -21.949   1.479 -25.475  1.00  0.00    -0.074 N 
ATOM     19  H13 UNL     1     -22.586   1.550 -24.681  1.00  0.00     0.274 HD
ATOM     20  H12 UNL     1     -21.078   1.459 -24.945  1.00  0.00     0.274 HD
ATOM     21  H11 UNL     1     -22.012   2.276 -26.109  1.00  0.00     0.274 HD
ENDBRANCH   8  18
TORSDOF 6
ENDMDL
MODEL 5
REMARK VINA RESULT: -6.050371858      1.747      3.049
REMARK  6 active torsions:
REMARK  status: ('A' for Active; 'I' for Inactive)
REMARK    1  A    between atoms: C2_2  and  C3_3 
REMARK    2  A    between atoms: C3_3  and  O1_5 
REMARK    3  A    between atoms: C3_3  and  C5_7 
REMARK    4  A    between atoms: C5_7  and  C6_8 
REMARK    5  A    between atoms: C6_8  and  C8_10 
REMARK    6  A    between atoms: C15_17  and  N1_18 
ROOT
HETATM    1  C8  UNL     1     -21.523   0.758 -25.537  1.00  0.00     0.020 C 
HETATM    2  C9  UNL     1     -21.886   1.693 -24.410  1.00  0.00     0.007 C 
HETATM    3  C10 UNL     1     -20.932   1.520 -23.236  1.00  0.00     0.001 C 
HETATM    4  C11 UNL     1     -20.505   0.100 -23.126  1.00  0.00     0.011 C 
HETATM    5  C12 UNL     1     -21.568  -0.814 -23.633  1.00  0.00    -0.019 C 
HETATM    6  C13 UNL     1     -21.048  -2.242 -23.355  1.00  0.00     0.017 C 
HETATM    7  C14 UNL     1     -22.864  -0.698 -22.874  1.00  0.00     0.017 C 
HETATM    8  C15 UNL     1     -21.790  -0.680 -25.151  1.00  0.00     0.195 C 
ENDROOT
BRANCH   1   9
HETATM    9  C6  UNL     1     -21.916   1.152 -26.882  1.00  0.00    -0.010 C 
HETATM   10  C7  UNL     1     -22.929   2.339 -26.785  1.00  0.00     0.010 C 
BRANCH   9  11
HETATM   11  C5  UNL     1     -21.070   1.409 -28.015  1.00  0.00     0.042 C 
BRANCH  11  12
HETATM   12  C3  UNL     1     -20.523   0.420 -28.953  1.00  0.00     0.054 C 
HETATM   13  C4  UNL     1     -19.068   0.961 -29.253  1.00  0.00     0.045 C 
BRANCH  12  14
HETATM   14  C2  UNL     1     -21.123   0.343 -30.317  1.00  0.00     0.033 C 
HETATM   15  C1  UNL     1     -20.529   1.369 -31.259  1.00  0.00     0.008 C 
ENDBRANCH  12  14
BRANCH  12  16
HETATM   16  O1  UNL     1     -20.218  -0.837 -28.438  1.00  0.00    -0.390 OA
ATOM     17  H1  UNL     1     -19.436  -0.826 -27.899  1.00  0.00     0.210 HD
ENDBRANCH  12  16
ENDBRANCH  11  12
ENDBRANCH   9  11
ENDBRANCH   1   9
BRANCH   8  18
HETATM   18  N1  UNL     1     -20.745  -1.485 -25.733  1.00  0.00    -0.074 N 
ATOM     19  H13 UNL     1     -21.104  -2.275 -26.270  1.00  0.00     0.274 HD
ATOM     20  H12 UNL     1     -20.258  -1.015 -26.496  1.00  0.00     0.274 HD
ATOM     21  H11 UNL     1     -20.120  -1.769 -24.978  1.00  0.00     0.274 HD
ENDBRANCH   8  18
TORSDOF 6
ENDMDL
