MODEL 1
REMARK VINA RESULT: -7.306200959      0.000      0.000
REMARK  7 active torsions:
REMARK  status: ('A' for Active; 'I' for Inactive)
REMARK    1  A    between atoms: C2_2  and  O2_4 
REMARK    2  A    between atoms: O2_4  and  C3_5 
REMARK    3  A    between atoms: C10_12  and  O3_13 
REMARK    4  A    between atoms: O3_13  and  C11_14 
REMARK       I    between atoms: C11_14  and  N1_16 
REMARK       I    between atoms: N1_16  and  C12_18 
REMARK    5  A    between atoms: C12_18  and  O6_20 
REMARK    6  A    between atoms: O6_20  and  C13_21 
REMARK    7  A    between atoms: C17_25  and  O7_26 
ROOT
HETATM    1  C3  UNL     1      -4.662 -19.091 -17.571  1.00  0.00     0.192 C 
HETATM    2  C4  UNL     1      -4.576 -20.325 -18.316  1.00  0.00    -0.055 C 
HETATM    3  C5  UNL     1      -3.793 -21.311 -17.517  1.00  0.00     0.046 C 
HETATM    4  C6  UNL     1      -5.005 -20.769 -19.492  1.00  0.00    -0.010 C 
HETATM    5  C7  UNL     1      -5.738 -20.439 -20.690  1.00  0.00     0.073 C 
HETATM    6  C8  UNL     1      -6.109 -19.092 -21.057  1.00  0.00    -0.059 C 
HETATM    7  C9  UNL     1      -6.592 -18.081 -20.140  1.00  0.00     0.012 C 
HETATM    8  C10 UNL     1      -5.716 -17.434 -19.149  1.00  0.00     0.188 C 
HETATM    9  C17 UNL     1      -5.778 -18.166 -17.840  1.00  0.00     0.185 C 
HETATM   10  C18 UNL     1      -5.094 -18.629 -22.115  1.00  0.00     0.114 C 
HETATM   11  C19 UNL     1      -3.670 -18.848 -21.744  1.00  0.00     0.183 C 
HETATM   12  O8  UNL     1      -3.573 -20.199 -21.471  1.00  0.00    -0.378 OA
HETATM   13  C20 UNL     1      -4.773 -20.808 -21.844  1.00  0.00     0.206 C 
HETATM   14  C21 UNL     1      -5.213 -19.911 -22.985  1.00  0.00     0.279 C 
HETATM   15  F1  UNL     1      -4.245 -19.853 -23.965  1.00  0.00    -0.203 F 
HETATM   16  F2  UNL     1      -6.455 -20.133 -23.449  1.00  0.00    -0.203 F 
ENDROOT
BRANCH   8  17
HETATM   17  O3  UNL     1      -6.253 -16.122 -18.856  1.00  0.00    -0.292 OA
BRANCH  17  18
HETATM   18  C11 UNL     1      -7.354 -15.600 -19.467  1.00  0.00     0.369 C 
HETATM   19  O4  UNL     1      -7.237 -14.933 -20.503  1.00  0.00    -0.238 OA
HETATM   20  N1  UNL     1      -8.644 -15.824 -18.913  1.00  0.00    -0.248 N 
HETATM   21  C12 UNL     1      -9.813 -15.302 -19.518  1.00  0.00     0.369 C 
ATOM     22  H1  UNL     1      -8.729 -16.374 -18.059  1.00  0.00     0.176 HD
HETATM   23  O5  UNL     1     -10.959 -15.477 -19.055  1.00  0.00    -0.238 OA
BRANCH  21  24
HETATM   24  O6  UNL     1      -9.680 -14.560 -20.679  1.00  0.00    -0.294 OA
BRANCH  24  25
HETATM   25  C13 UNL     1     -10.305 -14.926 -21.868  1.00  0.00     0.061 C 
HETATM   26  C14 UNL     1     -11.719 -14.393 -21.998  1.00  0.00     0.046 C 
HETATM   27  C15 UNL     1     -10.297 -16.413 -22.096  1.00  0.00     0.046 C 
HETATM   28  C16 UNL     1      -9.512 -14.309 -23.025  1.00  0.00     0.046 C 
ENDBRANCH  24  25
ENDBRANCH  21  24
ENDBRANCH  17  18
ENDBRANCH   8  17
BRANCH   9  29
HETATM   29  O7  UNL     1      -5.823 -17.263 -16.755  1.00  0.00    -0.390 OA
ATOM     30  H7  UNL     1      -5.634 -17.768 -15.973  1.00  0.00     0.210 HD
ENDBRANCH   9  29
BRANCH   1  31
HETATM   31  O2  UNL     1      -3.411 -18.411 -17.734  1.00  0.00    -0.309 OA
BRANCH  31  32
HETATM   32  C2  UNL     1      -2.643 -17.965 -16.706  1.00  0.00     0.255 C 
HETATM   33  C1  UNL     1      -2.823 -18.507 -15.339  1.00  0.00     0.126 C 
HETATM   34  O1  UNL     1      -1.780 -17.101 -16.882  1.00  0.00    -0.266 OA
ENDBRANCH  31  32
ENDBRANCH   1  31
TORSDOF 7
ENDMDL
MODEL 2
REMARK VINA RESULT: -7.225910828      2.695      4.014
REMARK  7 active torsions:
REMARK  status: ('A' for Active; 'I' for Inactive)
REMARK    1  A    between atoms: C2_2  and  O2_4 
REMARK    2  A    between atoms: O2_4  and  C3_5 
REMARK    3  A    between atoms: C10_12  and  O3_13 
REMARK    4  A    between atoms: O3_13  and  C11_14 
REMARK       I    between atoms: C11_14  and  N1_16 
REMARK       I    between atoms: N1_16  and  C12_18 
REMARK    5  A    between atoms: C12_18  and  O6_20 
REMARK    6  A    between atoms: O6_20  and  C13_21 
REMARK    7  A    between atoms: C17_25  and  O7_26 
ROOT
HETATM    1  C3  UNL     1      -4.538 -19.265 -17.458  1.00  0.00     0.192 C 
HETATM    2  C4  UNL     1      -4.557 -20.479 -18.239  1.00  0.00    -0.055 C 
HETATM    3  C5  UNL     1      -3.822 -21.539 -17.491  1.00  0.00     0.046 C 
HETATM    4  C6  UNL     1      -5.046 -20.858 -19.414  1.00  0.00    -0.010 C 
HETATM    5  C7  UNL     1      -5.786 -20.442 -20.582  1.00  0.00     0.073 C 
HETATM    6  C8  UNL     1      -6.073 -19.063 -20.899  1.00  0.00    -0.059 C 
HETATM    7  C9  UNL     1      -6.462 -18.050 -19.941  1.00  0.00     0.012 C 
HETATM    8  C10 UNL     1      -5.518 -17.494 -18.958  1.00  0.00     0.188 C 
HETATM    9  C17 UNL     1      -5.596 -18.259 -17.668  1.00  0.00     0.185 C 
HETATM   10  C18 UNL     1      -5.058 -18.639 -21.972  1.00  0.00     0.114 C 
HETATM   11  C19 UNL     1      -3.643 -18.964 -21.648  1.00  0.00     0.183 C 
HETATM   12  O8  UNL     1      -3.631 -20.326 -21.417  1.00  0.00    -0.378 OA
HETATM   13  C20 UNL     1      -4.879 -20.842 -21.773  1.00  0.00     0.206 C 
HETATM   14  C21 UNL     1      -5.287 -19.883 -22.875  1.00  0.00     0.279 C 
HETATM   15  F1  UNL     1      -4.343 -19.861 -23.880  1.00  0.00    -0.203 F 
HETATM   16  F2  UNL     1      -6.553 -20.006 -23.310  1.00  0.00    -0.203 F 
ENDROOT
BRANCH   8  17
HETATM   17  O3  UNL     1      -5.956 -16.158 -18.612  1.00  0.00    -0.292 OA
BRANCH  17  18
HETATM   18  C11 UNL     1      -5.146 -15.063 -18.643  1.00  0.00     0.369 C 
HETATM   19  O4  UNL     1      -4.434 -14.782 -17.671  1.00  0.00    -0.238 OA
HETATM   20  N1  UNL     1      -5.117 -14.237 -19.800  1.00  0.00    -0.248 N 
HETATM   21  C12 UNL     1      -4.288 -13.091 -19.875  1.00  0.00     0.369 C 
ATOM     22  H1  UNL     1      -5.709 -14.475 -20.596  1.00  0.00     0.176 HD
HETATM   23  O5  UNL     1      -4.243 -12.344 -20.875  1.00  0.00    -0.238 OA
BRANCH  21  24
HETATM   24  O6  UNL     1      -3.489 -12.783 -18.788  1.00  0.00    -0.294 OA
BRANCH  24  25
HETATM   25  C13 UNL     1      -3.509 -11.528 -18.185  1.00  0.00     0.061 C 
HETATM   26  C14 UNL     1      -4.815 -10.783 -18.382  1.00  0.00     0.046 C 
HETATM   27  C15 UNL     1      -2.357 -10.660 -18.611  1.00  0.00     0.046 C 
HETATM   28  C16 UNL     1      -3.360 -11.730 -16.674  1.00  0.00     0.046 C 
ENDBRANCH  24  25
ENDBRANCH  21  24
ENDBRANCH  17  18
ENDBRANCH   8  17
BRANCH   9  29
HETATM   29  O7  UNL     1      -5.550 -17.388 -16.558  1.00  0.00    -0.390 OA
ATOM     30  H7  UNL     1      -4.763 -17.607 -16.073  1.00  0.00     0.210 HD
ENDBRANCH   9  29
BRANCH   1  31
HETATM   31  O2  UNL     1      -3.249 -18.667 -17.636  1.00  0.00    -0.309 OA
BRANCH  31  32
HETATM   32  C2  UNL     1      -2.515 -18.116 -16.635  1.00  0.00     0.255 C 
HETATM   33  C1  UNL     1      -2.502 -18.726 -15.285  1.00  0.00     0.126 C 
HETATM   34  O1  UNL     1      -1.843 -17.098 -16.821  1.00  0.00    -0.266 OA
ENDBRANCH  31  32
ENDBRANCH   1  31
TORSDOF 7
ENDMDL
MODEL 3
REMARK VINA RESULT: -7.152797133      1.580      2.406
REMARK  7 active torsions:
REMARK  status: ('A' for Active; 'I' for Inactive)
REMARK    1  A    between atoms: C2_2  and  O2_4 
REMARK    2  A    between atoms: O2_4  and  C3_5 
REMARK    3  A    between atoms: C10_12  and  O3_13 
REMARK    4  A    between atoms: O3_13  and  C11_14 
REMARK       I    between atoms: C11_14  and  N1_16 
REMARK       I    between atoms: N1_16  and  C12_18 
REMARK    5  A    between atoms: C12_18  and  O6_20 
REMARK    6  A    between atoms: O6_20  and  C13_21 
REMARK    7  A    between atoms: C17_25  and  O7_26 
ROOT
HETATM    1  C3  UNL     1      -4.539 -19.191 -17.508  1.00  0.00     0.192 C 
HETATM    2  C4  UNL     1      -4.454 -20.430 -18.245  1.00  0.00    -0.055 C 
HETATM    3  C5  UNL     1      -3.635 -21.398 -17.461  1.00  0.00     0.046 C 
HETATM    4  C6  UNL     1      -4.908 -20.890 -19.406  1.00  0.00    -0.010 C 
HETATM    5  C7  UNL     1      -5.677 -20.580 -20.587  1.00  0.00     0.073 C 
HETATM    6  C8  UNL     1      -6.078 -19.241 -20.953  1.00  0.00    -0.059 C 
HETATM    7  C9  UNL     1      -6.552 -18.231 -20.031  1.00  0.00     0.012 C 
HETATM    8  C10 UNL     1      -5.660 -17.562 -19.069  1.00  0.00     0.188 C 
HETATM    9  C17 UNL     1      -5.676 -18.285 -17.753  1.00  0.00     0.185 C 
HETATM   10  C18 UNL     1      -5.100 -18.772 -22.041  1.00  0.00     0.114 C 
HETATM   11  C19 UNL     1      -3.663 -18.966 -21.707  1.00  0.00     0.183 C 
HETATM   12  O8  UNL     1      -3.538 -20.313 -21.427  1.00  0.00    -0.378 OA
HETATM   13  C20 UNL     1      -4.738 -20.944 -21.763  1.00  0.00     0.206 C 
HETATM   14  C21 UNL     1      -5.222 -20.062 -22.898  1.00  0.00     0.279 C 
HETATM   15  F1  UNL     1      -4.282 -19.997 -23.904  1.00  0.00    -0.203 F 
HETATM   16  F2  UNL     1      -6.473 -20.306 -23.327  1.00  0.00    -0.203 F 
ENDROOT
BRANCH   8  17
HETATM   17  O3  UNL     1      -6.209 -16.257 -18.771  1.00  0.00    -0.292 OA
BRANCH  17  18
HETATM   18  C11 UNL     1      -6.378 -15.275 -19.701  1.00  0.00     0.369 C 
HETATM   19  O4  UNL     1      -7.515 -14.913 -20.031  1.00  0.00    -0.238 OA
HETATM   20  N1  UNL     1      -5.242 -14.662 -20.296  1.00  0.00    -0.248 N 
HETATM   21  C12 UNL     1      -5.372 -13.637 -21.264  1.00  0.00     0.369 C 
ATOM     22  H1  UNL     1      -4.310 -14.967 -20.018  1.00  0.00     0.176 HD
HETATM   23  O5  UNL     1      -4.395 -13.080 -21.807  1.00  0.00    -0.238 OA
BRANCH  21  24
HETATM   24  O6  UNL     1      -6.645 -13.230 -21.627  1.00  0.00    -0.294 OA
BRANCH  24  25
HETATM   25  C13 UNL     1      -7.134 -13.393 -22.921  1.00  0.00     0.061 C 
HETATM   26  C14 UNL     1      -6.846 -14.760 -23.508  1.00  0.00     0.046 C 
HETATM   27  C15 UNL     1      -6.656 -12.322 -23.862  1.00  0.00     0.046 C 
HETATM   28  C16 UNL     1      -8.659 -13.268 -22.865  1.00  0.00     0.046 C 
ENDBRANCH  24  25
ENDBRANCH  21  24
ENDBRANCH  17  18
ENDBRANCH   8  17
BRANCH   9  29
HETATM   29  O7  UNL     1      -5.706 -17.374 -16.674  1.00  0.00    -0.390 OA
ATOM     30  H7  UNL     1      -6.604 -17.349 -16.365  1.00  0.00     0.210 HD
ENDBRANCH   9  29
BRANCH   1  31
HETATM   31  O2  UNL     1      -3.304 -18.494 -17.709  1.00  0.00    -0.309 OA
BRANCH  31  32
HETATM   32  C2  UNL     1      -2.546 -17.974 -16.708  1.00  0.00     0.255 C 
HETATM   33  C1  UNL     1      -2.627 -18.526 -15.336  1.00  0.00     0.126 C 
HETATM   34  O1  UNL     1      -1.774 -17.034 -16.915  1.00  0.00    -0.266 OA
ENDBRANCH  31  32
ENDBRANCH   1  31
TORSDOF 7
ENDMDL
MODEL 4
REMARK VINA RESULT: -7.117438996      2.624      3.866
REMARK  7 active torsions:
REMARK  status: ('A' for Active; 'I' for Inactive)
REMARK    1  A    between atoms: C2_2  and  O2_4 
REMARK    2  A    between atoms: O2_4  and  C3_5 
REMARK    3  A    between atoms: C10_12  and  O3_13 
REMARK    4  A    between atoms: O3_13  and  C11_14 
REMARK       I    between atoms: C11_14  and  N1_16 
REMARK       I    between atoms: N1_16  and  C12_18 
REMARK    5  A    between atoms: C12_18  and  O6_20 
REMARK    6  A    between atoms: O6_20  and  C13_21 
REMARK    7  A    between atoms: C17_25  and  O7_26 
ROOT
HETATM    1  C3  UNL     1      -5.001 -19.054 -17.402  1.00  0.00     0.192 C 
HETATM    2  C4  UNL     1      -4.803 -20.141 -18.331  1.00  0.00    -0.055 C 
HETATM    3  C5  UNL     1      -3.996 -21.201 -17.661  1.00  0.00     0.046 C 
HETATM    4  C6  UNL     1      -5.150 -20.408 -19.585  1.00  0.00    -0.010 C 
HETATM    5  C7  UNL     1      -5.846 -19.924 -20.753  1.00  0.00     0.073 C 
HETATM    6  C8  UNL     1      -6.284 -18.557 -20.916  1.00  0.00    -0.059 C 
HETATM    7  C9  UNL     1      -6.872 -17.740 -19.875  1.00  0.00     0.012 C 
HETATM    8  C10 UNL     1      -6.084 -17.219 -18.745  1.00  0.00     0.188 C 
HETATM    9  C17 UNL     1      -6.160 -18.160 -17.578  1.00  0.00     0.185 C 
HETATM   10  C18 UNL     1      -5.254 -17.871 -21.827  1.00  0.00     0.114 C 
HETATM   11  C19 UNL     1      -3.837 -18.070 -21.418  1.00  0.00     0.183 C 
HETATM   12  O8  UNL     1      -3.668 -19.440 -21.363  1.00  0.00    -0.378 OA
HETATM   13  C20 UNL     1      -4.808 -20.044 -21.897  1.00  0.00     0.206 C 
HETATM   14  C21 UNL     1      -5.252 -18.996 -22.899  1.00  0.00     0.279 C 
HETATM   15  F1  UNL     1      -4.246 -18.724 -23.801  1.00  0.00    -0.203 F 
HETATM   16  F2  UNL     1      -6.455 -19.206 -23.461  1.00  0.00    -0.203 F 
ENDROOT
BRANCH   8  17
HETATM   17  O3  UNL     1      -6.716 -16.005 -18.273  1.00  0.00    -0.292 OA
BRANCH  17  18
HETATM   18  C11 UNL     1      -6.069 -14.813 -18.147  1.00  0.00     0.369 C 
HETATM   19  O4  UNL     1      -6.352 -13.864 -18.890  1.00  0.00    -0.238 OA
HETATM   20  N1  UNL     1      -5.062 -14.656 -17.156  1.00  0.00    -0.248 N 
HETATM   21  C12 UNL     1      -4.367 -13.433 -16.990  1.00  0.00     0.369 C 
ATOM     22  H1  UNL     1      -4.835 -15.443 -16.549  1.00  0.00     0.176 HD
HETATM   23  O5  UNL     1      -3.476 -13.264 -16.132  1.00  0.00    -0.238 OA
BRANCH  21  24
HETATM   24  O6  UNL     1      -4.689 -12.373 -17.819  1.00  0.00    -0.294 OA
BRANCH  24  25
HETATM   25  C13 UNL     1      -3.787 -11.855 -18.746  1.00  0.00     0.061 C 
HETATM   26  C14 UNL     1      -3.128 -12.915 -19.605  1.00  0.00     0.046 C 
HETATM   27  C15 UNL     1      -2.736 -10.986 -18.111  1.00  0.00     0.046 C 
HETATM   28  C16 UNL     1      -4.568 -10.954 -19.707  1.00  0.00     0.046 C 
ENDBRANCH  24  25
ENDBRANCH  21  24
ENDBRANCH  17  18
ENDBRANCH   8  17
BRANCH   9  29
HETATM   29  O7  UNL     1      -6.311 -17.452 -16.365  1.00  0.00    -0.390 OA
ATOM     30  H7  UNL     1      -5.873 -16.617 -16.481  1.00  0.00     0.210 HD
ENDBRANCH   9  29
BRANCH   1  31
HETATM   31  O2  UNL     1      -3.790 -18.289 -17.382  1.00  0.00    -0.309 OA
BRANCH  31  32
HETATM   32  C2  UNL     1      -3.187 -17.836 -16.251  1.00  0.00     0.255 C 
HETATM   33  C1  UNL     1      -2.409 -18.758 -15.391  1.00  0.00     0.126 C 
HETATM   34  O1  UNL     1      -3.272 -16.653 -15.913  1.00  0.00    -0.266 OA
ENDBRANCH  31  32
ENDBRANCH   1  31
TORSDOF 7
ENDMDL
MODEL 5
REMARK VINA RESULT: -7.103616680      3.614      8.791
REMARK  7 active torsions:
REMARK  status: ('A' for Active; 'I' for Inactive)
REMARK    1  A    between atoms: C2_2  and  O2_4 
REMARK    2  A    between atoms: O2_4  and  C3_5 
REMARK    3  A    between atoms: C10_12  and  O3_13 
REMARK    4  A    between atoms: O3_13  and  C11_14 
REMARK       I    between atoms: C11_14  and  N1_16 
REMARK       I    between atoms: N1_16  and  C12_18 
REMARK    5  A    between atoms: C12_18  and  O6_20 
REMARK    6  A    between atoms: O6_20  and  C13_21 
REMARK    7  A    between atoms: C17_25  and  O7_26 
ROOT
HETATM    1  C3  UNL     1      -8.583 -13.139 -25.631  1.00  0.00     0.192 C 
HETATM    2  C4  UNL     1      -9.999 -13.418 -25.567  1.00  0.00    -0.055 C 
HETATM    3  C5  UNL     1     -10.694 -12.597 -26.600  1.00  0.00     0.046 C 
HETATM    4  C6  UNL     1     -10.794 -14.192 -24.837  1.00  0.00    -0.010 C 
HETATM    5  C7  UNL     1     -10.853 -15.156 -23.765  1.00  0.00     0.073 C 
HETATM    6  C8  UNL     1      -9.756 -15.421 -22.864  1.00  0.00    -0.059 C 
HETATM    7  C9  UNL     1      -8.363 -15.509 -23.248  1.00  0.00     0.012 C 
HETATM    8  C10 UNL     1      -7.581 -14.328 -23.649  1.00  0.00     0.188 C 
HETATM    9  C17 UNL     1      -7.630 -14.150 -25.139  1.00  0.00     0.185 C 
HETATM   10  C18 UNL     1     -10.061 -14.660 -21.564  1.00  0.00     0.114 C 
HETATM   11  C19 UNL     1     -10.432 -13.232 -21.755  1.00  0.00     0.183 C 
HETATM   12  O8  UNL     1     -11.508 -13.254 -22.622  1.00  0.00    -0.378 OA
HETATM   13  C20 UNL     1     -11.910 -14.580 -22.789  1.00  0.00     0.206 C 
HETATM   14  C21 UNL     1     -11.523 -15.173 -21.447  1.00  0.00     0.279 C 
HETATM   15  F1  UNL     1     -12.134 -14.491 -20.416  1.00  0.00    -0.203 F 
HETATM   16  F2  UNL     1     -11.618 -16.511 -21.357  1.00  0.00    -0.203 F 
ENDROOT
BRANCH   8  17
HETATM   17  O3  UNL     1      -6.187 -14.587 -23.361  1.00  0.00    -0.292 OA
BRANCH  17  18
HETATM   18  C11 UNL     1      -5.735 -15.725 -22.762  1.00  0.00     0.369 C 
HETATM   19  O4  UNL     1      -5.846 -15.875 -21.538  1.00  0.00    -0.238 OA
HETATM   20  N1  UNL     1      -5.135 -16.747 -23.546  1.00  0.00    -0.248 N 
HETATM   21  C12 UNL     1      -4.656 -17.946 -22.965  1.00  0.00     0.369 C 
ATOM     22  H1  UNL     1      -5.048 -16.615 -24.554  1.00  0.00     0.176 HD
HETATM   23  O5  UNL     1      -4.121 -18.861 -23.625  1.00  0.00    -0.238 OA
BRANCH  21  24
HETATM   24  O6  UNL     1      -4.785 -18.113 -21.597  1.00  0.00    -0.294 OA
BRANCH  24  25
HETATM   25  C13 UNL     1      -5.519 -19.159 -21.043  1.00  0.00     0.061 C 
HETATM   26  C14 UNL     1      -4.712 -20.428 -20.849  1.00  0.00     0.046 C 
HETATM   27  C15 UNL     1      -6.771 -19.464 -21.818  1.00  0.00     0.046 C 
HETATM   28  C16 UNL     1      -5.972 -18.727 -19.646  1.00  0.00     0.046 C 
ENDBRANCH  24  25
ENDBRANCH  21  24
ENDBRANCH  17  18
ENDBRANCH   8  17
BRANCH   9  29
HETATM   29  O7  UNL     1      -6.363 -13.791 -25.649  1.00  0.00    -0.390 OA
ATOM     30  H7  UNL     1      -6.284 -12.850 -25.541  1.00  0.00     0.210 HD
ENDBRANCH   9  29
BRANCH   1  31
HETATM   31  O2  UNL     1      -8.367 -11.892 -24.961  1.00  0.00    -0.309 OA
BRANCH  31  32
HETATM   32  C2  UNL     1      -7.802 -10.800 -25.538  1.00  0.00     0.255 C 
HETATM   33  C1  UNL     1      -8.612  -9.592 -25.821  1.00  0.00     0.126 C 
HETATM   34  O1  UNL     1      -6.606 -10.784 -25.840  1.00  0.00    -0.266 OA
ENDBRANCH  31  32
ENDBRANCH   1  31
TORSDOF 7
ENDMDL
