MODEL 1
REMARK VINA RESULT: -7.777881191      0.000      0.000
REMARK  4 active torsions:
REMARK  status: ('A' for Active; 'I' for Inactive)
REMARK    1  A    between atoms: O1_2  and  C2_3 
REMARK    2  A    between atoms: C5_6  and  C6_7 
REMARK    3  A    between atoms: C7_10  and  N2_11 
REMARK    4  A    between atoms: N2_11  and  C8_13 
ROOT
HETATM    1  C6  UNL     1      33.220  82.797  -6.425  1.00  0.00     0.164 C 
HETATM    2  N1  UNL     1      32.181  82.696  -7.417  1.00  0.00    -0.214 N 
ATOM      3  H1  UNL     1      32.435  82.578  -8.398  1.00  0.00     0.178 HD
HETATM    4  C7  UNL     1      30.958  82.751  -7.094  1.00  0.00     0.675 C 
HETATM    5  N3  UNL     1      30.513  82.747  -5.716  1.00  0.00    -0.196 N 
ATOM      6  H3  UNL     1      29.517  82.810  -5.505  1.00  0.00     0.184 HD
HETATM    7  C11 UNL     1      31.360  82.666  -4.761  1.00  0.00     0.031 C 
HETATM    8  C12 UNL     1      30.726  82.696  -3.443  1.00  0.00     0.058 C 
HETATM    9  C13 UNL     1      31.525  82.138  -2.310  1.00  0.00     0.006 C 
HETATM   10  C14 UNL     1      32.352  80.937  -2.641  1.00  0.00     0.001 C 
HETATM   11  C15 UNL     1      33.733  81.264  -3.133  1.00  0.00     0.004 C 
HETATM   12  C16 UNL     1      33.719  82.557  -3.967  1.00  0.00     0.038 C 
HETATM   13  C17 UNL     1      32.761  82.423  -5.115  1.00  0.00    -0.029 C 
ENDROOT
BRANCH   1  14
HETATM   14  C5  UNL     1      33.797  84.137  -6.682  1.00  0.00    -0.031 A 
HETATM   15  C4  UNL     1      33.146  85.326  -6.787  1.00  0.00     0.012 A 
HETATM   16  C3  UNL     1      33.841  86.530  -7.019  1.00  0.00     0.037 A 
HETATM   17  C2  UNL     1      35.210  86.549  -7.150  1.00  0.00     0.068 A 
HETATM   18  C19 UNL     1      35.860  85.340  -7.044  1.00  0.00     0.037 A 
HETATM   19  C18 UNL     1      35.181  84.161  -6.816  1.00  0.00     0.012 A 
BRANCH  17  20
HETATM   20  O1  UNL     1      35.892  87.742  -7.380  1.00  0.00    -0.356 OA
HETATM   21  C1  UNL     1      35.321  89.005  -7.292  1.00  0.00     0.210 C 
ENDBRANCH  17  20
ENDBRANCH   1  14
BRANCH   4  22
HETATM   22  N2  UNL     1      29.983  82.660  -8.146  1.00  0.00    -0.222 N 
ATOM     23  H2  UNL     1      30.269  82.522  -9.115  1.00  0.00     0.178 HD
BRANCH  22  24
HETATM   24  C8  UNL     1      28.588  82.771  -7.794  1.00  0.00     0.099 A 
HETATM   25  C9  UNL     1      27.563  82.916  -8.857  1.00  0.00     0.028 A 
HETATM   26  C10 UNL     1      27.707  81.633  -8.139  1.00  0.00     0.028 A 
ENDBRANCH  22  24
ENDBRANCH   4  22
TORSDOF 4
ENDMDL
MODEL 2
REMARK VINA RESULT: -7.439637472      2.597      5.693
REMARK  4 active torsions:
REMARK  status: ('A' for Active; 'I' for Inactive)
REMARK    1  A    between atoms: O1_2  and  C2_3 
REMARK    2  A    between atoms: C5_6  and  C6_7 
REMARK    3  A    between atoms: C7_10  and  N2_11 
REMARK    4  A    between atoms: N2_11  and  C8_13 
ROOT
HETATM    1  C6  UNL     1      33.778  83.931  -5.443  1.00  0.00     0.164 C 
HETATM    2  N1  UNL     1      32.779  83.251  -6.226  1.00  0.00    -0.214 N 
ATOM      3  H1  UNL     1      31.890  83.001  -5.794  1.00  0.00     0.178 HD
HETATM    4  C7  UNL     1      32.986  82.959  -7.441  1.00  0.00     0.675 C 
HETATM    5  N3  UNL     1      34.146  83.426  -8.170  1.00  0.00    -0.196 N 
ATOM      6  H3  UNL     1      34.278  83.149  -9.143  1.00  0.00     0.184 HD
HETATM    7  C11 UNL     1      35.008  84.182  -7.603  1.00  0.00     0.031 C 
HETATM    8  C12 UNL     1      36.117  84.533  -8.491  1.00  0.00     0.058 C 
HETATM    9  C13 UNL     1      36.899  85.753  -8.123  1.00  0.00     0.006 C 
HETATM   10  C14 UNL     1      36.097  86.880  -7.555  1.00  0.00     0.001 C 
HETATM   11  C15 UNL     1      35.942  86.827  -6.062  1.00  0.00     0.004 C 
HETATM   12  C16 UNL     1      35.842  85.370  -5.578  1.00  0.00     0.038 C 
HETATM   13  C17 UNL     1      34.699  84.675  -6.259  1.00  0.00    -0.029 C 
ENDROOT
BRANCH   1  14
HETATM   14  C5  UNL     1      34.253  82.875  -4.518  1.00  0.00    -0.031 A 
HETATM   15  C4  UNL     1      35.535  82.530  -4.225  1.00  0.00     0.012 A 
HETATM   16  C3  UNL     1      35.831  81.506  -3.304  1.00  0.00     0.037 A 
HETATM   17  C2  UNL     1      34.831  80.812  -2.663  1.00  0.00     0.068 A 
HETATM   18  C19 UNL     1      33.537  81.169  -2.967  1.00  0.00     0.037 A 
HETATM   19  C18 UNL     1      33.245  82.171  -3.869  1.00  0.00     0.012 A 
BRANCH  17  20
HETATM   20  O1  UNL     1      35.130  79.800  -1.753  1.00  0.00    -0.356 OA
HETATM   21  C1  UNL     1      36.139  79.869  -0.802  1.00  0.00     0.210 C 
ENDBRANCH  17  20
ENDBRANCH   1  14
BRANCH   4  22
HETATM   22  N2  UNL     1      31.946  82.265  -8.148  1.00  0.00    -0.222 N 
ATOM     23  H2  UNL     1      32.127  81.829  -9.053  1.00  0.00     0.178 HD
BRANCH  22  24
HETATM   24  C8  UNL     1      30.637  82.199  -7.544  1.00  0.00     0.099 A 
HETATM   25  C9  UNL     1      29.481  82.855  -8.203  1.00  0.00     0.028 A 
HETATM   26  C10 UNL     1      29.610  81.384  -8.231  1.00  0.00     0.028 A 
ENDBRANCH  22  24
ENDBRANCH   4  22
TORSDOF 4
ENDMDL
MODEL 3
REMARK VINA RESULT: -7.428700115      2.864      6.578
REMARK  4 active torsions:
REMARK  status: ('A' for Active; 'I' for Inactive)
REMARK    1  A    between atoms: O1_2  and  C2_3 
REMARK    2  A    between atoms: C5_6  and  C6_7 
REMARK    3  A    between atoms: C7_10  and  N2_11 
REMARK    4  A    between atoms: N2_11  and  C8_13 
ROOT
HETATM    1  C6  UNL     1      34.659  83.114  -6.711  1.00  0.00     0.164 C 
HETATM    2  N1  UNL     1      35.096  82.499  -5.484  1.00  0.00    -0.214 N 
ATOM      3  H1  UNL     1      35.061  81.484  -5.393  1.00  0.00     0.178 HD
HETATM    4  C7  UNL     1      35.523  83.197  -4.517  1.00  0.00     0.675 C 
HETATM    5  N3  UNL     1      35.762  84.621  -4.627  1.00  0.00    -0.196 N 
ATOM      6  H3  UNL     1      36.091  85.143  -3.815  1.00  0.00     0.184 HD
HETATM    7  C11 UNL     1      35.564  85.228  -5.735  1.00  0.00     0.031 C 
HETATM    8  C12 UNL     1      35.841  86.662  -5.646  1.00  0.00     0.058 C 
HETATM    9  C13 UNL     1      36.110  87.366  -6.937  1.00  0.00     0.006 C 
HETATM   10  C14 UNL     1      36.892  86.583  -7.942  1.00  0.00     0.001 C 
HETATM   11  C15 UNL     1      36.043  85.746  -8.857  1.00  0.00     0.004 C 
HETATM   12  C16 UNL     1      34.812  85.204  -8.110  1.00  0.00     0.038 C 
HETATM   13  C17 UNL     1      35.242  84.413  -6.908  1.00  0.00    -0.029 C 
ENDROOT
BRANCH   1  14
HETATM   14  C5  UNL     1      33.189  82.931  -6.670  1.00  0.00    -0.031 A 
HETATM   15  C4  UNL     1      32.371  82.943  -5.584  1.00  0.00     0.012 A 
HETATM   16  C3  UNL     1      30.978  82.769  -5.707  1.00  0.00     0.037 A 
HETATM   17  C2  UNL     1      30.389  82.580  -6.935  1.00  0.00     0.068 A 
HETATM   18  C19 UNL     1      31.226  82.569  -8.029  1.00  0.00     0.037 A 
HETATM   19  C18 UNL     1      32.590  82.739  -7.910  1.00  0.00     0.012 A 
BRANCH  17  20
HETATM   20  O1  UNL     1      29.011  82.409  -7.051  1.00  0.00    -0.356 OA
HETATM   21  C1  UNL     1      28.209  83.081  -7.964  1.00  0.00     0.210 C 
ENDBRANCH  17  20
ENDBRANCH   1  14
BRANCH   4  22
HETATM   22  N2  UNL     1      35.924  82.509  -3.321  1.00  0.00    -0.222 N 
ATOM     23  H2  UNL     1      36.441  82.992  -2.586  1.00  0.00     0.178 HD
BRANCH  22  24
HETATM   24  C8  UNL     1      35.576  81.115  -3.188  1.00  0.00     0.099 A 
HETATM   25  C9  UNL     1      35.594  80.469  -1.852  1.00  0.00     0.028 A 
HETATM   26  C10 UNL     1      34.306  80.794  -2.499  1.00  0.00     0.028 A 
ENDBRANCH  22  24
ENDBRANCH   4  22
TORSDOF 4
ENDMDL
MODEL 4
REMARK VINA RESULT: -7.399823406      2.643      5.418
REMARK  4 active torsions:
REMARK  status: ('A' for Active; 'I' for Inactive)
REMARK    1  A    between atoms: O1_2  and  C2_3 
REMARK    2  A    between atoms: C5_6  and  C6_7 
REMARK    3  A    between atoms: C7_10  and  N2_11 
REMARK    4  A    between atoms: N2_11  and  C8_13 
ROOT
HETATM    1  C6  UNL     1      31.961  84.145  -5.554  1.00  0.00     0.164 C 
HETATM    2  N1  UNL     1      33.282  84.476  -6.022  1.00  0.00    -0.214 N 
ATOM      3  H1  UNL     1      33.435  85.362  -6.504  1.00  0.00     0.178 HD
HETATM    4  C7  UNL     1      34.257  83.687  -5.845  1.00  0.00     0.675 C 
HETATM    5  N3  UNL     1      34.160  82.497  -5.027  1.00  0.00    -0.196 N 
ATOM      6  H3  UNL     1      34.969  81.883  -4.928  1.00  0.00     0.184 HD
HETATM    7  C11 UNL     1      33.068  82.209  -4.428  1.00  0.00     0.031 C 
HETATM    8  C12 UNL     1      33.156  80.962  -3.667  1.00  0.00     0.058 C 
HETATM    9  C13 UNL     1      32.152  80.778  -2.576  1.00  0.00     0.006 C 
HETATM   10  C14 UNL     1      31.800  82.016  -1.815  1.00  0.00     0.001 C 
HETATM   11  C15 UNL     1      30.656  82.791  -2.405  1.00  0.00     0.004 C 
HETATM   12  C16 UNL     1      30.674  82.699  -3.941  1.00  0.00     0.038 C 
HETATM   13  C17 UNL     1      31.986  83.195  -4.475  1.00  0.00    -0.029 C 
ENDROOT
BRANCH   1  14
HETATM   14  C5  UNL     1      31.225  83.862  -6.808  1.00  0.00    -0.031 A 
HETATM   15  C4  UNL     1      31.258  82.732  -7.564  1.00  0.00     0.012 A 
HETATM   16  C3  UNL     1      30.482  82.604  -8.733  1.00  0.00     0.037 A 
HETATM   17  C2  UNL     1      29.657  83.620  -9.156  1.00  0.00     0.068 A 
HETATM   18  C19 UNL     1      29.631  84.760  -8.384  1.00  0.00     0.037 A 
HETATM   19  C18 UNL     1      30.391  84.887  -7.240  1.00  0.00     0.012 A 
BRANCH  17  20
HETATM   20  O1  UNL     1      28.891  83.488 -10.313  1.00  0.00    -0.356 OA
HETATM   21  C1  UNL     1      27.681  84.131 -10.533  1.00  0.00     0.210 C 
ENDBRANCH  17  20
ENDBRANCH   1  14
BRANCH   4  22
HETATM   22  N2  UNL     1      35.540  84.084  -6.357  1.00  0.00    -0.222 N 
ATOM     23  H2  UNL     1      36.402  83.723  -5.948  1.00  0.00     0.178 HD
BRANCH  22  24
HETATM   24  C8  UNL     1      35.576  85.007  -7.465  1.00  0.00     0.099 A 
HETATM   25  C9  UNL     1      36.692  85.976  -7.589  1.00  0.00     0.028 A 
HETATM   26  C10 UNL     1      36.628  84.805  -8.486  1.00  0.00     0.028 A 
ENDBRANCH  22  24
ENDBRANCH   4  22
TORSDOF 4
ENDMDL
MODEL 5
REMARK VINA RESULT: -7.382184635      0.931      1.092
REMARK  4 active torsions:
REMARK  status: ('A' for Active; 'I' for Inactive)
REMARK    1  A    between atoms: O1_2  and  C2_3 
REMARK    2  A    between atoms: C5_6  and  C6_7 
REMARK    3  A    between atoms: C7_10  and  N2_11 
REMARK    4  A    between atoms: N2_11  and  C8_13 
ROOT
HETATM    1  C6  UNL     1      33.464  82.887  -6.337  1.00  0.00     0.164 C 
HETATM    2  N1  UNL     1      32.563  82.658  -7.436  1.00  0.00    -0.214 N 
ATOM      3  H1  UNL     1      32.941  82.523  -8.373  1.00  0.00     0.178 HD
HETATM    4  C7  UNL     1      31.309  82.620  -7.259  1.00  0.00     0.675 C 
HETATM    5  N3  UNL     1      30.705  82.633  -5.944  1.00  0.00    -0.196 N 
ATOM      6  H3  UNL     1      29.689  82.619  -5.853  1.00  0.00     0.184 HD
HETATM    7  C11 UNL     1      31.435  82.663  -4.895  1.00  0.00     0.031 C 
HETATM    8  C12 UNL     1      30.647  82.691  -3.662  1.00  0.00     0.058 C 
HETATM    9  C13 UNL     1      31.348  82.250  -2.418  1.00  0.00     0.006 C 
HETATM   10  C14 UNL     1      32.303  81.113  -2.589  1.00  0.00     0.001 C 
HETATM   11  C15 UNL     1      33.702  81.537  -2.935  1.00  0.00     0.004 C 
HETATM   12  C16 UNL     1      33.684  82.790  -3.828  1.00  0.00     0.038 C 
HETATM   13  C17 UNL     1      32.883  82.528  -5.071  1.00  0.00    -0.029 C 
ENDROOT
BRANCH   1  14
HETATM   14  C5  UNL     1      33.958  84.260  -6.592  1.00  0.00    -0.031 A 
HETATM   15  C4  UNL     1      33.230  85.386  -6.819  1.00  0.00     0.012 A 
HETATM   16  C3  UNL     1      33.848  86.634  -7.032  1.00  0.00     0.037 A 
HETATM   17  C2  UNL     1      35.218  86.763  -7.016  1.00  0.00     0.068 A 
HETATM   18  C19 UNL     1      35.946  85.618  -6.785  1.00  0.00     0.037 A 
HETATM   19  C18 UNL     1      35.342  84.395  -6.578  1.00  0.00     0.012 A 
BRANCH  17  20
HETATM   20  O1  UNL     1      35.824  88.000  -7.226  1.00  0.00    -0.356 OA
HETATM   21  C1  UNL     1      35.142  89.206  -7.313  1.00  0.00     0.210 C 
ENDBRANCH  17  20
ENDBRANCH   1  14
BRANCH   4  22
HETATM   22  N2  UNL     1      30.478  82.404  -8.411  1.00  0.00    -0.222 N 
ATOM     23  H2  UNL     1      30.035  81.499  -8.576  1.00  0.00     0.178 HD
BRANCH  22  24
HETATM   24  C8  UNL     1      30.286  83.499  -9.329  1.00  0.00     0.099 A 
HETATM   25  C9  UNL     1      28.949  84.128  -9.468  1.00  0.00     0.028 A 
HETATM   26  C10 UNL     1      30.028  84.837  -8.750  1.00  0.00     0.028 A 
ENDBRANCH  22  24
ENDBRANCH   4  22
TORSDOF 4
ENDMDL
