MODEL 1
REMARK VINA RESULT: -7.569090543      0.000      0.000
REMARK  4 active torsions:
REMARK  status: ('A' for Active; 'I' for Inactive)
REMARK       I    between atoms: C1_2  and  N1_3 
REMARK    1  A    between atoms: C1_2  and  O2_11 
REMARK    2  A    between atoms: N1_3  and  C2_5 
REMARK    3  A    between atoms: O2_11  and  C8_12 
REMARK    4  A    between atoms: C12_17  and  C13_18 
ROOT
HETATM    1  C8  UNL     1      33.868  83.280  -5.284  1.00  0.00     0.166 C 
HETATM    2  C9  UNL     1      34.806  84.386  -5.767  1.00  0.00     0.200 C 
HETATM    3  O3  UNL     1      35.007  85.306  -4.713  1.00  0.00    -0.389 OA
HETATM    4  C10 UNL     1      35.991  84.747  -3.897  1.00  0.00     0.168 C 
HETATM    5  C11 UNL     1      35.582  83.332  -3.559  1.00  0.00     0.038 C 
HETATM    6  C12 UNL     1      34.111  83.098  -3.803  1.00  0.00     0.059 C 
ENDROOT
BRANCH   1   7
HETATM    7  O2  UNL     1      32.530  83.545  -5.585  1.00  0.00    -0.296 OA
BRANCH   7   8
HETATM    8  C1  UNL     1      31.889  83.172  -6.754  1.00  0.00     0.361 C 
HETATM    9  O1  UNL     1      32.602  82.575  -7.617  1.00  0.00    -0.238 OA
HETATM   10  N1  UNL     1      30.514  83.436  -6.983  1.00  0.00    -0.332 N 
ATOM     11  H1  UNL     1      29.990  83.920  -6.254  1.00  0.00     0.165 HD
BRANCH  10  12
HETATM   12  C2  UNL     1      29.816  83.062  -8.185  1.00  0.00     0.086 C 
HETATM   13  C3  UNL     1      29.117  81.734  -7.984  1.00  0.00     0.025 C 
HETATM   14  C4  UNL     1      27.663  82.028  -7.698  1.00  0.00     0.002 C 
HETATM   15  C5  UNL     1      27.042  82.494  -9.001  1.00  0.00     0.000 C 
HETATM   16  C6  UNL     1      27.751  83.735  -9.437  1.00  0.00     0.002 C 
HETATM   17  C7  UNL     1      28.843  84.173  -8.497  1.00  0.00     0.025 C 
ENDBRANCH  10  12
ENDBRANCH   7   8
ENDBRANCH   1   7
BRANCH   6  18
HETATM   18  C13 UNL     1      33.845  81.658  -3.433  1.00  0.00    -0.011 A 
HETATM   19  C14 UNL     1      32.651  80.989  -3.473  1.00  0.00     0.015 A 
HETATM   20  C15 UNL     1      32.649  79.705  -3.096  1.00  0.00     0.008 A 
HETATM   21  C16 UNL     1      33.843  79.164  -2.701  1.00  0.00     0.050 A 
HETATM   22  S1  UNL     1      34.927  80.464  -2.869  1.00  0.00    -0.106 SA
ENDBRANCH   6  18
TORSDOF 4
ENDMDL
MODEL 2
REMARK VINA RESULT: -7.390596910      1.744      2.463
REMARK  4 active torsions:
REMARK  status: ('A' for Active; 'I' for Inactive)
REMARK       I    between atoms: C1_2  and  N1_3 
REMARK    1  A    between atoms: C1_2  and  O2_11 
REMARK    2  A    between atoms: N1_3  and  C2_5 
REMARK    3  A    between atoms: O2_11  and  C8_12 
REMARK    4  A    between atoms: C12_17  and  C13_18 
ROOT
HETATM    1  C8  UNL     1      32.877  82.509  -4.314  1.00  0.00     0.166 C 
HETATM    2  C9  UNL     1      31.855  83.638  -4.186  1.00  0.00     0.200 C 
HETATM    3  O3  UNL     1      30.570  83.073  -4.016  1.00  0.00    -0.389 OA
HETATM    4  C10 UNL     1      30.469  82.745  -2.664  1.00  0.00     0.168 C 
HETATM    5  C11 UNL     1      31.679  81.928  -2.279  1.00  0.00     0.038 C 
HETATM    6  C12 UNL     1      32.374  81.348  -3.487  1.00  0.00     0.059 C 
ENDROOT
BRANCH   1   7
HETATM    7  O2  UNL     1      33.123  82.161  -5.645  1.00  0.00    -0.296 OA
BRANCH   7   8
HETATM    8  C1  UNL     1      32.361  82.567  -6.726  1.00  0.00     0.361 C 
HETATM    9  O1  UNL     1      32.922  83.364  -7.539  1.00  0.00    -0.238 OA
HETATM   10  N1  UNL     1      31.028  82.122  -6.926  1.00  0.00    -0.332 N 
ATOM     11  H1  UNL     1      30.628  81.481  -6.241  1.00  0.00     0.165 HD
BRANCH  10  12
HETATM   12  C2  UNL     1      30.208  82.522  -8.039  1.00  0.00     0.086 C 
HETATM   13  C3  UNL     1      29.240  81.413  -8.394  1.00  0.00     0.025 C 
HETATM   14  C4  UNL     1      27.904  81.770  -7.785  1.00  0.00     0.002 C 
HETATM   15  C5  UNL     1      27.342  82.922  -8.596  1.00  0.00     0.000 C 
HETATM   16  C6  UNL     1      28.289  84.073  -8.489  1.00  0.00     0.002 C 
HETATM   17  C7  UNL     1      29.495  83.789  -7.631  1.00  0.00     0.025 C 
ENDBRANCH  10  12
ENDBRANCH   7   8
ENDBRANCH   1   7
BRANCH   6  18
HETATM   18  C13 UNL     1      33.556  80.568  -2.962  1.00  0.00    -0.011 A 
HETATM   19  C14 UNL     1      33.594  79.250  -2.595  1.00  0.00     0.015 A 
HETATM   20  C15 UNL     1      34.761  78.766  -2.152  1.00  0.00     0.008 A 
HETATM   21  C16 UNL     1      35.823  79.629  -2.104  1.00  0.00     0.050 A 
HETATM   22  S1  UNL     1      35.158  81.087  -2.677  1.00  0.00    -0.106 SA
ENDBRANCH   6  18
TORSDOF 4
ENDMDL
MODEL 3
REMARK VINA RESULT: -7.387727762      1.919      3.705
REMARK  4 active torsions:
REMARK  status: ('A' for Active; 'I' for Inactive)
REMARK       I    between atoms: C1_2  and  N1_3 
REMARK    1  A    between atoms: C1_2  and  O2_11 
REMARK    2  A    between atoms: N1_3  and  C2_5 
REMARK    3  A    between atoms: O2_11  and  C8_12 
REMARK    4  A    between atoms: C12_17  and  C13_18 
ROOT
HETATM    1  C8  UNL     1      33.364  82.185  -4.028  1.00  0.00     0.166 C 
HETATM    2  C9  UNL     1      33.158  81.143  -2.929  1.00  0.00     0.200 C 
HETATM    3  O3  UNL     1      34.112  80.112  -3.094  1.00  0.00    -0.389 OA
HETATM    4  C10 UNL     1      35.290  80.581  -2.513  1.00  0.00     0.168 C 
HETATM    5  C11 UNL     1      35.592  81.948  -3.081  1.00  0.00     0.038 C 
HETATM    6  C12 UNL     1      34.838  82.203  -4.364  1.00  0.00     0.059 C 
ENDROOT
BRANCH   1   7
HETATM    7  O2  UNL     1      32.556  81.951  -5.143  1.00  0.00    -0.296 OA
BRANCH   7   8
HETATM    8  C1  UNL     1      31.447  82.701  -5.494  1.00  0.00     0.361 C 
HETATM    9  O1  UNL     1      31.219  83.728  -4.784  1.00  0.00    -0.238 OA
HETATM   10  N1  UNL     1      30.608  82.352  -6.584  1.00  0.00    -0.332 N 
ATOM     11  H1  UNL     1      30.839  81.516  -7.120  1.00  0.00     0.165 HD
BRANCH  10  12
HETATM   12  C2  UNL     1      29.449  83.109  -6.977  1.00  0.00     0.086 C 
HETATM   13  C3  UNL     1      29.838  84.156  -8.000  1.00  0.00     0.025 C 
HETATM   14  C4  UNL     1      29.463  83.616  -9.361  1.00  0.00     0.002 C 
HETATM   15  C5  UNL     1      27.950  83.662  -9.453  1.00  0.00     0.000 C 
HETATM   16  C6  UNL     1      27.391  82.792  -8.374  1.00  0.00     0.002 C 
HETATM   17  C7  UNL     1      28.442  82.127  -7.525  1.00  0.00     0.025 C 
ENDBRANCH  10  12
ENDBRANCH   7   8
ENDBRANCH   1   7
BRANCH   6  18
HETATM   18  C13 UNL     1      35.224  83.592  -4.813  1.00  0.00    -0.011 A 
HETATM   19  C14 UNL     1      35.624  84.644  -4.033  1.00  0.00     0.015 A 
HETATM   20  C15 UNL     1      35.919  85.794  -4.652  1.00  0.00     0.008 A 
HETATM   21  C16 UNL     1      35.797  85.824  -6.015  1.00  0.00     0.050 A 
HETATM   22  S1  UNL     1      35.275  84.249  -6.388  1.00  0.00    -0.106 SA
ENDBRANCH   6  18
TORSDOF 4
ENDMDL
MODEL 4
REMARK VINA RESULT: -7.321080059      3.443      5.273
REMARK  4 active torsions:
REMARK  status: ('A' for Active; 'I' for Inactive)
REMARK       I    between atoms: C1_2  and  N1_3 
REMARK    1  A    between atoms: C1_2  and  O2_11 
REMARK    2  A    between atoms: N1_3  and  C2_5 
REMARK    3  A    between atoms: O2_11  and  C8_12 
REMARK    4  A    between atoms: C12_17  and  C13_18 
ROOT
HETATM    1  C8  UNL     1      32.827  82.445  -4.323  1.00  0.00     0.166 C 
HETATM    2  C9  UNL     1      31.828  83.594  -4.188  1.00  0.00     0.200 C 
HETATM    3  O3  UNL     1      30.543  83.055  -3.946  1.00  0.00    -0.389 OA
HETATM    4  C10 UNL     1      30.495  82.772  -2.581  1.00  0.00     0.168 C 
HETATM    5  C11 UNL     1      31.708  81.948  -2.221  1.00  0.00     0.038 C 
HETATM    6  C12 UNL     1      32.343  81.319  -3.438  1.00  0.00     0.059 C 
ENDROOT
BRANCH   1   7
HETATM    7  O2  UNL     1      33.010  82.052  -5.650  1.00  0.00    -0.296 OA
BRANCH   7   8
HETATM    8  C1  UNL     1      33.381  82.893  -6.685  1.00  0.00     0.361 C 
HETATM    9  O1  UNL     1      32.624  82.895  -7.704  1.00  0.00    -0.238 OA
HETATM   10  N1  UNL     1      34.541  83.709  -6.622  1.00  0.00    -0.332 N 
ATOM     11  H1  UNL     1      35.113  83.667  -5.779  1.00  0.00     0.165 HD
BRANCH  10  12
HETATM   12  C2  UNL     1      34.955  84.594  -7.678  1.00  0.00     0.086 C 
HETATM   13  C3  UNL     1      35.078  86.008  -7.150  1.00  0.00     0.025 C 
HETATM   14  C4  UNL     1      36.544  86.266  -6.889  1.00  0.00     0.002 C 
HETATM   15  C5  UNL     1      37.216  86.398  -8.243  1.00  0.00     0.000 C 
HETATM   16  C6  UNL     1      37.035  85.111  -8.981  1.00  0.00     0.002 C 
HETATM   17  C7  UNL     1      36.268  84.070  -8.206  1.00  0.00     0.025 C 
ENDBRANCH  10  12
ENDBRANCH   7   8
ENDBRANCH   1   7
BRANCH   6  18
HETATM   18  C13 UNL     1      33.534  80.538  -2.939  1.00  0.00    -0.011 A 
HETATM   19  C14 UNL     1      33.580  79.218  -2.580  1.00  0.00     0.015 A 
HETATM   20  C15 UNL     1      34.756  78.732  -2.161  1.00  0.00     0.008 A 
HETATM   21  C16 UNL     1      35.817  79.596  -2.126  1.00  0.00     0.050 A 
HETATM   22  S1  UNL     1      35.140  81.056  -2.678  1.00  0.00    -0.106 SA
ENDBRANCH   6  18
TORSDOF 4
ENDMDL
MODEL 5
REMARK VINA RESULT: -7.298084525      2.738      6.367
REMARK  4 active torsions:
REMARK  status: ('A' for Active; 'I' for Inactive)
REMARK       I    between atoms: C1_2  and  N1_3 
REMARK    1  A    between atoms: C1_2  and  O2_11 
REMARK    2  A    between atoms: N1_3  and  C2_5 
REMARK    3  A    between atoms: O2_11  and  C8_12 
REMARK    4  A    between atoms: C12_17  and  C13_18 
ROOT
HETATM    1  C8  UNL     1      34.949  85.026  -5.627  1.00  0.00     0.166 C 
HETATM    2  C9  UNL     1      35.926  86.195  -5.514  1.00  0.00     0.200 C 
HETATM    3  O3  UNL     1      36.458  86.471  -6.795  1.00  0.00    -0.389 OA
HETATM    4  C10 UNL     1      35.505  87.252  -7.448  1.00  0.00     0.168 C 
HETATM    5  C11 UNL     1      34.168  86.555  -7.350  1.00  0.00     0.038 C 
HETATM    6  C12 UNL     1      34.320  85.094  -7.000  1.00  0.00     0.059 C 
ENDROOT
BRANCH   1   7
HETATM    7  O2  UNL     1      35.558  83.795  -5.370  1.00  0.00    -0.296 OA
BRANCH   7   8
HETATM    8  C1  UNL     1      35.499  83.115  -4.167  1.00  0.00     0.361 C 
HETATM    9  O1  UNL     1      36.279  83.525  -3.253  1.00  0.00    -0.238 OA
HETATM   10  N1  UNL     1      34.621  82.020  -3.955  1.00  0.00    -0.332 N 
ATOM     11  H1  UNL     1      34.017  81.733  -4.725  1.00  0.00     0.165 HD
BRANCH  10  12
HETATM   12  C2  UNL     1      34.534  81.291  -2.718  1.00  0.00     0.086 C 
HETATM   13  C3  UNL     1      33.207  80.566  -2.636  1.00  0.00     0.025 C 
HETATM   14  C4  UNL     1      33.456  79.125  -3.015  1.00  0.00     0.002 C 
HETATM   15  C5  UNL     1      34.209  78.489  -1.862  1.00  0.00     0.000 C 
HETATM   16  C6  UNL     1      35.504  79.217  -1.694  1.00  0.00     0.002 C 
HETATM   17  C7  UNL     1      35.704  80.337  -2.682  1.00  0.00     0.025 C 
ENDBRANCH  10  12
ENDBRANCH   7   8
ENDBRANCH   1   7
BRANCH   6  18
HETATM   18  C13 UNL     1      32.922  84.528  -6.931  1.00  0.00    -0.011 A 
HETATM   19  C14 UNL     1      31.737  85.203  -7.053  1.00  0.00     0.015 A 
HETATM   20  C15 UNL     1      30.608  84.492  -6.956  1.00  0.00     0.008 A 
HETATM   21  C16 UNL     1      30.729  83.145  -6.741  1.00  0.00     0.050 A 
HETATM   22  S1  UNL     1      32.414  82.917  -6.683  1.00  0.00    -0.106 SA
ENDBRANCH   6  18
TORSDOF 4
ENDMDL
