MODEL 1
REMARK VINA RESULT: -7.624270540      0.000      0.000
REMARK  4 active torsions:
REMARK  status: ('A' for Active; 'I' for Inactive)
REMARK    1  A    between atoms: C2_2  and  C4_4 
REMARK    2  A    between atoms: C5_8  and  N2_9 
REMARK    3  A    between atoms: N3_16  and  C12_17 
REMARK    4  A    between atoms: C12_17  and  C13_18 
ROOT
HETATM    1  N2  UNL     1      16.221  10.241  -0.549  1.00  0.00    -0.344 N 
HETATM    2  C6  UNL     1      16.196  10.078  -1.984  1.00  0.00     0.128 C 
HETATM    3  C7  UNL     1      14.929  10.511  -2.627  1.00  0.00     0.056 C 
HETATM    4  C8  UNL     1      14.464  11.903  -2.232  1.00  0.00     0.227 C 
HETATM    5  C9  UNL     1      15.532  12.586  -1.379  1.00  0.00     0.073 C 
HETATM    6  C10 UNL     1      14.732  12.113  -0.209  1.00  0.00     0.243 C 
HETATM    7  C11 UNL     1      15.133  10.738   0.269  1.00  0.00     0.162 C 
HETATM    8  N3  UNL     1      13.624  11.918  -1.114  1.00  0.00     0.100 N 
ENDROOT
BRANCH   1   9
HETATM    9  C5  UNL     1      17.389   9.895   0.154  1.00  0.00     0.246 A 
HETATM   10  O1  UNL     1      18.065  10.680   0.956  1.00  0.00    -0.199 OA
HETATM   11  N1  UNL     1      19.091  10.094   1.459  1.00  0.00    -0.245 N 
HETATM   12  C4  UNL     1      19.112   8.841   0.972  1.00  0.00     0.108 A 
ATOM     13  H1  UNL     1      19.764  10.502   2.108  1.00  0.00     0.196 HD
HETATM   14  N4  UNL     1      18.067   8.719   0.170  1.00  0.00    -0.308 N 
ATOM     15  H4  UNL     1      17.812   7.880  -0.351  1.00  0.00     0.170 HD
BRANCH  12  16
HETATM   16  C2  UNL     1      20.174   7.874   1.350  1.00  0.00     0.047 C 
HETATM   17  C1  UNL     1      19.915   6.559   0.645  1.00  0.00     0.017 C 
HETATM   18  C3  UNL     1      21.555   8.385   1.013  1.00  0.00     0.017 C 
ENDBRANCH  12  16
ENDBRANCH   1   9
BRANCH   8  19
HETATM   19  C12 UNL     1      12.536  12.761  -0.917  1.00  0.00     0.278 C 
BRANCH  19  20
HETATM   20  C13 UNL     1      11.424  12.108  -0.143  1.00  0.00     0.014 C 
HETATM   21  C14 UNL     1      11.290  12.488   1.282  1.00  0.00     0.006 C 
HETATM   22  C15 UNL     1      10.367  11.394   1.820  1.00  0.00     0.000 C 
HETATM   23  C16 UNL     1      10.721  10.160   1.033  1.00  0.00     0.000 C 
HETATM   24  C17 UNL     1      11.637  10.602  -0.070  1.00  0.00     0.006 C 
ENDBRANCH  19  20
ENDBRANCH   8  19
TORSDOF 4
ENDMDL
MODEL 2
REMARK VINA RESULT: -7.349034373      0.989      1.175
REMARK  4 active torsions:
REMARK  status: ('A' for Active; 'I' for Inactive)
REMARK    1  A    between atoms: C2_2  and  C4_4 
REMARK    2  A    between atoms: C5_8  and  N2_9 
REMARK    3  A    between atoms: N3_16  and  C12_17 
REMARK    4  A    between atoms: C12_17  and  C13_18 
ROOT
HETATM    1  N2  UNL     1      16.436  10.339  -0.405  1.00  0.00    -0.344 N 
HETATM    2  C6  UNL     1      16.440  10.046  -1.821  1.00  0.00     0.128 C 
HETATM    3  C7  UNL     1      15.193  10.431  -2.529  1.00  0.00     0.056 C 
HETATM    4  C8  UNL     1      14.737  11.859  -2.272  1.00  0.00     0.227 C 
HETATM    5  C9  UNL     1      15.794  12.605  -1.461  1.00  0.00     0.073 C 
HETATM    6  C10 UNL     1      14.963  12.250  -0.271  1.00  0.00     0.243 C 
HETATM    7  C11 UNL     1      15.337  10.920   0.339  1.00  0.00     0.162 C 
HETATM    8  N3  UNL     1      13.873  11.985  -1.181  1.00  0.00     0.100 N 
ENDROOT
BRANCH   1   9
HETATM    9  C5  UNL     1      17.584  10.046   0.353  1.00  0.00     0.246 A 
HETATM   10  O1  UNL     1      17.627   9.290   1.421  1.00  0.00    -0.199 OA
HETATM   11  N1  UNL     1      18.813   9.201   1.907  1.00  0.00    -0.245 N 
HETATM   12  C4  UNL     1      19.619   9.940   1.124  1.00  0.00     0.108 A 
ATOM     13  H1  UNL     1      19.091   8.671   2.732  1.00  0.00     0.196 HD
HETATM   14  N4  UNL     1      18.864  10.459   0.169  1.00  0.00    -0.308 N 
ATOM     15  H4  UNL     1      19.190  11.069  -0.580  1.00  0.00     0.170 HD
BRANCH  12  16
HETATM   16  C2  UNL     1      21.074  10.062   1.396  1.00  0.00     0.047 C 
HETATM   17  C1  UNL     1      21.664   8.675   1.543  1.00  0.00     0.017 C 
HETATM   18  C3  UNL     1      21.795  10.825   0.309  1.00  0.00     0.017 C 
ENDBRANCH  12  16
ENDBRANCH   1   9
BRANCH   8  19
HETATM   19  C12 UNL     1      12.791  12.854  -1.086  1.00  0.00     0.278 C 
BRANCH  19  20
HETATM   20  C13 UNL     1      11.648  12.278  -0.297  1.00  0.00     0.014 C 
HETATM   21  C14 UNL     1      11.592  12.617   1.142  1.00  0.00     0.006 C 
HETATM   22  C15 UNL     1      10.588  11.594   1.675  1.00  0.00     0.000 C 
HETATM   23  C16 UNL     1      10.802  10.362   0.837  1.00  0.00     0.000 C 
HETATM   24  C17 UNL     1      11.721  10.757  -0.281  1.00  0.00     0.006 C 
ENDBRANCH  19  20
ENDBRANCH   8  19
TORSDOF 4
ENDMDL
MODEL 3
REMARK VINA RESULT: -7.169350873      1.049      1.110
REMARK  4 active torsions:
REMARK  status: ('A' for Active; 'I' for Inactive)
REMARK    1  A    between atoms: C2_2  and  C4_4 
REMARK    2  A    between atoms: C5_8  and  N2_9 
REMARK    3  A    between atoms: N3_16  and  C12_17 
REMARK    4  A    between atoms: C12_17  and  C13_18 
ROOT
HETATM    1  N2  UNL     1      16.854   9.705  -0.570  1.00  0.00    -0.344 N 
HETATM    2  C6  UNL     1      16.737   9.736  -2.010  1.00  0.00     0.128 C 
HETATM    3  C7  UNL     1      15.553  10.478  -2.513  1.00  0.00     0.056 C 
HETATM    4  C8  UNL     1      15.385  11.870  -1.925  1.00  0.00     0.227 C 
HETATM    5  C9  UNL     1      16.600  12.225  -1.070  1.00  0.00     0.073 C 
HETATM    6  C10 UNL     1      15.773  11.764   0.086  1.00  0.00     0.243 C 
HETATM    7  C11 UNL     1      15.918  10.288   0.371  1.00  0.00     0.162 C 
HETATM    8  N3  UNL     1      14.611  11.899  -0.762  1.00  0.00     0.100 N 
ENDROOT
BRANCH   1   9
HETATM    9  C5  UNL     1      17.961   9.058   0.009  1.00  0.00     0.246 A 
HETATM   10  O1  UNL     1      18.599   9.444   1.085  1.00  0.00    -0.199 OA
HETATM   11  N1  UNL     1      19.572   8.658   1.381  1.00  0.00    -0.245 N 
HETATM   12  C4  UNL     1      19.594   7.686   0.452  1.00  0.00     0.108 A 
ATOM     13  H1  UNL     1      20.209   8.754   2.172  1.00  0.00     0.196 HD
HETATM   14  N4  UNL     1      18.604   7.932  -0.391  1.00  0.00    -0.308 N 
ATOM     15  H4  UNL     1      18.365   7.369  -1.206  1.00  0.00     0.170 HD
BRANCH  12  16
HETATM   16  C2  UNL     1      20.601   6.595   0.487  1.00  0.00     0.047 C 
HETATM   17  C1  UNL     1      20.609   5.891  -0.853  1.00  0.00     0.017 C 
HETATM   18  C3  UNL     1      21.984   7.108   0.818  1.00  0.00     0.017 C 
ENDBRANCH  12  16
ENDBRANCH   1   9
BRANCH   8  19
HETATM   19  C12 UNL     1      13.717  12.899  -0.395  1.00  0.00     0.278 C 
BRANCH  19  20
HETATM   20  C13 UNL     1      12.336  12.372  -0.114  1.00  0.00     0.014 C 
HETATM   21  C14 UNL     1      11.752  12.702   1.205  1.00  0.00     0.006 C 
HETATM   22  C15 UNL     1      10.579  11.724   1.290  1.00  0.00     0.000 C 
HETATM   23  C16 UNL     1      11.044  10.491   0.564  1.00  0.00     0.000 C 
HETATM   24  C17 UNL     1      12.335  10.850  -0.111  1.00  0.00     0.006 C 
ENDBRANCH  19  20
ENDBRANCH   8  19
TORSDOF 4
ENDMDL
MODEL 4
REMARK VINA RESULT: -7.036713097      4.504      8.935
REMARK  4 active torsions:
REMARK  status: ('A' for Active; 'I' for Inactive)
REMARK    1  A    between atoms: C2_2  and  C4_4 
REMARK    2  A    between atoms: C5_8  and  N2_9 
REMARK    3  A    between atoms: N3_16  and  C12_17 
REMARK    4  A    between atoms: C12_17  and  C13_18 
ROOT
HETATM    1  N2  UNL     1      12.742  15.265  -2.519  1.00  0.00    -0.344 N 
HETATM    2  C6  UNL     1      14.013  15.522  -3.157  1.00  0.00     0.128 C 
HETATM    3  C7  UNL     1      14.963  14.381  -3.111  1.00  0.00     0.056 C 
HETATM    4  C8  UNL     1      14.381  13.056  -3.576  1.00  0.00     0.227 C 
HETATM    5  C9  UNL     1      12.979  13.274  -4.143  1.00  0.00     0.073 C 
HETATM    6  C10 UNL     1      12.496  12.876  -2.787  1.00  0.00     0.243 C 
HETATM    7  C11 UNL     1      12.366  14.043  -1.837  1.00  0.00     0.162 C 
HETATM    8  N3  UNL     1      13.801  12.306  -2.549  1.00  0.00     0.100 N 
ENDROOT
BRANCH   1   9
HETATM    9  C5  UNL     1      11.756  16.268  -2.538  1.00  0.00     0.246 A 
HETATM   10  O1  UNL     1      11.896  17.490  -2.089  1.00  0.00    -0.199 OA
HETATM   11  N1  UNL     1      10.827  18.187  -2.237  1.00  0.00    -0.245 N 
HETATM   12  C4  UNL     1       9.911  17.393  -2.819  1.00  0.00     0.108 A 
ATOM     13  H1  UNL     1      10.696  19.161  -1.964  1.00  0.00     0.196 HD
HETATM   14  N4  UNL     1      10.483  16.213  -3.003  1.00  0.00    -0.308 N 
ATOM     15  H4  UNL     1      10.039  15.398  -3.426  1.00  0.00     0.170 HD
BRANCH  12  16
HETATM   16  C2  UNL     1       8.545  17.880  -3.141  1.00  0.00     0.047 C 
HETATM   17  C1  UNL     1       7.828  18.218  -1.851  1.00  0.00     0.017 C 
HETATM   18  C3  UNL     1       8.571  19.081  -4.056  1.00  0.00     0.017 C 
ENDBRANCH  12  16
ENDBRANCH   1   9
BRANCH   8  19
HETATM   19  C12 UNL     1      13.834  10.921  -2.424  1.00  0.00     0.278 C 
BRANCH  19  20
HETATM   20  C13 UNL     1      14.716  10.458  -1.298  1.00  0.00     0.014 C 
HETATM   21  C14 UNL     1      14.983  11.431  -0.215  1.00  0.00     0.006 C 
HETATM   22  C15 UNL     1      16.168  10.790   0.508  1.00  0.00     0.000 C 
HETATM   23  C16 UNL     1      16.954  10.091  -0.569  1.00  0.00     0.000 C 
HETATM   24  C17 UNL     1      16.113  10.135  -1.811  1.00  0.00     0.006 C 
ENDBRANCH  19  20
ENDBRANCH   8  19
TORSDOF 4
ENDMDL
MODEL 5
REMARK VINA RESULT: -6.993685196      0.948      1.465
REMARK  4 active torsions:
REMARK  status: ('A' for Active; 'I' for Inactive)
REMARK    1  A    between atoms: C2_2  and  C4_4 
REMARK    2  A    between atoms: C5_8  and  N2_9 
REMARK    3  A    between atoms: N3_16  and  C12_17 
REMARK    4  A    between atoms: C12_17  and  C13_18 
ROOT
HETATM    1  N2  UNL     1      17.088  10.163  -0.331  1.00  0.00    -0.344 N 
HETATM    2  C6  UNL     1      16.984   9.978  -1.760  1.00  0.00     0.128 C 
HETATM    3  C7  UNL     1      15.637  10.261  -2.318  1.00  0.00     0.056 C 
HETATM    4  C8  UNL     1      15.051  11.600  -1.901  1.00  0.00     0.227 C 
HETATM    5  C9  UNL     1      16.092  12.407  -1.128  1.00  0.00     0.073 C 
HETATM    6  C10 UNL     1      15.429  11.867   0.097  1.00  0.00     0.243 C 
HETATM    7  C11 UNL     1      16.009  10.551   0.556  1.00  0.00     0.162 C 
HETATM    8  N3  UNL     1      14.291  11.540  -0.730  1.00  0.00     0.100 N 
ENDROOT
BRANCH   1   9
HETATM    9  C5  UNL     1      18.331   9.956   0.294  1.00  0.00     0.246 A 
HETATM   10  O1  UNL     1      18.741  10.528   1.398  1.00  0.00    -0.199 OA
HETATM   11  N1  UNL     1      19.922  10.148   1.733  1.00  0.00    -0.245 N 
HETATM   12  C4  UNL     1      20.335   9.269   0.803  1.00  0.00     0.108 A 
ATOM     13  H1  UNL     1      20.448  10.455   2.551  1.00  0.00     0.196 HD
HETATM   14  N4  UNL     1      19.358   9.152  -0.082  1.00  0.00    -0.308 N 
ATOM     15  H4  UNL     1      19.374   8.555  -0.909  1.00  0.00     0.170 HD
BRANCH  12  16
HETATM   16  C2  UNL     1      21.671   8.623   0.878  1.00  0.00     0.047 C 
HETATM   17  C1  UNL     1      22.304   8.959   2.211  1.00  0.00     0.017 C 
HETATM   18  C3  UNL     1      21.588   7.125   0.700  1.00  0.00     0.017 C 
ENDBRANCH  12  16
ENDBRANCH   1   9
BRANCH   8  19
HETATM   19  C12 UNL     1      13.133  12.263  -0.464  1.00  0.00     0.278 C 
BRANCH  19  20
HETATM   20  C13 UNL     1      12.324  11.677   0.660  1.00  0.00     0.014 C 
HETATM   21  C14 UNL     1      11.855  10.283   0.489  1.00  0.00     0.006 C 
HETATM   22  C15 UNL     1      10.792  10.165   1.582  1.00  0.00     0.000 C 
HETATM   23  C16 UNL     1      10.176  11.535   1.678  1.00  0.00     0.000 C 
HETATM   24  C17 UNL     1      11.024  12.448   0.843  1.00  0.00     0.006 C 
ENDBRANCH  19  20
ENDBRANCH   8  19
TORSDOF 4
ENDMDL
