MODEL 1
REMARK VINA RESULT: -5.537854266      0.000      0.000
REMARK  4 active torsions:
REMARK  status: ('A' for Active; 'I' for Inactive)
REMARK    1  A    between atoms: C2_2  and  C3_3 
REMARK    2  A    between atoms: C5_5  and  O1_7 
REMARK    3  A    between atoms: C9_11  and  C11_13 
REMARK    4  A    between atoms: C11_13  and  O3_15 
ROOT
HETATM    1  C3  UNL     1     -13.618  11.118   1.585  1.00  0.00     0.006 C 
HETATM    2  C4  UNL     1     -13.150  11.585   0.247  1.00  0.00     0.043 C 
HETATM    3  C5  UNL     1     -11.885  12.406   0.305  1.00  0.00     0.054 C 
HETATM    4  C6  UNL     1     -11.564  13.008  -1.022  1.00  0.00     0.045 C 
HETATM    5  C7  UNL     1     -12.090  13.525   1.298  1.00  0.00     0.038 C 
HETATM    6  C8  UNL     1     -12.146  12.824   2.654  1.00  0.00     0.023 C 
HETATM    7  C9  UNL     1     -13.463  12.045   2.709  1.00  0.00     0.048 C 
HETATM    8  C10 UNL     1     -13.448  11.322   4.042  1.00  0.00     0.026 C 
ENDROOT
BRANCH   7   9
HETATM    9  C11 UNL     1     -14.496  13.097   2.800  1.00  0.00     0.267 C 
HETATM   10  O2  UNL     1     -14.766  13.603   3.905  1.00  0.00    -0.264 OA
BRANCH   9  11
HETATM   11  O3  UNL     1     -15.196  13.563   1.696  1.00  0.00    -0.326 OA
HETATM   12  C12 UNL     1     -16.588  13.750   1.664  1.00  0.00     0.213 C 
ENDBRANCH   9  11
ENDBRANCH   7   9
BRANCH   1  13
HETATM   13  C2  UNL     1     -14.958  10.466   1.470  1.00  0.00     0.001 C 
HETATM   14  C1  UNL     1     -15.284  10.492  -0.042  1.00  0.00     0.005 C 
ENDBRANCH   1  13
BRANCH   3  15
HETATM   15  O1  UNL     1     -10.822  11.614   0.719  1.00  0.00    -0.390 OA
ATOM     16  H1  UNL     1      -9.998  12.030   0.494  1.00  0.00     0.210 HD
ENDBRANCH   3  15
TORSDOF 4
ENDMDL
MODEL 2
REMARK VINA RESULT: -5.314319858      1.575      2.345
REMARK  4 active torsions:
REMARK  status: ('A' for Active; 'I' for Inactive)
REMARK    1  A    between atoms: C2_2  and  C3_3 
REMARK    2  A    between atoms: C5_5  and  O1_7 
REMARK    3  A    between atoms: C9_11  and  C11_13 
REMARK    4  A    between atoms: C11_13  and  O3_15 
ROOT
HETATM    1  C3  UNL     1     -13.705  11.473   2.136  1.00  0.00     0.006 C 
HETATM    2  C4  UNL     1     -12.799  10.749   1.198  1.00  0.00     0.043 C 
HETATM    3  C5  UNL     1     -11.866  11.659   0.439  1.00  0.00     0.054 C 
HETATM    4  C6  UNL     1     -11.119  10.915  -0.618  1.00  0.00     0.045 C 
HETATM    5  C7  UNL     1     -12.690  12.734  -0.229  1.00  0.00     0.038 C 
HETATM    6  C8  UNL     1     -13.198  13.595   0.926  1.00  0.00     0.023 C 
HETATM    7  C9  UNL     1     -14.234  12.766   1.690  1.00  0.00     0.048 C 
HETATM    8  C10 UNL     1     -14.665  13.635   2.856  1.00  0.00     0.026 C 
ENDROOT
BRANCH   7   9
HETATM    9  C11 UNL     1     -15.381  12.687   0.763  1.00  0.00     0.267 C 
HETATM   10  O2  UNL     1     -16.117  13.678   0.606  1.00  0.00    -0.264 OA
BRANCH   9  11
HETATM   11  O3  UNL     1     -15.689  11.542   0.041  1.00  0.00    -0.326 OA
HETATM   12  C12 UNL     1     -16.989  11.034  -0.119  1.00  0.00     0.213 C 
ENDBRANCH   9  11
ENDBRANCH   7   9
BRANCH   1  13
HETATM   13  C2  UNL     1     -14.711  10.535   2.719  1.00  0.00     0.001 C 
HETATM   14  C1  UNL     1     -14.145  10.158   4.108  1.00  0.00     0.005 C 
ENDBRANCH   1  13
BRANCH   3  15
HETATM   15  O1  UNL     1     -10.961  12.250   1.311  1.00  0.00    -0.390 OA
ATOM     16  H1  UNL     1     -11.373  12.974   1.766  1.00  0.00     0.210 HD
ENDBRANCH   3  15
TORSDOF 4
ENDMDL
MODEL 3
REMARK VINA RESULT: -5.283330479      1.613      2.546
REMARK  4 active torsions:
REMARK  status: ('A' for Active; 'I' for Inactive)
REMARK    1  A    between atoms: C2_2  and  C3_3 
REMARK    2  A    between atoms: C5_5  and  O1_7 
REMARK    3  A    between atoms: C9_11  and  C11_13 
REMARK    4  A    between atoms: C11_13  and  O3_15 
ROOT
HETATM    1  C3  UNL     1     -12.634  12.474   1.391  1.00  0.00     0.006 C 
HETATM    2  C4  UNL     1     -12.092  13.859   1.276  1.00  0.00     0.043 C 
HETATM    3  C5  UNL     1     -11.930  14.555   2.605  1.00  0.00     0.054 C 
HETATM    4  C6  UNL     1     -11.571  15.992   2.428  1.00  0.00     0.045 C 
HETATM    5  C7  UNL     1     -13.245  14.480   3.344  1.00  0.00     0.038 C 
HETATM    6  C8  UNL     1     -13.394  13.005   3.707  1.00  0.00     0.023 C 
HETATM    7  C9  UNL     1     -13.664  12.241   2.408  1.00  0.00     0.048 C 
HETATM    8  C10 UNL     1     -13.746  10.780   2.808  1.00  0.00     0.026 C 
ENDROOT
BRANCH   7   9
HETATM    9  C11 UNL     1     -15.028  12.661   2.026  1.00  0.00     0.267 C 
HETATM   10  O2  UNL     1     -15.996  12.330   2.734  1.00  0.00    -0.264 OA
BRANCH   9  11
HETATM   11  O3  UNL     1     -15.293  13.421   0.895  1.00  0.00    -0.326 OA
HETATM   12  C12 UNL     1     -16.582  13.678   0.399  1.00  0.00     0.213 C 
ENDBRANCH   9  11
ENDBRANCH   7   9
BRANCH   1  13
HETATM   13  C2  UNL     1     -12.931  11.915   0.038  1.00  0.00     0.001 C 
HETATM   14  C1  UNL     1     -11.729  12.339  -0.839  1.00  0.00     0.005 C 
ENDBRANCH   1  13
BRANCH   3  15
HETATM   15  O1  UNL     1     -10.946  13.925   3.355  1.00  0.00    -0.390 OA
ATOM     16  H1  UNL     1     -11.245  13.802   4.248  1.00  0.00     0.210 HD
ENDBRANCH   3  15
TORSDOF 4
ENDMDL
MODEL 4
REMARK VINA RESULT: -5.281959837      1.873      3.893
REMARK  4 active torsions:
REMARK  status: ('A' for Active; 'I' for Inactive)
REMARK    1  A    between atoms: C2_2  and  C3_3 
REMARK    2  A    between atoms: C5_5  and  O1_7 
REMARK    3  A    between atoms: C9_11  and  C11_13 
REMARK    4  A    between atoms: C11_13  and  O3_15 
ROOT
HETATM    1  C3  UNL     1     -13.858  11.411   0.374  1.00  0.00     0.006 C 
HETATM    2  C4  UNL     1     -14.877  10.350   0.125  1.00  0.00     0.043 C 
HETATM    3  C5  UNL     1     -16.278  10.759   0.511  1.00  0.00     0.054 C 
HETATM    4  C6  UNL     1     -17.224   9.608   0.426  1.00  0.00     0.045 C 
HETATM    5  C7  UNL     1     -16.252  11.249   1.940  1.00  0.00     0.038 C 
HETATM    6  C8  UNL     1     -15.481  12.566   1.875  1.00  0.00     0.023 C 
HETATM    7  C9  UNL     1     -14.017  12.222   1.585  1.00  0.00     0.048 C 
HETATM    8  C10 UNL     1     -13.305  13.556   1.472  1.00  0.00     0.026 C 
ENDROOT
BRANCH   7   9
HETATM    9  C11 UNL     1     -13.547  11.584   2.832  1.00  0.00     0.267 C 
HETATM   10  O2  UNL     1     -12.738  12.183   3.564  1.00  0.00    -0.264 OA
BRANCH   9  11
HETATM   11  O3  UNL     1     -13.968  10.327   3.240  1.00  0.00    -0.326 OA
HETATM   12  C12 UNL     1     -14.029   9.909   4.580  1.00  0.00     0.213 C 
ENDBRANCH   9  11
ENDBRANCH   7   9
BRANCH   1  13
HETATM   13  C2  UNL     1     -12.482  10.879   0.135  1.00  0.00     0.001 C 
HETATM   14  C1  UNL     1     -12.693   9.404  -0.280  1.00  0.00     0.005 C 
ENDBRANCH   1  13
BRANCH   3  15
HETATM   15  O1  UNL     1     -16.721  11.781  -0.317  1.00  0.00    -0.390 OA
ATOM     16  H1  UNL     1     -17.212  11.420  -1.045  1.00  0.00     0.210 HD
ENDBRANCH   3  15
TORSDOF 4
ENDMDL
MODEL 5
REMARK VINA RESULT: -5.236981493      0.656      1.237
REMARK  4 active torsions:
REMARK  status: ('A' for Active; 'I' for Inactive)
REMARK    1  A    between atoms: C2_2  and  C3_3 
REMARK    2  A    between atoms: C5_5  and  O1_7 
REMARK    3  A    between atoms: C9_11  and  C11_13 
REMARK    4  A    between atoms: C11_13  and  O3_15 
ROOT
HETATM    1  C3  UNL     1     -13.677  11.147   1.571  1.00  0.00     0.006 C 
HETATM    2  C4  UNL     1     -13.203  11.645   0.247  1.00  0.00     0.043 C 
HETATM    3  C5  UNL     1     -11.911  12.421   0.323  1.00  0.00     0.054 C 
HETATM    4  C6  UNL     1     -11.580  13.058  -0.985  1.00  0.00     0.045 C 
HETATM    5  C7  UNL     1     -12.073  13.512   1.355  1.00  0.00     0.038 C 
HETATM    6  C8  UNL     1     -12.143  12.767   2.687  1.00  0.00     0.023 C 
HETATM    7  C9  UNL     1     -13.484  12.030   2.726  1.00  0.00     0.048 C 
HETATM    8  C10 UNL     1     -13.484  11.262   4.033  1.00  0.00     0.026 C 
ENDROOT
BRANCH   7   9
HETATM    9  C11 UNL     1     -14.481  13.112   2.860  1.00  0.00     0.267 C 
HETATM   10  O2  UNL     1     -15.091  13.517   1.854  1.00  0.00    -0.264 OA
BRANCH   9  11
HETATM   11  O3  UNL     1     -14.781  13.713   4.074  1.00  0.00    -0.326 OA
HETATM   12  C12 UNL     1     -14.633  15.085   4.335  1.00  0.00     0.213 C 
ENDBRANCH   9  11
ENDBRANCH   7   9
BRANCH   1  13
HETATM   13  C2  UNL     1     -15.038  10.544   1.445  1.00  0.00     0.001 C 
HETATM   14  C1  UNL     1     -15.330  10.536  -0.074  1.00  0.00     0.005 C 
ENDBRANCH   1  13
BRANCH   3  15
HETATM   15  O1  UNL     1     -10.872  11.582   0.701  1.00  0.00    -0.390 OA
ATOM     16  H1  UNL     1     -10.160  12.090   1.070  1.00  0.00     0.210 HD
ENDBRANCH   3  15
TORSDOF 4
ENDMDL
