MODEL 1
REMARK VINA RESULT: -8.064234798      0.000      0.000
REMARK  12 active torsions:
REMARK  status: ('A' for Active; 'I' for Inactive)
REMARK    1  A    between atoms: N1_1  and  C1_4 
REMARK    2  A    between atoms: C2_10  and  C3_11 
REMARK    3  A    between atoms: C3_11  and  N4_12 
REMARK    4  A    between atoms: C8_23  and  O4_24 
REMARK       I    between atoms: N10_38  and  C13_39 
REMARK    5  A    between atoms: C13_39  and  C14_41 
REMARK    6  A    between atoms: C14_41  and  C15_42 
REMARK    7  A    between atoms: C15_42  and  O7_43 
REMARK    8  A    between atoms: O7_43  and  C16_44 
REMARK    9  A    between atoms: C16_44  and  C17_45 
REMARK   10  A    between atoms: C17_45  and  N11_46 
REMARK   11  A    between atoms: C17_45  and  C18_50 
REMARK   12  A    between atoms: C18_50  and  O8_51 
ROOT
HETATM    1  N4  UNL     1     -17.541  22.777 -18.966  1.00  0.00    -0.293 N 
HETATM    2  C4  UNL     1     -16.557  23.563 -19.362  1.00  0.00     0.083 A 
HETATM    3  C5  UNL     1     -16.787  24.711 -20.161  1.00  0.00     0.125 A 
HETATM    4  C6  UNL     1     -18.084  24.978 -20.517  1.00  0.00     0.278 A 
HETATM    5  O2  UNL     1     -18.297  25.995 -21.227  1.00  0.00    -0.265 OA
HETATM    6  N5  UNL     1     -19.053  24.155 -20.100  1.00  0.00    -0.273 N 
ATOM      7  H5  UNL     1     -20.013  24.362 -20.372  1.00  0.00     0.173 HD
HETATM    8  C7  UNL     1     -18.832  23.084 -19.352  1.00  0.00     0.330 A 
HETATM    9  O3  UNL     1     -19.720  22.304 -18.954  1.00  0.00    -0.246 OA
HETATM   10  N6  UNL     1     -15.870  25.664 -20.677  1.00  0.00    -0.342 N 
ATOM     11  H6  UNL     1     -16.229  26.596 -20.888  1.00  0.00     0.164 HD
HETATM   12  C8  UNL     1     -14.463  25.420 -20.929  1.00  0.00     0.324 C 
HETATM   13  N7  UNL     1     -13.739  25.028 -19.795  1.00  0.00    -0.356 N 
ATOM     14  H7  UNL     1     -12.748  25.263 -19.746  1.00  0.00     0.159 HD
HETATM   15  C9  UNL     1     -14.303  24.342 -18.745  1.00  0.00     0.245 C 
HETATM   16  C10 UNL     1     -15.169  23.142 -19.044  1.00  0.00     0.282 C 
HETATM   17  N8  UNL     1     -14.652  22.395 -20.185  1.00  0.00    -0.053 N 
ATOM     18  H81 UNL     1     -14.136  23.013 -20.813  1.00  0.00     0.278 HD
ATOM     19  H82 UNL     1     -15.414  22.118 -20.804  1.00  0.00     0.278 HD
HETATM   20  C11 UNL     1     -13.860  21.266 -19.833  1.00  0.00     0.337 C 
HETATM   21  C12 UNL     1     -12.679  21.676 -19.077  1.00  0.00     0.262 C 
HETATM   22  O5  UNL     1     -11.626  21.028 -19.416  1.00  0.00    -0.270 OA
HETATM   23  N9  UNL     1     -12.525  22.641 -18.067  1.00  0.00    -0.262 N 
ATOM     24  H9  UNL     1     -11.818  22.437 -17.361  1.00  0.00     0.190 HD
HETATM   25  N10 UNL     1     -13.207  23.830 -17.908  1.00  0.00    -0.232 N 
HETATM   26  C13 UNL     1     -12.841  24.668 -16.840  1.00  0.00     0.242 C 
HETATM   27  O6  UNL     1     -13.408  25.766 -16.623  1.00  0.00    -0.272 OA
ENDROOT
BRANCH  26  28
HETATM   28  C14 UNL     1     -11.745  24.267 -15.916  1.00  0.00     0.131 C 
BRANCH  28  29
HETATM   29  C15 UNL     1     -12.270  23.390 -14.801  1.00  0.00     0.177 C 
BRANCH  29  30
HETATM   30  O7  UNL     1     -12.456  22.079 -15.144  1.00  0.00    -0.389 OA
BRANCH  30  31
HETATM   31  C16 UNL     1     -11.780  21.151 -14.391  1.00  0.00     0.202 C 
BRANCH  31  32
HETATM   32  C17 UNL     1     -10.280  21.472 -14.395  1.00  0.00     0.230 C 
BRANCH  32  33
HETATM   33  N11 UNL     1      -9.747  21.097 -13.117  1.00  0.00    -0.071 N 
ATOM     34 3H11 UNL     1     -10.466  20.773 -12.469  1.00  0.00     0.274 HD
ATOM     35 2H11 UNL     1      -9.200  20.237 -13.154  1.00  0.00     0.274 HD
ATOM     36 1H11 UNL     1      -9.216  21.889 -12.756  1.00  0.00     0.274 HD
ENDBRANCH  32  33
BRANCH  32  37
HETATM   37  C18 UNL     1      -9.590  20.775 -15.546  1.00  0.00     0.199 C 
BRANCH  37  38
HETATM   38  O8  UNL     1     -10.230  21.115 -16.734  1.00  0.00    -0.399 OA
ATOM     39  H8  UNL     1      -9.915  20.549 -17.430  1.00  0.00     0.209 HD
ENDBRANCH  37  38
ENDBRANCH  32  37
ENDBRANCH  31  32
ENDBRANCH  30  31
ENDBRANCH  29  30
ENDBRANCH  28  29
ENDBRANCH  26  28
BRANCH  12  40
HETATM   40  O4  UNL     1     -13.940  26.647 -21.376  1.00  0.00    -0.360 OA
ATOM     41  H4  UNL     1     -13.326  26.427 -22.066  1.00  0.00     0.214 HD
ENDBRANCH  12  40
BRANCH   1  42
HETATM   42  C3  UNL     1     -17.365  21.678 -18.081  1.00  0.00     0.197 C 
BRANCH  42  43
HETATM   43  C2  UNL     1     -17.342  22.125 -16.664  1.00  0.00     0.098 A 
HETATM   44  C1  UNL     1     -16.412  22.021 -15.687  1.00  0.00     0.147 A 
HETATM   45  N2  UNL     1     -16.918  22.611 -14.552  1.00  0.00    -0.224 N 
HETATM   46  O1  UNL     1     -18.088  23.037 -14.854  1.00  0.00    -0.155 OA
ATOM     47  H2  UNL     1     -16.453  22.692 -13.647  1.00  0.00     0.198 HD
HETATM   48  N3  UNL     1     -18.402  22.791 -16.063  1.00  0.00    -0.240 N 
ATOM     49  H3  UNL     1     -19.283  23.041 -16.513  1.00  0.00     0.196 HD
BRANCH  44  50
HETATM   50  N1  UNL     1     -15.244  21.487 -15.696  1.00  0.00    -0.382 N 
ATOM     51  H12 UNL     1     -14.510  21.479 -14.987  1.00  0.00     0.157 HD
ATOM     52  H11 UNL     1     -14.905  20.970 -16.506  1.00  0.00     0.157 HD
ENDBRANCH  44  50
ENDBRANCH  42  43
ENDBRANCH   1  42
TORSDOF 12
ENDMDL
MODEL 2
REMARK VINA RESULT: -7.908430276      1.967      6.382
REMARK  12 active torsions:
REMARK  status: ('A' for Active; 'I' for Inactive)
REMARK    1  A    between atoms: N1_1  and  C1_4 
REMARK    2  A    between atoms: C2_10  and  C3_11 
REMARK    3  A    between atoms: C3_11  and  N4_12 
REMARK    4  A    between atoms: C8_23  and  O4_24 
REMARK       I    between atoms: N10_38  and  C13_39 
REMARK    5  A    between atoms: C13_39  and  C14_41 
REMARK    6  A    between atoms: C14_41  and  C15_42 
REMARK    7  A    between atoms: C15_42  and  O7_43 
REMARK    8  A    between atoms: O7_43  and  C16_44 
REMARK    9  A    between atoms: C16_44  and  C17_45 
REMARK   10  A    between atoms: C17_45  and  N11_46 
REMARK   11  A    between atoms: C17_45  and  C18_50 
REMARK   12  A    between atoms: C18_50  and  O8_51 
ROOT
HETATM    1  N4  UNL     1     -15.010  22.744 -15.197  1.00  0.00    -0.293 N 
HETATM    2  C4  UNL     1     -13.712  22.572 -15.362  1.00  0.00     0.083 A 
HETATM    3  C5  UNL     1     -12.932  21.813 -14.455  1.00  0.00     0.125 A 
HETATM    4  C6  UNL     1     -13.581  21.258 -13.382  1.00  0.00     0.278 A 
HETATM    5  O2  UNL     1     -12.898  20.582 -12.571  1.00  0.00    -0.265 OA
HETATM    6  N5  UNL     1     -14.898  21.459 -13.247  1.00  0.00    -0.273 N 
ATOM      7  H5  UNL     1     -15.370  21.043 -12.444  1.00  0.00     0.173 HD
HETATM    8  C7  UNL     1     -15.622  22.170 -14.099  1.00  0.00     0.330 A 
HETATM    9  O3  UNL     1     -16.847  22.370 -13.990  1.00  0.00    -0.246 OA
HETATM   10  N6  UNL     1     -11.543  21.519 -14.465  1.00  0.00    -0.342 N 
ATOM     11  H6  UNL     1     -11.238  20.675 -13.980  1.00  0.00     0.164 HD
HETATM   12  C8  UNL     1     -10.523  22.324 -15.111  1.00  0.00     0.324 C 
HETATM   13  N7  UNL     1     -10.712  22.486 -16.490  1.00  0.00    -0.356 N 
ATOM     14  H7  UNL     1      -9.891  22.619 -17.080  1.00  0.00     0.159 HD
HETATM   15  C9  UNL     1     -11.952  22.475 -17.084  1.00  0.00     0.245 C 
HETATM   16  C10 UNL     1     -13.056  23.305 -16.476  1.00  0.00     0.282 C 
HETATM   17  N8  UNL     1     -12.535  24.559 -15.943  1.00  0.00    -0.053 N 
ATOM     18  H81 UNL     1     -11.557  24.452 -15.669  1.00  0.00     0.278 HD
ATOM     19  H82 UNL     1     -12.949  24.760 -15.033  1.00  0.00     0.278 HD
HETATM   20  C11 UNL     1     -12.688  25.673 -16.817  1.00  0.00     0.337 C 
HETATM   21  C12 UNL     1     -11.964  25.456 -18.067  1.00  0.00     0.262 C 
HETATM   22  O5  UNL     1     -11.368  26.513 -18.482  1.00  0.00    -0.270 OA
HETATM   23  N9  UNL     1     -11.824  24.303 -18.859  1.00  0.00    -0.262 N 
ATOM     24  H9  UNL     1     -11.734  24.462 -19.863  1.00  0.00     0.190 HD
HETATM   25  N10 UNL     1     -11.794  22.984 -18.454  1.00  0.00    -0.232 N 
HETATM   26  C13 UNL     1     -11.590  21.994 -19.432  1.00  0.00     0.242 C 
HETATM   27  O6  UNL     1     -11.548  20.772 -19.151  1.00  0.00    -0.272 OA
ENDROOT
BRANCH  26  28
HETATM   28  C14 UNL     1     -11.416  22.377 -20.859  1.00  0.00     0.131 C 
BRANCH  28  29
HETATM   29  C15 UNL     1     -12.731  22.313 -21.603  1.00  0.00     0.177 C 
BRANCH  29  30
HETATM   30  O7  UNL     1     -13.732  23.070 -21.058  1.00  0.00    -0.389 OA
BRANCH  30  31
HETATM   31  C16 UNL     1     -14.213  24.093 -21.838  1.00  0.00     0.202 C 
BRANCH  31  32
HETATM   32  C17 UNL     1     -14.613  25.279 -20.951  1.00  0.00     0.230 C 
BRANCH  32  33
HETATM   33  N11 UNL     1     -13.862  26.423 -21.381  1.00  0.00    -0.071 N 
ATOM     34 3H11 UNL     1     -12.857  26.246 -21.417  1.00  0.00     0.274 HD
ATOM     35 2H11 UNL     1     -13.997  26.636 -22.370  1.00  0.00     0.274 HD
ATOM     36 1H11 UNL     1     -14.104  27.204 -20.771  1.00  0.00     0.274 HD
ENDBRANCH  32  33
BRANCH  32  37
HETATM   37  C18 UNL     1     -16.107  25.504 -21.007  1.00  0.00     0.199 C 
BRANCH  37  38
HETATM   38  O8  UNL     1     -16.366  26.870 -20.936  1.00  0.00    -0.399 OA
ATOM     39  H8  UNL     1     -16.331  27.239 -21.811  1.00  0.00     0.209 HD
ENDBRANCH  37  38
ENDBRANCH  32  37
ENDBRANCH  31  32
ENDBRANCH  30  31
ENDBRANCH  29  30
ENDBRANCH  28  29
ENDBRANCH  26  28
BRANCH  12  40
HETATM   40  O4  UNL     1      -9.315  21.629 -14.916  1.00  0.00    -0.360 OA
ATOM     41  H4  UNL     1      -8.656  22.127 -15.385  1.00  0.00     0.214 HD
ENDBRANCH  12  40
BRANCH   1  42
HETATM   42  C3  UNL     1     -15.843  23.411 -16.137  1.00  0.00     0.197 C 
BRANCH  42  43
HETATM   43  C2  UNL     1     -16.598  22.441 -16.972  1.00  0.00     0.098 A 
HETATM   44  C1  UNL     1     -16.277  21.758 -18.096  1.00  0.00     0.147 A 
HETATM   45  N2  UNL     1     -17.363  20.993 -18.453  1.00  0.00    -0.224 N 
HETATM   46  O1  UNL     1     -18.272  21.220 -17.579  1.00  0.00    -0.155 OA
ATOM     47  H2  UNL     1     -17.431  20.368 -19.256  1.00  0.00     0.198 HD
HETATM   48  N3  UNL     1     -17.900  22.051 -16.689  1.00  0.00    -0.240 N 
ATOM     49  H3  UNL     1     -18.462  22.373 -15.902  1.00  0.00     0.196 HD
BRANCH  44  50
HETATM   50  N1  UNL     1     -15.199  21.750 -18.793  1.00  0.00    -0.382 N 
ATOM     51  H12 UNL     1     -15.058  21.667 -19.799  1.00  0.00     0.157 HD
ATOM     52  H11 UNL     1     -14.284  21.829 -18.351  1.00  0.00     0.157 HD
ENDBRANCH  44  50
ENDBRANCH  42  43
ENDBRANCH   1  42
TORSDOF 12
ENDMDL
MODEL 3
REMARK VINA RESULT: -7.820714064      2.137      6.282
REMARK  12 active torsions:
REMARK  status: ('A' for Active; 'I' for Inactive)
REMARK    1  A    between atoms: N1_1  and  C1_4 
REMARK    2  A    between atoms: C2_10  and  C3_11 
REMARK    3  A    between atoms: C3_11  and  N4_12 
REMARK    4  A    between atoms: C8_23  and  O4_24 
REMARK       I    between atoms: N10_38  and  C13_39 
REMARK    5  A    between atoms: C13_39  and  C14_41 
REMARK    6  A    between atoms: C14_41  and  C15_42 
REMARK    7  A    between atoms: C15_42  and  O7_43 
REMARK    8  A    between atoms: O7_43  and  C16_44 
REMARK    9  A    between atoms: C16_44  and  C17_45 
REMARK   10  A    between atoms: C17_45  and  N11_46 
REMARK   11  A    between atoms: C17_45  and  C18_50 
REMARK   12  A    between atoms: C18_50  and  O8_51 
ROOT
HETATM    1  N4  UNL     1     -15.526  22.596 -14.916  1.00  0.00    -0.293 N 
HETATM    2  C4  UNL     1     -14.218  22.443 -14.834  1.00  0.00     0.083 A 
HETATM    3  C5  UNL     1     -13.613  21.669 -13.813  1.00  0.00     0.125 A 
HETATM    4  C6  UNL     1     -14.446  21.078 -12.897  1.00  0.00     0.278 A 
HETATM    5  O2  UNL     1     -13.919  20.389 -11.986  1.00  0.00    -0.265 OA
HETATM    6  N5  UNL     1     -15.767  21.260 -13.011  1.00  0.00    -0.273 N 
ATOM      7  H5  UNL     1     -16.377  20.818 -12.323  1.00  0.00     0.173 HD
HETATM    8  C7  UNL     1     -16.327  21.985 -13.969  1.00  0.00     0.330 A 
HETATM    9  O3  UNL     1     -17.554  22.168 -14.092  1.00  0.00    -0.246 OA
HETATM   10  N6  UNL     1     -12.243  21.392 -13.564  1.00  0.00    -0.342 N 
ATOM     11  H6  UNL     1     -12.022  20.538 -13.050  1.00  0.00     0.164 HD
HETATM   12  C8  UNL     1     -11.132  22.224 -13.983  1.00  0.00     0.324 C 
HETATM   13  N7  UNL     1     -11.057  22.421 -15.369  1.00  0.00    -0.356 N 
ATOM     14  H7  UNL     1     -10.141  22.579 -15.788  1.00  0.00     0.159 HD
HETATM   15  C9  UNL     1     -12.160  22.411 -16.189  1.00  0.00     0.245 C 
HETATM   16  C10 UNL     1     -13.374  23.212 -15.784  1.00  0.00     0.282 C 
HETATM   17  N8  UNL     1     -12.984  24.458 -15.132  1.00  0.00    -0.053 N 
ATOM     18  H81 UNL     1     -12.075  24.355 -14.679  1.00  0.00     0.278 HD
ATOM     19  H82 UNL     1     -13.567  24.630 -14.313  1.00  0.00     0.278 HD
HETATM   20  C11 UNL     1     -12.987  25.592 -15.993  1.00  0.00     0.337 C 
HETATM   21  C12 UNL     1     -12.034  25.417 -17.086  1.00  0.00     0.262 C 
HETATM   22  O5  UNL     1     -11.387  26.491 -17.354  1.00  0.00    -0.270 OA
HETATM   23  N9  UNL     1     -11.727  24.287 -17.864  1.00  0.00    -0.262 N 
ATOM     24  H9  UNL     1     -11.450  24.473 -18.828  1.00  0.00     0.190 HD
HETATM   25  N10 UNL     1     -11.752  22.959 -17.492  1.00  0.00    -0.232 N 
HETATM   26  C13 UNL     1     -11.350  21.997 -18.435  1.00  0.00     0.242 C 
HETATM   27  O6  UNL     1     -11.342  20.768 -18.180  1.00  0.00    -0.272 OA
ENDROOT
BRANCH  26  28
HETATM   28  C14 UNL     1     -10.912  22.419 -19.793  1.00  0.00     0.131 C 
BRANCH  28  29
HETATM   29  C15 UNL     1     -12.033  22.263 -20.797  1.00  0.00     0.177 C 
BRANCH  29  30
HETATM   30  O7  UNL     1     -13.025  23.199 -20.695  1.00  0.00    -0.389 OA
BRANCH  30  31
HETATM   31  C16 UNL     1     -12.870  24.335 -21.452  1.00  0.00     0.202 C 
BRANCH  31  32
HETATM   32  C17 UNL     1     -13.776  25.448 -20.911  1.00  0.00     0.230 C 
BRANCH  32  33
HETATM   33  N11 UNL     1     -14.082  26.332 -21.998  1.00  0.00    -0.071 N 
ATOM     34 3H11 UNL     1     -13.772  27.289 -21.829  1.00  0.00     0.274 HD
ATOM     35 2H11 UNL     1     -13.516  26.150 -22.827  1.00  0.00     0.274 HD
ATOM     36 1H11 UNL     1     -15.084  26.267 -22.181  1.00  0.00     0.274 HD
ENDBRANCH  32  33
BRANCH  32  37
HETATM   37  C18 UNL     1     -15.012  24.861 -20.266  1.00  0.00     0.199 C 
BRANCH  37  38
HETATM   38  O8  UNL     1     -14.831  24.823 -18.886  1.00  0.00    -0.399 OA
ATOM     39  H8  UNL     1     -15.182  24.007 -18.549  1.00  0.00     0.209 HD
ENDBRANCH  37  38
ENDBRANCH  32  37
ENDBRANCH  31  32
ENDBRANCH  30  31
ENDBRANCH  29  30
ENDBRANCH  28  29
ENDBRANCH  26  28
BRANCH  12  40
HETATM   40  O4  UNL     1      -9.972  21.539 -13.578  1.00  0.00    -0.360 OA
ATOM     41  H4  UNL     1      -9.381  21.576 -14.321  1.00  0.00     0.214 HD
ENDBRANCH  12  40
BRANCH   1  42
HETATM   42  C3  UNL     1     -16.175  23.277 -15.981  1.00  0.00     0.197 C 
BRANCH  42  43
HETATM   43  C2  UNL     1     -16.746  22.321 -16.965  1.00  0.00     0.098 A 
HETATM   44  C1  UNL     1     -16.213  21.676 -18.029  1.00  0.00     0.147 A 
HETATM   45  N2  UNL     1     -17.200  20.905 -18.598  1.00  0.00    -0.224 N 
HETATM   46  O1  UNL     1     -18.257  21.093 -17.899  1.00  0.00    -0.155 OA
ATOM     47  H2  UNL     1     -17.108  20.303 -19.416  1.00  0.00     0.198 HD
HETATM   48  N3  UNL     1     -18.070  21.902 -16.935  1.00  0.00    -0.240 N 
ATOM     49  H3  UNL     1     -18.772  22.194 -16.256  1.00  0.00     0.196 HD
BRANCH  44  50
HETATM   50  N1  UNL     1     -15.026  21.704 -18.517  1.00  0.00    -0.382 N 
ATOM     51  H12 UNL     1     -14.703  21.841 -19.475  1.00  0.00     0.157 HD
ATOM     52  H11 UNL     1     -14.207  21.571 -17.924  1.00  0.00     0.157 HD
ENDBRANCH  44  50
ENDBRANCH  42  43
ENDBRANCH   1  42
TORSDOF 12
ENDMDL
MODEL 4
REMARK VINA RESULT: -7.741383504      2.208      6.311
REMARK  12 active torsions:
REMARK  status: ('A' for Active; 'I' for Inactive)
REMARK    1  A    between atoms: N1_1  and  C1_4 
REMARK    2  A    between atoms: C2_10  and  C3_11 
REMARK    3  A    between atoms: C3_11  and  N4_12 
REMARK    4  A    between atoms: C8_23  and  O4_24 
REMARK       I    between atoms: N10_38  and  C13_39 
REMARK    5  A    between atoms: C13_39  and  C14_41 
REMARK    6  A    between atoms: C14_41  and  C15_42 
REMARK    7  A    between atoms: C15_42  and  O7_43 
REMARK    8  A    between atoms: O7_43  and  C16_44 
REMARK    9  A    between atoms: C16_44  and  C17_45 
REMARK   10  A    between atoms: C17_45  and  N11_46 
REMARK   11  A    between atoms: C17_45  and  C18_50 
REMARK   12  A    between atoms: C18_50  and  O8_51 
ROOT
HETATM    1  N4  UNL     1     -15.132  22.679 -15.260  1.00  0.00    -0.293 N 
HETATM    2  C4  UNL     1     -13.821  22.560 -15.168  1.00  0.00     0.083 A 
HETATM    3  C5  UNL     1     -13.203  21.838 -14.117  1.00  0.00     0.125 A 
HETATM    4  C6  UNL     1     -14.026  21.262 -13.183  1.00  0.00     0.278 A 
HETATM    5  O2  UNL     1     -13.487  20.619 -12.246  1.00  0.00    -0.265 OA
HETATM    6  N5  UNL     1     -15.351  21.410 -13.308  1.00  0.00    -0.273 N 
ATOM      7  H5  UNL     1     -15.953  20.979 -12.607  1.00  0.00     0.173 HD
HETATM    8  C7  UNL     1     -15.923  22.086 -14.294  1.00  0.00     0.330 A 
HETATM    9  O3  UNL     1     -17.153  22.236 -14.428  1.00  0.00    -0.246 OA
HETATM   10  N6  UNL     1     -11.828  21.601 -13.854  1.00  0.00    -0.342 N 
ATOM     11  H6  UNL     1     -11.590  20.773 -13.308  1.00  0.00     0.164 HD
HETATM   12  C8  UNL     1     -10.735  22.444 -14.300  1.00  0.00     0.324 C 
HETATM   13  N7  UNL     1     -10.658  22.591 -15.691  1.00  0.00    -0.356 N 
ATOM     14  H7  UNL     1      -9.744  22.754 -16.113  1.00  0.00     0.159 HD
HETATM   15  C9  UNL     1     -11.758  22.526 -16.514  1.00  0.00     0.245 C 
HETATM   16  C10 UNL     1     -12.991  23.313 -16.143  1.00  0.00     0.282 C 
HETATM   17  N8  UNL     1     -12.632  24.590 -15.536  1.00  0.00    -0.053 N 
ATOM     18  H81 UNL     1     -11.724  24.525 -15.076  1.00  0.00     0.278 HD
ATOM     19  H82 UNL     1     -13.223  24.779 -14.726  1.00  0.00     0.278 HD
HETATM   20  C11 UNL     1     -12.657  25.692 -16.438  1.00  0.00     0.337 C 
HETATM   21  C12 UNL     1     -11.696  25.498 -17.521  1.00  0.00     0.262 C 
HETATM   22  O5  UNL     1     -11.072  26.577 -17.826  1.00  0.00    -0.270 OA
HETATM   23  N9  UNL     1     -11.360  24.348 -18.255  1.00  0.00    -0.262 N 
ATOM     24  H9  UNL     1     -11.083  24.505 -19.225  1.00  0.00     0.190 HD
HETATM   25  N10 UNL     1     -11.357  23.034 -17.835  1.00  0.00    -0.232 N 
HETATM   26  C13 UNL     1     -10.929  22.048 -18.741  1.00  0.00     0.242 C 
HETATM   27  O6  UNL     1     -10.894  20.830 -18.441  1.00  0.00    -0.272 OA
ENDROOT
BRANCH  26  28
HETATM   28  C14 UNL     1     -10.495  22.430 -20.112  1.00  0.00     0.131 C 
BRANCH  28  29
HETATM   29  C15 UNL     1     -11.628  22.277 -21.102  1.00  0.00     0.177 C 
BRANCH  29  30
HETATM   30  O7  UNL     1     -12.825  22.792 -20.684  1.00  0.00    -0.389 OA
BRANCH  30  31
HETATM   31  C16 UNL     1     -13.347  23.809 -21.445  1.00  0.00     0.202 C 
BRANCH  31  32
HETATM   32  C17 UNL     1     -14.036  24.837 -20.538  1.00  0.00     0.230 C 
BRANCH  32  33
HETATM   33  N11 UNL     1     -13.504  26.130 -20.856  1.00  0.00    -0.071 N 
ATOM     34 3H11 UNL     1     -14.231  26.829 -21.011  1.00  0.00     0.274 HD
ATOM     35 2H11 UNL     1     -13.052  26.579 -20.059  1.00  0.00     0.274 HD
ATOM     36 1H11 UNL     1     -12.880  26.023 -21.656  1.00  0.00     0.274 HD
ENDBRANCH  32  33
BRANCH  32  37
HETATM   37  C18 UNL     1     -15.538  24.764 -20.697  1.00  0.00     0.199 C 
BRANCH  37  38
HETATM   38  O8  UNL     1     -15.910  23.440 -20.909  1.00  0.00    -0.399 OA
ATOM     39  H8  UNL     1     -16.711  23.420 -21.421  1.00  0.00     0.209 HD
ENDBRANCH  37  38
ENDBRANCH  32  37
ENDBRANCH  31  32
ENDBRANCH  30  31
ENDBRANCH  29  30
ENDBRANCH  28  29
ENDBRANCH  26  28
BRANCH  12  40
HETATM   40  O4  UNL     1      -9.562  21.800 -13.865  1.00  0.00    -0.360 OA
ATOM     41  H4  UNL     1      -9.635  20.903 -14.170  1.00  0.00     0.214 HD
ENDBRANCH  12  40
BRANCH   1  42
HETATM   42  C3  UNL     1     -15.792  23.307 -16.352  1.00  0.00     0.197 C 
BRANCH  42  43
HETATM   43  C2  UNL     1     -15.978  22.362 -17.485  1.00  0.00     0.098 A 
HETATM   44  C1  UNL     1     -17.019  21.586 -17.866  1.00  0.00     0.147 A 
HETATM   45  N2  UNL     1     -16.645  20.899 -18.999  1.00  0.00    -0.224 N 
HETATM   46  O1  UNL     1     -15.444  21.259 -19.263  1.00  0.00    -0.155 OA
ATOM     47  H2  UNL     1     -17.212  20.235 -19.524  1.00  0.00     0.198 HD
HETATM   48  N3  UNL     1     -14.991  22.106 -18.427  1.00  0.00    -0.240 N 
ATOM     49  H3  UNL     1     -14.061  22.525 -18.447  1.00  0.00     0.196 HD
BRANCH  44  50
HETATM   50  N1  UNL     1     -18.182  21.428 -17.347  1.00  0.00    -0.382 N 
ATOM     51  H12 UNL     1     -18.985  20.887 -17.664  1.00  0.00     0.157 HD
ATOM     52  H11 UNL     1     -18.437  21.888 -16.473  1.00  0.00     0.157 HD
ENDBRANCH  44  50
ENDBRANCH  42  43
ENDBRANCH   1  42
TORSDOF 12
ENDMDL
MODEL 5
REMARK VINA RESULT: -7.665569396      2.095      3.613
REMARK  12 active torsions:
REMARK  status: ('A' for Active; 'I' for Inactive)
REMARK    1  A    between atoms: N1_1  and  C1_4 
REMARK    2  A    between atoms: C2_10  and  C3_11 
REMARK    3  A    between atoms: C3_11  and  N4_12 
REMARK    4  A    between atoms: C8_23  and  O4_24 
REMARK       I    between atoms: N10_38  and  C13_39 
REMARK    5  A    between atoms: C13_39  and  C14_41 
REMARK    6  A    between atoms: C14_41  and  C15_42 
REMARK    7  A    between atoms: C15_42  and  O7_43 
REMARK    8  A    between atoms: O7_43  and  C16_44 
REMARK    9  A    between atoms: C16_44  and  C17_45 
REMARK   10  A    between atoms: C17_45  and  N11_46 
REMARK   11  A    between atoms: C17_45  and  C18_50 
REMARK   12  A    between atoms: C18_50  and  O8_51 
ROOT
HETATM    1  N4  UNL     1     -17.627  23.323 -19.305  1.00  0.00    -0.293 N 
HETATM    2  C4  UNL     1     -16.445  22.754 -19.160  1.00  0.00     0.083 A 
HETATM    3  C5  UNL     1     -15.692  22.290 -20.267  1.00  0.00     0.125 A 
HETATM    4  C6  UNL     1     -16.244  22.449 -21.512  1.00  0.00     0.278 A 
HETATM    5  O2  UNL     1     -15.583  22.040 -22.501  1.00  0.00    -0.265 OA
HETATM    6  N5  UNL     1     -17.447  23.026 -21.618  1.00  0.00    -0.273 N 
ATOM      7  H5  UNL     1     -17.848  23.138 -22.549  1.00  0.00     0.173 HD
HETATM    8  C7  UNL     1     -18.146  23.460 -20.579  1.00  0.00     0.330 A 
HETATM    9  O3  UNL     1     -19.268  23.998 -20.657  1.00  0.00    -0.246 OA
HETATM   10  N6  UNL     1     -14.419  21.662 -20.309  1.00  0.00    -0.342 N 
ATOM     11  H6  UNL     1     -13.881  21.749 -21.171  1.00  0.00     0.164 HD
HETATM   12  C8  UNL     1     -13.823  20.906 -19.223  1.00  0.00     0.324 C 
HETATM   13  N7  UNL     1     -13.655  21.641 -18.042  1.00  0.00    -0.356 N 
ATOM     14  H7  UNL     1     -12.889  21.388 -17.418  1.00  0.00     0.159 HD
HETATM   15  C9  UNL     1     -14.473  22.687 -17.685  1.00  0.00     0.245 C 
HETATM   16  C10 UNL     1     -15.968  22.502 -17.776  1.00  0.00     0.282 C 
HETATM   17  N8  UNL     1     -16.351  21.143 -17.409  1.00  0.00    -0.053 N 
ATOM     18  H81 UNL     1     -15.589  20.493 -17.604  1.00  0.00     0.278 HD
ATOM     19  H82 UNL     1     -17.055  20.785 -18.053  1.00  0.00     0.278 HD
HETATM   20  C11 UNL     1     -16.792  21.006 -16.062  1.00  0.00     0.337 C 
HETATM   21  C12 UNL     1     -15.730  21.371 -15.127  1.00  0.00     0.262 C 
HETATM   22  O5  UNL     1     -15.673  20.587 -14.114  1.00  0.00    -0.270 OA
HETATM   23  N9  UNL     1     -14.792  22.416 -15.168  1.00  0.00    -0.262 N 
ATOM     24  H9  UNL     1     -14.506  22.792 -14.263  1.00  0.00     0.190 HD
HETATM   25  N10 UNL     1     -14.206  22.999 -16.273  1.00  0.00    -0.232 N 
HETATM   26  C13 UNL     1     -13.245  24.004 -16.063  1.00  0.00     0.242 C 
HETATM   27  O6  UNL     1     -12.664  24.585 -17.010  1.00  0.00    -0.272 OA
ENDROOT
BRANCH  26  28
HETATM   28  C14 UNL     1     -12.883  24.415 -14.679  1.00  0.00     0.131 C 
BRANCH  28  29
HETATM   29  C15 UNL     1     -11.382  24.420 -14.490  1.00  0.00     0.177 C 
BRANCH  29  30
HETATM   30  O7  UNL     1     -10.876  23.292 -13.906  1.00  0.00    -0.389 OA
BRANCH  30  31
HETATM   31  C16 UNL     1     -10.173  22.445 -14.727  1.00  0.00     0.202 C 
BRANCH  31  32
HETATM   32  C17 UNL     1     -10.484  20.988 -14.361  1.00  0.00     0.230 C 
BRANCH  32  33
HETATM   33  N11 UNL     1      -9.236  20.301 -14.194  1.00  0.00    -0.071 N 
ATOM     34 3H11 UNL     1      -9.166  19.462 -14.770  1.00  0.00     0.274 HD
ATOM     35 2H11 UNL     1      -8.448  20.808 -14.598  1.00  0.00     0.274 HD
ATOM     36 1H11 UNL     1      -9.116  20.110 -13.199  1.00  0.00     0.274 HD
ENDBRANCH  32  33
BRANCH  32  37
HETATM   37  C18 UNL     1     -11.358  20.925 -13.129  1.00  0.00     0.199 C 
BRANCH  37  38
HETATM   38  O8  UNL     1     -12.692  21.047 -13.510  1.00  0.00    -0.399 OA
ATOM     39  H8  UNL     1     -13.197  20.353 -13.100  1.00  0.00     0.209 HD
ENDBRANCH  37  38
ENDBRANCH  32  37
ENDBRANCH  31  32
ENDBRANCH  30  31
ENDBRANCH  29  30
ENDBRANCH  28  29
ENDBRANCH  26  28
BRANCH  12  40
HETATM   40  O4  UNL     1     -12.550  20.524 -19.684  1.00  0.00    -0.360 OA
ATOM     41  H4  UNL     1     -12.347  21.120 -20.395  1.00  0.00     0.214 HD
ENDBRANCH  12  40
BRANCH   1  42
HETATM   42  C3  UNL     1     -18.366  23.893 -18.233  1.00  0.00     0.197 C 
BRANCH  42  43
HETATM   43  C2  UNL     1     -18.198  25.369 -18.187  1.00  0.00     0.098 A 
HETATM   44  C1  UNL     1     -17.168  26.160 -17.807  1.00  0.00     0.147 A 
HETATM   45  N2  UNL     1     -17.557  27.471 -17.966  1.00  0.00    -0.224 N 
HETATM   46  O1  UNL     1     -18.757  27.442 -18.416  1.00  0.00    -0.155 OA
ATOM     47  H2  UNL     1     -17.000  28.301 -17.764  1.00  0.00     0.198 HD
HETATM   48  N3  UNL     1     -19.195  26.257 -18.569  1.00  0.00    -0.240 N 
ATOM     49  H3  UNL     1     -20.120  26.003 -18.915  1.00  0.00     0.196 HD
BRANCH  44  50
HETATM   50  N1  UNL     1     -16.003  25.862 -17.358  1.00  0.00    -0.382 N 
ATOM     51  H12 UNL     1     -15.215  26.457 -17.104  1.00  0.00     0.157 HD
ATOM     52  H11 UNL     1     -15.729  24.892 -17.204  1.00  0.00     0.157 HD
ENDBRANCH  44  50
ENDBRANCH  42  43
ENDBRANCH   1  42
TORSDOF 12
ENDMDL
