MODEL 1
REMARK VINA RESULT: -9.541923443      0.000      0.000
REMARK  6 active torsions:
REMARK  status: ('A' for Active; 'I' for Inactive)
REMARK    1  A    between atoms: O1_2  and  C2_3 
REMARK    2  A    between atoms: C6_8  and  C7_9 
REMARK    3  A    between atoms: C11_13  and  O2_14 
REMARK    4  A    between atoms: O2_14  and  C12_15 
REMARK    5  A    between atoms: C12_15  and  C13_16 
REMARK    6  A    between atoms: C13_16  and  C14_17 
ROOT
HETATM    1  C14 UNL     1      17.353  20.898 -17.033  1.00  0.00     0.039 C 
HETATM    2  C15 UNL     1      17.557  20.204 -15.683  1.00  0.00     0.028 C 
HETATM    3  C16 UNL     1      16.434  22.032 -16.825  1.00  0.00    -0.013 C 
HETATM    4  C17 UNL     1      16.916  23.194 -16.420  1.00  0.00    -0.018 C 
HETATM    5  C18 UNL     1      18.337  23.475 -16.149  1.00  0.00     0.011 C 
HETATM    6  C19 UNL     1      18.606  24.967 -16.405  1.00  0.00     0.022 C 
HETATM    7  C20 UNL     1      18.733  23.244 -14.708  1.00  0.00     0.022 C 
HETATM    8  C21 UNL     1      19.170  22.730 -17.137  1.00  0.00     0.208 C 
HETATM    9  C22 UNL     1      19.225  23.549 -18.374  1.00  0.00     0.093 C 
HETATM   10  N1  UNL     1      19.248  24.187 -19.335  1.00  0.00    -0.195 NA
HETATM   11  C23 UNL     1      20.529  22.562 -16.591  1.00  0.00     0.093 C 
HETATM   12  N2  UNL     1      21.606  22.440 -16.173  1.00  0.00    -0.195 NA
HETATM   13  C24 UNL     1      18.649  21.396 -17.508  1.00  0.00     0.176 C 
HETATM   14  O3  UNL     1      19.389  20.733 -18.249  1.00  0.00    -0.294 OA
ENDROOT
BRANCH   1  15
HETATM   15  C13 UNL     1      16.764  19.852 -17.949  1.00  0.00     0.048 C 
BRANCH  15  16
HETATM   16  C12 UNL     1      16.774  18.469 -17.317  1.00  0.00     0.177 C 
BRANCH  16  17
HETATM   17  O2  UNL     1      16.037  17.658 -18.149  1.00  0.00    -0.348 OA
BRANCH  17  18
HETATM   18  C11 UNL     1      16.358  16.608 -18.942  1.00  0.00     0.109 A 
HETATM   19  C2  UNL     1      16.642  16.934 -20.280  1.00  0.00     0.103 A 
HETATM   20  C3  UNL     1      16.978  15.914 -21.127  1.00  0.00     0.058 A 
HETATM   21  C4  UNL     1      17.032  14.614 -20.667  1.00  0.00     0.014 A 
HETATM   22 BR1  UNL     1      17.509  13.236 -21.906  1.00  0.00    -0.051 Br
HETATM   23  C5  UNL     1      16.748  14.336 -19.349  1.00  0.00     0.030 A 
HETATM   24  C6  UNL     1      16.398  15.342 -18.434  1.00  0.00    -0.013 A 
BRANCH  19  25
HETATM   25  O1  UNL     1      16.574  18.267 -20.705  1.00  0.00    -0.353 OA
HETATM   26  C1  UNL     1      17.748  18.810 -21.271  1.00  0.00     0.210 C 
ENDBRANCH  19  25
BRANCH  24  27
HETATM   27  C7  UNL     1      16.154  14.914 -17.068  1.00  0.00    -0.021 C 
HETATM   28  C8  UNL     1      15.880  13.399 -17.050  1.00  0.00     0.019 C 
HETATM   29  C9  UNL     1      17.430  15.072 -16.225  1.00  0.00     0.019 C 
HETATM   30  C10 UNL     1      15.061  15.528 -16.297  1.00  0.00     0.019 C 
ENDBRANCH  24  27
ENDBRANCH  17  18
ENDBRANCH  16  17
ENDBRANCH  15  16
ENDBRANCH   1  15
TORSDOF 6
ENDMDL
MODEL 2
REMARK VINA RESULT: -9.013955764      1.601      2.365
REMARK  6 active torsions:
REMARK  status: ('A' for Active; 'I' for Inactive)
REMARK    1  A    between atoms: O1_2  and  C2_3 
REMARK    2  A    between atoms: C6_8  and  C7_9 
REMARK    3  A    between atoms: C11_13  and  O2_14 
REMARK    4  A    between atoms: O2_14  and  C12_15 
REMARK    5  A    between atoms: C12_15  and  C13_16 
REMARK    6  A    between atoms: C13_16  and  C14_17 
ROOT
HETATM    1  C14 UNL     1      17.176  20.636 -17.099  1.00  0.00     0.039 C 
HETATM    2  C15 UNL     1      17.863  20.665 -18.467  1.00  0.00     0.028 C 
HETATM    3  C16 UNL     1      18.201  20.333 -16.084  1.00  0.00    -0.013 C 
HETATM    4  C17 UNL     1      18.928  21.316 -15.580  1.00  0.00    -0.018 C 
HETATM    5  C18 UNL     1      18.805  22.737 -15.948  1.00  0.00     0.011 C 
HETATM    6  C19 UNL     1      19.229  23.600 -14.749  1.00  0.00     0.022 C 
HETATM    7  C20 UNL     1      19.725  23.149 -17.075  1.00  0.00     0.022 C 
HETATM    8  C21 UNL     1      17.366  23.046 -16.192  1.00  0.00     0.208 C 
HETATM    9  C22 UNL     1      16.744  23.316 -14.871  1.00  0.00     0.093 C 
HETATM   10  N1  UNL     1      16.267  23.508 -13.838  1.00  0.00    -0.195 NA
HETATM   11  C23 UNL     1      17.269  24.246 -17.042  1.00  0.00     0.093 C 
HETATM   12  N2  UNL     1      17.185  25.201 -17.698  1.00  0.00    -0.195 NA
HETATM   13  C24 UNL     1      16.597  21.958 -16.834  1.00  0.00     0.176 C 
HETATM   14  O3  UNL     1      15.428  22.247 -17.129  1.00  0.00    -0.294 OA
ENDROOT
BRANCH   1  15
HETATM   15  C13 UNL     1      16.128  19.552 -17.187  1.00  0.00     0.048 C 
BRANCH  15  16
HETATM   16  C12 UNL     1      16.732  18.162 -17.062  1.00  0.00     0.177 C 
BRANCH  16  17
HETATM   17  O2  UNL     1      16.008  17.348 -17.902  1.00  0.00    -0.348 OA
BRANCH  17  18
HETATM   18  C11 UNL     1      16.354  16.357 -18.757  1.00  0.00     0.109 A 
HETATM   19  C2  UNL     1      16.673  16.776 -20.061  1.00  0.00     0.103 A 
HETATM   20  C3  UNL     1      17.037  15.820 -20.968  1.00  0.00     0.058 A 
HETATM   21  C4  UNL     1      17.083  14.491 -20.599  1.00  0.00     0.014 A 
HETATM   22 BR1  UNL     1      17.598  13.204 -21.918  1.00  0.00    -0.051 Br
HETATM   23  C5  UNL     1      16.763  14.120 -19.312  1.00  0.00     0.030 A 
HETATM   24  C6  UNL     1      16.385  15.059 -18.339  1.00  0.00    -0.013 A 
BRANCH  19  25
HETATM   25  O1  UNL     1      16.612  18.136 -20.392  1.00  0.00    -0.353 OA
HETATM   26  C1  UNL     1      17.520  18.588 -21.376  1.00  0.00     0.210 C 
ENDBRANCH  19  25
BRANCH  24  27
HETATM   27  C7  UNL     1      16.105  14.535 -17.013  1.00  0.00    -0.021 C 
HETATM   28  C8  UNL     1      15.897  13.012 -17.100  1.00  0.00     0.019 C 
HETATM   29  C9  UNL     1      17.337  14.692 -16.107  1.00  0.00     0.019 C 
HETATM   30  C10 UNL     1      14.955  15.053 -16.254  1.00  0.00     0.019 C 
ENDBRANCH  24  27
ENDBRANCH  17  18
ENDBRANCH  16  17
ENDBRANCH  15  16
ENDBRANCH   1  15
TORSDOF 6
ENDMDL
MODEL 3
REMARK VINA RESULT: -8.682940278      1.435      1.983
REMARK  6 active torsions:
REMARK  status: ('A' for Active; 'I' for Inactive)
REMARK    1  A    between atoms: O1_2  and  C2_3 
REMARK    2  A    between atoms: C6_8  and  C7_9 
REMARK    3  A    between atoms: C11_13  and  O2_14 
REMARK    4  A    between atoms: O2_14  and  C12_15 
REMARK    5  A    between atoms: C12_15  and  C13_16 
REMARK    6  A    between atoms: C13_16  and  C14_17 
ROOT
HETATM    1  C14 UNL     1      17.296  20.658 -16.773  1.00  0.00     0.039 C 
HETATM    2  C15 UNL     1      16.107  21.607 -16.601  1.00  0.00     0.028 C 
HETATM    3  C16 UNL     1      17.734  20.730 -18.178  1.00  0.00    -0.013 C 
HETATM    4  C17 UNL     1      18.574  21.680 -18.551  1.00  0.00    -0.018 C 
HETATM    5  C18 UNL     1      19.136  22.711 -17.662  1.00  0.00     0.011 C 
HETATM    6  C19 UNL     1      20.511  23.136 -18.201  1.00  0.00     0.022 C 
HETATM    7  C20 UNL     1      18.319  23.982 -17.620  1.00  0.00     0.022 C 
HETATM    8  C21 UNL     1      19.388  22.104 -16.322  1.00  0.00     0.208 C 
HETATM    9  C22 UNL     1      20.703  21.418 -16.390  1.00  0.00     0.093 C 
HETATM   10  N1  UNL     1      21.719  20.876 -16.458  1.00  0.00    -0.195 NA
HETATM   11  C23 UNL     1      19.436  23.174 -15.310  1.00  0.00     0.093 C 
HETATM   12  N2  UNL     1      19.492  24.014 -14.510  1.00  0.00    -0.195 NA
HETATM   13  C24 UNL     1      18.385  21.104 -15.896  1.00  0.00     0.176 C 
HETATM   14  O3  UNL     1      18.534  20.672 -14.743  1.00  0.00    -0.294 OA
ENDROOT
BRANCH   1  15
HETATM   15  C13 UNL     1      16.784  19.285 -16.408  1.00  0.00     0.048 C 
BRANCH  15  16
HETATM   16  C12 UNL     1      16.257  18.532 -17.618  1.00  0.00     0.177 C 
BRANCH  16  17
HETATM   17  O2  UNL     1      17.003  17.379 -17.711  1.00  0.00    -0.348 OA
BRANCH  17  18
HETATM   18  C11 UNL     1      17.053  16.380 -18.624  1.00  0.00     0.109 A 
HETATM   19  C2  UNL     1      17.522  16.755 -19.896  1.00  0.00     0.103 A 
HETATM   20  C3  UNL     1      17.601  15.787 -20.858  1.00  0.00     0.058 A 
HETATM   21  C4  UNL     1      17.229  14.489 -20.573  1.00  0.00     0.014 A 
HETATM   22 BR1  UNL     1      17.363  13.184 -21.966  1.00  0.00    -0.051 Br
HETATM   23  C5  UNL     1      16.776  14.161 -19.315  1.00  0.00     0.030 A 
HETATM   24  C6  UNL     1      16.675  15.113 -18.288  1.00  0.00    -0.013 A 
BRANCH  19  25
HETATM   25  O1  UNL     1      17.889  18.085 -20.142  1.00  0.00    -0.353 OA
HETATM   26  C1  UNL     1      17.250  18.726 -21.226  1.00  0.00     0.210 C 
ENDBRANCH  19  25
BRANCH  24  27
HETATM   27  C7  UNL     1      16.211  14.626 -17.001  1.00  0.00    -0.021 C 
HETATM   28  C8  UNL     1      15.875  13.127 -17.114  1.00  0.00     0.019 C 
HETATM   29  C9  UNL     1      17.353  14.674 -15.971  1.00  0.00     0.019 C 
HETATM   30  C10 UNL     1      15.041  15.251 -16.363  1.00  0.00     0.019 C 
ENDBRANCH  24  27
ENDBRANCH  17  18
ENDBRANCH  16  17
ENDBRANCH  15  16
ENDBRANCH   1  15
TORSDOF 6
ENDMDL
MODEL 4
REMARK VINA RESULT: -8.091177542      2.015      3.619
REMARK  6 active torsions:
REMARK  status: ('A' for Active; 'I' for Inactive)
REMARK    1  A    between atoms: O1_2  and  C2_3 
REMARK    2  A    between atoms: C6_8  and  C7_9 
REMARK    3  A    between atoms: C11_13  and  O2_14 
REMARK    4  A    between atoms: O2_14  and  C12_15 
REMARK    5  A    between atoms: C12_15  and  C13_16 
REMARK    6  A    between atoms: C13_16  and  C14_17 
ROOT
HETATM    1  C14 UNL     1      18.229  21.390 -17.641  1.00  0.00     0.039 C 
HETATM    2  C15 UNL     1      19.345  21.699 -18.642  1.00  0.00     0.028 C 
HETATM    3  C16 UNL     1      18.823  20.650 -16.514  1.00  0.00    -0.013 C 
HETATM    4  C17 UNL     1      19.383  21.317 -15.520  1.00  0.00    -0.018 C 
HETATM    5  C18 UNL     1      19.473  22.785 -15.428  1.00  0.00     0.011 C 
HETATM    6  C19 UNL     1      19.503  23.189 -13.945  1.00  0.00     0.022 C 
HETATM    7  C20 UNL     1      20.745  23.350 -16.017  1.00  0.00     0.022 C 
HETATM    8  C21 UNL     1      18.225  23.378 -15.992  1.00  0.00     0.208 C 
HETATM    9  C22 UNL     1      17.201  23.354 -14.917  1.00  0.00     0.093 C 
HETATM   10  N1  UNL     1      16.409  23.316 -14.079  1.00  0.00    -0.195 NA
HETATM   11  C23 UNL     1      18.492  24.770 -16.394  1.00  0.00     0.093 C 
HETATM   12  N2  UNL     1      18.692  25.873 -16.697  1.00  0.00    -0.195 NA
HETATM   13  C24 UNL     1      17.666  22.656 -17.156  1.00  0.00     0.176 C 
HETATM   14  O3  UNL     1      16.689  23.201 -17.690  1.00  0.00    -0.294 OA
ENDROOT
BRANCH   1  15
HETATM   15  C13 UNL     1      17.218  20.559 -18.396  1.00  0.00     0.048 C 
BRANCH  15  16
HETATM   16  C12 UNL     1      17.825  19.275 -18.936  1.00  0.00     0.177 C 
BRANCH  16  17
HETATM   17  O2  UNL     1      16.783  18.389 -19.090  1.00  0.00    -0.348 OA
BRANCH  17  18
HETATM   18  C11 UNL     1      16.587  17.112 -18.686  1.00  0.00     0.109 A 
HETATM   19  C2  UNL     1      16.054  16.968 -17.393  1.00  0.00     0.103 A 
HETATM   20  C3  UNL     1      15.828  15.700 -16.932  1.00  0.00     0.058 A 
HETATM   21  C4  UNL     1      16.119  14.609 -17.725  1.00  0.00     0.014 A 
HETATM   22 BR1  UNL     1      15.780  12.864 -17.019  1.00  0.00    -0.051 Br
HETATM   23  C5  UNL     1      16.639  14.791 -18.987  1.00  0.00     0.030 A 
HETATM   24  C6  UNL     1      16.890  16.068 -19.512  1.00  0.00    -0.013 A 
BRANCH  19  25
HETATM   25  O1  UNL     1      15.774  18.105 -16.622  1.00  0.00    -0.353 OA
HETATM   26  C1  UNL     1      16.640  18.359 -15.536  1.00  0.00     0.210 C 
ENDBRANCH  19  25
BRANCH  24  27
HETATM   27  C7  UNL     1      17.410  16.117 -20.867  1.00  0.00    -0.021 C 
HETATM   28  C8  UNL     1      18.843  15.553 -20.884  1.00  0.00     0.019 C 
HETATM   29  C9  UNL     1      16.622  15.159 -21.775  1.00  0.00     0.019 C 
HETATM   30  C10 UNL     1      17.480  17.406 -21.574  1.00  0.00     0.019 C 
ENDBRANCH  24  27
ENDBRANCH  17  18
ENDBRANCH  16  17
ENDBRANCH  15  16
ENDBRANCH   1  15
TORSDOF 6
ENDMDL
MODEL 5
REMARK VINA RESULT: -7.754316672      1.379      2.970
REMARK  6 active torsions:
REMARK  status: ('A' for Active; 'I' for Inactive)
REMARK    1  A    between atoms: O1_2  and  C2_3 
REMARK    2  A    between atoms: C6_8  and  C7_9 
REMARK    3  A    between atoms: C11_13  and  O2_14 
REMARK    4  A    between atoms: O2_14  and  C12_15 
REMARK    5  A    between atoms: C12_15  and  C13_16 
REMARK    6  A    between atoms: C13_16  and  C14_17 
ROOT
HETATM    1  C14 UNL     1      17.416  21.253 -17.146  1.00  0.00     0.039 C 
HETATM    2  C15 UNL     1      17.632  20.558 -15.800  1.00  0.00     0.028 C 
HETATM    3  C16 UNL     1      16.527  22.408 -16.923  1.00  0.00    -0.013 C 
HETATM    4  C17 UNL     1      17.043  23.560 -16.530  1.00  0.00    -0.018 C 
HETATM    5  C18 UNL     1      18.475  23.810 -16.287  1.00  0.00     0.011 C 
HETATM    6  C19 UNL     1      18.772  25.294 -16.551  1.00  0.00     0.022 C 
HETATM    7  C20 UNL     1      18.893  23.572 -14.854  1.00  0.00     0.022 C 
HETATM    8  C21 UNL     1      19.272  23.044 -17.290  1.00  0.00     0.208 C 
HETATM    9  C22 UNL     1      19.320  23.860 -18.529  1.00  0.00     0.093 C 
HETATM   10  N1  UNL     1      19.339  24.496 -19.492  1.00  0.00    -0.195 NA
HETATM   11  C23 UNL     1      20.636  22.846 -16.770  1.00  0.00     0.093 C 
HETATM   12  N2  UNL     1      21.718  22.702 -16.374  1.00  0.00    -0.195 NA
HETATM   13  C24 UNL     1      18.713  21.722 -17.648  1.00  0.00     0.176 C 
HETATM   14  O3  UNL     1      19.423  21.041 -18.402  1.00  0.00    -0.294 OA
ENDROOT
BRANCH   1  15
HETATM   15  C13 UNL     1      16.786  20.219 -18.048  1.00  0.00     0.048 C 
BRANCH  15  16
HETATM   16  C12 UNL     1      16.250  19.030 -17.267  1.00  0.00     0.177 C 
BRANCH  16  17
HETATM   17  O2  UNL     1      16.937  17.928 -17.720  1.00  0.00    -0.348 OA
BRANCH  17  18
HETATM   18  C11 UNL     1      16.700  16.597 -17.652  1.00  0.00     0.109 A 
HETATM   19  C2  UNL     1      16.556  16.081 -16.352  1.00  0.00     0.103 A 
HETATM   20  C3  UNL     1      16.308  14.742 -16.220  1.00  0.00     0.058 A 
HETATM   21  C4  UNL     1      16.207  13.939 -17.337  1.00  0.00     0.014 A 
HETATM   22 BR1  UNL     1      15.861  12.074 -17.081  1.00  0.00    -0.051 Br
HETATM   23  C5  UNL     1      16.353  14.482 -18.594  1.00  0.00     0.030 A 
HETATM   24  C6  UNL     1      16.607  15.848 -18.789  1.00  0.00    -0.013 A 
BRANCH  19  25
HETATM   25  O1  UNL     1      16.667  16.933 -15.245  1.00  0.00    -0.353 OA
HETATM   26  C1  UNL     1      17.341  16.417 -14.116  1.00  0.00     0.210 C 
ENDBRANCH  19  25
BRANCH  24  27
HETATM   27  C7  UNL     1      16.708  16.294 -20.168  1.00  0.00    -0.021 C 
HETATM   28  C8  UNL     1      18.189  16.311 -20.591  1.00  0.00     0.019 C 
HETATM   29  C9  UNL     1      16.063  15.264 -21.110  1.00  0.00     0.019 C 
HETATM   30  C10 UNL     1      16.169  17.610 -20.550  1.00  0.00     0.019 C 
ENDBRANCH  24  27
ENDBRANCH  17  18
ENDBRANCH  16  17
ENDBRANCH  15  16
ENDBRANCH   1  15
TORSDOF 6
ENDMDL
