MODEL 1
REMARK VINA RESULT: -6.730489391      0.000      0.000
REMARK  6 active torsions:
REMARK  status: ('A' for Active; 'I' for Inactive)
REMARK    1  A    between atoms: C2_2  and  O1_3 
REMARK    2  A    between atoms: O1_3  and  C3_4 
REMARK    3  A    between atoms: C3_4  and  C4_6 
REMARK    4  A    between atoms: C8_11  and  C9_12 
REMARK    5  A    between atoms: N3_20  and  C12_21 
REMARK    6  A    between atoms: C19_28  and  C20_29 
ROOT
HETATM    1  C4  UNL     1      17.332  22.238 -15.796  1.00  0.00     0.183 C 
HETATM    2  C5  UNL     1      16.608  22.664 -16.964  1.00  0.00     0.152 C 
HETATM    3  O3  UNL     1      16.082  21.981 -17.823  1.00  0.00    -0.296 OA
HETATM    4  C6  UNL     1      16.587  24.166 -16.969  1.00  0.00     0.103 C 
HETATM    5  C7  UNL     1      15.613  24.661 -15.991  1.00  0.00     0.024 C 
HETATM    6  C8  UNL     1      18.035  24.629 -16.913  1.00  0.00     0.035 C 
HETATM    7  N3  UNL     1      19.075  23.782 -16.684  1.00  0.00    -0.367 N 
HETATM    8  C19 UNL     1      18.789  22.738 -15.756  1.00  0.00     0.146 C 
ENDROOT
BRANCH   6   9
HETATM    9  C9  UNL     1      18.024  25.864 -17.712  1.00  0.00     0.061 A 
HETATM   10  C10 UNL     1      17.442  26.099 -18.968  1.00  0.00     0.125 A 
HETATM   11  N1  UNL     1      17.523  27.400 -19.310  1.00  0.00    -0.309 N 
HETATM   12  N2  UNL     1      18.134  27.987 -18.317  1.00  0.00    -0.276 N 
ATOM     13  H1  UNL     1      17.178  27.834 -20.166  1.00  0.00     0.186 HD
HETATM   14  C11 UNL     1      18.451  27.133 -17.352  1.00  0.00     0.216 A 
ATOM     15  H2  UNL     1      18.344  28.985 -18.287  1.00  0.00     0.189 HD
HETATM   16  F1  UNL     1      19.124  27.444 -16.245  1.00  0.00    -0.184 F 
ENDBRANCH   6   9
BRANCH   7  17
HETATM   17  C12 UNL     1      20.117  23.488 -17.586  1.00  0.00     0.085 C 
HETATM   18  C13 UNL     1      19.678  22.917 -18.940  1.00  0.00     0.026 C 
HETATM   19  C14 UNL     1      19.282  21.473 -18.888  1.00  0.00     0.006 C 
HETATM   20  C15 UNL     1      20.485  20.622 -18.550  1.00  0.00    -0.019 C 
HETATM   21  C16 UNL     1      21.514  20.560 -19.603  1.00  0.00     0.010 C 
HETATM   22  C17 UNL     1      20.947  21.127 -17.205  1.00  0.00     0.006 C 
HETATM   23  C18 UNL     1      21.262  22.630 -17.301  1.00  0.00     0.026 C 
ENDBRANCH   7  17
BRANCH   8  24
HETATM   24  C20 UNL     1      18.956  23.006 -14.282  1.00  0.00     0.012 A 
HETATM   25  S1  UNL     1      17.805  23.599 -13.136  1.00  0.00    -0.104 SA
HETATM   26  C21 UNL     1      18.781  23.735 -11.759  1.00  0.00     0.051 A 
HETATM   27  C22 UNL     1      19.977  23.312 -12.218  1.00  0.00     0.015 A 
HETATM   28  C23 UNL     1      20.089  22.933 -13.512  1.00  0.00    -0.046 A 
HETATM   29  C24 UNL     1      21.436  22.348 -13.965  1.00  0.00     0.049 C 
ENDBRANCH   8  24
BRANCH   1  30
HETATM   30  C3  UNL     1      17.357  20.767 -15.681  1.00  0.00     0.272 C 
HETATM   31  O2  UNL     1      16.972  20.334 -14.524  1.00  0.00    -0.264 OA
BRANCH  30  32
HETATM   32  O1  UNL     1      17.706  19.827 -16.592  1.00  0.00    -0.321 OA
BRANCH  32  33
HETATM   33  C2  UNL     1      16.870  18.715 -16.851  1.00  0.00     0.174 C 
HETATM   34  C1  UNL     1      16.689  18.353 -18.282  1.00  0.00     0.034 C 
ENDBRANCH  32  33
ENDBRANCH  30  32
ENDBRANCH   1  30
TORSDOF 6
ENDMDL
MODEL 2
REMARK VINA RESULT: -6.321286891      2.620      5.246
REMARK  6 active torsions:
REMARK  status: ('A' for Active; 'I' for Inactive)
REMARK    1  A    between atoms: C2_2  and  O1_3 
REMARK    2  A    between atoms: O1_3  and  C3_4 
REMARK    3  A    between atoms: C3_4  and  C4_6 
REMARK    4  A    between atoms: C8_11  and  C9_12 
REMARK    5  A    between atoms: N3_20  and  C12_21 
REMARK    6  A    between atoms: C19_28  and  C20_29 
ROOT
HETATM    1  C4  UNL     1      19.933  21.830 -17.734  1.00  0.00     0.183 C 
HETATM    2  C5  UNL     1      20.185  23.232 -17.534  1.00  0.00     0.152 C 
HETATM    3  O3  UNL     1      21.197  23.772 -17.124  1.00  0.00    -0.296 OA
HETATM    4  C6  UNL     1      18.947  23.983 -17.932  1.00  0.00     0.103 C 
HETATM    5  C7  UNL     1      18.845  24.049 -19.393  1.00  0.00     0.024 C 
HETATM    6  C8  UNL     1      17.801  23.417 -17.107  1.00  0.00     0.035 C 
HETATM    7  N3  UNL     1      17.922  22.301 -16.339  1.00  0.00    -0.367 N 
HETATM    8  C19 UNL     1      18.756  21.290 -16.900  1.00  0.00     0.146 C 
ENDROOT
BRANCH   6   9
HETATM    9  C9  UNL     1      16.938  24.587 -16.884  1.00  0.00     0.061 A 
HETATM   10  C10 UNL     1      17.229  25.948 -17.069  1.00  0.00     0.125 A 
HETATM   11  N1  UNL     1      16.132  26.712 -16.895  1.00  0.00    -0.309 N 
HETATM   12  N2  UNL     1      15.168  25.881 -16.606  1.00  0.00    -0.276 N 
ATOM     13  H1  UNL     1      16.070  27.727 -16.972  1.00  0.00     0.186 HD
HETATM   14  C11 UNL     1      15.584  24.621 -16.587  1.00  0.00     0.216 A 
ATOM     15  H2  UNL     1      14.206  26.167 -16.417  1.00  0.00     0.189 HD
HETATM   16  F1  UNL     1      14.829  23.571 -16.273  1.00  0.00    -0.184 F 
ENDBRANCH   6   9
BRANCH   7  17
HETATM   17  C12 UNL     1      17.807  22.246 -14.935  1.00  0.00     0.085 C 
HETATM   18  C13 UNL     1      18.047  23.570 -14.199  1.00  0.00     0.026 C 
HETATM   19  C14 UNL     1      19.492  23.949 -14.091  1.00  0.00     0.006 C 
HETATM   20  C15 UNL     1      20.220  22.955 -13.216  1.00  0.00    -0.019 C 
HETATM   21  C16 UNL     1      19.846  22.993 -11.791  1.00  0.00     0.010 C 
HETATM   22  C17 UNL     1      20.038  21.627 -13.911  1.00  0.00     0.006 C 
HETATM   23  C18 UNL     1      18.537  21.330 -14.065  1.00  0.00     0.026 C 
ENDBRANCH   7  17
BRANCH   8  24
HETATM   24  C20 UNL     1      18.153  20.303 -17.868  1.00  0.00     0.012 A 
HETATM   25  S1  UNL     1      18.350  20.186 -19.582  1.00  0.00    -0.104 SA
HETATM   26  C21 UNL     1      17.274  18.927 -19.932  1.00  0.00     0.051 A 
HETATM   27  C22 UNL     1      16.790  18.621 -18.710  1.00  0.00     0.015 A 
HETATM   28  C23 UNL     1      17.229  19.317 -17.636  1.00  0.00    -0.046 A 
HETATM   29  C24 UNL     1      16.743  18.862 -16.251  1.00  0.00     0.049 C 
ENDBRANCH   8  24
BRANCH   1  30
HETATM   30  C3  UNL     1      21.122  21.016 -17.415  1.00  0.00     0.272 C 
HETATM   31  O2  UNL     1      21.633  20.426 -18.447  1.00  0.00    -0.264 OA
BRANCH  30  32
HETATM   32  O1  UNL     1      21.746  20.810 -16.232  1.00  0.00    -0.321 OA
BRANCH  32  33
HETATM   33  C2  UNL     1      23.092  21.201 -16.037  1.00  0.00     0.174 C 
HETATM   34  C1  UNL     1      23.301  22.535 -15.412  1.00  0.00     0.034 C 
ENDBRANCH  32  33
ENDBRANCH  30  32
ENDBRANCH   1  30
TORSDOF 6
ENDMDL
MODEL 3
REMARK VINA RESULT: -5.931794147      2.794      5.332
REMARK  6 active torsions:
REMARK  status: ('A' for Active; 'I' for Inactive)
REMARK    1  A    between atoms: C2_2  and  O1_3 
REMARK    2  A    between atoms: O1_3  and  C3_4 
REMARK    3  A    between atoms: C3_4  and  C4_6 
REMARK    4  A    between atoms: C8_11  and  C9_12 
REMARK    5  A    between atoms: N3_20  and  C12_21 
REMARK    6  A    between atoms: C19_28  and  C20_29 
ROOT
HETATM    1  C4  UNL     1      17.401  22.097 -15.187  1.00  0.00     0.183 C 
HETATM    2  C5  UNL     1      17.606  20.674 -15.143  1.00  0.00     0.152 C 
HETATM    3  O3  UNL     1      18.187  20.016 -14.298  1.00  0.00    -0.296 OA
HETATM    4  C6  UNL     1      16.958  20.078 -16.359  1.00  0.00     0.103 C 
HETATM    5  C7  UNL     1      15.503  20.032 -16.184  1.00  0.00     0.024 C 
HETATM    6  C8  UNL     1      17.564  20.772 -17.569  1.00  0.00     0.035 C 
HETATM    7  N3  UNL     1      18.372  21.862 -17.470  1.00  0.00    -0.367 N 
HETATM    8  C19 UNL     1      18.008  22.770 -16.433  1.00  0.00     0.146 C 
ENDROOT
BRANCH   6   9
HETATM    9  C9  UNL     1      17.585  19.712 -18.588  1.00  0.00     0.061 A 
HETATM   10  C10 UNL     1      16.790  18.559 -18.681  1.00  0.00     0.125 A 
HETATM   11  N1  UNL     1      17.010  17.903 -19.838  1.00  0.00    -0.309 N 
HETATM   12  N2  UNL     1      17.914  18.600 -20.471  1.00  0.00    -0.276 N 
ATOM     13  H1  UNL     1      16.563  17.042 -20.152  1.00  0.00     0.186 HD
HETATM   14  C11 UNL     1      18.287  19.673 -19.784  1.00  0.00     0.216 A 
ATOM     15  H2  UNL     1      18.289  18.350 -21.386  1.00  0.00     0.189 HD
HETATM   16  F1  UNL     1      19.228  20.535 -20.164  1.00  0.00    -0.184 F 
ENDBRANCH   6   9
BRANCH   7  17
HETATM   17  C12 UNL     1      19.729  21.924 -17.847  1.00  0.00     0.085 C 
HETATM   18  C13 UNL     1      20.624  20.815 -17.280  1.00  0.00     0.026 C 
HETATM   19  C14 UNL     1      20.989  21.009 -15.840  1.00  0.00     0.006 C 
HETATM   20  C15 UNL     1      21.858  22.237 -15.691  1.00  0.00    -0.019 C 
HETATM   21  C16 UNL     1      23.206  22.116 -16.275  1.00  0.00     0.010 C 
HETATM   22  C17 UNL     1      21.011  23.372 -16.214  1.00  0.00     0.006 C 
HETATM   23  C18 UNL     1      20.602  23.079 -17.667  1.00  0.00     0.026 C 
ENDBRANCH   7  17
BRANCH   8  24
HETATM   24  C20 UNL     1      16.971  23.826 -16.719  1.00  0.00     0.012 A 
HETATM   25  S1  UNL     1      15.254  23.669 -16.857  1.00  0.00    -0.104 SA
HETATM   26  C21 UNL     1      14.835  25.248 -17.302  1.00  0.00     0.051 A 
HETATM   27  C22 UNL     1      16.036  25.863 -17.327  1.00  0.00     0.015 A 
HETATM   28  C23 UNL     1      17.146  25.150 -17.030  1.00  0.00    -0.046 A 
HETATM   29  C24 UNL     1      18.479  25.912 -16.955  1.00  0.00     0.049 C 
ENDBRANCH   8  24
BRANCH   1  30
HETATM   30  C3  UNL     1      17.963  22.763 -13.996  1.00  0.00     0.272 C 
HETATM   31  O2  UNL     1      17.094  23.462 -13.339  1.00  0.00    -0.264 OA
BRANCH  30  32
HETATM   32  O1  UNL     1      19.222  22.740 -13.497  1.00  0.00    -0.321 OA
BRANCH  32  33
HETATM   33  C2  UNL     1      19.659  23.719 -12.574  1.00  0.00     0.174 C 
HETATM   34  C1  UNL     1      20.617  24.730 -13.097  1.00  0.00     0.034 C 
ENDBRANCH  32  33
ENDBRANCH  30  32
ENDBRANCH   1  30
TORSDOF 6
ENDMDL
MODEL 4
REMARK VINA RESULT: -5.719662533      3.000      5.422
REMARK  6 active torsions:
REMARK  status: ('A' for Active; 'I' for Inactive)
REMARK    1  A    between atoms: C2_2  and  O1_3 
REMARK    2  A    between atoms: O1_3  and  C3_4 
REMARK    3  A    between atoms: C3_4  and  C4_6 
REMARK    4  A    between atoms: C8_11  and  C9_12 
REMARK    5  A    between atoms: N3_20  and  C12_21 
REMARK    6  A    between atoms: C19_28  and  C20_29 
ROOT
HETATM    1  C4  UNL     1      17.299  22.120 -15.270  1.00  0.00     0.183 C 
HETATM    2  C5  UNL     1      17.473  20.692 -15.241  1.00  0.00     0.152 C 
HETATM    3  O3  UNL     1      18.065  20.015 -14.420  1.00  0.00    -0.296 OA
HETATM    4  C6  UNL     1      16.770  20.118 -16.438  1.00  0.00     0.103 C 
HETATM    5  C7  UNL     1      15.321  20.105 -16.214  1.00  0.00     0.024 C 
HETATM    6  C8  UNL     1      17.352  20.806 -17.664  1.00  0.00     0.035 C 
HETATM    7  N3  UNL     1      18.188  21.876 -17.586  1.00  0.00    -0.367 N 
HETATM    8  C19 UNL     1      17.880  22.785 -16.532  1.00  0.00     0.146 C 
ENDROOT
BRANCH   6   9
HETATM    9  C9  UNL     1      17.313  19.752 -18.689  1.00  0.00     0.061 A 
HETATM   10  C10 UNL     1      17.540  19.854 -20.071  1.00  0.00     0.125 A 
HETATM   11  N1  UNL     1      17.555  18.640 -20.657  1.00  0.00    -0.309 N 
HETATM   12  N2  UNL     1      17.344  17.784 -19.695  1.00  0.00    -0.276 N 
ATOM     13  H1  UNL     1      17.701  18.435 -21.645  1.00  0.00     0.186 HD
HETATM   14  C11 UNL     1      17.195  18.381 -18.519  1.00  0.00     0.216 A 
ATOM     15  H2  UNL     1      17.298  16.773 -19.831  1.00  0.00     0.189 HD
HETATM   16  F1  UNL     1      16.918  17.759 -17.375  1.00  0.00    -0.184 F 
ENDBRANCH   6   9
BRANCH   7  17
HETATM   17  C12 UNL     1      19.532  21.909 -18.008  1.00  0.00     0.085 C 
HETATM   18  C13 UNL     1      20.417  20.770 -17.486  1.00  0.00     0.026 C 
HETATM   19  C14 UNL     1      20.835  20.935 -16.057  1.00  0.00     0.006 C 
HETATM   20  C15 UNL     1      21.740  22.138 -15.922  1.00  0.00    -0.019 C 
HETATM   21  C16 UNL     1      23.064  21.991 -16.554  1.00  0.00     0.010 C 
HETATM   22  C17 UNL     1      20.906  23.302 -16.402  1.00  0.00     0.006 C 
HETATM   23  C18 UNL     1      20.440  23.039 -17.844  1.00  0.00     0.026 C 
ENDBRANCH   7  17
BRANCH   8  24
HETATM   24  C20 UNL     1      16.859  23.867 -16.777  1.00  0.00     0.012 A 
HETATM   25  S1  UNL     1      15.137  23.748 -16.885  1.00  0.00    -0.104 SA
HETATM   26  C21 UNL     1      14.741  25.343 -17.291  1.00  0.00     0.051 A 
HETATM   27  C22 UNL     1      15.954  25.934 -17.328  1.00  0.00     0.015 A 
HETATM   28  C23 UNL     1      17.055  25.193 -17.067  1.00  0.00    -0.046 A 
HETATM   29  C24 UNL     1      18.404  25.927 -17.004  1.00  0.00     0.049 C 
ENDBRANCH   8  24
BRANCH   1  30
HETATM   30  C3  UNL     1      17.917  22.764 -14.095  1.00  0.00     0.272 C 
HETATM   31  O2  UNL     1      17.078  23.445 -13.382  1.00  0.00    -0.264 OA
BRANCH  30  32
HETATM   32  O1  UNL     1      19.199  22.739 -13.660  1.00  0.00    -0.321 OA
BRANCH  32  33
HETATM   33  C2  UNL     1      19.659  23.660 -12.689  1.00  0.00     0.174 C 
HETATM   34  C1  UNL     1      20.621  24.689 -13.168  1.00  0.00     0.034 C 
ENDBRANCH  32  33
ENDBRANCH  30  32
ENDBRANCH   1  30
TORSDOF 6
ENDMDL
MODEL 5
REMARK VINA RESULT: -5.435035313      2.689      5.461
REMARK  6 active torsions:
REMARK  status: ('A' for Active; 'I' for Inactive)
REMARK    1  A    between atoms: C2_2  and  O1_3 
REMARK    2  A    between atoms: O1_3  and  C3_4 
REMARK    3  A    between atoms: C3_4  and  C4_6 
REMARK    4  A    between atoms: C8_11  and  C9_12 
REMARK    5  A    between atoms: N3_20  and  C12_21 
REMARK    6  A    between atoms: C19_28  and  C20_29 
ROOT
HETATM    1  C4  UNL     1      19.288  23.818 -17.283  1.00  0.00     0.183 C 
HETATM    2  C5  UNL     1      20.325  23.136 -16.556  1.00  0.00     0.152 C 
HETATM    3  O3  UNL     1      21.047  22.230 -16.931  1.00  0.00    -0.296 OA
HETATM    4  C6  UNL     1      20.399  23.743 -15.184  1.00  0.00     0.103 C 
HETATM    5  C7  UNL     1      21.077  25.042 -15.244  1.00  0.00     0.024 C 
HETATM    6  C8  UNL     1      19.011  23.628 -14.573  1.00  0.00     0.035 C 
HETATM    7  N3  UNL     1      17.920  23.235 -15.283  1.00  0.00    -0.367 N 
HETATM    8  C19 UNL     1      17.897  23.700 -16.630  1.00  0.00     0.146 C 
ENDROOT
BRANCH   6   9
HETATM    9  C9  UNL     1      19.290  23.425 -13.143  1.00  0.00     0.061 A 
HETATM   10  C10 UNL     1      18.667  24.009 -12.029  1.00  0.00     0.125 A 
HETATM   11  N1  UNL     1      19.106  23.463 -10.878  1.00  0.00    -0.309 N 
HETATM   12  N2  UNL     1      19.982  22.561 -11.230  1.00  0.00    -0.276 N 
ATOM     13  H1  UNL     1      18.815  23.704  -9.931  1.00  0.00     0.186 HD
HETATM   14  C11 UNL     1      20.129  22.496 -12.547  1.00  0.00     0.216 A 
ATOM     15  H2  UNL     1      20.493  21.975 -10.569  1.00  0.00     0.189 HD
HETATM   16  F1  UNL     1      20.991  21.703 -13.182  1.00  0.00    -0.184 F 
ENDBRANCH   6   9
BRANCH   7  17
HETATM   17  C12 UNL     1      17.163  22.067 -15.059  1.00  0.00     0.085 C 
HETATM   18  C13 UNL     1      17.968  20.764 -14.968  1.00  0.00     0.026 C 
HETATM   19  C14 UNL     1      18.427  20.243 -16.295  1.00  0.00     0.006 C 
HETATM   20  C15 UNL     1      17.234  19.830 -17.126  1.00  0.00    -0.019 C 
HETATM   21  C16 UNL     1      16.513  18.645 -16.628  1.00  0.00     0.010 C 
HETATM   22  C17 UNL     1      16.413  21.089 -17.270  1.00  0.00     0.006 C 
HETATM   23  C18 UNL     1      16.040  21.620 -15.876  1.00  0.00     0.026 C 
ENDBRANCH   7  17
BRANCH   8  24
HETATM   24  C20 UNL     1      17.332  25.067 -16.920  1.00  0.00     0.012 A 
HETATM   25  S1  UNL     1      18.159  26.553 -17.239  1.00  0.00    -0.104 SA
HETATM   26  C21 UNL     1      16.850  27.621 -17.336  1.00  0.00     0.051 A 
HETATM   27  C22 UNL     1      15.799  26.801 -17.124  1.00  0.00     0.015 A 
HETATM   28  C23 UNL     1      16.026  25.485 -16.908  1.00  0.00    -0.046 A 
HETATM   29  C24 UNL     1      14.800  24.566 -16.788  1.00  0.00     0.049 C 
ENDBRANCH   8  24
BRANCH   1  30
HETATM   30  C3  UNL     1      19.180  23.318 -18.668  1.00  0.00     0.272 C 
HETATM   31  O2  UNL     1      19.533  24.188 -19.558  1.00  0.00    -0.264 OA
BRANCH  30  32
HETATM   32  O1  UNL     1      18.784  22.108 -19.130  1.00  0.00    -0.321 OA
BRANCH  32  33
HETATM   33  C2  UNL     1      19.728  21.103 -19.446  1.00  0.00     0.174 C 
HETATM   34  C1  UNL     1      19.181  19.861 -20.056  1.00  0.00     0.034 C 
ENDBRANCH  32  33
ENDBRANCH  30  32
ENDBRANCH   1  30
TORSDOF 6
ENDMDL
