MODEL 1
REMARK VINA RESULT: -7.964078021      0.000      0.000
REMARK  6 active torsions:
REMARK  status: ('A' for Active; 'I' for Inactive)
REMARK    1  A    between atoms: C5_9  and  C6_10 
REMARK    2  A    between atoms: C7_11  and  C8_12 
REMARK    3  A    between atoms: C11_15  and  N3_16 
REMARK    4  A    between atoms: N3_16  and  C12_18 
REMARK    5  A    between atoms: C12_18  and  C14_20 
REMARK    6  A    between atoms: C20_33  and  N7_34 
ROOT
HETATM    1  C8  UNL     1      19.476  42.580  16.392  1.00  0.00     0.071 C 
HETATM    2  C9  UNL     1      19.829  43.881  16.754  1.00  0.00     0.004 C 
HETATM    3  C10 UNL     1      20.140  44.044  18.178  1.00  0.00     0.054 C 
HETATM    4  C11 UNL     1      19.908  45.019  15.944  1.00  0.00     0.110 C 
HETATM    5  N5  UNL     1      18.882  45.289  15.035  1.00  0.00    -0.338 N 
ATOM      6  H5  UNL     1      18.556  46.253  14.966  1.00  0.00     0.168 HD
HETATM    7  C19 UNL     1      18.294  44.376  14.245  1.00  0.00     0.183 C 
HETATM    8  N6  UNL     1      18.187  43.020  14.348  1.00  0.00    -0.338 N 
ATOM      9  H6  UNL     1      17.658  42.553  13.612  1.00  0.00     0.168 HD
HETATM   10  C20 UNL     1      18.705  42.214  15.320  1.00  0.00     0.119 C 
ENDROOT
BRANCH   4  11
HETATM   11  N3  UNL     1      20.851  45.772  16.001  1.00  0.00    -0.366 N 
ATOM     12  H3  UNL     1      20.509  46.723  15.862  1.00  0.00     0.161 HD
BRANCH  11  13
HETATM   13  C12 UNL     1      22.215  45.828  16.182  1.00  0.00     0.129 C 
HETATM   14  C13 UNL     1      22.645  46.989  17.107  1.00  0.00     0.039 C 
BRANCH  13  15
HETATM   15  C14 UNL     1      22.830  44.557  16.688  1.00  0.00     0.031 A 
HETATM   16  C15 UNL     1      22.832  43.444  15.881  1.00  0.00     0.028 A 
HETATM   17  C16 UNL     1      23.415  42.310  16.403  1.00  0.00     0.022 A 
HETATM   18  C17 UNL     1      23.971  42.287  17.673  1.00  0.00     0.026 A 
HETATM   19 BR1  UNL     1      24.767  40.664  18.331  1.00  0.00    -0.050 Br
HETATM   20  C18 UNL     1      23.939  43.431  18.433  1.00  0.00     0.107 A 
HETATM   21  N4  UNL     1      23.368  44.531  17.915  1.00  0.00    -0.366 N 
ATOM     22  H4  UNL     1      23.345  45.381  18.479  1.00  0.00     0.165 HD
ENDBRANCH  13  15
ENDBRANCH  11  13
ENDBRANCH   4  11
BRANCH   1  23
HETATM   23  C7  UNL     1      19.977  41.524  17.237  1.00  0.00    -0.057 C 
HETATM   24  C6  UNL     1      20.421  40.640  17.958  1.00  0.00    -0.058 C 
BRANCH  24  25
HETATM   25  C5  UNL     1      20.939  39.586  18.787  1.00  0.00     0.055 A 
HETATM   26  C2  UNL     1      21.776  38.613  18.250  1.00  0.00     0.026 A 
HETATM   27  C1  UNL     1      22.137  38.661  16.810  1.00  0.00     0.070 C 
HETATM   28  N1  UNL     1      22.242  37.645  19.050  1.00  0.00    -0.355 N 
HETATM   29  C3  UNL     1      21.947  37.554  20.355  1.00  0.00     0.180 A 
ATOM     30  H1  UNL     1      22.855  36.937  18.644  1.00  0.00     0.166 HD
HETATM   31  N2  UNL     1      21.134  38.495  20.889  1.00  0.00    -0.361 N 
HETATM   32  C4  UNL     1      20.647  39.480  20.124  1.00  0.00     0.111 A 
ATOM     33  H2  UNL     1      20.891  38.455  21.879  1.00  0.00     0.166 HD
ENDBRANCH  24  25
ENDBRANCH   1  23
BRANCH  10  34
HETATM   34  N7  UNL     1      18.435  40.959  15.219  1.00  0.00    -0.384 N 
ATOM     35  H72 UNL     1      18.817  40.357  15.948  1.00  0.00     0.157 HD
ATOM     36  H71 UNL     1      17.866  40.686  14.418  1.00  0.00     0.157 HD
ENDBRANCH  10  34
TORSDOF 6
ENDMDL
MODEL 2
REMARK VINA RESULT: -7.390283371      2.475      4.942
REMARK  6 active torsions:
REMARK  status: ('A' for Active; 'I' for Inactive)
REMARK    1  A    between atoms: C5_9  and  C6_10 
REMARK    2  A    between atoms: C7_11  and  C8_12 
REMARK    3  A    between atoms: C11_15  and  N3_16 
REMARK    4  A    between atoms: N3_16  and  C12_18 
REMARK    5  A    between atoms: C12_18  and  C14_20 
REMARK    6  A    between atoms: C20_33  and  N7_34 
ROOT
HETATM    1  C8  UNL     1      23.771  42.009  18.960  1.00  0.00     0.071 C 
HETATM    2  C9  UNL     1      23.405  42.780  17.856  1.00  0.00     0.004 C 
HETATM    3  C10 UNL     1      23.044  41.996  16.670  1.00  0.00     0.054 C 
HETATM    4  C11 UNL     1      23.357  44.173  17.744  1.00  0.00     0.110 C 
HETATM    5  N5  UNL     1      24.414  44.941  18.238  1.00  0.00    -0.338 N 
ATOM      6  H5  UNL     1      24.742  45.715  17.661  1.00  0.00     0.168 HD
HETATM    7  C19 UNL     1      25.031  44.737  19.414  1.00  0.00     0.183 C 
HETATM    8  N6  UNL     1      25.133  43.630  20.204  1.00  0.00    -0.338 N 
ATOM      9  H6  UNL     1      25.688  43.734  21.053  1.00  0.00     0.168 HD
HETATM   10  C20 UNL     1      24.581  42.400  19.994  1.00  0.00     0.119 C 
ENDROOT
BRANCH   4  11
HETATM   11  N3  UNL     1      22.412  44.735  17.243  1.00  0.00    -0.366 N 
ATOM     12  H3  UNL     1      22.715  45.139  16.356  1.00  0.00     0.161 HD
BRANCH  11  13
HETATM   13  C12 UNL     1      21.078  45.034  17.418  1.00  0.00     0.129 C 
HETATM   14  C13 UNL     1      20.819  46.553  17.528  1.00  0.00     0.039 C 
BRANCH  13  15
HETATM   15  C14 UNL     1      20.169  44.465  16.372  1.00  0.00     0.031 A 
HETATM   16  C15 UNL     1      19.861  45.220  15.265  1.00  0.00     0.028 A 
HETATM   17  C16 UNL     1      19.024  44.639  14.339  1.00  0.00     0.022 A 
HETATM   18  C17 UNL     1      18.515  43.360  14.509  1.00  0.00     0.026 A 
HETATM   19 BR1  UNL     1      17.350  42.617  13.170  1.00  0.00    -0.050 Br
HETATM   20  C18 UNL     1      18.858  42.653  15.635  1.00  0.00     0.107 A 
HETATM   21  N4  UNL     1      19.676  43.228  16.532  1.00  0.00    -0.366 N 
ATOM     22  H4  UNL     1      19.932  42.703  17.368  1.00  0.00     0.165 HD
ENDBRANCH  13  15
ENDBRANCH  11  13
ENDBRANCH   4  11
BRANCH   1  23
HETATM   23  C7  UNL     1      23.241  40.668  19.008  1.00  0.00    -0.057 C 
HETATM   24  C6  UNL     1      22.789  39.532  19.072  1.00  0.00    -0.058 C 
BRANCH  24  25
HETATM   25  C5  UNL     1      22.278  38.190  19.134  1.00  0.00     0.055 A 
HETATM   26  C2  UNL     1      22.452  37.319  18.063  1.00  0.00     0.026 A 
HETATM   27  C1  UNL     1      23.169  37.778  16.846  1.00  0.00     0.070 C 
HETATM   28  N1  UNL     1      21.963  36.075  18.153  1.00  0.00    -0.355 N 
HETATM   29  C3  UNL     1      21.309  35.610  19.227  1.00  0.00     0.180 A 
ATOM     30  H1  UNL     1      22.097  35.446  17.361  1.00  0.00     0.166 HD
HETATM   31  N2  UNL     1      21.135  36.448  20.276  1.00  0.00    -0.361 N 
HETATM   32  C4  UNL     1      21.607  37.700  20.226  1.00  0.00     0.111 A 
ATOM     33  H2  UNL     1      20.642  36.125  21.108  1.00  0.00     0.166 HD
ENDBRANCH  24  25
ENDBRANCH   1  23
BRANCH  10  34
HETATM   34  N7  UNL     1      24.854  41.498  20.872  1.00  0.00    -0.384 N 
ATOM     35  H72 UNL     1      24.060  40.973  21.239  1.00  0.00     0.157 HD
ATOM     36  H71 UNL     1      25.839  41.396  21.118  1.00  0.00     0.157 HD
ENDBRANCH  10  34
TORSDOF 6
ENDMDL
MODEL 3
REMARK VINA RESULT: -7.374892271      2.478      5.101
REMARK  6 active torsions:
REMARK  status: ('A' for Active; 'I' for Inactive)
REMARK    1  A    between atoms: C5_9  and  C6_10 
REMARK    2  A    between atoms: C7_11  and  C8_12 
REMARK    3  A    between atoms: C11_15  and  N3_16 
REMARK    4  A    between atoms: N3_16  and  C12_18 
REMARK    5  A    between atoms: C12_18  and  C14_20 
REMARK    6  A    between atoms: C20_33  and  N7_34 
ROOT
HETATM    1  C8  UNL     1      23.833  42.013  18.887  1.00  0.00     0.071 C 
HETATM    2  C9  UNL     1      23.450  42.801  17.801  1.00  0.00     0.004 C 
HETATM    3  C10 UNL     1      23.143  42.039  16.586  1.00  0.00     0.054 C 
HETATM    4  C11 UNL     1      23.340  44.193  17.731  1.00  0.00     0.110 C 
HETATM    5  N5  UNL     1      24.354  44.992  18.266  1.00  0.00    -0.338 N 
ATOM      6  H5  UNL     1      24.656  45.798  17.720  1.00  0.00     0.168 HD
HETATM    7  C19 UNL     1      24.960  44.779  19.446  1.00  0.00     0.183 C 
HETATM    8  N6  UNL     1      25.100  43.654  20.204  1.00  0.00    -0.338 N 
ATOM      9  H6  UNL     1      25.636  43.756  21.066  1.00  0.00     0.168 HD
HETATM   10  C20 UNL     1      24.607  42.408  19.947  1.00  0.00     0.119 C 
ENDROOT
BRANCH   4  11
HETATM   11  N3  UNL     1      22.379  44.728  17.230  1.00  0.00    -0.366 N 
ATOM     12  H3  UNL     1      22.665  45.122  16.333  1.00  0.00     0.161 HD
BRANCH  11  13
HETATM   13  C12 UNL     1      21.043  45.005  17.416  1.00  0.00     0.129 C 
HETATM   14  C13 UNL     1      20.759  46.520  17.532  1.00  0.00     0.039 C 
BRANCH  13  15
HETATM   15  C14 UNL     1      20.135  44.425  16.373  1.00  0.00     0.031 A 
HETATM   16  C15 UNL     1      19.746  45.206  15.311  1.00  0.00     0.028 A 
HETATM   17  C16 UNL     1      18.915  44.613  14.386  1.00  0.00     0.022 A 
HETATM   18  C17 UNL     1      18.492  43.300  14.514  1.00  0.00     0.026 A 
HETATM   19 BR1  UNL     1      17.331  42.542  13.179  1.00  0.00    -0.050 Br
HETATM   20  C18 UNL     1      18.914  42.568  15.597  1.00  0.00     0.107 A 
HETATM   21  N4  UNL     1      19.724  43.155  16.493  1.00  0.00    -0.366 N 
ATOM     22  H4  UNL     1      20.039  42.612  17.297  1.00  0.00     0.165 HD
ENDBRANCH  13  15
ENDBRANCH  11  13
ENDBRANCH   4  11
BRANCH   1  23
HETATM   23  C7  UNL     1      23.362  40.650  18.885  1.00  0.00    -0.057 C 
HETATM   24  C6  UNL     1      22.974  39.489  18.904  1.00  0.00    -0.058 C 
BRANCH  24  25
HETATM   25  C5  UNL     1      22.527  38.122  18.905  1.00  0.00     0.055 A 
HETATM   26  C2  UNL     1      21.744  37.637  19.947  1.00  0.00     0.026 A 
HETATM   27  C1  UNL     1      21.366  38.534  21.068  1.00  0.00     0.070 C 
HETATM   28  N1  UNL     1      21.344  36.359  19.916  1.00  0.00    -0.355 N 
HETATM   29  C3  UNL     1      21.656  35.507  18.929  1.00  0.00     0.180 A 
ATOM     30  H1  UNL     1      20.770  36.014  20.686  1.00  0.00     0.166 HD
HETATM   31  N2  UNL     1      22.417  35.968  17.909  1.00  0.00    -0.361 N 
HETATM   32  C4  UNL     1      22.838  37.239  17.902  1.00  0.00     0.111 A 
ATOM     33  H2  UNL     1      22.671  35.345  17.143  1.00  0.00     0.166 HD
ENDBRANCH  24  25
ENDBRANCH   1  23
BRANCH  10  34
HETATM   34  N7  UNL     1      24.906  41.492  20.802  1.00  0.00    -0.384 N 
ATOM     35  H72 UNL     1      25.260  41.816  21.702  1.00  0.00     0.157 HD
ATOM     36  H71 UNL     1      24.761  40.530  20.496  1.00  0.00     0.157 HD
ENDBRANCH  10  34
TORSDOF 6
ENDMDL
MODEL 4
REMARK VINA RESULT: -7.329502340      2.163      2.943
REMARK  6 active torsions:
REMARK  status: ('A' for Active; 'I' for Inactive)
REMARK    1  A    between atoms: C5_9  and  C6_10 
REMARK    2  A    between atoms: C7_11  and  C8_12 
REMARK    3  A    between atoms: C11_15  and  N3_16 
REMARK    4  A    between atoms: N3_16  and  C12_18 
REMARK    5  A    between atoms: C12_18  and  C14_20 
REMARK    6  A    between atoms: C20_33  and  N7_34 
ROOT
HETATM    1  C8  UNL     1      21.861  41.149  15.309  1.00  0.00     0.071 C 
HETATM    2  C9  UNL     1      20.950  42.144  15.669  1.00  0.00     0.004 C 
HETATM    3  C10 UNL     1      19.842  41.668  16.503  1.00  0.00     0.054 C 
HETATM    4  C11 UNL     1      20.962  43.499  15.327  1.00  0.00     0.110 C 
HETATM    5  N5  UNL     1      21.224  43.875  14.008  1.00  0.00    -0.338 N 
ATOM      6  H5  UNL     1      20.643  44.609  13.603  1.00  0.00     0.168 HD
HETATM    7  C19 UNL     1      22.182  43.343  13.231  1.00  0.00     0.183 C 
HETATM    8  N6  UNL     1      22.832  42.145  13.285  1.00  0.00    -0.338 N 
ATOM      9  H6  UNL     1      23.515  41.971  12.547  1.00  0.00     0.168 HD
HETATM   10  C20 UNL     1      22.678  41.153  14.208  1.00  0.00     0.119 C 
ENDROOT
BRANCH   4  11
HETATM   11  N3  UNL     1      20.765  44.361  16.151  1.00  0.00    -0.366 N 
ATOM     12  H3  UNL     1      20.071  45.008  15.777  1.00  0.00     0.161 HD
BRANCH  11  13
HETATM   13  C12 UNL     1      21.126  44.798  17.407  1.00  0.00     0.129 C 
HETATM   14  C13 UNL     1      19.909  45.025  18.331  1.00  0.00     0.039 C 
BRANCH  13  15
HETATM   15  C14 UNL     1      22.109  43.915  18.115  1.00  0.00     0.031 A 
HETATM   16  C15 UNL     1      23.448  44.030  17.823  1.00  0.00     0.028 A 
HETATM   17  C16 UNL     1      24.299  43.193  18.511  1.00  0.00     0.022 A 
HETATM   18  C17 UNL     1      23.836  42.282  19.448  1.00  0.00     0.026 A 
HETATM   19 BR1  UNL     1      25.088  41.147  20.367  1.00  0.00    -0.050 Br
HETATM   20  C18 UNL     1      22.487  42.213  19.697  1.00  0.00     0.107 A 
HETATM   21  N4  UNL     1      21.665  43.033  19.022  1.00  0.00    -0.366 N 
ATOM     22  H4  UNL     1      20.664  42.983  19.207  1.00  0.00     0.165 HD
ENDBRANCH  13  15
ENDBRANCH  11  13
ENDBRANCH   4  11
BRANCH   1  23
HETATM   23  C7  UNL     1      21.941  40.008  16.187  1.00  0.00    -0.057 C 
HETATM   24  C6  UNL     1      22.006  39.053  16.951  1.00  0.00    -0.058 C 
BRANCH  24  25
HETATM   25  C5  UNL     1      22.103  37.926  17.838  1.00  0.00     0.055 A 
HETATM   26  C2  UNL     1      21.641  38.017  19.147  1.00  0.00     0.026 A 
HETATM   27  C1  UNL     1      21.043  39.286  19.633  1.00  0.00     0.070 C 
HETATM   28  N1  UNL     1      21.746  36.948  19.947  1.00  0.00    -0.355 N 
HETATM   29  C3  UNL     1      22.276  35.779  19.559  1.00  0.00     0.180 A 
ATOM     30  H1  UNL     1      21.403  37.027  20.905  1.00  0.00     0.166 HD
HETATM   31  N2  UNL     1      22.729  35.679  18.288  1.00  0.00    -0.361 N 
HETATM   32  C4  UNL     1      22.643  36.724  17.456  1.00  0.00     0.111 A 
ATOM     33  H2  UNL     1      23.138  34.803  17.962  1.00  0.00     0.166 HD
ENDBRANCH  24  25
ENDBRANCH   1  23
BRANCH  10  34
HETATM   34  N7  UNL     1      23.385  40.092  14.024  1.00  0.00    -0.384 N 
ATOM     35  H72 UNL     1      23.482  39.472  14.828  1.00  0.00     0.157 HD
ATOM     36  H71 UNL     1      23.780  39.974  13.091  1.00  0.00     0.157 HD
ENDBRANCH  10  34
TORSDOF 6
ENDMDL
MODEL 5
REMARK VINA RESULT: -6.753462850      2.123      2.599
REMARK  6 active torsions:
REMARK  status: ('A' for Active; 'I' for Inactive)
REMARK    1  A    between atoms: C5_9  and  C6_10 
REMARK    2  A    between atoms: C7_11  and  C8_12 
REMARK    3  A    between atoms: C11_15  and  N3_16 
REMARK    4  A    between atoms: N3_16  and  C12_18 
REMARK    5  A    between atoms: C12_18  and  C14_20 
REMARK    6  A    between atoms: C20_33  and  N7_34 
ROOT
HETATM    1  C8  UNL     1      21.732  41.393  15.273  1.00  0.00     0.071 C 
HETATM    2  C9  UNL     1      20.876  42.428  15.654  1.00  0.00     0.004 C 
HETATM    3  C10 UNL     1      19.799  42.014  16.558  1.00  0.00     0.054 C 
HETATM    4  C11 UNL     1      20.916  43.774  15.276  1.00  0.00     0.110 C 
HETATM    5  N5  UNL     1      21.118  44.107  13.934  1.00  0.00    -0.338 N 
ATOM      6  H5  UNL     1      20.542  44.851  13.542  1.00  0.00     0.168 HD
HETATM    7  C19 UNL     1      22.014  43.521  13.122  1.00  0.00     0.183 C 
HETATM    8  N6  UNL     1      22.626  42.303  13.174  1.00  0.00    -0.338 N 
ATOM      9  H6  UNL     1      23.261  42.086  12.407  1.00  0.00     0.168 HD
HETATM   10  C20 UNL     1      22.488  41.341  14.131  1.00  0.00     0.119 C 
ENDROOT
BRANCH   4  11
HETATM   11  N3  UNL     1      20.793  44.662  16.085  1.00  0.00    -0.366 N 
ATOM     12  H3  UNL     1      20.100  45.323  15.731  1.00  0.00     0.161 HD
BRANCH  11  13
HETATM   13  C12 UNL     1      21.237  45.118  17.307  1.00  0.00     0.129 C 
HETATM   14  C13 UNL     1      20.079  45.510  18.253  1.00  0.00     0.039 C 
BRANCH  13  15
HETATM   15  C14 UNL     1      22.150  44.175  18.030  1.00  0.00     0.031 A 
HETATM   16  C15 UNL     1      23.508  44.279  17.844  1.00  0.00     0.028 A 
HETATM   17  C16 UNL     1      24.293  43.386  18.539  1.00  0.00     0.022 A 
HETATM   18  C17 UNL     1      23.747  42.431  19.383  1.00  0.00     0.026 A 
HETATM   19 BR1  UNL     1      24.910  41.217  20.321  1.00  0.00    -0.050 Br
HETATM   20  C18 UNL     1      22.383  42.375  19.529  1.00  0.00     0.107 A 
HETATM   21  N4  UNL     1      21.626  43.251  18.847  1.00  0.00    -0.366 N 
ATOM     22  H4  UNL     1      20.613  43.211  18.956  1.00  0.00     0.165 HD
ENDBRANCH  13  15
ENDBRANCH  11  13
ENDBRANCH   4  11
BRANCH   1  23
HETATM   23  C7  UNL     1      21.821  40.272  16.176  1.00  0.00    -0.057 C 
HETATM   24  C6  UNL     1      21.908  39.335  16.959  1.00  0.00    -0.058 C 
BRANCH  24  25
HETATM   25  C5  UNL     1      22.020  38.220  17.860  1.00  0.00     0.055 A 
HETATM   26  C2  UNL     1      22.550  37.011  17.423  1.00  0.00     0.026 A 
HETATM   27  C1  UNL     1      23.003  36.867  16.016  1.00  0.00     0.070 C 
HETATM   28  N1  UNL     1      22.641  35.992  18.288  1.00  0.00    -0.355 N 
HETATM   29  C3  UNL     1      22.247  36.068  19.568  1.00  0.00     0.180 A 
ATOM     30  H1  UNL     1      23.031  35.110  17.955  1.00  0.00     0.166 HD
HETATM   31  N2  UNL     1      21.730  37.240  20.005  1.00  0.00    -0.361 N 
HETATM   32  C4  UNL     1      21.621  38.282  19.171  1.00  0.00     0.111 A 
ATOM     33  H2  UNL     1      21.422  37.330  20.973  1.00  0.00     0.166 HD
ENDBRANCH  24  25
ENDBRANCH   1  23
BRANCH  10  34
HETATM   34  N7  UNL     1      23.148  40.251  13.939  1.00  0.00    -0.384 N 
ATOM     35  H72 UNL     1      24.148  40.291  14.131  1.00  0.00     0.157 HD
ATOM     36  H71 UNL     1      22.605  39.452  13.611  1.00  0.00     0.157 HD
ENDBRANCH  10  34
TORSDOF 6
ENDMDL
