MODEL 1
REMARK VINA RESULT: -7.552275039      0.000      0.000
REMARK  7 active torsions:
REMARK  status: ('A' for Active; 'I' for Inactive)
REMARK    1  A    between atoms: C2_2  and  C3_3 
REMARK    2  A    between atoms: C3_3  and  C4_4 
REMARK    3  A    between atoms: C4_4  and  S1_5 
REMARK    4  A    between atoms: S1_5  and  N1_8 
REMARK    5  A    between atoms: N1_8  and  O3_10 
REMARK    6  A    between atoms: O3_10  and  C5_11 
REMARK    7  A    between atoms: C5_11  and  C8_15 
REMARK       I    between atoms: N3_19  and  C12_20 
REMARK       I    between atoms: C12_20  and  N4_22 
ROOT
HETATM    1  C5  UNL     1     -24.367 -38.751  11.406  1.00  0.00     0.178 C 
HETATM    2  C6  UNL     1     -24.234 -40.216  11.759  1.00  0.00     0.066 C 
HETATM    3  C7  UNL     1     -23.574 -37.915  12.309  1.00  0.00     0.100 C 
HETATM    4  N2  UNL     1     -22.960 -37.249  13.033  1.00  0.00    -0.194 NA
ENDROOT
BRANCH   1   5
HETATM    5  O3  UNL     1     -25.706 -38.322  11.542  1.00  0.00    -0.244 OA
BRANCH   5   6
HETATM    6  N1  UNL     1     -26.335 -39.175  12.351  1.00  0.00    -0.190 N 
ATOM      7  H1  UNL     1     -25.857 -39.706  13.079  1.00  0.00     0.207 HD
BRANCH   6   8
HETATM    8  S1  UNL     1     -28.016 -39.300  12.058  1.00  0.00     0.248 S 
HETATM    9  O1  UNL     1     -28.629 -40.122  13.156  1.00  0.00    -0.204 OA
HETATM   10  O2  UNL     1     -28.637 -37.941  12.103  1.00  0.00    -0.204 OA
BRANCH   8  11
HETATM   11  C4  UNL     1     -28.356 -40.039  10.465  1.00  0.00     0.165 C 
BRANCH  11  12
HETATM   12  C3  UNL     1     -29.685 -39.499  10.008  1.00  0.00     0.016 C 
BRANCH  12  13
HETATM   13  C2  UNL     1     -29.650 -38.994   8.589  1.00  0.00    -0.004 C 
HETATM   14  C1  UNL     1     -28.449 -39.674   7.920  1.00  0.00     0.005 C 
ENDBRANCH  12  13
ENDBRANCH  11  12
ENDBRANCH   8  11
ENDBRANCH   6   8
ENDBRANCH   5   6
ENDBRANCH   1   5
BRANCH   1  15
HETATM   15  C8  UNL     1     -23.888 -38.583   9.991  1.00  0.00     0.055 C 
HETATM   16  C9  UNL     1     -25.006 -38.966   9.072  1.00  0.00     0.012 C 
HETATM   17  C10 UNL     1     -24.599 -38.907   7.601  1.00  0.00     0.020 C 
HETATM   18  C11 UNL     1     -23.432 -39.896   7.474  1.00  0.00     0.127 C 
HETATM   19  N3  UNL     1     -22.378 -39.350   8.296  1.00  0.00    -0.333 N 
HETATM   20  C12 UNL     1     -21.199 -38.867   7.677  1.00  0.00     0.332 C 
HETATM   21  C13 UNL     1     -22.600 -39.327   9.716  1.00  0.00     0.136 C 
HETATM   22  O4  UNL     1     -20.316 -38.406   8.446  1.00  0.00    -0.246 OA
HETATM   23  N4  UNL     1     -20.945 -38.867   6.288  1.00  0.00    -0.250 N 
HETATM   24 CL1  UNL     1     -19.430 -38.230   5.706  1.00  0.00     0.015 Cl
ATOM     25  H4  UNL     1     -21.638 -39.233   5.635  1.00  0.00     0.185 HD
ENDBRANCH   1  15
TORSDOF 7
ENDMDL
MODEL 2
REMARK VINA RESULT: -7.495566562      4.006      5.435
REMARK  7 active torsions:
REMARK  status: ('A' for Active; 'I' for Inactive)
REMARK    1  A    between atoms: C2_2  and  C3_3 
REMARK    2  A    between atoms: C3_3  and  C4_4 
REMARK    3  A    between atoms: C4_4  and  S1_5 
REMARK    4  A    between atoms: S1_5  and  N1_8 
REMARK    5  A    between atoms: N1_8  and  O3_10 
REMARK    6  A    between atoms: O3_10  and  C5_11 
REMARK    7  A    between atoms: C5_11  and  C8_15 
REMARK       I    between atoms: N3_19  and  C12_20 
REMARK       I    between atoms: C12_20  and  N4_22 
ROOT
HETATM    1  C5  UNL     1     -27.472 -39.725  12.568  1.00  0.00     0.178 C 
HETATM    2  C6  UNL     1     -27.078 -38.530  13.409  1.00  0.00     0.066 C 
HETATM    3  C7  UNL     1     -28.785 -39.529  11.951  1.00  0.00     0.100 C 
HETATM    4  N2  UNL     1     -29.832 -39.383  11.474  1.00  0.00    -0.194 NA
ENDROOT
BRANCH   1   5
HETATM    5  O3  UNL     1     -27.579 -40.885  13.367  1.00  0.00    -0.244 OA
BRANCH   5   6
HETATM    6  N1  UNL     1     -28.653 -40.755  14.146  1.00  0.00    -0.190 N 
ATOM      7  H1  UNL     1     -29.293 -39.964  14.083  1.00  0.00     0.207 HD
BRANCH   6   8
HETATM    8  S1  UNL     1     -28.860 -42.034  15.264  1.00  0.00     0.248 S 
HETATM    9  O1  UNL     1     -30.236 -42.608  15.079  1.00  0.00    -0.204 OA
HETATM   10  O2  UNL     1     -27.871 -43.117  14.978  1.00  0.00    -0.204 OA
BRANCH   8  11
HETATM   11  C4  UNL     1     -28.639 -41.480  16.951  1.00  0.00     0.165 C 
BRANCH  11  12
HETATM   12  C3  UNL     1     -27.805 -40.229  16.894  1.00  0.00     0.016 C 
BRANCH  12  13
HETATM   13  C2  UNL     1     -28.241 -39.193  17.897  1.00  0.00    -0.004 C 
HETATM   14  C1  UNL     1     -28.618 -39.960  19.171  1.00  0.00     0.005 C 
ENDBRANCH  12  13
ENDBRANCH  11  12
ENDBRANCH   8  11
ENDBRANCH   6   8
ENDBRANCH   5   6
ENDBRANCH   1   5
BRANCH   1  15
HETATM   15  C8  UNL     1     -26.422 -39.896  11.506  1.00  0.00     0.055 C 
HETATM   16  C9  UNL     1     -25.080 -39.875  12.172  1.00  0.00     0.012 C 
HETATM   17  C10 UNL     1     -23.930 -39.963  11.169  1.00  0.00     0.020 C 
HETATM   18  C11 UNL     1     -24.103 -38.736  10.262  1.00  0.00     0.127 C 
HETATM   19  N3  UNL     1     -25.362 -38.938   9.583  1.00  0.00    -0.333 N 
HETATM   20  C12 UNL     1     -25.363 -39.173   8.186  1.00  0.00     0.332 C 
HETATM   21  C13 UNL     1     -26.553 -38.889  10.385  1.00  0.00     0.136 C 
HETATM   22  O4  UNL     1     -26.489 -39.339   7.651  1.00  0.00    -0.246 OA
HETATM   23  N4  UNL     1     -24.215 -39.234   7.365  1.00  0.00    -0.250 N 
HETATM   24 CL1  UNL     1     -24.412 -39.535   5.659  1.00  0.00     0.015 Cl
ATOM     25  H4  UNL     1     -23.285 -39.105   7.764  1.00  0.00     0.185 HD
ENDBRANCH   1  15
TORSDOF 7
ENDMDL
MODEL 3
REMARK VINA RESULT: -7.415705062      2.214      3.615
REMARK  7 active torsions:
REMARK  status: ('A' for Active; 'I' for Inactive)
REMARK    1  A    between atoms: C2_2  and  C3_3 
REMARK    2  A    between atoms: C3_3  and  C4_4 
REMARK    3  A    between atoms: C4_4  and  S1_5 
REMARK    4  A    between atoms: S1_5  and  N1_8 
REMARK    5  A    between atoms: N1_8  and  O3_10 
REMARK    6  A    between atoms: O3_10  and  C5_11 
REMARK    7  A    between atoms: C5_11  and  C8_15 
REMARK       I    between atoms: N3_19  and  C12_20 
REMARK       I    between atoms: C12_20  and  N4_22 
ROOT
HETATM    1  C5  UNL     1     -26.328 -40.577  13.191  1.00  0.00     0.178 C 
HETATM    2  C6  UNL     1     -26.172 -41.935  13.840  1.00  0.00     0.066 C 
HETATM    3  C7  UNL     1     -27.044 -39.650  14.068  1.00  0.00     0.100 C 
HETATM    4  N2  UNL     1     -27.626 -38.918  14.754  1.00  0.00    -0.194 NA
ENDROOT
BRANCH   1   5
HETATM    5  O3  UNL     1     -27.093 -40.674  12.007  1.00  0.00    -0.244 OA
BRANCH   5   6
HETATM    6  N1  UNL     1     -28.285 -40.124  12.237  1.00  0.00    -0.190 N 
ATOM      7  H1  UNL     1     -28.737 -40.138  13.152  1.00  0.00     0.207 HD
BRANCH   6   8
HETATM    8  S1  UNL     1     -28.991 -39.392  10.861  1.00  0.00     0.248 S 
HETATM    9  O1  UNL     1     -30.426 -39.079  11.173  1.00  0.00    -0.204 OA
HETATM   10  O2  UNL     1     -28.296 -38.101  10.566  1.00  0.00    -0.204 OA
BRANCH   8  11
HETATM   11  C4  UNL     1     -28.883 -40.449   9.422  1.00  0.00     0.165 C 
BRANCH  11  12
HETATM   12  C3  UNL     1     -28.795 -39.544   8.222  1.00  0.00     0.016 C 
BRANCH  12  13
HETATM   13  C2  UNL     1     -27.678 -39.928   7.287  1.00  0.00    -0.004 C 
HETATM   14  C1  UNL     1     -26.371 -39.575   8.008  1.00  0.00     0.005 C 
ENDBRANCH  12  13
ENDBRANCH  11  12
ENDBRANCH   8  11
ENDBRANCH   6   8
ENDBRANCH   5   6
ENDBRANCH   1   5
BRANCH   1  15
HETATM   15  C8  UNL     1     -24.949 -40.055  12.901  1.00  0.00     0.055 C 
HETATM   16  C9  UNL     1     -24.404 -39.455  14.161  1.00  0.00     0.012 C 
HETATM   17  C10 UNL     1     -23.030 -38.818  13.958  1.00  0.00     0.020 C 
HETATM   18  C11 UNL     1     -23.250 -37.734  12.893  1.00  0.00     0.127 C 
HETATM   19  N3  UNL     1     -23.642 -38.445  11.699  1.00  0.00    -0.333 N 
HETATM   20  C12 UNL     1     -22.767 -38.459  10.586  1.00  0.00     0.332 C 
HETATM   21  C13 UNL     1     -24.917 -39.109  11.721  1.00  0.00     0.136 C 
HETATM   22  O4  UNL     1     -23.164 -39.094   9.574  1.00  0.00    -0.246 OA
HETATM   23  N4  UNL     1     -21.506 -37.826  10.527  1.00  0.00    -0.250 N 
HETATM   24 CL1  UNL     1     -20.564 -37.952   9.065  1.00  0.00     0.015 Cl
ATOM     25  H4  UNL     1     -21.151 -37.303  11.328  1.00  0.00     0.185 HD
ENDBRANCH   1  15
TORSDOF 7
ENDMDL
MODEL 4
REMARK VINA RESULT: -7.388152036      4.059      6.543
REMARK  7 active torsions:
REMARK  status: ('A' for Active; 'I' for Inactive)
REMARK    1  A    between atoms: C2_2  and  C3_3 
REMARK    2  A    between atoms: C3_3  and  C4_4 
REMARK    3  A    between atoms: C4_4  and  S1_5 
REMARK    4  A    between atoms: S1_5  and  N1_8 
REMARK    5  A    between atoms: N1_8  and  O3_10 
REMARK    6  A    between atoms: O3_10  and  C5_11 
REMARK    7  A    between atoms: C5_11  and  C8_15 
REMARK       I    between atoms: N3_19  and  C12_20 
REMARK       I    between atoms: C12_20  and  N4_22 
ROOT
HETATM    1  C5  UNL     1     -24.631 -38.849  10.564  1.00  0.00     0.178 C 
HETATM    2  C6  UNL     1     -24.073 -37.857  11.562  1.00  0.00     0.066 C 
HETATM    3  C7  UNL     1     -23.691 -39.946  10.326  1.00  0.00     0.100 C 
HETATM    4  N2  UNL     1     -22.941 -40.808  10.123  1.00  0.00    -0.194 NA
ENDROOT
BRANCH   1   5
HETATM    5  O3  UNL     1     -24.846 -38.233   9.311  1.00  0.00    -0.244 OA
BRANCH   5   6
HETATM    6  N1  UNL     1     -23.720 -38.327   8.604  1.00  0.00    -0.190 N 
ATOM      7  H1  UNL     1     -22.794 -38.355   9.032  1.00  0.00     0.207 HD
BRANCH   6   8
HETATM    8  S1  UNL     1     -23.966 -38.397   6.911  1.00  0.00     0.248 S 
HETATM    9  O1  UNL     1     -24.357 -37.028   6.432  1.00  0.00    -0.204 OA
HETATM   10  O2  UNL     1     -22.688 -38.772   6.232  1.00  0.00    -0.204 OA
BRANCH   8  11
HETATM   11  C4  UNL     1     -25.225 -39.591   6.475  1.00  0.00     0.165 C 
BRANCH  11  12
HETATM   12  C3  UNL     1     -26.288 -38.845   5.715  1.00  0.00     0.016 C 
BRANCH  12  13
HETATM   13  C2  UNL     1     -27.682 -39.272   6.096  1.00  0.00    -0.004 C 
HETATM   14  C1  UNL     1     -27.537 -40.155   7.342  1.00  0.00     0.005 C 
ENDBRANCH  12  13
ENDBRANCH  11  12
ENDBRANCH   8  11
ENDBRANCH   6   8
ENDBRANCH   5   6
ENDBRANCH   1   5
BRANCH   1  15
HETATM   15  C8  UNL     1     -25.916 -39.384  11.130  1.00  0.00     0.055 C 
HETATM   16  C9  UNL     1     -27.039 -38.538  10.615  1.00  0.00     0.012 C 
HETATM   17  C10 UNL     1     -28.392 -38.947  11.194  1.00  0.00     0.020 C 
HETATM   18  C11 UNL     1     -28.239 -38.777  12.713  1.00  0.00     0.127 C 
HETATM   19  N3  UNL     1     -27.229 -39.732  13.104  1.00  0.00    -0.333 N 
HETATM   20  C12 UNL     1     -27.599 -40.837  13.909  1.00  0.00     0.332 C 
HETATM   21  C13 UNL     1     -25.890 -39.497  12.639  1.00  0.00     0.136 C 
HETATM   22  O4  UNL     1     -26.675 -41.633  14.220  1.00  0.00    -0.246 OA
HETATM   23  N4  UNL     1     -28.903 -41.107  14.381  1.00  0.00    -0.250 N 
HETATM   24 CL1  UNL     1     -29.169 -42.521  15.365  1.00  0.00     0.015 Cl
ATOM     25  H4  UNL     1     -29.677 -40.484  14.150  1.00  0.00     0.185 HD
ENDBRANCH   1  15
TORSDOF 7
ENDMDL
MODEL 5
REMARK VINA RESULT: -7.359352527      4.080      6.372
REMARK  7 active torsions:
REMARK  status: ('A' for Active; 'I' for Inactive)
REMARK    1  A    between atoms: C2_2  and  C3_3 
REMARK    2  A    between atoms: C3_3  and  C4_4 
REMARK    3  A    between atoms: C4_4  and  S1_5 
REMARK    4  A    between atoms: S1_5  and  N1_8 
REMARK    5  A    between atoms: N1_8  and  O3_10 
REMARK    6  A    between atoms: O3_10  and  C5_11 
REMARK    7  A    between atoms: C5_11  and  C8_15 
REMARK       I    between atoms: N3_19  and  C12_20 
REMARK       I    between atoms: C12_20  and  N4_22 
ROOT
HETATM    1  C5  UNL     1     -24.021 -38.943  11.614  1.00  0.00     0.178 C 
HETATM    2  C6  UNL     1     -24.103 -37.445  11.411  1.00  0.00     0.066 C 
HETATM    3  C7  UNL     1     -23.101 -39.280  12.702  1.00  0.00     0.100 C 
HETATM    4  N2  UNL     1     -22.359 -39.551  13.552  1.00  0.00    -0.194 NA
ENDROOT
BRANCH   1   5
HETATM    5  O3  UNL     1     -23.516 -39.578  10.457  1.00  0.00    -0.244 OA
BRANCH   5   6
HETATM    6  N1  UNL     1     -23.269 -38.640   9.543  1.00  0.00    -0.190 N 
ATOM      7  H1  UNL     1     -22.690 -37.821   9.728  1.00  0.00     0.207 HD
BRANCH   6   8
HETATM    8  S1  UNL     1     -24.012 -38.932   8.029  1.00  0.00     0.248 S 
HETATM    9  O1  UNL     1     -23.965 -37.664   7.225  1.00  0.00    -0.204 OA
HETATM   10  O2  UNL     1     -23.242 -39.974   7.284  1.00  0.00    -0.204 OA
BRANCH   8  11
HETATM   11  C4  UNL     1     -25.702 -39.486   8.218  1.00  0.00     0.165 C 
BRANCH  11  12
HETATM   12  C3  UNL     1     -26.308 -39.517   6.840  1.00  0.00     0.016 C 
BRANCH  12  13
HETATM   13  C2  UNL     1     -27.800 -39.723   6.866  1.00  0.00    -0.004 C 
HETATM   14  C1  UNL     1     -28.134 -40.281   8.255  1.00  0.00     0.005 C 
ENDBRANCH  12  13
ENDBRANCH  11  12
ENDBRANCH   8  11
ENDBRANCH   6   8
ENDBRANCH   5   6
ENDBRANCH   1   5
BRANCH   1  15
HETATM   15  C8  UNL     1     -25.405 -39.431  11.938  1.00  0.00     0.055 C 
HETATM   16  C9  UNL     1     -26.387 -38.442  11.390  1.00  0.00     0.012 C 
HETATM   17  C10 UNL     1     -27.832 -38.802  11.733  1.00  0.00     0.020 C 
HETATM   18  C11 UNL     1     -27.880 -38.819  13.268  1.00  0.00     0.127 C 
HETATM   19  N3  UNL     1     -26.999 -39.892  13.666  1.00  0.00    -0.333 N 
HETATM   20  C12 UNL     1     -27.549 -41.048  14.273  1.00  0.00     0.332 C 
HETATM   21  C13 UNL     1     -25.596 -39.716  13.411  1.00  0.00     0.136 C 
HETATM   22  O4  UNL     1     -26.732 -41.947  14.599  1.00  0.00    -0.246 OA
HETATM   23  N4  UNL     1     -28.921 -41.261  14.534  1.00  0.00    -0.250 N 
HETATM   24 CL1  UNL     1     -29.415 -42.752  15.293  1.00  0.00     0.015 Cl
ATOM     25  H4  UNL     1     -29.612 -40.554  14.283  1.00  0.00     0.185 HD
ENDBRANCH   1  15
TORSDOF 7
ENDMDL
