MODEL 1
REMARK VINA RESULT: -8.075052607      0.000      0.000
REMARK  8 active torsions:
REMARK  status: ('A' for Active; 'I' for Inactive)
REMARK    1  A    between atoms: C2_2  and  C3_3 
REMARK    2  A    between atoms: C3_3  and  C4_4 
REMARK    3  A    between atoms: C4_4  and  O1_5 
REMARK    4  A    between atoms: O1_5  and  C5_6 
REMARK    5  A    between atoms: C5_6  and  C6_8 
REMARK    6  A    between atoms: C6_8  and  C8_10 
REMARK    7  A    between atoms: N1_13  and  C11_14 
REMARK    8  A    between atoms: C18_24  and  N2_25 
REMARK       I    between atoms: N2_25  and  C19_27 
ROOT
HETATM    1  C4  UNL     1      -2.131  -8.999  19.511  1.00  0.00     0.135 C 
HETATM    2  C10 UNL     1      -0.898  -8.226  19.749  1.00  0.00     0.121 C 
HETATM    3  N1  UNL     1      -0.897  -7.224  20.729  1.00  0.00    -0.274 N 
HETATM    4  S1  UNL     1      -1.812  -7.335  22.077  1.00  0.00     0.265 S 
HETATM    5  O3  UNL     1      -2.650  -6.085  22.281  1.00  0.00    -0.200 OA
HETATM    6  O4  UNL     1      -1.110  -7.607  23.371  1.00  0.00    -0.200 OA
HETATM    7  C15 UNL     1      -2.969  -8.661  21.880  1.00  0.00     0.089 A 
HETATM    8  C16 UNL     1      -3.807  -9.018  22.888  1.00  0.00     0.028 A 
HETATM    9  C17 UNL     1      -4.698 -10.065  22.667  1.00  0.00     0.031 A 
HETATM   10  C18 UNL     1      -4.777 -10.758  21.481  1.00  0.00     0.035 A 
HETATM   11  C21 UNL     1      -3.879 -10.322  20.504  1.00  0.00     0.041 A 
HETATM   12  C22 UNL     1      -2.985  -9.290  20.692  1.00  0.00     0.008 A 
ENDROOT
BRANCH   1  13
HETATM   13  C3  UNL     1      -3.046  -8.387  18.479  1.00  0.00     0.076 C 
BRANCH  13  14
HETATM   14  C2  UNL     1      -2.562  -7.067  18.005  1.00  0.00    -0.033 C 
HETATM   15  C1  UNL     1      -3.124  -5.928  18.390  1.00  0.00     0.007 C 
ENDBRANCH  13  14
ENDBRANCH   1  13
BRANCH   1  16
HETATM   16  O1  UNL     1      -1.744 -10.274  19.035  1.00  0.00    -0.299 OA
BRANCH  16  17
HETATM   17  C5  UNL     1      -1.776 -10.717  17.745  1.00  0.00     0.264 C 
HETATM   18  O2  UNL     1      -1.529  -9.919  16.818  1.00  0.00    -0.265 OA
BRANCH  17  19
HETATM   19  C6  UNL     1      -2.100 -12.132  17.402  1.00  0.00     0.081 C 
HETATM   20  C7  UNL     1      -1.374 -13.110  18.269  1.00  0.00     0.020 C 
BRANCH  19  21
HETATM   21  C8  UNL     1      -3.612 -12.297  17.536  1.00  0.00     0.010 C 
HETATM   22  C9  UNL     1      -4.252 -12.550  16.200  1.00  0.00     0.006 C 
ENDBRANCH  19  21
ENDBRANCH  17  19
ENDBRANCH  16  17
ENDBRANCH   1  16
BRANCH   3  23
HETATM   23  C11 UNL     1       0.354  -6.536  20.784  1.00  0.00     0.036 C 
HETATM   24  C12 UNL     1       0.950  -6.531  19.391  1.00  0.00     0.039 C 
HETATM   25  C13 UNL     1       0.251  -5.108  21.230  1.00  0.00     0.039 C 
HETATM   26  C14 UNL     1       1.361  -7.224  21.694  1.00  0.00     0.039 C 
ENDBRANCH   3  23
BRANCH  10  27
HETATM   27  N2  UNL     1      -5.664 -11.817  21.230  1.00  0.00    -0.327 N 
HETATM   28  C19 UNL     1      -6.229 -12.673  22.147  1.00  0.00     0.218 C 
HETATM   29  C20 UNL     1      -7.172 -13.761  21.663  1.00  0.00     0.117 C 
HETATM   30  O5  UNL     1      -6.060 -12.674  23.381  1.00  0.00    -0.274 OA
ATOM     31  H2  UNL     1      -5.920 -11.969  20.254  1.00  0.00     0.169 HD
ENDBRANCH  10  27
TORSDOF 8
ENDMDL
MODEL 2
REMARK VINA RESULT: -7.414677237      2.555      5.297
REMARK  8 active torsions:
REMARK  status: ('A' for Active; 'I' for Inactive)
REMARK    1  A    between atoms: C2_2  and  C3_3 
REMARK    2  A    between atoms: C3_3  and  C4_4 
REMARK    3  A    between atoms: C4_4  and  O1_5 
REMARK    4  A    between atoms: O1_5  and  C5_6 
REMARK    5  A    between atoms: C5_6  and  C6_8 
REMARK    6  A    between atoms: C6_8  and  C8_10 
REMARK    7  A    between atoms: N1_13  and  C11_14 
REMARK    8  A    between atoms: C18_24  and  N2_25 
REMARK       I    between atoms: N2_25  and  C19_27 
ROOT
HETATM    1  C4  UNL     1      -2.708  -7.410  21.867  1.00  0.00     0.135 C 
HETATM    2  C10 UNL     1      -3.308  -6.164  22.377  1.00  0.00     0.121 C 
HETATM    3  N1  UNL     1      -2.822  -4.932  21.919  1.00  0.00    -0.274 N 
HETATM    4  S1  UNL     1      -2.233  -4.746  20.407  1.00  0.00     0.265 S 
HETATM    5  O3  UNL     1      -0.856  -4.105  20.425  1.00  0.00    -0.200 OA
HETATM    6  O4  UNL     1      -3.063  -3.973  19.430  1.00  0.00    -0.200 OA
HETATM    7  C15 UNL     1      -2.008  -6.343  19.676  1.00  0.00     0.089 A 
HETATM    8  C16 UNL     1      -1.595  -6.475  18.389  1.00  0.00     0.028 A 
HETATM    9  C17 UNL     1      -1.431  -7.759  17.875  1.00  0.00     0.031 A 
HETATM   10  C18 UNL     1      -1.664  -8.903  18.602  1.00  0.00     0.035 A 
HETATM   11  C21 UNL     1      -2.085  -8.671  19.914  1.00  0.00     0.041 A 
HETATM   12  C22 UNL     1      -2.257  -7.413  20.452  1.00  0.00     0.008 A 
ENDROOT
BRANCH   1  13
HETATM   13  C3  UNL     1      -1.531  -7.897  22.677  1.00  0.00     0.076 C 
BRANCH  13  14
HETATM   14  C2  UNL     1      -0.632  -6.792  23.091  1.00  0.00    -0.033 C 
HETATM   15  C1  UNL     1       0.595  -6.660  22.604  1.00  0.00     0.007 C 
ENDBRANCH  13  14
ENDBRANCH   1  13
BRANCH   1  16
HETATM   16  O1  UNL     1      -3.706  -8.412  21.920  1.00  0.00    -0.299 OA
BRANCH  16  17
HETATM   17  C5  UNL     1      -3.972  -9.256  22.958  1.00  0.00     0.264 C 
HETATM   18  O2  UNL     1      -3.936  -8.819  24.126  1.00  0.00    -0.265 OA
BRANCH  17  19
HETATM   19  C6  UNL     1      -4.305 -10.694  22.744  1.00  0.00     0.081 C 
HETATM   20  C7  UNL     1      -5.148 -11.254  23.844  1.00  0.00     0.020 C 
BRANCH  19  21
HETATM   21  C8  UNL     1      -5.020 -10.799  21.399  1.00  0.00     0.010 C 
HETATM   22  C9  UNL     1      -4.191 -11.559  20.401  1.00  0.00     0.006 C 
ENDBRANCH  19  21
ENDBRANCH  17  19
ENDBRANCH  16  17
ENDBRANCH   1  16
BRANCH   3  23
HETATM   23  C11 UNL     1      -3.470  -3.832  22.560  1.00  0.00     0.036 C 
HETATM   24  C12 UNL     1      -3.438  -4.073  24.056  1.00  0.00     0.039 C 
HETATM   25  C13 UNL     1      -2.822  -2.504  22.309  1.00  0.00     0.039 C 
HETATM   26  C14 UNL     1      -4.934  -3.705  22.164  1.00  0.00     0.039 C 
ENDBRANCH   3  23
BRANCH  10  27
HETATM   27  N2  UNL     1      -1.508 -10.209  18.112  1.00  0.00    -0.327 N 
HETATM   28  C19 UNL     1      -2.306 -10.864  17.202  1.00  0.00     0.218 C 
HETATM   29  C20 UNL     1      -1.959 -12.288  16.801  1.00  0.00     0.117 C 
HETATM   30  O5  UNL     1      -3.325 -10.422  16.637  1.00  0.00    -0.274 OA
ATOM     31  H2  UNL     1      -0.711 -10.734  18.472  1.00  0.00     0.169 HD
ENDBRANCH  10  27
TORSDOF 8
ENDMDL
MODEL 3
REMARK VINA RESULT: -7.398277031      2.693      5.447
REMARK  8 active torsions:
REMARK  status: ('A' for Active; 'I' for Inactive)
REMARK    1  A    between atoms: C2_2  and  C3_3 
REMARK    2  A    between atoms: C3_3  and  C4_4 
REMARK    3  A    between atoms: C4_4  and  O1_5 
REMARK    4  A    between atoms: O1_5  and  C5_6 
REMARK    5  A    between atoms: C5_6  and  C6_8 
REMARK    6  A    between atoms: C6_8  and  C8_10 
REMARK    7  A    between atoms: N1_13  and  C11_14 
REMARK    8  A    between atoms: C18_24  and  N2_25 
REMARK       I    between atoms: N2_25  and  C19_27 
ROOT
HETATM    1  C4  UNL     1      -2.422  -7.217  22.643  1.00  0.00     0.135 C 
HETATM    2  C10 UNL     1      -2.512  -6.078  23.574  1.00  0.00     0.121 C 
HETATM    3  N1  UNL     1      -1.850  -4.883  23.261  1.00  0.00    -0.274 N 
HETATM    4  S1  UNL     1      -1.646  -4.390  21.718  1.00  0.00     0.265 S 
HETATM    5  O3  UNL     1      -0.192  -4.057  21.431  1.00  0.00    -0.200 OA
HETATM    6  O4  UNL     1      -2.462  -3.226  21.248  1.00  0.00    -0.200 OA
HETATM    7  C15 UNL     1      -2.055  -5.724  20.628  1.00  0.00     0.089 A 
HETATM    8  C16 UNL     1      -2.041  -5.559  19.279  1.00  0.00     0.028 A 
HETATM    9  C17 UNL     1      -2.368  -6.649  18.476  1.00  0.00     0.031 A 
HETATM   10  C18 UNL     1      -2.702  -7.887  18.976  1.00  0.00     0.035 A 
HETATM   11  C21 UNL     1      -2.690  -7.963  20.371  1.00  0.00     0.041 A 
HETATM   12  C22 UNL     1      -2.372  -6.902  21.192  1.00  0.00     0.008 A 
ENDROOT
BRANCH   1  13
HETATM   13  C3  UNL     1      -1.251  -8.132  22.908  1.00  0.00     0.076 C 
BRANCH  13  14
HETATM   14  C2  UNL     1      -0.401  -7.653  24.027  1.00  0.00    -0.033 C 
HETATM   15  C1  UNL     1      -0.226  -8.362  25.134  1.00  0.00     0.007 C 
ENDBRANCH  13  14
ENDBRANCH   1  13
BRANCH   1  16
HETATM   16  O1  UNL     1      -3.603  -7.982  22.796  1.00  0.00    -0.299 OA
BRANCH  16  17
HETATM   17  C5  UNL     1      -3.796  -9.041  23.634  1.00  0.00     0.264 C 
HETATM   18  O2  UNL     1      -3.683  -8.875  24.865  1.00  0.00    -0.265 OA
BRANCH  17  19
HETATM   19  C6  UNL     1      -4.141 -10.401  23.125  1.00  0.00     0.081 C 
HETATM   20  C7  UNL     1      -5.020 -11.156  24.069  1.00  0.00     0.020 C 
BRANCH  19  21
HETATM   21  C8  UNL     1      -4.819 -10.220  21.770  1.00  0.00     0.010 C 
HETATM   22  C9  UNL     1      -4.432 -11.317  20.818  1.00  0.00     0.006 C 
ENDBRANCH  19  21
ENDBRANCH  17  19
ENDBRANCH  16  17
ENDBRANCH   1  16
BRANCH   3  23
HETATM   23  C11 UNL     1      -1.990  -3.910  24.297  1.00  0.00     0.036 C 
HETATM   24  C12 UNL     1      -1.609  -4.561  25.610  1.00  0.00     0.039 C 
HETATM   25  C13 UNL     1      -1.117  -2.702  24.129  1.00  0.00     0.039 C 
HETATM   26  C14 UNL     1      -3.422  -3.417  24.446  1.00  0.00     0.039 C 
ENDBRANCH   3  23
BRANCH  10  27
HETATM   27  N2  UNL     1      -3.035  -9.004  18.192  1.00  0.00    -0.327 N 
HETATM   28  C19 UNL     1      -2.305 -10.158  18.026  1.00  0.00     0.218 C 
HETATM   29  C20 UNL     1      -2.848 -11.255  17.126  1.00  0.00     0.117 C 
HETATM   30  O5  UNL     1      -1.204 -10.435  18.539  1.00  0.00    -0.274 OA
ATOM     31  H2  UNL     1      -3.920  -8.953  17.688  1.00  0.00     0.169 HD
ENDBRANCH  10  27
TORSDOF 8
ENDMDL
MODEL 4
REMARK VINA RESULT: -7.256536171      0.842      1.121
REMARK  8 active torsions:
REMARK  status: ('A' for Active; 'I' for Inactive)
REMARK    1  A    between atoms: C2_2  and  C3_3 
REMARK    2  A    between atoms: C3_3  and  C4_4 
REMARK    3  A    between atoms: C4_4  and  O1_5 
REMARK    4  A    between atoms: O1_5  and  C5_6 
REMARK    5  A    between atoms: C5_6  and  C6_8 
REMARK    6  A    between atoms: C6_8  and  C8_10 
REMARK    7  A    between atoms: N1_13  and  C11_14 
REMARK    8  A    between atoms: C18_24  and  N2_25 
REMARK       I    between atoms: N2_25  and  C19_27 
ROOT
HETATM    1  C4  UNL     1      -2.075  -8.275  19.770  1.00  0.00     0.135 C 
HETATM    2  C10 UNL     1      -0.867  -7.467  20.017  1.00  0.00     0.121 C 
HETATM    3  N1  UNL     1      -0.866  -6.538  21.067  1.00  0.00    -0.274 N 
HETATM    4  S1  UNL     1      -1.720  -6.786  22.437  1.00  0.00     0.265 S 
HETATM    5  O3  UNL     1      -2.599  -5.592  22.764  1.00  0.00    -0.200 OA
HETATM    6  O4  UNL     1      -0.954  -7.118  23.680  1.00  0.00    -0.200 OA
HETATM    7  C15 UNL     1      -2.828  -8.143  22.188  1.00  0.00     0.089 A 
HETATM    8  C16 UNL     1      -3.608  -8.608  23.198  1.00  0.00     0.028 A 
HETATM    9  C17 UNL     1      -4.463  -9.676  22.936  1.00  0.00     0.031 A 
HETATM   10  C18 UNL     1      -4.563 -10.285  21.706  1.00  0.00     0.035 A 
HETATM   11  C21 UNL     1      -3.724  -9.741  20.730  1.00  0.00     0.041 A 
HETATM   12  C22 UNL     1      -2.867  -8.686  20.958  1.00  0.00     0.008 A 
ENDROOT
BRANCH   1  13
HETATM   13  C3  UNL     1      -3.057  -7.631  18.821  1.00  0.00     0.076 C 
BRANCH  13  14
HETATM   14  C2  UNL     1      -2.580  -6.319  18.318  1.00  0.00    -0.033 C 
HETATM   15  C1  UNL     1      -3.072  -5.170  18.763  1.00  0.00     0.007 C 
ENDBRANCH  13  14
ENDBRANCH   1  13
BRANCH   1  16
HETATM   16  O1  UNL     1      -1.656  -9.494  19.188  1.00  0.00    -0.299 OA
BRANCH  16  17
HETATM   17  C5  UNL     1      -1.846  -9.900  17.900  1.00  0.00     0.264 C 
HETATM   18  O2  UNL     1      -1.407  -9.199  16.966  1.00  0.00    -0.265 OA
BRANCH  17  19
HETATM   19  C6  UNL     1      -2.567 -11.163  17.566  1.00  0.00     0.081 C 
HETATM   20  C7  UNL     1      -2.180 -11.704  16.227  1.00  0.00     0.020 C 
BRANCH  19  21
HETATM   21  C8  UNL     1      -2.259 -12.168  18.673  1.00  0.00     0.010 C 
HETATM   22  C9  UNL     1      -1.242 -13.179  18.222  1.00  0.00     0.006 C 
ENDBRANCH  19  21
ENDBRANCH  17  19
ENDBRANCH  16  17
ENDBRANCH   1  16
BRANCH   3  23
HETATM   23  C11 UNL     1       0.356  -5.801  21.124  1.00  0.00     0.036 C 
HETATM   24  C12 UNL     1       1.036  -5.911  19.775  1.00  0.00     0.039 C 
HETATM   25  C13 UNL     1       0.181  -4.341  21.417  1.00  0.00     0.039 C 
HETATM   26  C14 UNL     1       1.327  -6.357  22.156  1.00  0.00     0.039 C 
ENDBRANCH   3  23
BRANCH  10  27
HETATM   27  N2  UNL     1      -5.415 -11.361  21.411  1.00  0.00    -0.327 N 
HETATM   28  C19 UNL     1      -5.963 -12.262  22.295  1.00  0.00     0.218 C 
HETATM   29  C20 UNL     1      -6.868 -13.362  21.767  1.00  0.00     0.117 C 
HETATM   30  O5  UNL     1      -5.806 -12.297  23.531  1.00  0.00    -0.274 OA
ATOM     31  H2  UNL     1      -5.656 -11.490  20.429  1.00  0.00     0.169 HD
ENDBRANCH  10  27
TORSDOF 8
ENDMDL
MODEL 5
REMARK VINA RESULT: -7.210317949      2.510      5.493
REMARK  8 active torsions:
REMARK  status: ('A' for Active; 'I' for Inactive)
REMARK    1  A    between atoms: C2_2  and  C3_3 
REMARK    2  A    between atoms: C3_3  and  C4_4 
REMARK    3  A    between atoms: C4_4  and  O1_5 
REMARK    4  A    between atoms: O1_5  and  C5_6 
REMARK    5  A    between atoms: C5_6  and  C6_8 
REMARK    6  A    between atoms: C6_8  and  C8_10 
REMARK    7  A    between atoms: N1_13  and  C11_14 
REMARK    8  A    between atoms: C18_24  and  N2_25 
REMARK       I    between atoms: N2_25  and  C19_27 
ROOT
HETATM    1  C4  UNL     1      -1.987  -7.347  22.296  1.00  0.00     0.135 C 
HETATM    2  C10 UNL     1      -2.207  -6.028  22.918  1.00  0.00     0.121 C 
HETATM    3  N1  UNL     1      -1.409  -4.944  22.527  1.00  0.00    -0.274 N 
HETATM    4  S1  UNL     1      -0.825  -4.808  21.008  1.00  0.00     0.265 S 
HETATM    5  O3  UNL     1       0.675  -4.572  21.012  1.00  0.00    -0.200 OA
HETATM    6  O4  UNL     1      -1.430  -3.762  20.124  1.00  0.00    -0.200 OA
HETATM    7  C15 UNL     1      -1.067  -6.342  20.158  1.00  0.00     0.089 A 
HETATM    8  C16 UNL     1      -0.735  -6.480  18.848  1.00  0.00     0.028 A 
HETATM    9  C17 UNL     1      -0.945  -7.714  18.239  1.00  0.00     0.031 A 
HETATM   10  C18 UNL     1      -1.469  -8.805  18.893  1.00  0.00     0.035 A 
HETATM   11  C21 UNL     1      -1.781  -8.570  20.235  1.00  0.00     0.041 A 
HETATM   12  C22 UNL     1      -1.586  -7.361  20.866  1.00  0.00     0.008 A 
ENDROOT
BRANCH   1  13
HETATM   13  C3  UNL     1      -0.974  -8.201  23.019  1.00  0.00     0.076 C 
BRANCH  13  14
HETATM   14  C2  UNL     1      -0.381  -7.507  24.189  1.00  0.00    -0.033 C 
HETATM   15  C1  UNL     1      -0.269  -8.092  25.375  1.00  0.00     0.007 C 
ENDBRANCH  13  14
ENDBRANCH   1  13
BRANCH   1  16
HETATM   16  O1  UNL     1      -3.222  -8.037  22.322  1.00  0.00    -0.299 OA
BRANCH  16  17
HETATM   17  C5  UNL     1      -3.646  -8.933  23.259  1.00  0.00     0.264 C 
HETATM   18  O2  UNL     1      -3.690  -8.590  24.458  1.00  0.00    -0.265 OA
BRANCH  17  19
HETATM   19  C6  UNL     1      -4.062 -10.320  22.898  1.00  0.00     0.081 C 
HETATM   20  C7  UNL     1      -4.965 -10.928  23.921  1.00  0.00     0.020 C 
BRANCH  19  21
HETATM   21  C8  UNL     1      -4.746 -10.248  21.535  1.00  0.00     0.010 C 
HETATM   22  C9  UNL     1      -4.254 -11.335  20.622  1.00  0.00     0.006 C 
ENDBRANCH  19  21
ENDBRANCH  17  19
ENDBRANCH  16  17
ENDBRANCH   1  16
BRANCH   3  23
HETATM   23  C11 UNL     1      -1.714  -3.764  23.271  1.00  0.00     0.036 C 
HETATM   24  C12 UNL     1      -1.816  -4.142  24.734  1.00  0.00     0.039 C 
HETATM   25  C13 UNL     1      -0.680  -2.683  23.161  1.00  0.00     0.039 C 
HETATM   26  C14 UNL     1      -3.051  -3.153  22.878  1.00  0.00     0.039 C 
ENDBRANCH   3  23
BRANCH  10  27
HETATM   27  N2  UNL     1      -1.691 -10.061  18.306  1.00  0.00    -0.327 N 
HETATM   28  C19 UNL     1      -1.887 -10.340  16.973  1.00  0.00     0.218 C 
HETATM   29  C20 UNL     1      -2.112 -11.779  16.542  1.00  0.00     0.117 C 
HETATM   30  O5  UNL     1      -1.905  -9.528  16.028  1.00  0.00    -0.274 OA
ATOM     31  H2  UNL     1      -1.710 -10.858  18.941  1.00  0.00     0.169 HD
ENDBRANCH  10  27
TORSDOF 8
ENDMDL
