MODEL 1
REMARK VINA RESULT: -8.091910741      0.000      0.000
REMARK  11 active torsions:
REMARK  status: ('A' for Active; 'I' for Inactive)
REMARK    1  A    between atoms: S1_2  and  C2_3 
REMARK       I    between atoms: C2_3  and  N1_5 
REMARK    2  A    between atoms: N1_5  and  C3_7 
REMARK    3  A    between atoms: C3_7  and  C4_8 
REMARK    4  A    between atoms: C4_8  and  C5_9 
REMARK    5  A    between atoms: C5_9  and  C6_10 
REMARK    6  A    between atoms: C6_10  and  C7_11 
REMARK    7  A    between atoms: C7_11  and  C8_12 
REMARK    8  A    between atoms: C8_12  and  C9_13 
REMARK    9  A    between atoms: C9_13  and  C10_14 
REMARK   10  A    between atoms: C10_14  and  N2_15 
REMARK   11  A    between atoms: N2_15  and  C11_18 
ROOT
HETATM    1  C7  UNL     1     -47.933 111.790 -39.857  1.00  0.00     0.000 C 
ENDROOT
BRANCH   1   2
HETATM    2  C6  UNL     1     -46.863 111.394 -38.918  1.00  0.00     0.000 C 
BRANCH   2   3
HETATM    3  C5  UNL     1     -45.980 110.378 -39.636  1.00  0.00     0.002 C 
BRANCH   3   4
HETATM    4  C4  UNL     1     -44.685 110.240 -38.856  1.00  0.00     0.020 C 
BRANCH   4   5
HETATM    5  C3  UNL     1     -44.965 110.634 -37.445  1.00  0.00     0.123 C 
BRANCH   5   6
HETATM    6  N1  UNL     1     -43.812 111.125 -36.744  1.00  0.00    -0.352 N 
HETATM    7  C2  UNL     1     -43.951 112.251 -35.889  1.00  0.00     0.279 C 
HETATM    8  O1  UNL     1     -45.082 112.818 -35.745  1.00  0.00    -0.260 OA
ATOM      9  H1  UNL     1     -42.906 110.673 -36.858  1.00  0.00     0.163 HD
BRANCH   7  10
HETATM   10  S1  UNL     1     -42.610 112.955 -34.977  1.00  0.00    -0.074 SA
HETATM   11  C1  UNL     1     -42.701 114.758 -35.061  1.00  0.00     0.100 C 
ENDBRANCH   7  10
ENDBRANCH   5   6
ENDBRANCH   4   5
ENDBRANCH   3   4
ENDBRANCH   2   3
ENDBRANCH   1   2
BRANCH   1  12
HETATM   12  C8  UNL     1     -48.732 112.973 -39.548  1.00  0.00     0.002 C 
BRANCH  12  13
HETATM   13  C9  UNL     1     -49.537 113.530 -40.722  1.00  0.00     0.027 C 
BRANCH  13  14
HETATM   14  C10 UNL     1     -49.980 112.241 -41.460  1.00  0.00     0.232 C 
BRANCH  14  15
HETATM   15  N2  UNL     1     -51.392 112.102 -41.349  1.00  0.00    -0.071 N 
ATOM     16  H22 UNL     1     -51.710 111.279 -41.860  1.00  0.00     0.277 HD
ATOM     17  H21 UNL     1     -51.648 111.829 -40.399  1.00  0.00     0.277 HD
BRANCH  15  18
HETATM   18  C11 UNL     1     -52.128 113.241 -41.746  1.00  0.00     0.185 C 
HETATM   19  C12 UNL     1     -52.626 112.995 -43.193  1.00  0.00     0.033 C 
HETATM   20  C13 UNL     1     -53.686 114.055 -43.325  1.00  0.00     0.002 C 
HETATM   21  C14 UNL     1     -54.432 113.931 -42.014  1.00  0.00     0.002 C 
HETATM   22  C15 UNL     1     -53.363 113.583 -41.011  1.00  0.00     0.033 C 
ENDBRANCH  15  18
ENDBRANCH  14  15
ENDBRANCH  13  14
ENDBRANCH  12  13
ENDBRANCH   1  12
TORSDOF 11
ENDMDL
MODEL 2
REMARK VINA RESULT: -8.031943231      0.807      1.225
REMARK  11 active torsions:
REMARK  status: ('A' for Active; 'I' for Inactive)
REMARK    1  A    between atoms: S1_2  and  C2_3 
REMARK       I    between atoms: C2_3  and  N1_5 
REMARK    2  A    between atoms: N1_5  and  C3_7 
REMARK    3  A    between atoms: C3_7  and  C4_8 
REMARK    4  A    between atoms: C4_8  and  C5_9 
REMARK    5  A    between atoms: C5_9  and  C6_10 
REMARK    6  A    between atoms: C6_10  and  C7_11 
REMARK    7  A    between atoms: C7_11  and  C8_12 
REMARK    8  A    between atoms: C8_12  and  C9_13 
REMARK    9  A    between atoms: C9_13  and  C10_14 
REMARK   10  A    between atoms: C10_14  and  N2_15 
REMARK   11  A    between atoms: N2_15  and  C11_18 
ROOT
HETATM    1  C7  UNL     1     -48.403 111.646 -40.163  1.00  0.00     0.000 C 
ENDROOT
BRANCH   1   2
HETATM    2  C6  UNL     1     -47.053 111.046 -40.190  1.00  0.00     0.000 C 
BRANCH   2   3
HETATM    3  C5  UNL     1     -46.518 111.067 -38.761  1.00  0.00     0.002 C 
BRANCH   3   4
HETATM    4  C4  UNL     1     -45.173 110.364 -38.749  1.00  0.00     0.020 C 
BRANCH   4   5
HETATM    5  C3  UNL     1     -44.670 110.378 -37.344  1.00  0.00     0.123 C 
BRANCH   5   6
HETATM    6  N1  UNL     1     -43.708 111.411 -37.086  1.00  0.00    -0.352 N 
HETATM    7  C2  UNL     1     -44.016 112.424 -36.140  1.00  0.00     0.279 C 
HETATM    8  O1  UNL     1     -45.133 112.417 -35.526  1.00  0.00    -0.260 OA
ATOM      9  H1  UNL     1     -42.814 111.418 -37.577  1.00  0.00     0.163 HD
BRANCH   7  10
HETATM   10  S1  UNL     1     -42.921 113.751 -35.738  1.00  0.00    -0.074 SA
HETATM   11  C1  UNL     1     -42.226 113.488 -34.090  1.00  0.00     0.100 C 
ENDBRANCH   7  10
ENDBRANCH   5   6
ENDBRANCH   4   5
ENDBRANCH   3   4
ENDBRANCH   2   3
ENDBRANCH   1   2
BRANCH   1  12
HETATM   12  C8  UNL     1     -48.592 112.914 -39.461  1.00  0.00     0.002 C 
BRANCH  12  13
HETATM   13  C9  UNL     1     -49.542 113.894 -40.147  1.00  0.00     0.027 C 
BRANCH  13  14
HETATM   14  C10 UNL     1     -50.388 112.959 -41.050  1.00  0.00     0.232 C 
BRANCH  14  15
HETATM   15  N2  UNL     1     -51.758 113.072 -40.683  1.00  0.00    -0.071 N 
ATOM     16  H22 UNL     1     -51.977 112.428 -39.923  1.00  0.00     0.277 HD
ATOM     17  H21 UNL     1     -51.927 113.962 -40.214  1.00  0.00     0.277 HD
BRANCH  15  18
HETATM   18  C11 UNL     1     -52.669 112.898 -41.749  1.00  0.00     0.185 C 
HETATM   19  C12 UNL     1     -53.782 113.965 -41.593  1.00  0.00     0.033 C 
HETATM   20  C13 UNL     1     -54.419 113.929 -42.956  1.00  0.00     0.002 C 
HETATM   21  C14 UNL     1     -53.216 113.917 -43.874  1.00  0.00     0.002 C 
HETATM   22  C15 UNL     1     -52.192 113.099 -43.133  1.00  0.00     0.033 C 
ENDBRANCH  15  18
ENDBRANCH  14  15
ENDBRANCH  13  14
ENDBRANCH  12  13
ENDBRANCH   1  12
TORSDOF 11
ENDMDL
MODEL 3
REMARK VINA RESULT: -7.937147455      4.073      9.334
REMARK  11 active torsions:
REMARK  status: ('A' for Active; 'I' for Inactive)
REMARK    1  A    between atoms: S1_2  and  C2_3 
REMARK       I    between atoms: C2_3  and  N1_5 
REMARK    2  A    between atoms: N1_5  and  C3_7 
REMARK    3  A    between atoms: C3_7  and  C4_8 
REMARK    4  A    between atoms: C4_8  and  C5_9 
REMARK    5  A    between atoms: C5_9  and  C6_10 
REMARK    6  A    between atoms: C6_10  and  C7_11 
REMARK    7  A    between atoms: C7_11  and  C8_12 
REMARK    8  A    between atoms: C8_12  and  C9_13 
REMARK    9  A    between atoms: C9_13  and  C10_14 
REMARK   10  A    between atoms: C10_14  and  N2_15 
REMARK   11  A    between atoms: N2_15  and  C11_18 
ROOT
HETATM    1  C7  UNL     1     -47.217 111.367 -39.142  1.00  0.00     0.000 C 
ENDROOT
BRANCH   1   2
HETATM    2  C6  UNL     1     -48.343 111.714 -40.034  1.00  0.00     0.000 C 
BRANCH   2   3
HETATM    3  C5  UNL     1     -48.797 113.123 -39.667  1.00  0.00     0.002 C 
BRANCH   3   4
HETATM    4  C4  UNL     1     -49.644 113.660 -40.807  1.00  0.00     0.020 C 
BRANCH   4   5
HETATM    5  C3  UNL     1     -50.793 112.726 -40.991  1.00  0.00     0.123 C 
BRANCH   5   6
HETATM    6  N1  UNL     1     -52.061 113.295 -40.630  1.00  0.00    -0.352 N 
HETATM    7  C2  UNL     1     -53.241 112.805 -41.251  1.00  0.00     0.279 C 
HETATM    8  O1  UNL     1     -53.177 111.875 -42.119  1.00  0.00    -0.260 OA
ATOM      9  H1  UNL     1     -52.115 114.040 -39.936  1.00  0.00     0.163 HD
BRANCH   7  10
HETATM   10  S1  UNL     1     -54.859 113.424 -40.898  1.00  0.00    -0.074 SA
HETATM   11  C1  UNL     1     -54.957 113.906 -39.159  1.00  0.00     0.100 C 
ENDBRANCH   7  10
ENDBRANCH   5   6
ENDBRANCH   4   5
ENDBRANCH   3   4
ENDBRANCH   2   3
ENDBRANCH   1   2
BRANCH   1  12
HETATM   12  C8  UNL     1     -46.070 110.658 -39.706  1.00  0.00     0.002 C 
BRANCH  12  13
HETATM   13  C9  UNL     1     -45.096 110.089 -38.676  1.00  0.00     0.027 C 
BRANCH  13  14
HETATM   14  C10 UNL     1     -44.961 111.257 -37.666  1.00  0.00     0.232 C 
BRANCH  14  15
HETATM   15  N2  UNL     1     -44.107 110.856 -36.601  1.00  0.00    -0.071 N 
ATOM     16  H22 UNL     1     -44.657 110.514 -35.814  1.00  0.00     0.277 HD
ATOM     17  H21 UNL     1     -43.607 110.002 -36.850  1.00  0.00     0.277 HD
BRANCH  15  18
HETATM   18  C11 UNL     1     -43.198 111.849 -36.170  1.00  0.00     0.185 C 
HETATM   19  C12 UNL     1     -42.685 112.593 -37.429  1.00  0.00     0.033 C 
HETATM   20  C13 UNL     1     -42.078 113.825 -36.815  1.00  0.00     0.002 C 
HETATM   21  C14 UNL     1     -43.132 114.241 -35.813  1.00  0.00     0.002 C 
HETATM   22  C15 UNL     1     -43.693 112.939 -35.304  1.00  0.00     0.033 C 
ENDBRANCH  15  18
ENDBRANCH  14  15
ENDBRANCH  13  14
ENDBRANCH  12  13
ENDBRANCH   1  12
TORSDOF 11
ENDMDL
MODEL 4
REMARK VINA RESULT: -7.880087990      6.255     10.197
REMARK  11 active torsions:
REMARK  status: ('A' for Active; 'I' for Inactive)
REMARK    1  A    between atoms: S1_2  and  C2_3 
REMARK       I    between atoms: C2_3  and  N1_5 
REMARK    2  A    between atoms: N1_5  and  C3_7 
REMARK    3  A    between atoms: C3_7  and  C4_8 
REMARK    4  A    between atoms: C4_8  and  C5_9 
REMARK    5  A    between atoms: C5_9  and  C6_10 
REMARK    6  A    between atoms: C6_10  and  C7_11 
REMARK    7  A    between atoms: C7_11  and  C8_12 
REMARK    8  A    between atoms: C8_12  and  C9_13 
REMARK    9  A    between atoms: C9_13  and  C10_14 
REMARK   10  A    between atoms: C10_14  and  N2_15 
REMARK   11  A    between atoms: N2_15  and  C11_18 
ROOT
HETATM    1  C7  UNL     1     -54.084 113.954 -40.527  1.00  0.00     0.000 C 
ENDROOT
BRANCH   1   2
HETATM    2  C6  UNL     1     -54.043 115.042 -39.528  1.00  0.00     0.000 C 
BRANCH   2   3
HETATM    3  C5  UNL     1     -54.815 116.223 -40.110  1.00  0.00     0.002 C 
BRANCH   3   4
HETATM    4  C4  UNL     1     -55.814 116.695 -39.069  1.00  0.00     0.020 C 
BRANCH   4   5
HETATM    5  C3  UNL     1     -57.180 116.505 -39.638  1.00  0.00     0.123 C 
BRANCH   5   6
HETATM    6  N1  UNL     1     -57.842 115.322 -39.165  1.00  0.00    -0.352 N 
HETATM    7  C2  UNL     1     -58.063 114.246 -40.065  1.00  0.00     0.279 C 
HETATM    8  O1  UNL     1     -57.680 114.328 -41.277  1.00  0.00    -0.260 OA
ATOM      9  H1  UNL     1     -58.150 115.255 -38.195  1.00  0.00     0.163 HD
BRANCH   7  10
HETATM   10  S1  UNL     1     -58.870 112.742 -39.609  1.00  0.00    -0.074 SA
HETATM   11  C1  UNL     1     -59.729 112.967 -38.034  1.00  0.00     0.100 C 
ENDBRANCH   7  10
ENDBRANCH   5   6
ENDBRANCH   4   5
ENDBRANCH   3   4
ENDBRANCH   2   3
ENDBRANCH   1   2
BRANCH   1  12
HETATM   12  C8  UNL     1     -54.331 114.298 -41.926  1.00  0.00     0.002 C 
BRANCH  12  13
HETATM   13  C9  UNL     1     -53.404 113.614 -42.930  1.00  0.00     0.027 C 
BRANCH  13  14
HETATM   14  C10 UNL     1     -52.380 112.906 -42.006  1.00  0.00     0.232 C 
BRANCH  14  15
HETATM   15  N2  UNL     1     -51.165 112.713 -42.720  1.00  0.00    -0.071 N 
ATOM     16  H22 UNL     1     -51.120 111.765 -43.095  1.00  0.00     0.277 HD
ATOM     17  H21 UNL     1     -51.176 113.246 -43.590  1.00  0.00     0.277 HD
BRANCH  15  18
HETATM   18  C11 UNL     1     -49.996 113.003 -41.981  1.00  0.00     0.185 C 
HETATM   19  C12 UNL     1     -50.436 113.436 -40.560  1.00  0.00     0.033 C 
HETATM   20  C13 UNL     1     -49.141 113.320 -39.802  1.00  0.00     0.002 C 
HETATM   21  C14 UNL     1     -48.605 111.989 -40.281  1.00  0.00     0.002 C 
HETATM   22  C15 UNL     1     -49.027 111.917 -41.725  1.00  0.00     0.033 C 
ENDBRANCH  15  18
ENDBRANCH  14  15
ENDBRANCH  13  14
ENDBRANCH  12  13
ENDBRANCH   1  12
TORSDOF 11
ENDMDL
MODEL 5
REMARK VINA RESULT: -7.858530047      6.176      9.862
REMARK  11 active torsions:
REMARK  status: ('A' for Active; 'I' for Inactive)
REMARK    1  A    between atoms: S1_2  and  C2_3 
REMARK       I    between atoms: C2_3  and  N1_5 
REMARK    2  A    between atoms: N1_5  and  C3_7 
REMARK    3  A    between atoms: C3_7  and  C4_8 
REMARK    4  A    between atoms: C4_8  and  C5_9 
REMARK    5  A    between atoms: C5_9  and  C6_10 
REMARK    6  A    between atoms: C6_10  and  C7_11 
REMARK    7  A    between atoms: C7_11  and  C8_12 
REMARK    8  A    between atoms: C8_12  and  C9_13 
REMARK    9  A    between atoms: C9_13  and  C10_14 
REMARK   10  A    between atoms: C10_14  and  N2_15 
REMARK   11  A    between atoms: N2_15  and  C11_18 
ROOT
HETATM    1  C7  UNL     1     -54.376 114.361 -41.609  1.00  0.00     0.000 C 
ENDROOT
BRANCH   1   2
HETATM    2  C6  UNL     1     -54.200 114.159 -40.156  1.00  0.00     0.000 C 
BRANCH   2   3
HETATM    3  C5  UNL     1     -54.124 115.539 -39.510  1.00  0.00     0.002 C 
BRANCH   3   4
HETATM    4  C4  UNL     1     -55.102 116.452 -40.227  1.00  0.00     0.020 C 
BRANCH   4   5
HETATM    5  C3  UNL     1     -56.245 116.703 -39.302  1.00  0.00     0.123 C 
BRANCH   5   6
HETATM    6  N1  UNL     1     -57.406 115.910 -39.592  1.00  0.00    -0.352 N 
HETATM    7  C2  UNL     1     -57.745 114.838 -38.724  1.00  0.00     0.279 C 
HETATM    8  O1  UNL     1     -57.030 114.582 -37.702  1.00  0.00    -0.260 OA
ATOM      9  H1  UNL     1     -57.980 116.114 -40.410  1.00  0.00     0.163 HD
BRANCH   7  10
HETATM   10  S1  UNL     1     -59.143 113.785 -38.974  1.00  0.00    -0.074 SA
HETATM   11  C1  UNL     1     -58.738 112.519 -40.200  1.00  0.00     0.100 C 
ENDBRANCH   7  10
ENDBRANCH   5   6
ENDBRANCH   4   5
ENDBRANCH   3   4
ENDBRANCH   2   3
ENDBRANCH   1   2
BRANCH   1  12
HETATM   12  C8  UNL     1     -53.847 113.353 -42.525  1.00  0.00     0.002 C 
BRANCH  12  13
HETATM   13  C9  UNL     1     -53.201 113.911 -43.792  1.00  0.00     0.027 C 
BRANCH  13  14
HETATM   14  C10 UNL     1     -51.866 113.125 -43.857  1.00  0.00     0.232 C 
BRANCH  14  15
HETATM   15  N2  UNL     1     -51.588 112.572 -42.576  1.00  0.00    -0.071 N 
ATOM     16  H22 UNL     1     -52.339 112.795 -41.922  1.00  0.00     0.277 HD
ATOM     17  H21 UNL     1     -51.674 111.556 -42.602  1.00  0.00     0.277 HD
BRANCH  15  18
HETATM   18  C11 UNL     1     -50.339 112.946 -42.032  1.00  0.00     0.185 C 
HETATM   19  C12 UNL     1     -50.586 113.429 -40.580  1.00  0.00     0.033 C 
HETATM   20  C13 UNL     1     -49.190 113.403 -40.019  1.00  0.00     0.002 C 
HETATM   21  C14 UNL     1     -48.666 112.074 -40.517  1.00  0.00     0.002 C 
HETATM   22  C15 UNL     1     -49.292 111.915 -41.878  1.00  0.00     0.033 C 
ENDBRANCH  15  18
ENDBRANCH  14  15
ENDBRANCH  13  14
ENDBRANCH  12  13
ENDBRANCH   1  12
TORSDOF 11
ENDMDL
