MODEL 1
REMARK VINA RESULT: -6.787190158      0.000      0.000
REMARK  5 active torsions:
REMARK  status: ('A' for Active; 'I' for Inactive)
REMARK    1  A    between atoms: C2_2  and  C3_3 
REMARK    2  A    between atoms: C3_3  and  N1_4 
REMARK    3  A    between atoms: N1_4  and  C4_6 
REMARK    4  A    between atoms: C5_9  and  N3_10 
REMARK    5  A    between atoms: C6_15  and  C7_16 
ROOT
HETATM    1  C4  UNL     1      -1.175   1.312  82.626  1.00  0.00     0.140 A 
HETATM    2  N2  UNL     1      -1.258   0.601  83.800  1.00  0.00    -0.175 N 
ATOM      3  H2  UNL     1      -1.418  -0.406  83.780  1.00  0.00     0.186 HD
HETATM    4  C5  UNL     1      -1.129   1.239  84.965  1.00  0.00     0.678 A 
HETATM    5  N4  UNL     1      -0.916   2.556  85.019  1.00  0.00    -0.188 N 
ATOM      6  H4  UNL     1      -0.824   2.996  85.935  1.00  0.00     0.184 HD
HETATM    7  C6  UNL     1      -0.815   3.349  83.894  1.00  0.00     0.104 A 
HETATM    8  C13 UNL     1      -0.951   2.706  82.718  1.00  0.00     0.085 A 
HETATM    9 BR1  UNL     1      -1.015   3.719  81.082  1.00  0.00    -0.044 Br
ENDROOT
BRANCH   7  10
HETATM   10  C7  UNL     1      -0.654   4.778  84.123  1.00  0.00     0.110 A 
HETATM   11  O1  UNL     1       0.519   5.374  83.783  1.00  0.00    -0.313 OA
HETATM   12  C8  UNL     1       0.565   6.614  84.036  1.00  0.00     0.050 A 
HETATM   13  C9  UNL     1       1.705   7.583  83.792  1.00  0.00     0.076 C 
HETATM   14  C10 UNL     1      -0.636   6.961  84.591  1.00  0.00     0.042 A 
HETATM   15  C11 UNL     1      -1.401   5.771  84.635  1.00  0.00    -0.023 A 
HETATM   16  C12 UNL     1      -2.816   5.751  85.079  1.00  0.00     0.051 C 
ENDBRANCH   7  10
BRANCH   4  17
HETATM   17  N3  UNL     1      -1.216   0.527  86.065  1.00  0.00    -0.234 N 
ATOM     18  H32 UNL     1      -0.535  -0.203  86.270  1.00  0.00     0.174 HD
ATOM     19  H31 UNL     1      -1.986   0.731  86.703  1.00  0.00     0.174 HD
ENDBRANCH   4  17
BRANCH   1  20
HETATM   20  N1  UNL     1      -1.292   0.718  81.583  1.00  0.00    -0.351 N 
ATOM     21  H1  UNL     1      -2.213   1.029  81.274  1.00  0.00     0.166 HD
BRANCH  20  22
HETATM   22  C3  UNL     1      -0.937  -0.112  80.576  1.00  0.00     0.089 C 
BRANCH  22  23
HETATM   23  C2  UNL     1       0.273  -0.927  80.968  1.00  0.00     0.007 C 
HETATM   24  C1  UNL     1       0.171  -2.197  81.331  1.00  0.00     0.012 C 
ENDBRANCH  22  23
ENDBRANCH  20  22
ENDBRANCH   1  20
TORSDOF 5
ENDMDL
MODEL 2
REMARK VINA RESULT: -6.652918401      3.082      4.520
REMARK  5 active torsions:
REMARK  status: ('A' for Active; 'I' for Inactive)
REMARK    1  A    between atoms: C2_2  and  C3_3 
REMARK    2  A    between atoms: C3_3  and  N1_4 
REMARK    3  A    between atoms: N1_4  and  C4_6 
REMARK    4  A    between atoms: C5_9  and  N3_10 
REMARK    5  A    between atoms: C6_15  and  C7_16 
ROOT
HETATM    1  C4  UNL     1       0.436   3.254  81.750  1.00  0.00     0.140 A 
HETATM    2  N2  UNL     1      -0.203   2.402  80.882  1.00  0.00    -0.175 N 
ATOM      3  H2  UNL     1       0.228   2.158  79.991  1.00  0.00     0.186 HD
HETATM    4  C5  UNL     1      -1.392   1.895  81.215  1.00  0.00     0.678 A 
HETATM    5  N4  UNL     1      -1.978   2.196  82.377  1.00  0.00    -0.188 N 
ATOM      6  H4  UNL     1      -2.887   1.783  82.584  1.00  0.00     0.184 HD
HETATM    7  C6  UNL     1      -1.410   3.039  83.311  1.00  0.00     0.104 A 
HETATM    8  C13 UNL     1      -0.212   3.555  82.972  1.00  0.00     0.085 A 
HETATM    9 BR1  UNL     1       0.603   4.886  84.099  1.00  0.00    -0.044 Br
ENDROOT
BRANCH   7  10
HETATM   10  C7  UNL     1      -2.207   3.323  84.496  1.00  0.00     0.110 A 
HETATM   11  O1  UNL     1      -2.300   2.382  85.471  1.00  0.00    -0.313 OA
HETATM   12  C8  UNL     1      -3.028   2.718  86.451  1.00  0.00     0.050 A 
HETATM   13  C9  UNL     1      -3.352   1.923  87.701  1.00  0.00     0.076 C 
HETATM   14  C10 UNL     1      -3.501   3.976  86.195  1.00  0.00     0.042 A 
HETATM   15  C11 UNL     1      -2.960   4.345  84.939  1.00  0.00    -0.023 A 
HETATM   16  C12 UNL     1      -3.156   5.693  84.353  1.00  0.00     0.051 C 
ENDBRANCH   7  10
BRANCH   4  17
HETATM   17  N3  UNL     1      -1.974   1.086  80.360  1.00  0.00    -0.234 N 
ATOM     18  H32 UNL     1      -2.119   0.103  80.589  1.00  0.00     0.174 HD
ATOM     19  H31 UNL     1      -2.273   1.475  79.466  1.00  0.00     0.174 HD
ENDBRANCH   4  17
BRANCH   1  20
HETATM   20  N1  UNL     1       1.511   3.701  81.433  1.00  0.00    -0.351 N 
ATOM     21  H1  UNL     1       1.241   4.548  80.934  1.00  0.00     0.166 HD
BRANCH  20  22
HETATM   22  C3  UNL     1       2.859   3.753  81.342  1.00  0.00     0.089 C 
BRANCH  22  23
HETATM   23  C2  UNL     1       3.289   3.753  79.894  1.00  0.00     0.007 C 
HETATM   24  C1  UNL     1       4.516   4.098  79.531  1.00  0.00     0.012 C 
ENDBRANCH  22  23
ENDBRANCH  20  22
ENDBRANCH   1  20
TORSDOF 5
ENDMDL
MODEL 3
REMARK VINA RESULT: -6.564114572      2.933      4.579
REMARK  5 active torsions:
REMARK  status: ('A' for Active; 'I' for Inactive)
REMARK    1  A    between atoms: C2_2  and  C3_3 
REMARK    2  A    between atoms: C3_3  and  N1_4 
REMARK    3  A    between atoms: N1_4  and  C4_6 
REMARK    4  A    between atoms: C5_9  and  N3_10 
REMARK    5  A    between atoms: C6_15  and  C7_16 
ROOT
HETATM    1  C4  UNL     1      -1.458   2.905  84.329  1.00  0.00     0.140 A 
HETATM    2  N2  UNL     1      -0.614   2.150  83.549  1.00  0.00    -0.175 N 
ATOM      3  H2  UNL     1      -0.341   1.214  83.845  1.00  0.00     0.186 HD
HETATM    4  C5  UNL     1      -0.155   2.654  82.401  1.00  0.00     0.678 A 
HETATM    5  N4  UNL     1      -0.499   3.876  81.989  1.00  0.00    -0.188 N 
ATOM      6  H4  UNL     1      -0.120   4.215  81.104  1.00  0.00     0.184 HD
HETATM    7  C6  UNL     1      -1.342   4.703  82.704  1.00  0.00     0.104 A 
HETATM    8  C13 UNL     1      -1.801   4.197  83.865  1.00  0.00     0.085 A 
HETATM    9 BR1  UNL     1      -2.836   5.311  85.046  1.00  0.00    -0.044 Br
ENDROOT
BRANCH   7  10
HETATM   10  C7  UNL     1      -1.563   6.034  82.155  1.00  0.00     0.110 A 
HETATM   11  O1  UNL     1      -2.803   6.370  81.716  1.00  0.00    -0.313 OA
HETATM   12  C8  UNL     1      -2.887   7.542  81.243  1.00  0.00     0.050 A 
HETATM   13  C9  UNL     1      -4.104   8.241  80.669  1.00  0.00     0.076 C 
HETATM   14  C10 UNL     1      -1.646   8.109  81.335  1.00  0.00     0.042 A 
HETATM   15  C11 UNL     1      -0.814   7.127  81.924  1.00  0.00    -0.023 A 
HETATM   16  C12 UNL     1       0.598   7.395  82.291  1.00  0.00     0.051 C 
ENDBRANCH   7  10
BRANCH   4  17
HETATM   17  N3  UNL     1       0.651   1.906  81.684  1.00  0.00    -0.234 N 
ATOM     18  H32 UNL     1       0.279   1.194  81.054  1.00  0.00     0.174 HD
ATOM     19  H31 UNL     1       1.654   2.062  81.778  1.00  0.00     0.174 HD
ENDBRANCH   4  17
BRANCH   1  20
HETATM   20  N1  UNL     1      -1.865   2.432  85.362  1.00  0.00    -0.351 N 
ATOM     21  H1  UNL     1      -2.873   2.456  85.213  1.00  0.00     0.166 HD
BRANCH  20  22
HETATM   22  C3  UNL     1      -1.788   1.890  86.598  1.00  0.00     0.089 C 
BRANCH  22  23
HETATM   23  C2  UNL     1      -3.091   2.080  87.338  1.00  0.00     0.007 C 
HETATM   24  C1  UNL     1      -4.205   1.472  86.957  1.00  0.00     0.012 C 
ENDBRANCH  22  23
ENDBRANCH  20  22
ENDBRANCH   1  20
TORSDOF 5
ENDMDL
MODEL 4
REMARK VINA RESULT: -6.501819228      2.621      4.315
REMARK  5 active torsions:
REMARK  status: ('A' for Active; 'I' for Inactive)
REMARK    1  A    between atoms: C2_2  and  C3_3 
REMARK    2  A    between atoms: C3_3  and  N1_4 
REMARK    3  A    between atoms: N1_4  and  C4_6 
REMARK    4  A    between atoms: C5_9  and  N3_10 
REMARK    5  A    between atoms: C6_15  and  C7_16 
ROOT
HETATM    1  C4  UNL     1      -1.123   1.966  83.487  1.00  0.00     0.140 A 
HETATM    2  N2  UNL     1      -1.423   1.121  82.445  1.00  0.00    -0.175 N 
ATOM      3  H2  UNL     1      -1.478   0.115  82.598  1.00  0.00     0.186 HD
HETATM    4  C5  UNL     1      -1.640   1.629  81.230  1.00  0.00     0.678 A 
HETATM    5  N4  UNL     1      -1.577   2.943  81.001  1.00  0.00    -0.188 N 
ATOM      6  H4  UNL     1      -1.751   3.281  80.054  1.00  0.00     0.184 HD
HETATM    7  C6  UNL     1      -1.285   3.866  81.985  1.00  0.00     0.104 A 
HETATM    8  C13 UNL     1      -1.060   3.353  83.211  1.00  0.00     0.085 A 
HETATM    9 BR1  UNL     1      -0.465   4.508  84.631  1.00  0.00    -0.044 Br
ENDROOT
BRANCH   7  10
HETATM   10  C7  UNL     1      -1.182   5.255  81.561  1.00  0.00     0.110 A 
HETATM   11  O1  UNL     1      -2.301   6.025  81.542  1.00  0.00    -0.313 OA
HETATM   12  C8  UNL     1      -2.109   7.211  81.143  1.00  0.00     0.050 A 
HETATM   13  C9  UNL     1      -3.121   8.331  80.997  1.00  0.00     0.076 C 
HETATM   14  C10 UNL     1      -0.778   7.333  80.851  1.00  0.00     0.042 A 
HETATM   15  C11 UNL     1      -0.204   6.069  81.128  1.00  0.00    -0.023 A 
HETATM   16  C12 UNL     1       1.256   5.821  81.036  1.00  0.00     0.051 C 
ENDBRANCH   7  10
BRANCH   4  17
HETATM   17  N3  UNL     1      -1.922   0.792  80.258  1.00  0.00    -0.234 N 
ATOM     18  H32 UNL     1      -2.371  -0.102  80.454  1.00  0.00     0.174 HD
ATOM     19  H31 UNL     1      -1.677   1.068  79.307  1.00  0.00     0.174 HD
ENDBRANCH   4  17
BRANCH   1  20
HETATM   20  N1  UNL     1      -0.931   1.490  84.579  1.00  0.00    -0.351 N 
ATOM     21  H1  UNL     1       0.075   1.615  84.682  1.00  0.00     0.166 HD
BRANCH  20  22
HETATM   22  C3  UNL     1      -1.249   0.889  85.747  1.00  0.00     0.089 C 
BRANCH  22  23
HETATM   23  C2  UNL     1      -2.253   1.721  86.511  1.00  0.00     0.007 C 
HETATM   24  C1  UNL     1      -3.367   1.195  86.998  1.00  0.00     0.012 C 
ENDBRANCH  22  23
ENDBRANCH  20  22
ENDBRANCH   1  20
TORSDOF 5
ENDMDL
MODEL 5
REMARK VINA RESULT: -6.280401312      2.866      4.556
REMARK  5 active torsions:
REMARK  status: ('A' for Active; 'I' for Inactive)
REMARK    1  A    between atoms: C2_2  and  C3_3 
REMARK    2  A    between atoms: C3_3  and  N1_4 
REMARK    3  A    between atoms: N1_4  and  C4_6 
REMARK    4  A    between atoms: C5_9  and  N3_10 
REMARK    5  A    between atoms: C6_15  and  C7_16 
ROOT
HETATM    1  C4  UNL     1      -1.190   1.764  83.834  1.00  0.00     0.140 A 
HETATM    2  N2  UNL     1      -1.165   0.665  83.008  1.00  0.00    -0.175 N 
ATOM      3  H2  UNL     1      -1.196  -0.274  83.402  1.00  0.00     0.186 HD
HETATM    4  C5  UNL     1      -1.099   0.839  81.686  1.00  0.00     0.678 A 
HETATM    5  N4  UNL     1      -1.060   2.058  81.144  1.00  0.00    -0.188 N 
ATOM      6  H4  UNL     1      -1.009   2.137  80.128  1.00  0.00     0.184 HD
HETATM    7  C6  UNL     1      -1.084   3.217  81.893  1.00  0.00     0.104 A 
HETATM    8  C13 UNL     1      -1.145   3.042  83.228  1.00  0.00     0.085 A 
HETATM    9 BR1  UNL     1      -1.000   4.566  84.395  1.00  0.00    -0.044 Br
ENDROOT
BRANCH   7  10
HETATM   10  C7  UNL     1      -0.962   4.467  81.157  1.00  0.00     0.110 A 
HETATM   11  O1  UNL     1      -2.080   5.044  80.645  1.00  0.00    -0.313 OA
HETATM   12  C8  UNL     1      -1.867   6.118  80.009  1.00  0.00     0.050 A 
HETATM   13  C9  UNL     1      -2.871   7.017  79.313  1.00  0.00     0.076 C 
HETATM   14  C10 UNL     1      -0.520   6.355  80.050  1.00  0.00     0.042 A 
HETATM   15  C11 UNL     1       0.039   5.287  80.792  1.00  0.00    -0.023 A 
HETATM   16  C12 UNL     1       1.477   5.234  81.150  1.00  0.00     0.051 C 
ENDBRANCH   7  10
BRANCH   4  17
HETATM   17  N3  UNL     1      -1.074  -0.233  80.929  1.00  0.00    -0.234 N 
ATOM     18  H32 UNL     1      -1.924  -0.771  80.758  1.00  0.00     0.174 HD
ATOM     19  H31 UNL     1      -0.180  -0.507  80.522  1.00  0.00     0.174 HD
ENDBRANCH   4  17
BRANCH   1  20
HETATM   20  N1  UNL     1      -1.252   1.588  85.026  1.00  0.00    -0.351 N 
ATOM     21  H1  UNL     1      -0.383   2.017  85.341  1.00  0.00     0.166 HD
BRANCH  20  22
HETATM   22  C3  UNL     1      -1.782   1.164  86.195  1.00  0.00     0.089 C 
BRANCH  22  23
HETATM   23  C2  UNL     1      -2.960   2.026  86.584  1.00  0.00     0.007 C 
HETATM   24  C1  UNL     1      -4.112   1.499  86.972  1.00  0.00     0.012 C 
ENDBRANCH  22  23
ENDBRANCH  20  22
ENDBRANCH   1  20
TORSDOF 5
ENDMDL
