MODEL 1
REMARK VINA RESULT: -7.652472710      0.000      0.000
REMARK  11 active torsions:
REMARK  status: ('A' for Active; 'I' for Inactive)
REMARK       I    between atoms: N1_2  and  C2_4 
REMARK    1  A    between atoms: C2_4  and  C3_6 
REMARK    2  A    between atoms: C4_7  and  C5_8 
REMARK    3  A    between atoms: C5_8  and  N3_12 
REMARK    4  A    between atoms: C7_15  and  C8_16 
REMARK       I    between atoms: C8_16  and  N4_18 
REMARK    5  A    between atoms: N4_18  and  C9_20 
REMARK    6  A    between atoms: C9_20  and  C10_21 
REMARK    7  A    between atoms: C9_20  and  C12_24 
REMARK       I    between atoms: C12_24  and  N5_26 
REMARK    8  A    between atoms: N5_26  and  C13_28 
REMARK    9  A    between atoms: C13_28  and  C15_30 
REMARK   10  A    between atoms: C17_35  and  C18_36 
REMARK   11  A    between atoms: N8_37  and  O6_39 
ROOT
HETATM    1  C3  UNL     1      -3.856   0.204  28.063  1.00  0.00     0.076 A 
HETATM    2  C4  UNL     1      -3.384   1.006  27.048  1.00  0.00     0.059 A 
HETATM    3  C7  UNL     1      -2.731   2.117  27.616  1.00  0.00     0.118 A 
HETATM    4  N7  UNL     1      -2.813   1.975  28.965  1.00  0.00    -0.344 N 
HETATM    5  C16 UNL     1      -2.274   2.813  30.012  1.00  0.00     0.157 C 
HETATM    6  C17 UNL     1      -3.495   0.823  29.247  1.00  0.00     0.069 A 
ENDROOT
BRANCH   3   7
HETATM    7  C8  UNL     1      -2.072   3.197  26.909  1.00  0.00     0.270 C 
HETATM    8  O2  UNL     1      -2.828   4.185  26.553  1.00  0.00    -0.266 OA
HETATM    9  N4  UNL     1      -0.728   3.315  26.562  1.00  0.00    -0.336 N 
ATOM     10  H4  UNL     1      -0.072   2.576  26.814  1.00  0.00     0.164 HD
BRANCH   9  11
HETATM   11  C9  UNL     1      -0.247   4.506  25.831  1.00  0.00     0.246 C 
BRANCH  11  12
HETATM   12  C10 UNL     1       0.992   5.014  26.430  1.00  0.00     0.154 C 
HETATM   13  C11 UNL     1       0.978   6.268  27.222  1.00  0.00     0.093 C 
HETATM   14  O3  UNL     1       2.032   4.425  26.286  1.00  0.00    -0.296 OA
ENDBRANCH  11  12
BRANCH  11  15
HETATM   15  C12 UNL     1      -0.104   4.177  24.391  1.00  0.00     0.248 C 
HETATM   16  O4  UNL     1       0.170   5.111  23.596  1.00  0.00    -0.271 OA
HETATM   17  N5  UNL     1      -0.257   2.876  23.885  1.00  0.00    -0.346 N 
ATOM     18  H5  UNL     1      -0.480   2.142  24.557  1.00  0.00     0.163 HD
BRANCH  17  19
HETATM   19  C13 UNL     1      -0.130   2.479  22.505  1.00  0.00     0.169 C 
HETATM   20  C14 UNL     1       0.589   1.120  22.414  1.00  0.00     0.042 C 
BRANCH  19  21
HETATM   21  C15 UNL     1      -1.407   2.349  21.806  1.00  0.00     0.253 C 
HETATM   22  N6  UNL     1      -2.591   2.252  22.585  1.00  0.00    -0.060 NA
HETATM   23  O5  UNL     1      -1.537   2.315  20.555  1.00  0.00    -0.275 OA
ENDBRANCH  19  21
ENDBRANCH  17  19
ENDBRANCH  11  15
ENDBRANCH   9  11
ENDBRANCH   3   7
BRANCH   2  24
HETATM   24  C5  UNL     1      -3.496   0.732  25.629  1.00  0.00     0.125 C 
HETATM   25  N2  UNL     1      -2.503   0.257  24.982  1.00  0.00    -0.284 N 
HETATM   26 CL1  UNL     1      -0.976  -0.096  25.686  1.00  0.00     0.012 Cl
ATOM     27  H2  UNL     1      -2.623   0.076  23.985  1.00  0.00     0.182 HD
BRANCH  24  28
HETATM   28  N3  UNL     1      -4.715   0.981  24.964  1.00  0.00    -0.379 N 
HETATM   29  C6  UNL     1      -5.756   1.788  25.598  1.00  0.00     0.147 C 
ATOM     30  H3  UNL     1      -4.871   0.595  24.033  1.00  0.00     0.160 HD
ENDBRANCH  24  28
ENDBRANCH   2  24
BRANCH   1  31
HETATM   31  C2  UNL     1      -4.649  -1.018  27.974  1.00  0.00     0.254 C 
HETATM   32  N1  UNL     1      -4.184  -2.293  27.617  1.00  0.00    -0.361 N 
HETATM   33  C1  UNL     1      -5.094  -3.412  27.575  1.00  0.00     0.149 C 
ATOM     34  H1  UNL     1      -3.200  -2.430  27.386  1.00  0.00     0.162 HD
HETATM   35  O1  UNL     1      -5.905  -0.954  28.238  1.00  0.00    -0.268 OA
ENDBRANCH   1  31
BRANCH   6  36
HETATM   36  C18 UNL     1      -3.849   0.363  30.582  1.00  0.00     0.144 C 
HETATM   37  N8  UNL     1      -3.944  -0.914  30.857  1.00  0.00    -0.278 N 
ATOM     38  H8  UNL     1      -3.770  -1.599  30.121  1.00  0.00     0.193 HD
BRANCH  37  39
HETATM   39  O6  UNL     1      -4.272  -1.348  32.109  1.00  0.00    -0.290 OA
ATOM     40  H6  UNL     1      -3.743  -1.994  32.562  1.00  0.00     0.244 HD
ENDBRANCH  37  39
ENDBRANCH   6  36
TORSDOF 11
ENDMDL
MODEL 2
REMARK VINA RESULT: -7.596410316      1.034      1.391
REMARK  11 active torsions:
REMARK  status: ('A' for Active; 'I' for Inactive)
REMARK       I    between atoms: N1_2  and  C2_4 
REMARK    1  A    between atoms: C2_4  and  C3_6 
REMARK    2  A    between atoms: C4_7  and  C5_8 
REMARK    3  A    between atoms: C5_8  and  N3_12 
REMARK    4  A    between atoms: C7_15  and  C8_16 
REMARK       I    between atoms: C8_16  and  N4_18 
REMARK    5  A    between atoms: N4_18  and  C9_20 
REMARK    6  A    between atoms: C9_20  and  C10_21 
REMARK    7  A    between atoms: C9_20  and  C12_24 
REMARK       I    between atoms: C12_24  and  N5_26 
REMARK    8  A    between atoms: N5_26  and  C13_28 
REMARK    9  A    between atoms: C13_28  and  C15_30 
REMARK   10  A    between atoms: C17_35  and  C18_36 
REMARK   11  A    between atoms: N8_37  and  O6_39 
ROOT
HETATM    1  C3  UNL     1      -3.958   0.275  28.068  1.00  0.00     0.076 A 
HETATM    2  C4  UNL     1      -3.477   1.078  27.057  1.00  0.00     0.059 A 
HETATM    3  C7  UNL     1      -2.792   2.165  27.632  1.00  0.00     0.118 A 
HETATM    4  N7  UNL     1      -2.862   2.008  28.981  1.00  0.00    -0.344 N 
HETATM    5  C16 UNL     1      -2.293   2.819  30.032  1.00  0.00     0.157 C 
HETATM    6  C17 UNL     1      -3.569   0.869  29.255  1.00  0.00     0.069 A 
ENDROOT
BRANCH   3   7
HETATM    7  C8  UNL     1      -2.114   3.238  26.932  1.00  0.00     0.270 C 
HETATM    8  O2  UNL     1      -2.851   4.245  26.590  1.00  0.00    -0.266 OA
HETATM    9  N4  UNL     1      -0.770   3.332  26.579  1.00  0.00    -0.336 N 
ATOM     10  H4  UNL     1      -0.127   2.577  26.820  1.00  0.00     0.164 HD
BRANCH   9  11
HETATM   11  C9  UNL     1      -0.268   4.519  25.856  1.00  0.00     0.246 C 
BRANCH  11  12
HETATM   12  C10 UNL     1       0.968   5.015  26.472  1.00  0.00     0.154 C 
HETATM   13  C11 UNL     1       0.951   6.253  27.288  1.00  0.00     0.093 C 
HETATM   14  O3  UNL     1       2.008   4.427  26.323  1.00  0.00    -0.296 OA
ENDBRANCH  11  12
BRANCH  11  15
HETATM   15  C12 UNL     1      -0.109   4.192  24.418  1.00  0.00     0.248 C 
HETATM   16  O4  UNL     1       0.159   5.129  23.625  1.00  0.00    -0.271 OA
HETATM   17  N5  UNL     1      -0.243   2.889  23.911  1.00  0.00    -0.346 N 
ATOM     18  H5  UNL     1      -0.462   2.153  24.582  1.00  0.00     0.163 HD
BRANCH  17  19
HETATM   19  C13 UNL     1      -0.099   2.493  22.533  1.00  0.00     0.169 C 
HETATM   20  C14 UNL     1       0.629   1.139  22.448  1.00  0.00     0.042 C 
BRANCH  19  21
HETATM   21  C15 UNL     1      -1.369   2.355  21.821  1.00  0.00     0.253 C 
HETATM   22  N6  UNL     1      -2.560   2.260  22.588  1.00  0.00    -0.060 NA
HETATM   23  O5  UNL     1      -1.486   2.313  20.569  1.00  0.00    -0.275 OA
ENDBRANCH  19  21
ENDBRANCH  17  19
ENDBRANCH  11  15
ENDBRANCH   9  11
ENDBRANCH   3   7
BRANCH   2  24
HETATM   24  C5  UNL     1      -3.610   0.825  25.636  1.00  0.00     0.125 C 
HETATM   25  N2  UNL     1      -4.631   1.249  24.997  1.00  0.00    -0.284 N 
HETATM   26 CL1  UNL     1      -5.919   2.129  25.716  1.00  0.00     0.012 Cl
ATOM     27  H2  UNL     1      -4.686   1.052  23.998  1.00  0.00     0.182 HD
BRANCH  24  28
HETATM   28  N3  UNL     1      -2.597   0.117  24.955  1.00  0.00    -0.379 N 
HETATM   29  C6  UNL     1      -1.258  -0.000  25.530  1.00  0.00     0.147 C 
ATOM     30  H3  UNL     1      -2.801  -0.316  24.054  1.00  0.00     0.160 HD
ENDBRANCH  24  28
ENDBRANCH   2  24
BRANCH   1  31
HETATM   31  C2  UNL     1      -4.781  -0.927  27.972  1.00  0.00     0.254 C 
HETATM   32  N1  UNL     1      -4.353  -2.206  27.583  1.00  0.00    -0.361 N 
HETATM   33  C1  UNL     1      -5.289  -3.302  27.538  1.00  0.00     0.149 C 
ATOM     34  H1  UNL     1      -3.377  -2.361  27.331  1.00  0.00     0.162 HD
HETATM   35  O1  UNL     1      -6.029  -0.839  28.261  1.00  0.00    -0.268 OA
ENDBRANCH   1  31
BRANCH   6  36
HETATM   36  C18 UNL     1      -3.920   0.401  30.588  1.00  0.00     0.144 C 
HETATM   37  N8  UNL     1      -3.968  -0.878  30.867  1.00  0.00    -0.278 N 
ATOM     38  H8  UNL     1      -3.759  -1.558  30.136  1.00  0.00     0.193 HD
BRANCH  37  39
HETATM   39  O6  UNL     1      -4.293  -1.319  32.117  1.00  0.00    -0.290 OA
ATOM     40  H6  UNL     1      -3.708  -1.882  32.609  1.00  0.00     0.244 HD
ENDBRANCH  37  39
ENDBRANCH   6  36
TORSDOF 11
ENDMDL
MODEL 3
REMARK VINA RESULT: -7.349061054      2.731      7.642
REMARK  11 active torsions:
REMARK  status: ('A' for Active; 'I' for Inactive)
REMARK       I    between atoms: N1_2  and  C2_4 
REMARK    1  A    between atoms: C2_4  and  C3_6 
REMARK    2  A    between atoms: C4_7  and  C5_8 
REMARK    3  A    between atoms: C5_8  and  N3_12 
REMARK    4  A    between atoms: C7_15  and  C8_16 
REMARK       I    between atoms: C8_16  and  N4_18 
REMARK    5  A    between atoms: N4_18  and  C9_20 
REMARK    6  A    between atoms: C9_20  and  C10_21 
REMARK    7  A    between atoms: C9_20  and  C12_24 
REMARK       I    between atoms: C12_24  and  N5_26 
REMARK    8  A    between atoms: N5_26  and  C13_28 
REMARK    9  A    between atoms: C13_28  and  C15_30 
REMARK   10  A    between atoms: C17_35  and  C18_36 
REMARK   11  A    between atoms: N8_37  and  O6_39 
ROOT
HETATM    1  C3  UNL     1      -1.566   1.732  24.361  1.00  0.00     0.076 A 
HETATM    2  C4  UNL     1      -2.028   1.636  25.656  1.00  0.00     0.059 A 
HETATM    3  C7  UNL     1      -3.169   2.451  25.789  1.00  0.00     0.118 A 
HETATM    4  N7  UNL     1      -3.386   3.027  24.577  1.00  0.00    -0.344 N 
HETATM    5  C16 UNL     1      -4.446   3.916  24.159  1.00  0.00     0.157 C 
HETATM    6  C17 UNL     1      -2.420   2.602  23.708  1.00  0.00     0.069 A 
ENDROOT
BRANCH   3   7
HETATM    7  C8  UNL     1      -3.980   2.628  26.977  1.00  0.00     0.270 C 
HETATM    8  O2  UNL     1      -3.564   3.518  27.819  1.00  0.00    -0.266 OA
HETATM    9  N4  UNL     1      -5.153   1.967  27.335  1.00  0.00    -0.336 N 
ATOM     10  H4  UNL     1      -5.543   1.255  26.717  1.00  0.00     0.164 HD
BRANCH   9  11
HETATM   11  C9  UNL     1      -5.837   2.292  28.604  1.00  0.00     0.246 C 
BRANCH  11  12
HETATM   12  C10 UNL     1      -7.273   2.492  28.380  1.00  0.00     0.154 C 
HETATM   13  C11 UNL     1      -7.758   3.035  27.088  1.00  0.00     0.093 C 
HETATM   14  O3  UNL     1      -8.073   2.223  29.239  1.00  0.00    -0.296 OA
ENDBRANCH  11  12
BRANCH  11  15
HETATM   15  C12 UNL     1      -5.547   1.237  29.605  1.00  0.00     0.248 C 
HETATM   16  O4  UNL     1      -4.772   1.519  30.553  1.00  0.00    -0.271 OA
HETATM   17  N5  UNL     1      -6.100  -0.052  29.540  1.00  0.00    -0.346 N 
ATOM     18  H5  UNL     1      -6.724  -0.247  28.757  1.00  0.00     0.163 HD
BRANCH  17  19
HETATM   19  C13 UNL     1      -5.871  -1.126  30.474  1.00  0.00     0.169 C 
HETATM   20  C14 UNL     1      -6.792  -0.965  31.697  1.00  0.00     0.042 C 
BRANCH  19  21
HETATM   21  C15 UNL     1      -6.109  -2.456  29.917  1.00  0.00     0.253 C 
HETATM   22  N6  UNL     1      -7.018  -2.576  28.832  1.00  0.00    -0.060 NA
HETATM   23  O5  UNL     1      -5.563  -3.513  30.330  1.00  0.00    -0.275 OA
ENDBRANCH  19  21
ENDBRANCH  17  19
ENDBRANCH  11  15
ENDBRANCH   9  11
ENDBRANCH   3   7
BRANCH   2  24
HETATM   24  C5  UNL     1      -1.465   0.801  26.698  1.00  0.00     0.125 C 
HETATM   25  N2  UNL     1      -0.667   1.296  27.562  1.00  0.00    -0.284 N 
HETATM   26 CL1  UNL     1      -0.179   2.943  27.590  1.00  0.00     0.012 Cl
ATOM     27  H2  UNL     1      -0.294   0.675  28.281  1.00  0.00     0.182 HD
BRANCH  24  28
HETATM   28  N3  UNL     1      -1.814  -0.565  26.762  1.00  0.00    -0.379 N 
HETATM   29  C6  UNL     1      -3.037  -0.988  27.442  1.00  0.00     0.147 C 
ATOM     30  H3  UNL     1      -1.208  -1.262  26.331  1.00  0.00     0.160 HD
ENDBRANCH  24  28
ENDBRANCH   2  24
BRANCH   1  31
HETATM   31  C2  UNL     1      -0.380   1.127  23.763  1.00  0.00     0.254 C 
HETATM   32  N1  UNL     1      -0.182  -0.236  23.491  1.00  0.00    -0.361 N 
HETATM   33  C1  UNL     1       1.051  -0.685  22.892  1.00  0.00     0.149 C 
ATOM     34  H1  UNL     1      -0.913  -0.911  23.718  1.00  0.00     0.162 HD
HETATM   35  O1  UNL     1       0.604   1.890  23.447  1.00  0.00    -0.268 OA
ENDBRANCH   1  31
BRANCH   6  36
HETATM   36  C18 UNL     1      -2.272   3.055  22.332  1.00  0.00     0.144 C 
HETATM   37  N8  UNL     1      -1.703   2.299  21.426  1.00  0.00    -0.278 N 
ATOM     38  H8  UNL     1      -1.355   1.378  21.690  1.00  0.00     0.193 HD
BRANCH  37  39
HETATM   39  O6  UNL     1      -1.567   2.720  20.135  1.00  0.00    -0.290 OA
ATOM     40  H6  UNL     1      -1.075   3.504  19.920  1.00  0.00     0.244 HD
ENDBRANCH  37  39
ENDBRANCH   6  36
TORSDOF 11
ENDMDL
MODEL 4
REMARK VINA RESULT: -7.275706829      2.805      6.454
REMARK  11 active torsions:
REMARK  status: ('A' for Active; 'I' for Inactive)
REMARK       I    between atoms: N1_2  and  C2_4 
REMARK    1  A    between atoms: C2_4  and  C3_6 
REMARK    2  A    between atoms: C4_7  and  C5_8 
REMARK    3  A    between atoms: C5_8  and  N3_12 
REMARK    4  A    between atoms: C7_15  and  C8_16 
REMARK       I    between atoms: C8_16  and  N4_18 
REMARK    5  A    between atoms: N4_18  and  C9_20 
REMARK    6  A    between atoms: C9_20  and  C10_21 
REMARK    7  A    between atoms: C9_20  and  C12_24 
REMARK       I    between atoms: C12_24  and  N5_26 
REMARK    8  A    between atoms: N5_26  and  C13_28 
REMARK    9  A    between atoms: C13_28  and  C15_30 
REMARK   10  A    between atoms: C17_35  and  C18_36 
REMARK   11  A    between atoms: N8_37  and  O6_39 
ROOT
HETATM    1  C3  UNL     1      -2.052   1.858  25.614  1.00  0.00     0.076 A 
HETATM    2  C4  UNL     1      -1.589   2.548  26.713  1.00  0.00     0.059 A 
HETATM    3  C7  UNL     1      -0.483   3.328  26.323  1.00  0.00     0.118 A 
HETATM    4  N7  UNL     1      -0.291   3.106  24.996  1.00  0.00    -0.344 N 
HETATM    5  C16 UNL     1       0.681   3.685  24.097  1.00  0.00     0.157 C 
HETATM    6  C17 UNL     1      -1.232   2.215  24.558  1.00  0.00     0.069 A 
ENDROOT
BRANCH   3   7
HETATM    7  C8  UNL     1       0.293   4.221  27.160  1.00  0.00     0.270 C 
HETATM    8  O2  UNL     1       1.437   3.769  27.562  1.00  0.00    -0.266 OA
HETATM    9  N4  UNL     1      -0.027   5.507  27.590  1.00  0.00    -0.336 N 
ATOM     10  H4  UNL     1      -0.912   5.931  27.308  1.00  0.00     0.164 HD
BRANCH   9  11
HETATM   11  C9  UNL     1       0.906   6.262  28.451  1.00  0.00     0.246 C 
BRANCH  11  12
HETATM   12  C10 UNL     1       1.132   7.608  27.912  1.00  0.00     0.154 C 
HETATM   13  C11 UNL     1       2.107   7.819  26.815  1.00  0.00     0.093 C 
HETATM   14  O3  UNL     1       0.533   8.555  28.353  1.00  0.00    -0.296 OA
ENDBRANCH  11  12
BRANCH  11  15
HETATM   15  C12 UNL     1       0.395   6.272  29.843  1.00  0.00     0.248 C 
HETATM   16  O4  UNL     1       1.224   6.422  30.776  1.00  0.00    -0.271 OA
HETATM   17  N5  UNL     1      -0.965   6.125  30.160  1.00  0.00    -0.346 N 
ATOM     18  H5  UNL     1      -1.610   6.004  29.380  1.00  0.00     0.163 HD
BRANCH  17  19
HETATM   19  C13 UNL     1      -1.537   6.128  31.483  1.00  0.00     0.169 C 
HETATM   20  C14 UNL     1      -2.911   6.821  31.461  1.00  0.00     0.042 C 
BRANCH  19  21
HETATM   21  C15 UNL     1      -1.726   4.793  32.049  1.00  0.00     0.253 C 
HETATM   22  N6  UNL     1      -1.536   3.671  31.200  1.00  0.00    -0.060 NA
HETATM   23  O5  UNL     1      -2.049   4.562  33.244  1.00  0.00    -0.275 OA
ENDBRANCH  19  21
ENDBRANCH  17  19
ENDBRANCH  11  15
ENDBRANCH   9  11
ENDBRANCH   3   7
BRANCH   2  24
HETATM   24  C5  UNL     1      -2.168   2.516  28.041  1.00  0.00     0.125 C 
HETATM   25  N2  UNL     1      -3.029   3.391  28.392  1.00  0.00    -0.284 N 
HETATM   26 CL1  UNL     1      -3.580   4.661  27.374  1.00  0.00     0.012 Cl
ATOM     27  H2  UNL     1      -3.415   3.332  29.334  1.00  0.00     0.182 HD
BRANCH  24  28
HETATM   28  N3  UNL     1      -1.785   1.503  28.946  1.00  0.00    -0.379 N 
HETATM   29  C6  UNL     1      -2.766   0.542  29.444  1.00  0.00     0.147 C 
ATOM     30  H3  UNL     1      -0.814   1.442  29.254  1.00  0.00     0.160 HD
ENDBRANCH  24  28
ENDBRANCH   2  24
BRANCH   1  31
HETATM   31  C2  UNL     1      -3.132   0.879  25.534  1.00  0.00     0.254 C 
HETATM   32  N1  UNL     1      -3.075  -0.464  25.935  1.00  0.00    -0.361 N 
HETATM   33  C1  UNL     1      -4.233  -1.313  25.794  1.00  0.00     0.149 C 
ATOM     34  H1  UNL     1      -2.213  -0.842  26.329  1.00  0.00     0.162 HD
HETATM   35  O1  UNL     1      -4.260   1.252  25.045  1.00  0.00    -0.268 OA
ENDBRANCH   1  31
BRANCH   6  36
HETATM   36  C18 UNL     1      -1.310   1.672  23.210  1.00  0.00     0.144 C 
HETATM   37  N8  UNL     1      -1.703   2.410  22.201  1.00  0.00    -0.278 N 
ATOM     38  H8  UNL     1      -1.962   3.383  22.365  1.00  0.00     0.193 HD
BRANCH  37  39
HETATM   39  O6  UNL     1      -1.772   1.904  20.936  1.00  0.00    -0.290 OA
ATOM     40  H6  UNL     1      -1.926   0.979  20.782  1.00  0.00     0.244 HD
ENDBRANCH  37  39
ENDBRANCH   6  36
TORSDOF 11
ENDMDL
MODEL 5
REMARK VINA RESULT: -7.228915522      2.702      7.771
REMARK  11 active torsions:
REMARK  status: ('A' for Active; 'I' for Inactive)
REMARK       I    between atoms: N1_2  and  C2_4 
REMARK    1  A    between atoms: C2_4  and  C3_6 
REMARK    2  A    between atoms: C4_7  and  C5_8 
REMARK    3  A    between atoms: C5_8  and  N3_12 
REMARK    4  A    between atoms: C7_15  and  C8_16 
REMARK       I    between atoms: C8_16  and  N4_18 
REMARK    5  A    between atoms: N4_18  and  C9_20 
REMARK    6  A    between atoms: C9_20  and  C10_21 
REMARK    7  A    between atoms: C9_20  and  C12_24 
REMARK       I    between atoms: C12_24  and  N5_26 
REMARK    8  A    between atoms: N5_26  and  C13_28 
REMARK    9  A    between atoms: C13_28  and  C15_30 
REMARK   10  A    between atoms: C17_35  and  C18_36 
REMARK   11  A    between atoms: N8_37  and  O6_39 
ROOT
HETATM    1  C3  UNL     1      -2.839   3.935  24.594  1.00  0.00     0.076 A 
HETATM    2  C4  UNL     1      -3.319   3.485  25.804  1.00  0.00     0.059 A 
HETATM    3  C7  UNL     1      -2.891   2.156  25.993  1.00  0.00     0.118 A 
HETATM    4  N7  UNL     1      -2.156   1.819  24.899  1.00  0.00    -0.344 N 
HETATM    5  C16 UNL     1      -1.456   0.589  24.606  1.00  0.00     0.157 C 
HETATM    6  C17 UNL     1      -2.122   2.886  24.045  1.00  0.00     0.069 A 
ENDROOT
BRANCH   3   7
HETATM    7  C8  UNL     1      -3.154   1.310  27.139  1.00  0.00     0.270 C 
HETATM    8  O2  UNL     1      -2.314   1.407  28.119  1.00  0.00    -0.266 OA
HETATM    9  N4  UNL     1      -4.195   0.404  27.330  1.00  0.00    -0.336 N 
ATOM     10  H4  UNL     1      -4.898   0.278  26.602  1.00  0.00     0.164 HD
BRANCH   9  11
HETATM   11  C9  UNL     1      -4.287  -0.376  28.582  1.00  0.00     0.246 C 
BRANCH  11  12
HETATM   12  C10 UNL     1      -5.502  -0.020  29.323  1.00  0.00     0.154 C 
HETATM   13  C11 UNL     1      -5.439   0.232  30.783  1.00  0.00     0.093 C 
HETATM   14  O3  UNL     1      -6.563   0.069  28.760  1.00  0.00    -0.296 OA
ENDBRANCH  11  12
BRANCH  11  15
HETATM   15  C12 UNL     1      -4.200  -1.823  28.270  1.00  0.00     0.248 C 
HETATM   16  O4  UNL     1      -3.174  -2.239  27.676  1.00  0.00    -0.271 OA
HETATM   17  N5  UNL     1      -5.208  -2.741  28.610  1.00  0.00    -0.346 N 
ATOM     18  H5  UNL     1      -6.027  -2.369  29.091  1.00  0.00     0.163 HD
BRANCH  17  19
HETATM   19  C13 UNL     1      -5.194  -4.158  28.346  1.00  0.00     0.169 C 
HETATM   20  C14 UNL     1      -5.874  -4.915  29.501  1.00  0.00     0.042 C 
BRANCH  19  21
HETATM   21  C15 UNL     1      -5.877  -4.536  27.110  1.00  0.00     0.253 C 
HETATM   22  N6  UNL     1      -5.992  -5.917  26.803  1.00  0.00    -0.060 NA
HETATM   23  O5  UNL     1      -6.375  -3.721  26.290  1.00  0.00    -0.275 OA
ENDBRANCH  19  21
ENDBRANCH  17  19
ENDBRANCH  11  15
ENDBRANCH   9  11
ENDBRANCH   3   7
BRANCH   2  24
HETATM   24  C5  UNL     1      -4.095   4.260  26.751  1.00  0.00     0.125 C 
HETATM   25  N2  UNL     1      -3.512   4.947  27.655  1.00  0.00    -0.284 N 
HETATM   26 CL1  UNL     1      -1.807   5.029  27.853  1.00  0.00     0.012 Cl
ATOM     27  H2  UNL     1      -4.094   5.481  28.301  1.00  0.00     0.182 HD
BRANCH  24  28
HETATM   28  N3  UNL     1      -5.503   4.263  26.662  1.00  0.00    -0.379 N 
HETATM   29  C6  UNL     1      -6.303   3.379  27.507  1.00  0.00     0.147 C 
ATOM     30  H3  UNL     1      -5.966   4.888  26.002  1.00  0.00     0.160 HD
ENDBRANCH  24  28
ENDBRANCH   2  24
BRANCH   1  31
HETATM   31  C2  UNL     1      -3.070   5.217  23.935  1.00  0.00     0.254 C 
HETATM   32  N1  UNL     1      -4.044   5.496  22.964  1.00  0.00    -0.361 N 
HETATM   33  C1  UNL     1      -4.151   6.821  22.404  1.00  0.00     0.149 C 
ATOM     34  H1  UNL     1      -4.679   4.760  22.654  1.00  0.00     0.162 HD
HETATM   35  O1  UNL     1      -2.318   6.210  24.249  1.00  0.00    -0.268 OA
ENDBRANCH   1  31
BRANCH   6  36
HETATM   36  C18 UNL     1      -1.493   2.890  22.732  1.00  0.00     0.144 C 
HETATM   37  N8  UNL     1      -2.049   2.285  21.712  1.00  0.00    -0.278 N 
ATOM     38  H8  UNL     1      -2.936   1.799  21.841  1.00  0.00     0.193 HD
BRANCH  37  39
HETATM   39  O6  UNL     1      -1.463   2.291  20.479  1.00  0.00    -0.290 OA
ATOM     40  H6  UNL     1      -1.840   1.811  19.751  1.00  0.00     0.244 HD
ENDBRANCH  37  39
ENDBRANCH   6  36
TORSDOF 11
ENDMDL
