MODEL 1
REMARK VINA RESULT: -9.773366961      0.000      0.000
REMARK  14 active torsions:
REMARK  status: ('A' for Active; 'I' for Inactive)
REMARK    1  A    between atoms: C4_4  and  C5_5 
REMARK    2  A    between atoms: C5_5  and  C6_6 
REMARK    3  A    between atoms: C6_6  and  C7_7 
REMARK    4  A    between atoms: C7_7  and  C8_8 
REMARK       I    between atoms: C8_8  and  N1_10 
REMARK    5  A    between atoms: N1_10  and  C9_12 
REMARK    6  A    between atoms: C10_17  and  C11_18 
REMARK    7  A    between atoms: C11_18  and  C12_19 
REMARK    8  A    between atoms: C12_19  and  C13_20 
REMARK    9  A    between atoms: C13_20  and  C14_21 
REMARK   10  A    between atoms: C14_21  and  C15_22 
REMARK       I    between atoms: N6_28  and  C17_30 
REMARK   11  A    between atoms: C17_30  and  C18_32 
REMARK   12  A    between atoms: C18_32  and  C19_33 
REMARK   13  A    between atoms: C27_44  and  C28_45 
REMARK   14  A    between atoms: C28_45  and  N8_46 
ROOT
HETATM    1  C9  UNL     1      19.370  22.937  19.778  1.00  0.00     0.167 A 
HETATM    2  N2  UNL     1      18.650  24.030  20.054  1.00  0.00    -0.279 N 
ATOM      3  H2  UNL     1      17.631  24.000  20.032  1.00  0.00     0.189 HD
HETATM    4  N3  UNL     1      19.260  25.106  20.344  1.00  0.00    -0.296 N 
ATOM      5  H3  UNL     1      18.727  25.948  20.557  1.00  0.00     0.187 HD
HETATM    6  C10 UNL     1      20.580  25.140  20.372  1.00  0.00     0.069 A 
HETATM    7  S1  UNL     1      20.966  23.521  19.954  1.00  0.00    -0.038 SA
ENDROOT
BRANCH   6   8
HETATM    8  C11 UNL     1      21.500  26.292  20.687  1.00  0.00     0.066 C 
BRANCH   8   9
HETATM    9  C12 UNL     1      22.237  26.598  19.401  1.00  0.00     0.007 C 
BRANCH   9  10
HETATM   10  C13 UNL     1      21.408  27.367  18.421  1.00  0.00     0.008 C 
BRANCH  10  11
HETATM   11  C14 UNL     1      21.778  26.988  17.010  1.00  0.00     0.078 C 
BRANCH  11  12
HETATM   12  C15 UNL     1      20.525  26.444  16.389  1.00  0.00     0.100 A 
HETATM   13  N4  UNL     1      19.904  25.366  16.912  1.00  0.00    -0.287 N 
HETATM   14  N5  UNL     1      18.795  24.843  16.409  1.00  0.00    -0.280 N 
ATOM     15  H4  UNL     1      20.310  24.930  17.740  1.00  0.00     0.188 HD
HETATM   16  C16 UNL     1      18.206  25.367  15.319  1.00  0.00     0.192 A 
ATOM     17  H5  UNL     1      18.380  24.026  16.856  1.00  0.00     0.189 HD
HETATM   18  N6  UNL     1      17.125  24.907  14.787  1.00  0.00    -0.307 N 
HETATM   19  C23 UNL     1      18.824  26.470  14.767  1.00  0.00     0.294 A 
HETATM   20  C17 UNL     1      16.484  23.780  15.355  1.00  0.00     0.224 C 
ATOM     21  H6  UNL     1      16.733  25.355  13.960  1.00  0.00     0.170 HD
HETATM   22  O2  UNL     1      15.913  23.926  16.465  1.00  0.00    -0.273 OA
HETATM   23  O3  UNL     1      18.326  27.006  13.750  1.00  0.00    -0.264 OA
HETATM   24  N7  UNL     1      19.967  26.998  15.298  1.00  0.00    -0.304 N 
HETATM   25  C24 UNL     1      20.584  28.146  14.685  1.00  0.00     0.161 C 
BRANCH  20  26
HETATM   26  C18 UNL     1      16.463  22.455  14.696  1.00  0.00     0.111 C 
BRANCH  26  27
HETATM   27  C19 UNL     1      15.052  22.248  14.148  1.00  0.00    -0.043 C 
HETATM   28  C20 UNL     1      14.188  23.451  14.540  1.00  0.00     0.015 C 
HETATM   29  C21 UNL     1      15.067  22.099  12.638  1.00  0.00     0.015 C 
HETATM   30  C22 UNL     1      14.498  21.011  14.823  1.00  0.00     0.015 C 
ENDBRANCH  26  27
ENDBRANCH  20  26
ENDBRANCH  11  12
ENDBRANCH  10  11
ENDBRANCH   9  10
ENDBRANCH   8   9
ENDBRANCH   6   8
BRANCH   1  31
HETATM   31  N1  UNL     1      18.945  21.734  19.457  1.00  0.00    -0.306 N 
HETATM   32  C8  UNL     1      18.295  21.645  18.198  1.00  0.00     0.223 C 
HETATM   33  O1  UNL     1      18.874  22.158  17.209  1.00  0.00    -0.273 OA
ATOM     34  H1  UNL     1      19.071  20.926  20.066  1.00  0.00     0.171 HD
BRANCH  32  35
HETATM   35  C7  UNL     1      16.985  20.958  18.129  1.00  0.00     0.103 C 
BRANCH  35  36
HETATM   36  C6  UNL     1      15.958  21.743  18.926  1.00  0.00     0.014 C 
BRANCH  36  37
HETATM   37  C5  UNL     1      15.300  20.866  19.936  1.00  0.00     0.039 C 
BRANCH  37  38
HETATM   38  C4  UNL     1      14.181  20.055  19.428  1.00  0.00    -0.058 A 
HETATM   39  C3  UNL     1      13.719  18.915  20.048  1.00  0.00     0.014 A 
HETATM   40  C2  UNL     1      12.676  18.178  19.558  1.00  0.00    -0.053 A 
HETATM   41  C1  UNL     1      12.251  16.968  20.297  1.00  0.00     0.049 C 
HETATM   42  C27 UNL     1      12.023  18.549  18.392  1.00  0.00    -0.028 A 
HETATM   43  C26 UNL     1      12.467  19.683  17.756  1.00  0.00     0.010 A 
HETATM   44  C25 UNL     1      13.532  20.423  18.271  1.00  0.00     0.007 A 
BRANCH  42  45
HETATM   45  C28 UNL     1      10.912  17.744  17.873  1.00  0.00     0.240 C 
BRANCH  45  46
HETATM   46  N8  UNL     1      11.261  16.994  16.711  1.00  0.00    -0.151 N 
HETATM   47  O4  UNL     1      11.973  15.977  16.856  1.00  0.00    -0.536 OA
HETATM   48  O5  UNL     1      10.867  17.314  15.445  1.00  0.00    -0.536 OA
ENDBRANCH  45  46
ENDBRANCH  42  45
ENDBRANCH  37  38
ENDBRANCH  36  37
ENDBRANCH  35  36
ENDBRANCH  32  35
ENDBRANCH   1  31
TORSDOF 14
ENDMDL
MODEL 2
REMARK VINA RESULT: -9.752904695      3.177     10.194
REMARK  14 active torsions:
REMARK  status: ('A' for Active; 'I' for Inactive)
REMARK    1  A    between atoms: C4_4  and  C5_5 
REMARK    2  A    between atoms: C5_5  and  C6_6 
REMARK    3  A    between atoms: C6_6  and  C7_7 
REMARK    4  A    between atoms: C7_7  and  C8_8 
REMARK       I    between atoms: C8_8  and  N1_10 
REMARK    5  A    between atoms: N1_10  and  C9_12 
REMARK    6  A    between atoms: C10_17  and  C11_18 
REMARK    7  A    between atoms: C11_18  and  C12_19 
REMARK    8  A    between atoms: C12_19  and  C13_20 
REMARK    9  A    between atoms: C13_20  and  C14_21 
REMARK   10  A    between atoms: C14_21  and  C15_22 
REMARK       I    between atoms: N6_28  and  C17_30 
REMARK   11  A    between atoms: C17_30  and  C18_32 
REMARK   12  A    between atoms: C18_32  and  C19_33 
REMARK   13  A    between atoms: C27_44  and  C28_45 
REMARK   14  A    between atoms: C28_45  and  N8_46 
ROOT
HETATM    1  C9  UNL     1      14.641  22.310  14.017  1.00  0.00     0.167 A 
HETATM    2  N2  UNL     1      13.860  23.118  14.742  1.00  0.00    -0.279 N 
ATOM      3  H2  UNL     1      14.238  23.966  15.163  1.00  0.00     0.189 HD
HETATM    4  N3  UNL     1      12.638  22.807  14.897  1.00  0.00    -0.296 N 
ATOM      5  H3  UNL     1      12.028  23.411  15.447  1.00  0.00     0.187 HD
HETATM    6  C10 UNL     1      12.153  21.706  14.351  1.00  0.00     0.069 A 
HETATM    7  S1  UNL     1      13.544  21.081  13.565  1.00  0.00    -0.038 SA
ENDROOT
BRANCH   6   8
HETATM    8  C11 UNL     1      10.752  21.151  14.403  1.00  0.00     0.066 C 
BRANCH   8   9
HETATM    9  C12 UNL     1      10.831  19.909  15.267  1.00  0.00     0.007 C 
BRANCH   9  10
HETATM   10  C13 UNL     1      11.027  20.218  16.717  1.00  0.00     0.008 C 
BRANCH  10  11
HETATM   11  C14 UNL     1      11.807  19.116  17.387  1.00  0.00     0.078 C 
BRANCH  11  12
HETATM   12  C15 UNL     1      13.003  19.777  18.006  1.00  0.00     0.100 A 
HETATM   13  N4  UNL     1      13.790  20.602  17.284  1.00  0.00    -0.287 N 
HETATM   14  N5  UNL     1      14.857  21.215  17.777  1.00  0.00    -0.280 N 
ATOM     15  H4  UNL     1      13.551  20.762  16.306  1.00  0.00     0.188 HD
HETATM   16  C16 UNL     1      15.230  21.049  19.058  1.00  0.00     0.192 A 
ATOM     17  H5  UNL     1      15.407  21.825  17.172  1.00  0.00     0.189 HD
HETATM   18  N6  UNL     1      16.252  21.621  19.596  1.00  0.00    -0.307 N 
HETATM   19  C23 UNL     1      14.439  20.209  19.816  1.00  0.00     0.294 A 
HETATM   20  C17 UNL     1      17.061  22.489  18.824  1.00  0.00     0.224 C 
ATOM     21  H6  UNL     1      16.477  21.449  20.576  1.00  0.00     0.170 HD
HETATM   22  O2  UNL     1      16.578  23.598  18.488  1.00  0.00    -0.273 OA
HETATM   23  O3  UNL     1      14.732  20.011  21.018  1.00  0.00    -0.264 OA
HETATM   24  N7  UNL     1      13.342  19.584  19.293  1.00  0.00    -0.304 N 
HETATM   25  C24 UNL     1      12.549  18.710  20.117  1.00  0.00     0.161 C 
BRANCH  20  26
HETATM   26  C18 UNL     1      18.438  22.139  18.407  1.00  0.00     0.111 C 
BRANCH  26  27
HETATM   27  C19 UNL     1      19.390  22.784  19.412  1.00  0.00    -0.043 C 
HETATM   28  C20 UNL     1      20.518  23.483  18.646  1.00  0.00     0.015 C 
HETATM   29  C21 UNL     1      18.666  23.790  20.286  1.00  0.00     0.015 C 
HETATM   30  C22 UNL     1      19.986  21.661  20.234  1.00  0.00     0.015 C 
ENDBRANCH  26  27
ENDBRANCH  20  26
ENDBRANCH  11  12
ENDBRANCH  10  11
ENDBRANCH   9  10
ENDBRANCH   8   9
ENDBRANCH   6   8
BRANCH   1  31
HETATM   31  N1  UNL     1      15.920  22.442  13.736  1.00  0.00    -0.306 N 
HETATM   32  C8  UNL     1      16.793  22.326  14.849  1.00  0.00     0.223 C 
HETATM   33  O1  UNL     1      16.637  21.340  15.610  1.00  0.00    -0.273 OA
ATOM     34  H1  UNL     1      16.259  22.615  12.789  1.00  0.00     0.171 HD
BRANCH  32  35
HETATM   35  C7  UNL     1      17.828  23.368  15.043  1.00  0.00     0.103 C 
BRANCH  35  36
HETATM   36  C6  UNL     1      17.168  24.663  15.482  1.00  0.00     0.014 C 
BRANCH  36  37
HETATM   37  C5  UNL     1      17.654  25.804  14.655  1.00  0.00     0.039 C 
BRANCH  37  38
HETATM   38  C4  UNL     1      18.933  26.392  15.089  1.00  0.00    -0.058 A 
HETATM   39  C3  UNL     1      19.769  27.102  14.257  1.00  0.00     0.014 A 
HETATM   40  C2  UNL     1      20.953  27.642  14.683  1.00  0.00    -0.053 A 
HETATM   41  C1  UNL     1      21.783  28.389  13.713  1.00  0.00     0.049 C 
HETATM   42  C27 UNL     1      21.374  27.496  15.996  1.00  0.00    -0.028 A 
HETATM   43  C26 UNL     1      20.555  26.790  16.845  1.00  0.00     0.010 A 
HETATM   44  C25 UNL     1      19.351  26.248  16.393  1.00  0.00     0.007 A 
BRANCH  42  45
HETATM   45  C28 UNL     1      22.648  28.071  16.437  1.00  0.00     0.240 C 
BRANCH  45  46
HETATM   46  N8  UNL     1      23.695  27.106  16.530  1.00  0.00    -0.151 N 
HETATM   47  O4  UNL     1      24.040  26.717  17.666  1.00  0.00    -0.536 OA
HETATM   48  O5  UNL     1      24.347  26.576  15.455  1.00  0.00    -0.536 OA
ENDBRANCH  45  46
ENDBRANCH  42  45
ENDBRANCH  37  38
ENDBRANCH  36  37
ENDBRANCH  35  36
ENDBRANCH  32  35
ENDBRANCH   1  31
TORSDOF 14
ENDMDL
MODEL 3
REMARK VINA RESULT: -9.394527264      2.491      7.062
REMARK  14 active torsions:
REMARK  status: ('A' for Active; 'I' for Inactive)
REMARK    1  A    between atoms: C4_4  and  C5_5 
REMARK    2  A    between atoms: C5_5  and  C6_6 
REMARK    3  A    between atoms: C6_6  and  C7_7 
REMARK    4  A    between atoms: C7_7  and  C8_8 
REMARK       I    between atoms: C8_8  and  N1_10 
REMARK    5  A    between atoms: N1_10  and  C9_12 
REMARK    6  A    between atoms: C10_17  and  C11_18 
REMARK    7  A    between atoms: C11_18  and  C12_19 
REMARK    8  A    between atoms: C12_19  and  C13_20 
REMARK    9  A    between atoms: C13_20  and  C14_21 
REMARK   10  A    between atoms: C14_21  and  C15_22 
REMARK       I    between atoms: N6_28  and  C17_30 
REMARK   11  A    between atoms: C17_30  and  C18_32 
REMARK   12  A    between atoms: C18_32  and  C19_33 
REMARK   13  A    between atoms: C27_44  and  C28_45 
REMARK   14  A    between atoms: C28_45  and  N8_46 
ROOT
HETATM    1  C9  UNL     1      12.675  20.114  15.642  1.00  0.00     0.167 A 
HETATM    2  N2  UNL     1      12.869  21.256  16.312  1.00  0.00    -0.279 N 
ATOM      3  H2  UNL     1      12.467  21.389  17.239  1.00  0.00     0.189 HD
HETATM    4  N3  UNL     1      13.564  22.171  15.770  1.00  0.00    -0.296 N 
ATOM      5  H3  UNL     1      13.722  23.047  16.266  1.00  0.00     0.187 HD
HETATM    6  C10 UNL     1      14.082  21.994  14.568  1.00  0.00     0.069 A 
HETATM    7  S1  UNL     1      13.536  20.411  14.196  1.00  0.00    -0.038 SA
ENDROOT
BRANCH   6   8
HETATM    8  C11 UNL     1      14.930  22.932  13.745  1.00  0.00     0.066 C 
BRANCH   8   9
HETATM    9  C12 UNL     1      16.360  22.469  13.931  1.00  0.00     0.007 C 
BRANCH   9  10
HETATM   10  C13 UNL     1      17.052  23.154  15.067  1.00  0.00     0.008 C 
BRANCH  10  11
HETATM   11  C14 UNL     1      17.444  24.555  14.674  1.00  0.00     0.078 C 
BRANCH  11  12
HETATM   12  C15 UNL     1      18.491  24.981  15.661  1.00  0.00     0.100 A 
HETATM   13  N4  UNL     1      18.750  24.241  16.759  1.00  0.00    -0.287 N 
HETATM   14  N5  UNL     1      19.664  24.565  17.663  1.00  0.00    -0.280 N 
ATOM     15  H4  UNL     1      18.213  23.386  16.901  1.00  0.00     0.188 HD
HETATM   16  C16 UNL     1      20.408  25.678  17.537  1.00  0.00     0.192 A 
ATOM     17  H5  UNL     1      19.806  23.958  18.470  1.00  0.00     0.189 HD
HETATM   18  N6  UNL     1      21.315  26.043  18.378  1.00  0.00    -0.307 N 
HETATM   19  C23 UNL     1      20.160  26.451  16.421  1.00  0.00     0.294 A 
HETATM   20  C17 UNL     1      21.577  25.250  19.520  1.00  0.00     0.224 C 
ATOM     21  H6  UNL     1      21.842  26.901  18.220  1.00  0.00     0.170 HD
HETATM   22  O2  UNL     1      22.139  24.140  19.348  1.00  0.00    -0.273 OA
HETATM   23  O3  UNL     1      20.818  27.502  16.245  1.00  0.00    -0.264 OA
HETATM   24  N7  UNL     1      19.214  26.102  15.498  1.00  0.00    -0.304 N 
HETATM   25  C24 UNL     1      18.983  26.942  14.351  1.00  0.00     0.161 C 
BRANCH  20  26
HETATM   26  C18 UNL     1      21.217  25.677  20.891  1.00  0.00     0.111 C 
BRANCH  26  27
HETATM   27  C19 UNL     1      22.062  26.908  21.215  1.00  0.00    -0.043 C 
HETATM   28  C20 UNL     1      23.543  26.540  21.078  1.00  0.00     0.015 C 
HETATM   29  C21 UNL     1      21.733  28.060  20.284  1.00  0.00     0.015 C 
HETATM   30  C22 UNL     1      21.782  27.264  22.659  1.00  0.00     0.015 C 
ENDBRANCH  26  27
ENDBRANCH  20  26
ENDBRANCH  11  12
ENDBRANCH  10  11
ENDBRANCH   9  10
ENDBRANCH   8   9
ENDBRANCH   6   8
BRANCH   1  31
HETATM   31  N1  UNL     1      11.996  19.050  16.014  1.00  0.00    -0.306 N 
HETATM   32  C8  UNL     1      11.135  19.248  17.125  1.00  0.00     0.223 C 
HETATM   33  O1  UNL     1      10.367  20.241  17.095  1.00  0.00    -0.273 OA
ATOM     34  H1  UNL     1      12.081  18.151  15.540  1.00  0.00     0.171 HD
BRANCH  32  35
HETATM   35  C7  UNL     1      11.195  18.279  18.244  1.00  0.00     0.103 C 
BRANCH  35  36
HETATM   36  C6  UNL     1      12.381  17.350  18.046  1.00  0.00     0.014 C 
BRANCH  36  37
HETATM   37  C5  UNL     1      13.353  17.500  19.166  1.00  0.00     0.039 C 
BRANCH  37  38
HETATM   38  C4  UNL     1      14.184  18.714  19.115  1.00  0.00    -0.058 A 
HETATM   39  C3  UNL     1      15.027  19.022  18.070  1.00  0.00     0.014 A 
HETATM   40  C2  UNL     1      15.789  20.158  18.044  1.00  0.00    -0.053 A 
HETATM   41  C1  UNL     1      16.664  20.401  16.875  1.00  0.00     0.049 C 
HETATM   42  C27 UNL     1      15.750  21.070  19.087  1.00  0.00    -0.028 A 
HETATM   43  C26 UNL     1      14.916  20.784  20.142  1.00  0.00     0.010 A 
HETATM   44  C25 UNL     1      14.145  19.621  20.151  1.00  0.00     0.007 A 
BRANCH  42  45
HETATM   45  C28 UNL     1      16.579  22.279  19.051  1.00  0.00     0.240 C 
BRANCH  45  46
HETATM   46  N8  UNL     1      15.896  23.409  18.509  1.00  0.00    -0.151 N 
HETATM   47  O4  UNL     1      16.516  24.492  18.433  1.00  0.00    -0.536 OA
HETATM   48  O5  UNL     1      14.606  23.386  18.065  1.00  0.00    -0.536 OA
ENDBRANCH  45  46
ENDBRANCH  42  45
ENDBRANCH  37  38
ENDBRANCH  36  37
ENDBRANCH  35  36
ENDBRANCH  32  35
ENDBRANCH   1  31
TORSDOF 14
ENDMDL
MODEL 4
REMARK VINA RESULT: -9.202915004      3.299      9.387
REMARK  14 active torsions:
REMARK  status: ('A' for Active; 'I' for Inactive)
REMARK    1  A    between atoms: C4_4  and  C5_5 
REMARK    2  A    between atoms: C5_5  and  C6_6 
REMARK    3  A    between atoms: C6_6  and  C7_7 
REMARK    4  A    between atoms: C7_7  and  C8_8 
REMARK       I    between atoms: C8_8  and  N1_10 
REMARK    5  A    between atoms: N1_10  and  C9_12 
REMARK    6  A    between atoms: C10_17  and  C11_18 
REMARK    7  A    between atoms: C11_18  and  C12_19 
REMARK    8  A    between atoms: C12_19  and  C13_20 
REMARK    9  A    between atoms: C13_20  and  C14_21 
REMARK   10  A    between atoms: C14_21  and  C15_22 
REMARK       I    between atoms: N6_28  and  C17_30 
REMARK   11  A    between atoms: C17_30  and  C18_32 
REMARK   12  A    between atoms: C18_32  and  C19_33 
REMARK   13  A    between atoms: C27_44  and  C28_45 
REMARK   14  A    between atoms: C28_45  and  N8_46 
ROOT
HETATM    1  C9  UNL     1      13.988  19.312  20.113  1.00  0.00     0.167 A 
HETATM    2  N2  UNL     1      12.795  19.385  20.714  1.00  0.00    -0.279 N 
ATOM      3  H2  UNL     1      12.616  20.091  21.428  1.00  0.00     0.189 HD
HETATM    4  N3  UNL     1      11.892  18.558  20.379  1.00  0.00    -0.296 N 
ATOM      5  H3  UNL     1      10.977  18.598  20.826  1.00  0.00     0.187 HD
HETATM    6  C10 UNL     1      12.130  17.645  19.454  1.00  0.00     0.069 A 
HETATM    7  S1  UNL     1      13.757  18.001  19.041  1.00  0.00    -0.038 SA
ENDROOT
BRANCH   6   8
HETATM    8  C11 UNL     1      11.216  16.578  18.906  1.00  0.00     0.066 C 
BRANCH   8   9
HETATM    9  C12 UNL     1      10.462  17.225  17.764  1.00  0.00     0.007 C 
BRANCH   9  10
HETATM   10  C13 UNL     1      11.364  17.844  16.744  1.00  0.00     0.008 C 
BRANCH  10  11
HETATM   11  C14 UNL     1      10.661  18.976  16.039  1.00  0.00     0.078 C 
BRANCH  11  12
HETATM   12  C15 UNL     1      11.726  19.982  15.714  1.00  0.00     0.100 A 
HETATM   13  N4  UNL     1      12.907  19.977  16.367  1.00  0.00    -0.287 N 
HETATM   14  N5  UNL     1      13.884  20.838  16.122  1.00  0.00    -0.280 N 
ATOM     15  H4  UNL     1      13.055  19.271  17.089  1.00  0.00     0.188 HD
HETATM   16  C16 UNL     1      13.756  21.793  15.184  1.00  0.00     0.192 A 
ATOM     17  H5  UNL     1      14.751  20.775  16.656  1.00  0.00     0.189 HD
HETATM   18  N6  UNL     1      14.671  22.654  14.897  1.00  0.00    -0.307 N 
HETATM   19  C23 UNL     1      12.555  21.818  14.504  1.00  0.00     0.294 A 
HETATM   20  C17 UNL     1      15.906  22.628  15.587  1.00  0.00     0.224 C 
ATOM     21  H6  UNL     1      14.505  23.353  14.173  1.00  0.00     0.170 HD
HETATM   22  O2  UNL     1      16.688  21.673  15.356  1.00  0.00    -0.273 OA
HETATM   23  O3  UNL     1      12.371  22.684  13.618  1.00  0.00    -0.264 OA
HETATM   24  N7  UNL     1      11.557  20.922  14.769  1.00  0.00    -0.304 N 
HETATM   25  C24 UNL     1      10.318  20.989  14.040  1.00  0.00     0.161 C 
BRANCH  20  26
HETATM   26  C18 UNL     1      16.302  23.672  16.559  1.00  0.00     0.111 C 
BRANCH  26  27
HETATM   27  C19 UNL     1      17.604  24.289  16.050  1.00  0.00    -0.043 C 
HETATM   28  C20 UNL     1      18.068  25.355  17.048  1.00  0.00     0.015 C 
HETATM   29  C21 UNL     1      18.683  23.236  15.888  1.00  0.00     0.015 C 
HETATM   30  C22 UNL     1      17.283  24.964  14.733  1.00  0.00     0.015 C 
ENDBRANCH  26  27
ENDBRANCH  20  26
ENDBRANCH  11  12
ENDBRANCH  10  11
ENDBRANCH   9  10
ENDBRANCH   8   9
ENDBRANCH   6   8
BRANCH   1  31
HETATM   31  N1  UNL     1      15.052  20.062  20.308  1.00  0.00    -0.306 N 
HETATM   32  C8  UNL     1      15.356  20.957  19.249  1.00  0.00     0.223 C 
HETATM   33  O1  UNL     1      14.423  21.670  18.805  1.00  0.00    -0.273 OA
ATOM     34  H1  UNL     1      15.615  20.005  21.156  1.00  0.00     0.171 HD
BRANCH  32  35
HETATM   35  C7  UNL     1      16.746  20.995  18.738  1.00  0.00     0.103 C 
BRANCH  35  36
HETATM   36  C6  UNL     1      17.514  22.101  19.441  1.00  0.00     0.014 C 
BRANCH  36  37
HETATM   37  C5  UNL     1      18.981  21.843  19.371  1.00  0.00     0.039 C 
BRANCH  37  38
HETATM   38  C4  UNL     1      19.836  22.981  19.748  1.00  0.00    -0.058 A 
HETATM   39  C3  UNL     1      21.211  22.963  19.672  1.00  0.00     0.014 A 
HETATM   40  C2  UNL     1      21.986  24.034  20.026  1.00  0.00    -0.053 A 
HETATM   41  C1  UNL     1      23.456  23.917  19.909  1.00  0.00     0.049 C 
HETATM   42  C27 UNL     1      21.414  25.210  20.486  1.00  0.00    -0.028 A 
HETATM   43  C26 UNL     1      20.042  25.251  20.571  1.00  0.00     0.010 A 
HETATM   44  C25 UNL     1      19.268  24.149  20.205  1.00  0.00     0.007 A 
BRANCH  42  45
HETATM   45  C28 UNL     1      22.256  26.347  20.870  1.00  0.00     0.240 C 
BRANCH  45  46
HETATM   46  N8  UNL     1      21.742  27.600  20.421  1.00  0.00    -0.151 N 
HETATM   47  O4  UNL     1      21.413  28.445  21.281  1.00  0.00    -0.536 OA
HETATM   48  O5  UNL     1      21.587  27.940  19.109  1.00  0.00    -0.536 OA
ENDBRANCH  45  46
ENDBRANCH  42  45
ENDBRANCH  37  38
ENDBRANCH  36  37
ENDBRANCH  35  36
ENDBRANCH  32  35
ENDBRANCH   1  31
TORSDOF 14
ENDMDL
MODEL 5
REMARK VINA RESULT: -9.133272376      2.552      7.545
REMARK  14 active torsions:
REMARK  status: ('A' for Active; 'I' for Inactive)
REMARK    1  A    between atoms: C4_4  and  C5_5 
REMARK    2  A    between atoms: C5_5  and  C6_6 
REMARK    3  A    between atoms: C6_6  and  C7_7 
REMARK    4  A    between atoms: C7_7  and  C8_8 
REMARK       I    between atoms: C8_8  and  N1_10 
REMARK    5  A    between atoms: N1_10  and  C9_12 
REMARK    6  A    between atoms: C10_17  and  C11_18 
REMARK    7  A    between atoms: C11_18  and  C12_19 
REMARK    8  A    between atoms: C12_19  and  C13_20 
REMARK    9  A    between atoms: C13_20  and  C14_21 
REMARK   10  A    between atoms: C14_21  and  C15_22 
REMARK       I    between atoms: N6_28  and  C17_30 
REMARK   11  A    between atoms: C17_30  and  C18_32 
REMARK   12  A    between atoms: C18_32  and  C19_33 
REMARK   13  A    between atoms: C27_44  and  C28_45 
REMARK   14  A    between atoms: C28_45  and  N8_46 
ROOT
HETATM    1  C9  UNL     1      11.583  18.528  18.795  1.00  0.00     0.167 A 
HETATM    2  N2  UNL     1      11.816  18.310  20.094  1.00  0.00    -0.279 N 
ATOM      3  H2  UNL     1      11.188  17.724  20.643  1.00  0.00     0.189 HD
HETATM    4  N3  UNL     1      12.836  18.845  20.629  1.00  0.00    -0.296 N 
ATOM      5  H3  UNL     1      13.030  18.690  21.617  1.00  0.00     0.187 HD
HETATM    6  C10 UNL     1      13.647  19.603  19.913  1.00  0.00     0.069 A 
HETATM    7  S1  UNL     1      12.894  19.539  18.373  1.00  0.00    -0.038 SA
ENDROOT
BRANCH   6   8
HETATM    8  C11 UNL     1      14.900  20.327  20.336  1.00  0.00     0.066 C 
BRANCH   8   9
HETATM    9  C12 UNL     1      15.227  21.283  19.208  1.00  0.00     0.007 C 
BRANCH   9  10
HETATM   10  C13 UNL     1      16.510  22.022  19.421  1.00  0.00     0.008 C 
BRANCH  10  11
HETATM   11  C14 UNL     1      17.635  21.347  18.678  1.00  0.00     0.078 C 
BRANCH  11  12
HETATM   12  C15 UNL     1      18.613  22.433  18.338  1.00  0.00     0.100 A 
HETATM   13  N4  UNL     1      18.357  23.309  17.344  1.00  0.00    -0.287 N 
HETATM   14  N5  UNL     1      19.180  24.289  17.000  1.00  0.00    -0.280 N 
ATOM     15  H4  UNL     1      17.481  23.212  16.830  1.00  0.00     0.188 HD
HETATM   16  C16 UNL     1      20.351  24.474  17.636  1.00  0.00     0.192 A 
ATOM     17  H5  UNL     1      18.922  24.914  16.237  1.00  0.00     0.189 HD
HETATM   18  N6  UNL     1      21.190  25.410  17.352  1.00  0.00    -0.307 N 
HETATM   19  C23 UNL     1      20.634  23.588  18.656  1.00  0.00     0.294 A 
HETATM   20  C17 UNL     1      20.901  26.324  16.311  1.00  0.00     0.224 C 
ATOM     21  H6  UNL     1      22.061  25.492  17.876  1.00  0.00     0.170 HD
HETATM   22  O2  UNL     1      19.984  27.161  16.503  1.00  0.00    -0.273 OA
HETATM   23  O3  UNL     1      21.709  23.705  19.288  1.00  0.00    -0.264 OA
HETATM   24  N7  UNL     1      19.773  22.584  18.998  1.00  0.00    -0.304 N 
HETATM   25  C24 UNL     1      20.112  21.677  20.065  1.00  0.00     0.161 C 
BRANCH  20  26
HETATM   26  C18 UNL     1      21.631  26.328  15.023  1.00  0.00     0.111 C 
BRANCH  26  27
HETATM   27  C19 UNL     1      22.615  27.496  15.067  1.00  0.00    -0.043 C 
HETATM   28  C20 UNL     1      24.030  26.941  15.262  1.00  0.00     0.015 C 
HETATM   29  C21 UNL     1      22.557  28.312  13.790  1.00  0.00     0.015 C 
HETATM   30  C22 UNL     1      22.250  28.330  16.277  1.00  0.00     0.015 C 
ENDBRANCH  26  27
ENDBRANCH  20  26
ENDBRANCH  11  12
ENDBRANCH  10  11
ENDBRANCH   9  10
ENDBRANCH   8   9
ENDBRANCH   6   8
BRANCH   1  31
HETATM   31  N1  UNL     1      10.596  18.076  18.052  1.00  0.00    -0.306 N 
HETATM   32  C8  UNL     1      10.996  17.428  16.854  1.00  0.00     0.223 C 
HETATM   33  O1  UNL     1      11.887  16.548  16.939  1.00  0.00    -0.273 OA
ATOM     34  H1  UNL     1       9.616  18.182  18.316  1.00  0.00     0.171 HD
BRANCH  32  35
HETATM   35  C7  UNL     1      10.342  17.828  15.586  1.00  0.00     0.103 C 
BRANCH  35  36
HETATM   36  C6  UNL     1      10.359  19.341  15.461  1.00  0.00     0.014 C 
BRANCH  36  37
HETATM   37  C5  UNL     1      10.658  19.746  14.058  1.00  0.00     0.039 C 
BRANCH  37  38
HETATM   38  C4  UNL     1      11.956  20.413  13.862  1.00  0.00    -0.058 A 
HETATM   39  C3  UNL     1      12.198  21.728  14.194  1.00  0.00     0.014 A 
HETATM   40  C2  UNL     1      13.414  22.327  14.004  1.00  0.00    -0.053 A 
HETATM   41  C1  UNL     1      13.576  23.746  14.393  1.00  0.00     0.049 C 
HETATM   42  C27 UNL     1      14.479  21.628  13.459  1.00  0.00    -0.028 A 
HETATM   43  C26 UNL     1      14.261  20.314  13.119  1.00  0.00     0.010 A 
HETATM   44  C25 UNL     1      13.015  19.719  13.321  1.00  0.00     0.007 A 
BRANCH  42  45
HETATM   45  C28 UNL     1      15.773  22.285  13.252  1.00  0.00     0.240 C 
BRANCH  45  46
HETATM   46  N8  UNL     1      16.531  22.417  14.454  1.00  0.00    -0.151 N 
HETATM   47  O4  UNL     1      17.106  23.505  14.672  1.00  0.00    -0.536 OA
HETATM   48  O5  UNL     1      16.670  21.431  15.386  1.00  0.00    -0.536 OA
ENDBRANCH  45  46
ENDBRANCH  42  45
ENDBRANCH  37  38
ENDBRANCH  36  37
ENDBRANCH  35  36
ENDBRANCH  32  35
ENDBRANCH   1  31
TORSDOF 14
ENDMDL
