MODEL 1
REMARK VINA RESULT: -7.248388259      0.000      0.000
REMARK  10 active torsions:
REMARK  status: ('A' for Active; 'I' for Inactive)
REMARK    1  A    between atoms: O1_1  and  C1_3 
REMARK    2  A    between atoms: C1_3  and  C2_4 
REMARK    3  A    between atoms: C3_6  and  O3_7 
REMARK    4  A    between atoms: O3_7  and  N1_8 
REMARK    5  A    between atoms: C4_10  and  C5_11 
REMARK    6  A    between atoms: C6_13  and  C7_14 
REMARK    7  A    between atoms: C13_20  and  O5_21 
REMARK    8  A    between atoms: C14_23  and  O6_24 
REMARK    9  A    between atoms: C16_27  and  O7_28 
REMARK   10  A    between atoms: C17_30  and  O8_31 
ROOT
HETATM    1  N1  UNL     1      28.388   0.013 165.182  1.00  0.00    -0.276 N 
ATOM      2  H1  UNL     1      28.497   1.022 165.081  1.00  0.00     0.193 HD
HETATM    3  C4  UNL     1      29.133  -0.591 166.054  1.00  0.00     0.121 C 
ENDROOT
BRANCH   1   4
HETATM    4  O3  UNL     1      27.480  -0.601 164.400  1.00  0.00    -0.248 OA
BRANCH   4   5
HETATM    5  C3  UNL     1      27.710  -0.691 162.984  1.00  0.00     0.291 C 
HETATM    6  O2  UNL     1      28.384   0.431 162.559  1.00  0.00    -0.349 OA
HETATM    7  C2  UNL     1      28.837   0.348 161.278  1.00  0.00     0.179 C 
HETATM    8  C17 UNL     1      29.898  -0.714 161.063  1.00  0.00     0.178 C 
HETATM    9  C16 UNL     1      29.877  -1.714 162.208  1.00  0.00     0.154 C 
HETATM   10  C15 UNL     1      28.457  -1.966 162.670  1.00  0.00     0.097 C 
BRANCH   7  11
HETATM   11  C1  UNL     1      27.671   0.196 160.335  1.00  0.00     0.198 C 
BRANCH  11  12
HETATM   12  O1  UNL     1      27.888   0.912 159.136  1.00  0.00    -0.398 OA
ATOM     13  H1  UNL     1      27.860   0.334 158.382  1.00  0.00     0.209 HD
ENDBRANCH  11  12
ENDBRANCH   7  11
BRANCH   8  14
HETATM   14  O8  UNL     1      29.702  -1.384 159.859  1.00  0.00    -0.390 OA
ATOM     15  H8  UNL     1      29.874  -2.313 159.951  1.00  0.00     0.210 HD
ENDBRANCH   8  14
BRANCH   9  16
HETATM   16  O7  UNL     1      30.698  -1.258 163.238  1.00  0.00    -0.393 OA
ATOM     17  H7  UNL     1      31.123  -0.435 163.026  1.00  0.00     0.210 HD
ENDBRANCH   9  16
ENDBRANCH   4   5
ENDBRANCH   1   4
BRANCH   3  18
HETATM   18  C5  UNL     1      30.115   0.099 166.895  1.00  0.00     0.193 C 
HETATM   19  O4  UNL     1      29.603   1.178 167.575  1.00  0.00    -0.370 OA
HETATM   20  C6  UNL     1      30.536   2.178 167.616  1.00  0.00     0.158 C 
HETATM   21  C13 UNL     1      31.829   1.670 167.073  1.00  0.00     0.179 C 
HETATM   22  C14 UNL     1      31.317   0.588 166.111  1.00  0.00     0.183 C 
BRANCH  20  23
HETATM   23  C7  UNL     1      30.648   2.796 168.986  1.00  0.00     0.017 C 
HETATM   24  C8  UNL     1      30.005   4.178 168.894  1.00  0.00     0.007 C 
HETATM   25  C9  UNL     1      30.270   5.003 170.112  1.00  0.00     0.000 C 
HETATM   26  C10 UNL     1      30.722   4.109 171.222  1.00  0.00     0.000 C 
HETATM   27  C11 UNL     1      29.836   2.890 171.287  1.00  0.00     0.000 C 
HETATM   28  C12 UNL     1      29.955   2.026 170.055  1.00  0.00     0.007 C 
ENDBRANCH  20  23
BRANCH  21  29
HETATM   29  O5  UNL     1      32.547   2.609 166.366  1.00  0.00    -0.390 OA
ATOM     30  H5  UNL     1      32.292   2.685 165.454  1.00  0.00     0.210 HD
ENDBRANCH  21  29
BRANCH  22  31
HETATM   31  O6  UNL     1      30.885   1.226 164.936  1.00  0.00    -0.390 OA
ATOM     32  H6  UNL     1      30.323   0.640 164.442  1.00  0.00     0.210 HD
ENDBRANCH  22  31
ENDBRANCH   3  18
TORSDOF 10
ENDMDL
MODEL 2
REMARK VINA RESULT: -6.889829674      0.974      1.097
REMARK  10 active torsions:
REMARK  status: ('A' for Active; 'I' for Inactive)
REMARK    1  A    between atoms: O1_1  and  C1_3 
REMARK    2  A    between atoms: C1_3  and  C2_4 
REMARK    3  A    between atoms: C3_6  and  O3_7 
REMARK    4  A    between atoms: O3_7  and  N1_8 
REMARK    5  A    between atoms: C4_10  and  C5_11 
REMARK    6  A    between atoms: C6_13  and  C7_14 
REMARK    7  A    between atoms: C13_20  and  O5_21 
REMARK    8  A    between atoms: C14_23  and  O6_24 
REMARK    9  A    between atoms: C16_27  and  O7_28 
REMARK   10  A    between atoms: C17_30  and  O8_31 
ROOT
HETATM    1  N1  UNL     1      28.334  -0.031 165.415  1.00  0.00    -0.276 N 
ATOM      2  H1  UNL     1      28.552   0.949 165.236  1.00  0.00     0.193 HD
HETATM    3  C4  UNL     1      28.966  -0.626 166.377  1.00  0.00     0.121 C 
ENDROOT
BRANCH   1   4
HETATM    4  O3  UNL     1      27.408  -0.620 164.633  1.00  0.00    -0.248 OA
BRANCH   4   5
HETATM    5  C3  UNL     1      27.736  -0.951 163.274  1.00  0.00     0.291 C 
HETATM    6  O2  UNL     1      27.115  -0.065 162.425  1.00  0.00    -0.349 OA
HETATM    7  C2  UNL     1      27.529  -0.159 161.132  1.00  0.00     0.179 C 
HETATM    8  C17 UNL     1      28.982   0.217 160.917  1.00  0.00     0.178 C 
HETATM    9  C16 UNL     1      29.734   0.179 162.237  1.00  0.00     0.154 C 
HETATM   10  C15 UNL     1      29.237  -0.962 163.101  1.00  0.00     0.097 C 
BRANCH   7  11
HETATM   11  C1  UNL     1      27.204  -1.529 160.593  1.00  0.00     0.198 C 
BRANCH  11  12
HETATM   12  O1  UNL     1      26.986  -1.489 159.197  1.00  0.00    -0.398 OA
ATOM     13  H1  UNL     1      27.668  -1.956 158.729  1.00  0.00     0.209 HD
ENDBRANCH  11  12
ENDBRANCH   7  11
BRANCH   8  14
HETATM   14  O8  UNL     1      29.595  -0.641 160.008  1.00  0.00    -0.390 OA
ATOM     15  H8  UNL     1      30.456  -0.905 160.312  1.00  0.00     0.210 HD
ENDBRANCH   8  14
BRANCH   9  16
HETATM   16  O7  UNL     1      29.622   1.415 162.872  1.00  0.00    -0.393 OA
ATOM     17  H7  UNL     1      30.379   1.616 163.409  1.00  0.00     0.210 HD
ENDBRANCH   9  16
ENDBRANCH   4   5
ENDBRANCH   1   4
BRANCH   3  18
HETATM   18  C5  UNL     1      29.971   0.036 167.215  1.00  0.00     0.193 C 
HETATM   19  O4  UNL     1      29.527   1.198 167.801  1.00  0.00    -0.370 OA
HETATM   20  C6  UNL     1      30.540   2.117 167.818  1.00  0.00     0.158 C 
HETATM   21  C13 UNL     1      31.805   1.468 167.368  1.00  0.00     0.179 C 
HETATM   22  C14 UNL     1      31.239   0.369 166.456  1.00  0.00     0.183 C 
BRANCH  20  23
HETATM   23  C7  UNL     1      30.651   2.816 169.149  1.00  0.00     0.017 C 
HETATM   24  C8  UNL     1      30.009   4.191 168.974  1.00  0.00     0.007 C 
HETATM   25  C9  UNL     1      30.273   5.086 170.141  1.00  0.00     0.000 C 
HETATM   26  C10 UNL     1      30.723   4.260 171.302  1.00  0.00     0.000 C 
HETATM   27  C11 UNL     1      29.836   3.048 171.440  1.00  0.00     0.000 C 
HETATM   28  C12 UNL     1      29.957   2.111 170.261  1.00  0.00     0.007 C 
ENDBRANCH  20  23
BRANCH  21  29
HETATM   29  O5  UNL     1      32.628   2.293 166.634  1.00  0.00    -0.390 OA
ATOM     30  H5  UNL     1      33.113   2.921 167.158  1.00  0.00     0.210 HD
ENDBRANCH  21  29
BRANCH  22  31
HETATM   31  O6  UNL     1      30.911   0.959 165.224  1.00  0.00    -0.390 OA
ATOM     32  H6  UNL     1      30.697   1.876 165.356  1.00  0.00     0.210 HD
ENDBRANCH  22  31
ENDBRANCH   3  18
TORSDOF 10
ENDMDL
MODEL 3
REMARK VINA RESULT: -6.855175948      1.296      1.993
REMARK  10 active torsions:
REMARK  status: ('A' for Active; 'I' for Inactive)
REMARK    1  A    between atoms: O1_1  and  C1_3 
REMARK    2  A    between atoms: C1_3  and  C2_4 
REMARK    3  A    between atoms: C3_6  and  O3_7 
REMARK    4  A    between atoms: O3_7  and  N1_8 
REMARK    5  A    between atoms: C4_10  and  C5_11 
REMARK    6  A    between atoms: C6_13  and  C7_14 
REMARK    7  A    between atoms: C13_20  and  O5_21 
REMARK    8  A    between atoms: C14_23  and  O6_24 
REMARK    9  A    between atoms: C16_27  and  O7_28 
REMARK   10  A    between atoms: C17_30  and  O8_31 
ROOT
HETATM    1  N1  UNL     1      27.993  -0.232 165.896  1.00  0.00    -0.276 N 
ATOM      2  H1  UNL     1      28.041   0.778 165.761  1.00  0.00     0.193 HD
HETATM    3  C4  UNL     1      28.865  -0.778 166.685  1.00  0.00     0.121 C 
ENDROOT
BRANCH   1   4
HETATM    4  O3  UNL     1      27.028  -0.907 165.243  1.00  0.00    -0.248 OA
BRANCH   4   5
HETATM    5  C3  UNL     1      27.310  -1.474 163.953  1.00  0.00     0.291 C 
HETATM    6  O2  UNL     1      26.166  -1.463 163.189  1.00  0.00    -0.349 OA
HETATM    7  C2  UNL     1      26.374  -1.781 161.882  1.00  0.00     0.179 C 
HETATM    8  C17 UNL     1      27.226  -0.778 161.128  1.00  0.00     0.178 C 
HETATM    9  C16 UNL     1      28.000   0.092 162.105  1.00  0.00     0.154 C 
HETATM   10  C15 UNL     1      28.447  -0.720 163.303  1.00  0.00     0.097 C 
BRANCH   7  11
HETATM   11  C1  UNL     1      26.913  -3.185 161.780  1.00  0.00     0.198 C 
BRANCH  11  12
HETATM   12  O1  UNL     1      26.541  -3.786 160.556  1.00  0.00    -0.398 OA
ATOM     13  H1  UNL     1      26.915  -4.655 160.474  1.00  0.00     0.209 HD
ENDBRANCH  11  12
ENDBRANCH   7  11
BRANCH   8  14
HETATM   14  O8  UNL     1      28.116  -1.418 160.271  1.00  0.00    -0.390 OA
ATOM     15  H8  UNL     1      28.935  -0.941 160.207  1.00  0.00     0.210 HD
ENDBRANCH   8  14
BRANCH   9  16
HETATM   16  O7  UNL     1      27.222   1.190 162.467  1.00  0.00    -0.393 OA
ATOM     17  H7  UNL     1      26.302   0.971 162.549  1.00  0.00     0.210 HD
ENDBRANCH   9  16
ENDBRANCH   4   5
ENDBRANCH   1   4
BRANCH   3  18
HETATM   18  C5  UNL     1      29.908  -0.022 167.385  1.00  0.00     0.193 C 
HETATM   19  O4  UNL     1      29.436   1.079 168.060  1.00  0.00    -0.370 OA
HETATM   20  C6  UNL     1      30.340   2.101 167.955  1.00  0.00     0.158 C 
HETATM   21  C13 UNL     1      31.585   1.596 167.309  1.00  0.00     0.179 C 
HETATM   22  C14 UNL     1      31.009   0.453 166.459  1.00  0.00     0.183 C 
BRANCH  20  23
HETATM   23  C7  UNL     1      30.572   2.793 169.274  1.00  0.00     0.017 C 
HETATM   24  C8  UNL     1      30.036   4.215 169.120  1.00  0.00     0.007 C 
HETATM   25  C9  UNL     1      30.429   5.090 170.267  1.00  0.00     0.000 C 
HETATM   26  C10 UNL     1      30.866   4.233 171.411  1.00  0.00     0.000 C 
HETATM   27  C11 UNL     1      29.891   3.098 171.599  1.00  0.00     0.000 C 
HETATM   28  C12 UNL     1      29.878   2.151 170.423  1.00  0.00     0.007 C 
ENDBRANCH  20  23
BRANCH  21  29
HETATM   29  O5  UNL     1      32.202   2.513 166.486  1.00  0.00    -0.390 OA
ATOM     30  H5  UNL     1      33.148   2.532 166.568  1.00  0.00     0.210 HD
ENDBRANCH  21  29
BRANCH  22  31
HETATM   31  O6  UNL     1      30.444   1.019 165.304  1.00  0.00    -0.390 OA
ATOM     32  H6  UNL     1      30.167   0.328 164.713  1.00  0.00     0.210 HD
ENDBRANCH  22  31
ENDBRANCH   3  18
TORSDOF 10
ENDMDL
MODEL 4
REMARK VINA RESULT: -6.797466787      0.961      1.057
REMARK  10 active torsions:
REMARK  status: ('A' for Active; 'I' for Inactive)
REMARK    1  A    between atoms: O1_1  and  C1_3 
REMARK    2  A    between atoms: C1_3  and  C2_4 
REMARK    3  A    between atoms: C3_6  and  O3_7 
REMARK    4  A    between atoms: O3_7  and  N1_8 
REMARK    5  A    between atoms: C4_10  and  C5_11 
REMARK    6  A    between atoms: C6_13  and  C7_14 
REMARK    7  A    between atoms: C13_20  and  O5_21 
REMARK    8  A    between atoms: C14_23  and  O6_24 
REMARK    9  A    between atoms: C16_27  and  O7_28 
REMARK   10  A    between atoms: C17_30  and  O8_31 
ROOT
HETATM    1  N1  UNL     1      29.284  -1.019 164.726  1.00  0.00    -0.276 N 
ATOM      2  H1  UNL     1      30.267  -1.093 164.463  1.00  0.00     0.193 HD
HETATM    3  C4  UNL     1      28.997  -0.390 165.822  1.00  0.00     0.121 C 
ENDROOT
BRANCH   1   4
HETATM    4  O3  UNL     1      28.372  -1.583 163.910  1.00  0.00    -0.248 OA
BRANCH   4   5
HETATM    5  C3  UNL     1      28.668  -1.727 162.511  1.00  0.00     0.291 C 
HETATM    6  O2  UNL     1      29.354  -0.619 162.072  1.00  0.00    -0.349 OA
HETATM    7  C2  UNL     1      29.866  -0.749 160.818  1.00  0.00     0.179 C 
HETATM    8  C17 UNL     1      30.940  -1.812 160.694  1.00  0.00     0.178 C 
HETATM    9  C16 UNL     1      30.873  -2.765 161.876  1.00  0.00     0.154 C 
HETATM   10  C15 UNL     1      29.434  -3.009 162.282  1.00  0.00     0.097 C 
BRANCH   7  11
HETATM   11  C1  UNL     1      28.746  -0.947 159.829  1.00  0.00     0.198 C 
BRANCH  11  12
HETATM   12  O1  UNL     1      29.072  -0.392 158.571  1.00  0.00    -0.398 OA
ATOM     13  H1  UNL     1      29.864   0.130 158.621  1.00  0.00     0.209 HD
ENDBRANCH  11  12
ENDBRANCH   7  11
BRANCH   8  14
HETATM   14  O8  UNL     1      30.804  -2.530 159.509  1.00  0.00    -0.390 OA
ATOM     15  H8  UNL     1      31.189  -2.061 158.778  1.00  0.00     0.210 HD
ENDBRANCH   8  14
BRANCH   9  16
HETATM   16  O7  UNL     1      31.644  -2.264 162.922  1.00  0.00    -0.393 OA
ATOM     17  H7  UNL     1      31.284  -2.481 163.774  1.00  0.00     0.210 HD
ENDBRANCH   9  16
ENDBRANCH   4   5
ENDBRANCH   1   4
BRANCH   3  18
HETATM   18  C5  UNL     1      30.007   0.216 166.694  1.00  0.00     0.193 C 
HETATM   19  O4  UNL     1      29.546   1.292 167.414  1.00  0.00    -0.370 OA
HETATM   20  C6  UNL     1      30.528   2.240 167.499  1.00  0.00     0.158 C 
HETATM   21  C13 UNL     1      31.797   1.690 166.943  1.00  0.00     0.179 C 
HETATM   22  C14 UNL     1      31.237   0.673 165.936  1.00  0.00     0.183 C 
BRANCH  20  23
HETATM   23  C7  UNL     1      30.662   2.798 168.893  1.00  0.00     0.017 C 
HETATM   24  C8  UNL     1      30.023   4.185 168.871  1.00  0.00     0.007 C 
HETATM   25  C9  UNL     1      30.309   4.955 170.119  1.00  0.00     0.000 C 
HETATM   26  C10 UNL     1      30.773   4.012 171.182  1.00  0.00     0.000 C 
HETATM   27  C11 UNL     1      29.882   2.794 171.207  1.00  0.00     0.000 C 
HETATM   28  C12 UNL     1      29.981   1.984 169.937  1.00  0.00     0.007 C 
ENDBRANCH  20  23
BRANCH  21  29
HETATM   29  O5  UNL     1      32.567   2.618 166.277  1.00  0.00    -0.390 OA
ATOM     30  H5  UNL     1      32.843   2.341 165.411  1.00  0.00     0.210 HD
ENDBRANCH  21  29
BRANCH  22  31
HETATM   31  O6  UNL     1      30.847   1.378 164.785  1.00  0.00    -0.390 OA
ATOM     32  H6  UNL     1      30.974   0.832 164.018  1.00  0.00     0.210 HD
ENDBRANCH  22  31
ENDBRANCH   3  18
TORSDOF 10
ENDMDL
MODEL 5
REMARK VINA RESULT: -6.739597981      1.153      1.503
REMARK  10 active torsions:
REMARK  status: ('A' for Active; 'I' for Inactive)
REMARK    1  A    between atoms: O1_1  and  C1_3 
REMARK    2  A    between atoms: C1_3  and  C2_4 
REMARK    3  A    between atoms: C3_6  and  O3_7 
REMARK    4  A    between atoms: O3_7  and  N1_8 
REMARK    5  A    between atoms: C4_10  and  C5_11 
REMARK    6  A    between atoms: C6_13  and  C7_14 
REMARK    7  A    between atoms: C13_20  and  O5_21 
REMARK    8  A    between atoms: C14_23  and  O6_24 
REMARK    9  A    between atoms: C16_27  and  O7_28 
REMARK   10  A    between atoms: C17_30  and  O8_31 
ROOT
HETATM    1  N1  UNL     1      29.332  -1.687 165.954  1.00  0.00    -0.276 N 
ATOM      2  H1  UNL     1      30.298  -1.728 165.630  1.00  0.00     0.193 HD
HETATM    3  C4  UNL     1      29.053  -0.868 166.919  1.00  0.00     0.121 C 
ENDROOT
BRANCH   1   4
HETATM    4  O3  UNL     1      28.433  -2.488 165.350  1.00  0.00    -0.248 OA
BRANCH   4   5
HETATM    5  C3  UNL     1      28.075  -2.243 163.980  1.00  0.00     0.291 C 
HETATM    6  O2  UNL     1      27.734  -0.919 163.827  1.00  0.00    -0.349 OA
HETATM    7  C2  UNL     1      27.584  -0.536 162.529  1.00  0.00     0.179 C 
HETATM    8  C17 UNL     1      28.863  -0.593 161.715  1.00  0.00     0.178 C 
HETATM    9  C16 UNL     1      29.888  -1.473 162.411  1.00  0.00     0.154 C 
HETATM   10  C15 UNL     1      29.213  -2.655 163.076  1.00  0.00     0.097 C 
BRANCH   7  11
HETATM   11  C1  UNL     1      26.463  -1.318 161.894  1.00  0.00     0.198 C 
BRANCH  11  12
HETATM   12  O1  UNL     1      25.209  -0.922 162.410  1.00  0.00    -0.398 OA
ATOM     13  H1  UNL     1      24.568  -1.619 162.328  1.00  0.00     0.209 HD
ENDBRANCH  11  12
ENDBRANCH   7  11
BRANCH   8  14
HETATM   14  O8  UNL     1      28.622  -1.083 160.435  1.00  0.00    -0.390 OA
ATOM     15  H8  UNL     1      29.259  -0.749 159.814  1.00  0.00     0.210 HD
ENDBRANCH   8  14
BRANCH   9  16
HETATM   16  O7  UNL     1      30.625  -0.706 163.311  1.00  0.00    -0.393 OA
ATOM     17  H7  UNL     1      30.648   0.213 163.070  1.00  0.00     0.210 HD
ENDBRANCH   9  16
ENDBRANCH   4   5
ENDBRANCH   1   4
BRANCH   3  18
HETATM   18  C5  UNL     1      30.049  -0.005 167.561  1.00  0.00     0.193 C 
HETATM   19  O4  UNL     1      29.504   1.013 168.307  1.00  0.00    -0.370 OA
HETATM   20  C6  UNL     1      30.265   2.141 168.166  1.00  0.00     0.158 C 
HETATM   21  C13 UNL     1      31.506   1.809 167.408  1.00  0.00     0.179 C 
HETATM   22  C14 UNL     1      31.006   0.624 166.568  1.00  0.00     0.183 C 
BRANCH  20  23
HETATM   23  C7  UNL     1      30.518   2.825 169.485  1.00  0.00     0.017 C 
HETATM   24  C8  UNL     1      30.010   4.257 169.338  1.00  0.00     0.007 C 
HETATM   25  C9  UNL     1      30.426   5.122 170.484  1.00  0.00     0.000 C 
HETATM   26  C10 UNL     1      30.852   4.253 171.624  1.00  0.00     0.000 C 
HETATM   27  C11 UNL     1      29.856   3.138 171.815  1.00  0.00     0.000 C 
HETATM   28  C12 UNL     1      29.817   2.194 170.637  1.00  0.00     0.007 C 
ENDBRANCH  20  23
BRANCH  21  29
HETATM   29  O5  UNL     1      31.937   2.815 166.571  1.00  0.00    -0.390 OA
ATOM     30  H5  UNL     1      32.367   2.504 165.783  1.00  0.00     0.210 HD
ENDBRANCH  21  29
BRANCH  22  31
HETATM   31  O6  UNL     1      30.283   1.143 165.480  1.00  0.00    -0.390 OA
ATOM     32  H6  UNL     1      30.051   0.438 164.886  1.00  0.00     0.210 HD
ENDBRANCH  22  31
ENDBRANCH   3  18
TORSDOF 10
ENDMDL
