MODEL 1
REMARK VINA RESULT: -6.307549359      0.000      0.000
REMARK  9 active torsions:
REMARK  status: ('A' for Active; 'I' for Inactive)
REMARK    1  A    between atoms: C4_4  and  O1_5 
REMARK    2  A    between atoms: C5_7  and  C6_8 
REMARK    3  A    between atoms: C6_8  and  O2_9 
REMARK    4  A    between atoms: O2_9  and  S1_10 
REMARK    5  A    between atoms: C7_15  and  O7_16 
REMARK    6  A    between atoms: O7_16  and  C8_17 
REMARK    7  A    between atoms: C9_18  and  N1_19 
REMARK    8  A    between atoms: C11_24  and  N2_25 
REMARK    9  A    between atoms: C13_30  and  N3_31 
ROOT
HETATM    1  C8  UNL     1      11.343  -6.132   7.467  1.00  0.00     0.185 C 
HETATM    2  C9  UNL     1      10.182  -6.343   6.550  1.00  0.00     0.216 C 
HETATM    3  C10 UNL     1      10.482  -7.377   5.462  1.00  0.00     0.068 C 
HETATM    4  C11 UNL     1      11.654  -6.992   4.620  1.00  0.00     0.187 C 
HETATM    5  C12 UNL     1      12.649  -6.159   5.387  1.00  0.00     0.068 C 
HETATM    6  C13 UNL     1      12.635  -6.598   6.834  1.00  0.00     0.216 C 
ENDROOT
BRANCH   1   7
HETATM    7  O7  UNL     1      11.526  -4.804   7.840  1.00  0.00    -0.351 OA
BRANCH   7   8
HETATM    8  C7  UNL     1      11.708  -4.648   9.200  1.00  0.00     0.264 C 
HETATM    9  C2  UNL     1      13.166  -4.745   9.612  1.00  0.00     0.039 C 
HETATM   10  C1  UNL     1      13.841  -3.425   9.315  1.00  0.00     0.015 C 
HETATM   11  C3  UNL     1      13.116  -4.949  11.131  1.00  0.00     0.043 C 
HETATM   12  C4  UNL     1      12.335  -3.824  11.743  1.00  0.00     0.149 C 
HETATM   13  C5  UNL     1      11.119  -3.431  10.985  1.00  0.00     0.178 C 
HETATM   14  O6  UNL     1      11.247  -3.430   9.623  1.00  0.00    -0.351 OA
BRANCH  12  15
HETATM   15  O1  UNL     1      13.141  -2.715  12.026  1.00  0.00    -0.393 OA
ATOM     16  H1  UNL     1      12.634  -1.917  12.120  1.00  0.00     0.210 HD
ENDBRANCH  12  15
BRANCH  13  17
HETATM   17  C6  UNL     1      10.654  -2.080  11.523  1.00  0.00     0.227 C 
BRANCH  17  18
HETATM   18  O2  UNL     1      10.666  -2.133  12.931  1.00  0.00    -0.254 OA
BRANCH  18  19
HETATM   19  S1  UNL     1       9.114  -2.164  13.542  1.00  0.00     0.251 S 
HETATM   20  O3  UNL     1       8.591  -3.590  13.599  1.00  0.00    -0.572 OA
HETATM   21  O4  UNL     1       8.156  -1.408  12.635  1.00  0.00    -0.572 OA
HETATM   22  O5  UNL     1       9.040  -1.486  15.069  1.00  0.00    -0.572 OA
ENDBRANCH  18  19
ENDBRANCH  17  18
ENDBRANCH  13  17
ENDBRANCH   7   8
ENDBRANCH   1   7
BRANCH   2  23
HETATM   23  N1  UNL     1       9.727  -5.138   5.899  1.00  0.00    -0.072 N 
ATOM     24  H13 UNL     1       8.792  -5.270   5.512  1.00  0.00     0.274 HD
ATOM     25  H12 UNL     1       9.526  -4.412   6.587  1.00  0.00     0.274 HD
ATOM     26  H11 UNL     1      10.366  -4.790   5.185  1.00  0.00     0.274 HD
ENDBRANCH   2  23
BRANCH   6  27
HETATM   27  N3  UNL     1      12.850  -8.004   6.988  1.00  0.00    -0.072 N 
ATOM     28  H33 UNL     1      12.661  -8.300   7.945  1.00  0.00     0.274 HD
ATOM     29  H32 UNL     1      12.130  -8.540   6.504  1.00  0.00     0.274 HD
ATOM     30  H31 UNL     1      13.782  -8.294   6.692  1.00  0.00     0.274 HD
ENDBRANCH   6  27
BRANCH   4  31
HETATM   31  N2  UNL     1      12.333  -8.168   4.102  1.00  0.00    -0.075 N 
ATOM     32  H23 UNL     1      11.771  -9.011   4.222  1.00  0.00     0.274 HD
ATOM     33  H22 UNL     1      12.380  -8.157   3.083  1.00  0.00     0.274 HD
ATOM     34  H21 UNL     1      13.259  -8.270   4.519  1.00  0.00     0.274 HD
ENDBRANCH   4  31
TORSDOF 9
ENDMDL
MODEL 2
REMARK VINA RESULT: -6.159100521      4.259      7.547
REMARK  9 active torsions:
REMARK  status: ('A' for Active; 'I' for Inactive)
REMARK    1  A    between atoms: C4_4  and  O1_5 
REMARK    2  A    between atoms: C5_7  and  C6_8 
REMARK    3  A    between atoms: C6_8  and  O2_9 
REMARK    4  A    between atoms: O2_9  and  S1_10 
REMARK    5  A    between atoms: C7_15  and  O7_16 
REMARK    6  A    between atoms: O7_16  and  C8_17 
REMARK    7  A    between atoms: C9_18  and  N1_19 
REMARK    8  A    between atoms: C11_24  and  N2_25 
REMARK    9  A    between atoms: C13_30  and  N3_31 
ROOT
HETATM    1  C8  UNL     1      12.534  -4.867   9.827  1.00  0.00     0.185 C 
HETATM    2  C9  UNL     1      11.856  -3.625   9.346  1.00  0.00     0.216 C 
HETATM    3  C10 UNL     1      11.789  -2.545  10.428  1.00  0.00     0.068 C 
HETATM    4  C11 UNL     1      11.062  -3.008  11.649  1.00  0.00     0.187 C 
HETATM    5  C12 UNL     1      11.193  -4.496  11.851  1.00  0.00     0.068 C 
HETATM    6  C13 UNL     1      12.544  -4.938  11.337  1.00  0.00     0.216 C 
ENDROOT
BRANCH   1   7
HETATM    7  O7  UNL     1      11.942  -6.039   9.367  1.00  0.00    -0.351 OA
BRANCH   7   8
HETATM    8  C7  UNL     1      12.279  -6.335   8.061  1.00  0.00     0.264 C 
HETATM    9  C2  UNL     1      12.844  -7.736   7.904  1.00  0.00     0.039 C 
HETATM   10  C1  UNL     1      11.697  -8.721   7.889  1.00  0.00     0.015 C 
HETATM   11  C3  UNL     1      13.509  -7.722   6.522  1.00  0.00     0.043 C 
HETATM   12  C4  UNL     1      12.490  -7.309   5.502  1.00  0.00     0.149 C 
HETATM   13  C5  UNL     1      11.599  -6.200   5.932  1.00  0.00     0.178 C 
HETATM   14  O6  UNL     1      11.189  -6.243   7.236  1.00  0.00    -0.351 OA
BRANCH  12  15
HETATM   15  O1  UNL     1      11.754  -8.397   5.019  1.00  0.00    -0.393 OA
ATOM     16  H1  UNL     1      12.075  -9.225   5.357  1.00  0.00     0.210 HD
ENDBRANCH  12  15
BRANCH  13  17
HETATM   17  C6  UNL     1      10.423  -6.146   4.959  1.00  0.00     0.227 C 
BRANCH  17  18
HETATM   18  O2  UNL     1      10.917  -5.810   3.682  1.00  0.00    -0.254 OA
BRANCH  18  19
HETATM   19  S1  UNL     1       9.669  -5.607   2.594  1.00  0.00     0.251 S 
HETATM   20  O3  UNL     1       9.309  -6.932   1.941  1.00  0.00    -0.572 OA
HETATM   21  O4  UNL     1      10.081  -4.685   1.457  1.00  0.00    -0.572 OA
HETATM   22  O5  UNL     1       8.310  -4.965   3.327  1.00  0.00    -0.572 OA
ENDBRANCH  18  19
ENDBRANCH  17  18
ENDBRANCH  13  17
ENDBRANCH   7   8
ENDBRANCH   1   7
BRANCH   2  23
HETATM   23  N1  UNL     1      10.516  -3.843   8.858  1.00  0.00    -0.072 N 
ATOM     24  H13 UNL     1      10.237  -4.815   8.997  1.00  0.00     0.274 HD
ATOM     25  H12 UNL     1       9.834  -3.381   9.459  1.00  0.00     0.274 HD
ATOM     26  H11 UNL     1      10.382  -3.568   7.885  1.00  0.00     0.274 HD
ENDBRANCH   2  23
BRANCH   6  27
HETATM   27  N3  UNL     1      13.625  -4.201  11.917  1.00  0.00    -0.072 N 
ATOM     28  H33 UNL     1      13.282  -3.529  12.603  1.00  0.00     0.274 HD
ATOM     29  H32 UNL     1      14.184  -4.794  12.531  1.00  0.00     0.274 HD
ATOM     30  H31 UNL     1      14.210  -3.744  11.218  1.00  0.00     0.274 HD
ENDBRANCH   6  27
BRANCH   4  31
HETATM   31  N2  UNL     1      11.555  -2.332  12.838  1.00  0.00    -0.075 N 
ATOM     32  H23 UNL     1      11.400  -2.889  13.678  1.00  0.00     0.274 HD
ATOM     33  H22 UNL     1      12.574  -2.300  12.857  1.00  0.00     0.274 HD
ATOM     34  H21 UNL     1      11.149  -1.400  12.924  1.00  0.00     0.274 HD
ENDBRANCH   4  31
TORSDOF 9
ENDMDL
MODEL 3
REMARK VINA RESULT: -6.029448051      4.805      7.732
REMARK  9 active torsions:
REMARK  status: ('A' for Active; 'I' for Inactive)
REMARK    1  A    between atoms: C4_4  and  O1_5 
REMARK    2  A    between atoms: C5_7  and  C6_8 
REMARK    3  A    between atoms: C6_8  and  O2_9 
REMARK    4  A    between atoms: O2_9  and  S1_10 
REMARK    5  A    between atoms: C7_15  and  O7_16 
REMARK    6  A    between atoms: O7_16  and  C8_17 
REMARK    7  A    between atoms: C9_18  and  N1_19 
REMARK    8  A    between atoms: C11_24  and  N2_25 
REMARK    9  A    between atoms: C13_30  and  N3_31 
ROOT
HETATM    1  C8  UNL     1      13.330  -4.977   8.199  1.00  0.00     0.185 C 
HETATM    2  C9  UNL     1      11.878  -4.624   8.144  1.00  0.00     0.216 C 
HETATM    3  C10 UNL     1      11.507  -3.536   9.155  1.00  0.00     0.068 C 
HETATM    4  C11 UNL     1      11.819  -3.936  10.560  1.00  0.00     0.187 C 
HETATM    5  C12 UNL     1      12.987  -4.885  10.629  1.00  0.00     0.068 C 
HETATM    6  C13 UNL     1      13.949  -4.553   9.512  1.00  0.00     0.216 C 
ENDROOT
BRANCH   1   7
HETATM    7  O7  UNL     1      13.580  -6.337   8.050  1.00  0.00    -0.351 OA
BRANCH   7   8
HETATM    8  C7  UNL     1      13.970  -6.675   6.769  1.00  0.00     0.264 C 
HETATM    9  C2  UNL     1      14.229  -8.162   6.608  1.00  0.00     0.039 C 
HETATM   10  C1  UNL     1      12.903  -8.870   6.450  1.00  0.00     0.015 C 
HETATM   11  C3  UNL     1      15.013  -8.269   5.294  1.00  0.00     0.043 C 
HETATM   12  C4  UNL     1      14.213  -7.622   4.203  1.00  0.00     0.149 C 
HETATM   13  C5  UNL     1      13.546  -6.352   4.594  1.00  0.00     0.178 C 
HETATM   14  O6  UNL     1      13.012  -6.329   5.853  1.00  0.00    -0.351 OA
BRANCH  12  15
HETATM   15  O1  UNL     1      13.308  -8.512   3.612  1.00  0.00    -0.393 OA
ATOM     16  H1  UNL     1      13.330  -8.468   2.663  1.00  0.00     0.210 HD
ENDBRANCH  12  15
BRANCH  13  17
HETATM   17  C6  UNL     1      12.511  -6.022   3.522  1.00  0.00     0.227 C 
BRANCH  17  18
HETATM   18  O2  UNL     1      11.229  -6.287   4.043  1.00  0.00    -0.254 OA
BRANCH  18  19
HETATM   19  S1  UNL     1      10.262  -7.031   2.905  1.00  0.00     0.251 S 
HETATM   20  O3  UNL     1       9.569  -8.244   3.504  1.00  0.00    -0.572 OA
HETATM   21  O4  UNL     1      11.092  -7.559   1.746  1.00  0.00    -0.572 OA
HETATM   22  O5  UNL     1       9.111  -5.982   2.295  1.00  0.00    -0.572 OA
ENDBRANCH  18  19
ENDBRANCH  17  18
ENDBRANCH  13  17
ENDBRANCH   7   8
ENDBRANCH   1   7
BRANCH   2  23
HETATM   23  N1  UNL     1      10.998  -5.746   8.362  1.00  0.00    -0.072 N 
ATOM     24  H13 UNL     1      11.524  -6.620   8.372  1.00  0.00     0.274 HD
ATOM     25  H12 UNL     1      10.646  -5.747   9.320  1.00  0.00     0.274 HD
ATOM     26  H11 UNL     1      10.226  -5.799   7.696  1.00  0.00     0.274 HD
ENDBRANCH   2  23
BRANCH   6  27
HETATM   27  N3  UNL     1      14.348  -3.179   9.516  1.00  0.00    -0.072 N 
ATOM     28  H33 UNL     1      15.012  -2.989   8.766  1.00  0.00     0.274 HD
ATOM     29  H32 UNL     1      13.583  -2.574   9.217  1.00  0.00     0.274 HD
ATOM     30  H31 UNL     1      14.719  -2.879  10.418  1.00  0.00     0.274 HD
ENDBRANCH   6  27
BRANCH   4  31
HETATM   31  N2  UNL     1      12.116  -2.773  11.380  1.00  0.00    -0.075 N 
ATOM     32  H23 UNL     1      12.548  -3.037  12.266  1.00  0.00     0.274 HD
ATOM     33  H22 UNL     1      12.882  -2.224  10.991  1.00  0.00     0.274 HD
ATOM     34  H21 UNL     1      11.282  -2.203  11.524  1.00  0.00     0.274 HD
ENDBRANCH   4  31
TORSDOF 9
ENDMDL
MODEL 4
REMARK VINA RESULT: -5.966717067      5.065      6.713
REMARK  9 active torsions:
REMARK  status: ('A' for Active; 'I' for Inactive)
REMARK    1  A    between atoms: C4_4  and  O1_5 
REMARK    2  A    between atoms: C5_7  and  C6_8 
REMARK    3  A    between atoms: C6_8  and  O2_9 
REMARK    4  A    between atoms: O2_9  and  S1_10 
REMARK    5  A    between atoms: C7_15  and  O7_16 
REMARK    6  A    between atoms: O7_16  and  C8_17 
REMARK    7  A    between atoms: C9_18  and  N1_19 
REMARK    8  A    between atoms: C11_24  and  N2_25 
REMARK    9  A    between atoms: C13_30  and  N3_31 
ROOT
HETATM    1  C8  UNL     1      11.585  -6.887   3.337  1.00  0.00     0.185 C 
HETATM    2  C9  UNL     1      10.102  -6.806   3.168  1.00  0.00     0.216 C 
HETATM    3  C10 UNL     1       9.680  -6.888   1.699  1.00  0.00     0.068 C 
HETATM    4  C11 UNL     1      10.285  -5.800   0.872  1.00  0.00     0.187 C 
HETATM    5  C12 UNL     1      11.619  -5.357   1.416  1.00  0.00     0.068 C 
HETATM    6  C13 UNL     1      12.303  -6.546   2.051  1.00  0.00     0.216 C 
ENDROOT
BRANCH   1   7
HETATM    7  O7  UNL     1      12.081  -6.037   4.320  1.00  0.00    -0.351 OA
BRANCH   7   8
HETATM    8  C7  UNL     1      12.474  -6.708   5.461  1.00  0.00     0.264 C 
HETATM    9  C2  UNL     1      12.474  -5.820   6.693  1.00  0.00     0.039 C 
HETATM   10  C1  UNL     1      11.054  -5.688   7.193  1.00  0.00     0.015 C 
HETATM   11  C3  UNL     1      13.297  -6.603   7.723  1.00  0.00     0.043 C 
HETATM   12  C4  UNL     1      12.685  -7.962   7.896  1.00  0.00     0.149 C 
HETATM   13  C5  UNL     1      12.234  -8.602   6.632  1.00  0.00     0.178 C 
HETATM   14  O6  UNL     1      11.645  -7.766   5.724  1.00  0.00    -0.351 OA
BRANCH  12  15
HETATM   15  O1  UNL     1      11.671  -7.966   8.860  1.00  0.00    -0.393 OA
ATOM     16  H1  UNL     1      11.125  -8.741   8.804  1.00  0.00     0.210 HD
ENDBRANCH  12  15
BRANCH  13  17
HETATM   17  C6  UNL     1      11.334  -9.778   7.003  1.00  0.00     0.227 C 
BRANCH  17  18
HETATM   18  O2  UNL     1      10.018  -9.299   7.161  1.00  0.00    -0.254 OA
BRANCH  18  19
HETATM   19  S1  UNL     1       8.986 -10.015   6.063  1.00  0.00     0.251 S 
HETATM   20  O3  UNL     1       9.741 -10.423   4.807  1.00  0.00    -0.572 OA
HETATM   21  O4  UNL     1       7.915  -9.039   5.602  1.00  0.00    -0.572 OA
HETATM   22  O5  UNL     1       8.230 -11.358   6.713  1.00  0.00    -0.572 OA
ENDBRANCH  18  19
ENDBRANCH  17  18
ENDBRANCH  13  17
ENDBRANCH   7   8
ENDBRANCH   1   7
BRANCH   2  23
HETATM   23  N1  UNL     1       9.515  -5.613   3.729  1.00  0.00    -0.072 N 
ATOM     24  H13 UNL     1      10.209  -4.868   3.793  1.00  0.00     0.274 HD
ATOM     25  H12 UNL     1       8.866  -5.186   3.067  1.00  0.00     0.274 HD
ATOM     26  H11 UNL     1       9.063  -5.761   4.631  1.00  0.00     0.274 HD
ENDBRANCH   2  23
BRANCH   6  27
HETATM   27  N3  UNL     1      12.408  -7.663   1.163  1.00  0.00    -0.072 N 
ATOM     28  H33 UNL     1      13.245  -8.210   1.361  1.00  0.00     0.274 HD
ATOM     29  H32 UNL     1      11.698  -8.366   1.374  1.00  0.00     0.274 HD
ATOM     30  H31 UNL     1      12.372  -7.391   0.181  1.00  0.00     0.274 HD
ENDBRANCH   6  27
BRANCH   4  31
HETATM   31  N2  UNL     1      10.463  -6.229  -0.505  1.00  0.00    -0.075 N 
ATOM     32  H23 UNL     1      11.438  -6.450  -0.707  1.00  0.00     0.274 HD
ATOM     33  H22 UNL     1      10.057  -7.150  -0.668  1.00  0.00     0.274 HD
ATOM     34  H21 UNL     1      10.091  -5.536  -1.155  1.00  0.00     0.274 HD
ENDBRANCH   4  31
TORSDOF 9
ENDMDL
MODEL 5
REMARK VINA RESULT: -5.898408517      4.572      6.732
REMARK  9 active torsions:
REMARK  status: ('A' for Active; 'I' for Inactive)
REMARK    1  A    between atoms: C4_4  and  O1_5 
REMARK    2  A    between atoms: C5_7  and  C6_8 
REMARK    3  A    between atoms: C6_8  and  O2_9 
REMARK    4  A    between atoms: O2_9  and  S1_10 
REMARK    5  A    between atoms: C7_15  and  O7_16 
REMARK    6  A    between atoms: O7_16  and  C8_17 
REMARK    7  A    between atoms: C9_18  and  N1_19 
REMARK    8  A    between atoms: C11_24  and  N2_25 
REMARK    9  A    between atoms: C13_30  and  N3_31 
ROOT
HETATM    1  C8  UNL     1      11.664  -6.398   3.298  1.00  0.00     0.185 C 
HETATM    2  C9  UNL     1      12.079  -7.582   2.485  1.00  0.00     0.216 C 
HETATM    3  C10 UNL     1      11.944  -7.330   0.981  1.00  0.00     0.068 C 
HETATM    4  C11 UNL     1      10.545  -6.984   0.587  1.00  0.00     0.187 C 
HETATM    5  C12 UNL     1       9.803  -6.289   1.699  1.00  0.00     0.068 C 
HETATM    6  C13 UNL     1      10.786  -5.463   2.497  1.00  0.00     0.216 C 
ENDROOT
BRANCH   1   7
HETATM    7  O7  UNL     1      10.962  -6.730   4.451  1.00  0.00    -0.351 OA
BRANCH   7   8
HETATM    8  C7  UNL     1      11.448  -6.098   5.578  1.00  0.00     0.264 C 
HETATM    9  C2  UNL     1      10.531  -6.249   6.778  1.00  0.00     0.039 C 
HETATM   10  C1  UNL     1      10.749  -7.618   7.384  1.00  0.00     0.015 C 
HETATM   11  C3  UNL     1      11.020  -5.182   7.765  1.00  0.00     0.043 C 
HETATM   12  C4  UNL     1      12.480  -5.401   8.026  1.00  0.00     0.149 C 
HETATM   13  C5  UNL     1      13.278  -5.751   6.821  1.00  0.00     0.178 C 
HETATM   14  O6  UNL     1      12.671  -6.600   5.937  1.00  0.00    -0.351 OA
BRANCH  12  15
HETATM   15  O1  UNL     1      12.700  -6.311   9.066  1.00  0.00    -0.393 OA
ATOM     16  H1  UNL     1      12.311  -7.159   8.890  1.00  0.00     0.210 HD
ENDBRANCH  12  15
BRANCH  13  17
HETATM   17  C6  UNL     1      14.628  -6.282   7.298  1.00  0.00     0.227 C 
BRANCH  17  18
HETATM   18  O2  UNL     1      15.074  -7.255   6.380  1.00  0.00    -0.254 OA
BRANCH  18  19
HETATM   19  S1  UNL     1      15.246  -8.740   7.120  1.00  0.00     0.251 S 
HETATM   20  O3  UNL     1      16.488  -8.759   7.997  1.00  0.00    -0.572 OA
HETATM   21  O4  UNL     1      15.450  -9.841   6.092  1.00  0.00    -0.572 OA
HETATM   22  O5  UNL     1      13.909  -9.124   8.048  1.00  0.00    -0.572 OA
ENDBRANCH  18  19
ENDBRANCH  17  18
ENDBRANCH  13  17
ENDBRANCH   7   8
ENDBRANCH   1   7
BRANCH   2  23
HETATM   23  N1  UNL     1      11.350  -8.787   2.798  1.00  0.00    -0.072 N 
ATOM     24  H13 UNL     1      10.882  -8.700   3.700  1.00  0.00     0.274 HD
ATOM     25  H12 UNL     1      10.535  -8.882   2.191  1.00  0.00     0.274 HD
ATOM     26  H11 UNL     1      11.919  -9.633   2.768  1.00  0.00     0.274 HD
ENDBRANCH   2  23
BRANCH   6  27
HETATM   27  N3  UNL     1      11.539  -4.560   1.682  1.00  0.00    -0.072 N 
ATOM     28  H33 UNL     1      11.756  -3.703   2.190  1.00  0.00     0.274 HD
ATOM     29  H32 UNL     1      12.486  -4.907   1.530  1.00  0.00     0.274 HD
ATOM     30  H31 UNL     1      11.080  -4.352   0.795  1.00  0.00     0.274 HD
ENDBRANCH   6  27
BRANCH   4  31
HETATM   31  N2  UNL     1      10.531  -6.128  -0.588  1.00  0.00    -0.075 N 
ATOM     32  H23 UNL     1       9.918  -5.322  -0.459  1.00  0.00     0.274 HD
ATOM     33  H22 UNL     1      11.415  -5.633  -0.703  1.00  0.00     0.274 HD
ATOM     34  H21 UNL     1      10.286  -6.657  -1.425  1.00  0.00     0.274 HD
ENDBRANCH   4  31
TORSDOF 9
ENDMDL
