MODEL 1
REMARK VINA RESULT: -7.119537007      0.000      0.000
REMARK  7 active torsions:
REMARK  status: ('A' for Active; 'I' for Inactive)
REMARK    1  A    between atoms: C2_2  and  N1_3 
REMARK    2  A    between atoms: C2_2  and  C14_26 
REMARK       I    between atoms: N1_3  and  C3_5 
REMARK    3  A    between atoms: C3_5  and  C4_7 
REMARK    4  A    between atoms: C4_7  and  N2_8 
REMARK       I    between atoms: N2_8  and  C5_10 
REMARK    5  A    between atoms: C5_10  and  O3_12 
REMARK    6  A    between atoms: O3_12  and  C6_13 
REMARK    7  A    between atoms: C12_21  and  O5_23 
ROOT
HETATM    1  N2  UNL     1      12.867  -7.457   6.956  1.00  0.00    -0.328 N 
ATOM      2  H2  UNL     1      11.987  -7.807   6.579  1.00  0.00     0.165 HD
HETATM    3  C5  UNL     1      14.032  -7.507   6.134  1.00  0.00     0.363 C 
HETATM    4  O2  UNL     1      15.110  -7.083   6.616  1.00  0.00    -0.238 OA
ENDROOT
BRANCH   3   5
HETATM    5  O3  UNL     1      14.001  -8.002   4.839  1.00  0.00    -0.270 OA
BRANCH   5   6
HETATM    6  C6  UNL     1      13.103  -7.468   3.913  1.00  0.00     0.298 C 
HETATM    7  C7  UNL     1      13.312  -5.951   3.807  1.00  0.00     0.231 C 
HETATM    8  O4  UNL     1      12.615  -5.532   2.701  1.00  0.00    -0.359 OA
HETATM    9  C8  UNL     1      11.399  -6.124   2.513  1.00  0.00     0.164 C 
HETATM   10  C9  UNL     1      10.374  -5.097   2.082  1.00  0.00     0.056 C 
HETATM   11  S1  UNL     1      11.397  -7.234   1.051  1.00  0.00    -0.126 SA
HETATM   12  C12 UNL     1      10.871  -6.892   3.674  1.00  0.00     0.202 C 
HETATM   13  C10 UNL     1      10.597  -4.834   0.621  1.00  0.00     0.014 C 
HETATM   14  C11 UNL     1      10.388  -6.181  -0.068  1.00  0.00     0.077 C 
HETATM   15  C13 UNL     1      10.138  -6.007   4.676  1.00  0.00     0.083 C 
HETATM   16  O6  UNL     1      11.795  -7.644   4.350  1.00  0.00    -0.319 OA
BRANCH  12  17
HETATM   17  O5  UNL     1       9.897  -7.788   3.175  1.00  0.00    -0.362 OA
ATOM     18  H5  UNL     1      10.357  -8.461   2.687  1.00  0.00     0.213 HD
ENDBRANCH  12  17
ENDBRANCH   5   6
ENDBRANCH   3   5
BRANCH   1  19
HETATM   19  C4  UNL     1      12.885  -6.939   8.281  1.00  0.00     0.227 C 
BRANCH  19  20
HETATM   20  C3  UNL     1      12.611  -5.512   8.442  1.00  0.00     0.236 C 
HETATM   21  N1  UNL     1      11.367  -4.962   8.752  1.00  0.00    -0.347 N 
ATOM     22  H1  UNL     1      10.583  -5.602   8.883  1.00  0.00     0.163 HD
HETATM   23  O1  UNL     1      13.584  -4.721   8.290  1.00  0.00    -0.272 OA
BRANCH  21  24
HETATM   24  C2  UNL     1      11.112  -3.543   8.902  1.00  0.00     0.169 C 
HETATM   25  C1  UNL     1       9.854  -3.094   8.249  1.00  0.00     0.042 C 
BRANCH  24  26
HETATM   26  C14 UNL     1      11.049  -3.189  10.341  1.00  0.00     0.253 C 
HETATM   27  N3  UNL     1      10.232  -2.085  10.743  1.00  0.00    -0.060 NA
HETATM   28  O7  UNL     1      11.698  -3.845  11.168  1.00  0.00    -0.275 OA
ENDBRANCH  24  26
ENDBRANCH  21  24
ENDBRANCH  19  20
ENDBRANCH   1  19
TORSDOF 7
ENDMDL
MODEL 2
REMARK VINA RESULT: -6.900571636      2.346      4.043
REMARK  7 active torsions:
REMARK  status: ('A' for Active; 'I' for Inactive)
REMARK    1  A    between atoms: C2_2  and  N1_3 
REMARK    2  A    between atoms: C2_2  and  C14_26 
REMARK       I    between atoms: N1_3  and  C3_5 
REMARK    3  A    between atoms: C3_5  and  C4_7 
REMARK    4  A    between atoms: C4_7  and  N2_8 
REMARK       I    between atoms: N2_8  and  C5_10 
REMARK    5  A    between atoms: C5_10  and  O3_12 
REMARK    6  A    between atoms: O3_12  and  C6_13 
REMARK    7  A    between atoms: C12_21  and  O5_23 
ROOT
HETATM    1  N2  UNL     1       9.468  -4.923   6.532  1.00  0.00    -0.328 N 
ATOM      2  H2  UNL     1       9.987  -5.693   6.955  1.00  0.00     0.165 HD
HETATM    3  C5  UNL     1       8.806  -5.145   5.288  1.00  0.00     0.363 C 
HETATM    4  O2  UNL     1       8.181  -4.186   4.776  1.00  0.00    -0.238 OA
ENDROOT
BRANCH   3   5
HETATM    5  O3  UNL     1       8.835  -6.374   4.645  1.00  0.00    -0.270 OA
BRANCH   5   6
HETATM    6  C6  UNL     1      10.018  -6.818   4.051  1.00  0.00     0.298 C 
HETATM    7  C7  UNL     1      10.499  -8.096   4.751  1.00  0.00     0.231 C 
HETATM    8  O4  UNL     1      11.485  -8.633   3.960  1.00  0.00    -0.359 OA
HETATM    9  C8  UNL     1      12.343  -7.732   3.398  1.00  0.00     0.164 C 
HETATM   10  C9  UNL     1      13.765  -8.246   3.468  1.00  0.00     0.056 C 
HETATM   11  S1  UNL     1      12.118  -7.616   1.579  1.00  0.00    -0.126 SA
HETATM   12  C12 UNL     1      12.287  -6.354   3.957  1.00  0.00     0.202 C 
HETATM   13  C10 UNL     1      13.928  -9.256   2.370  1.00  0.00     0.014 C 
HETATM   14  C11 UNL     1      13.655  -8.492   1.075  1.00  0.00     0.077 C 
HETATM   15  C13 UNL     1      13.146  -6.194   5.207  1.00  0.00     0.083 C 
HETATM   16  O6  UNL     1      11.031  -5.881   4.227  1.00  0.00    -0.319 OA
BRANCH  12  17
HETATM   17  O5  UNL     1      12.854  -5.487   2.993  1.00  0.00    -0.362 OA
ATOM     18  H5  UNL     1      12.837  -4.610   3.358  1.00  0.00     0.213 HD
ENDBRANCH  12  17
ENDBRANCH   5   6
ENDBRANCH   3   5
BRANCH   1  19
HETATM   19  C4  UNL     1       9.433  -3.672   7.207  1.00  0.00     0.227 C 
BRANCH  19  20
HETATM   20  C3  UNL     1      10.358  -3.492   8.325  1.00  0.00     0.236 C 
HETATM   21  N1  UNL     1      11.527  -4.226   8.528  1.00  0.00    -0.347 N 
ATOM     22  H1  UNL     1      11.763  -4.943   7.842  1.00  0.00     0.163 HD
HETATM   23  O1  UNL     1      10.070  -2.597   9.169  1.00  0.00    -0.272 OA
BRANCH  21  24
HETATM   24  C2  UNL     1      12.429  -4.039   9.646  1.00  0.00     0.169 C 
HETATM   25  C1  UNL     1      12.317  -5.098  10.683  1.00  0.00     0.042 C 
BRANCH  24  26
HETATM   26  C14 UNL     1      13.832  -3.997   9.164  1.00  0.00     0.253 C 
HETATM   27  N3  UNL     1      14.341  -5.116   8.431  1.00  0.00    -0.060 NA
HETATM   28  O7  UNL     1      14.537  -3.005   9.401  1.00  0.00    -0.275 OA
ENDBRANCH  24  26
ENDBRANCH  21  24
ENDBRANCH  19  20
ENDBRANCH   1  19
TORSDOF 7
ENDMDL
MODEL 3
REMARK VINA RESULT: -6.898063467      1.200      1.367
REMARK  7 active torsions:
REMARK  status: ('A' for Active; 'I' for Inactive)
REMARK    1  A    between atoms: C2_2  and  N1_3 
REMARK    2  A    between atoms: C2_2  and  C14_26 
REMARK       I    between atoms: N1_3  and  C3_5 
REMARK    3  A    between atoms: C3_5  and  C4_7 
REMARK    4  A    between atoms: C4_7  and  N2_8 
REMARK       I    between atoms: N2_8  and  C5_10 
REMARK    5  A    between atoms: C5_10  and  O3_12 
REMARK    6  A    between atoms: O3_12  and  C6_13 
REMARK    7  A    between atoms: C12_21  and  O5_23 
ROOT
HETATM    1  N2  UNL     1      13.337  -6.292   6.732  1.00  0.00    -0.328 N 
ATOM      2  H2  UNL     1      12.966  -5.500   6.208  1.00  0.00     0.165 HD
HETATM    3  C5  UNL     1      14.160  -7.238   6.050  1.00  0.00     0.363 C 
HETATM    4  O2  UNL     1      14.599  -8.214   6.705  1.00  0.00    -0.238 OA
ENDROOT
BRANCH   3   5
HETATM    5  O3  UNL     1      14.480  -7.106   4.707  1.00  0.00    -0.270 OA
BRANCH   5   6
HETATM    6  C6  UNL     1      13.472  -6.854   3.775  1.00  0.00     0.298 C 
HETATM    7  C7  UNL     1      13.404  -5.349   3.482  1.00  0.00     0.231 C 
HETATM    8  O4  UNL     1      12.607  -5.198   2.373  1.00  0.00    -0.359 OA
HETATM    9  C8  UNL     1      11.511  -6.011   2.322  1.00  0.00     0.164 C 
HETATM   10  C9  UNL     1      10.306  -5.238   1.829  1.00  0.00     0.056 C 
HETATM   11  S1  UNL     1      11.660  -7.277   1.001  1.00  0.00    -0.126 SA
HETATM   12  C12 UNL     1      11.166  -6.707   3.591  1.00  0.00     0.202 C 
HETATM   13  C10 UNL     1      10.432  -5.123   0.338  1.00  0.00     0.014 C 
HETATM   14  C11 UNL     1      10.444  -6.562  -0.178  1.00  0.00     0.077 C 
HETATM   15  C13 UNL     1      10.320  -5.844   4.521  1.00  0.00     0.083 C 
HETATM   16  O6  UNL     1      12.230  -7.199   4.299  1.00  0.00    -0.319 OA
BRANCH  12  17
HETATM   17  O5  UNL     1      10.351  -7.814   3.252  1.00  0.00    -0.362 OA
ATOM     18  H5  UNL     1      10.925  -8.565   3.152  1.00  0.00     0.213 HD
ENDBRANCH  12  17
ENDBRANCH   5   6
ENDBRANCH   3   5
BRANCH   1  19
HETATM   19  C4  UNL     1      13.013  -6.410   8.112  1.00  0.00     0.227 C 
BRANCH  19  20
HETATM   20  C3  UNL     1      12.996  -5.179   8.899  1.00  0.00     0.236 C 
HETATM   21  N1  UNL     1      12.064  -4.872   9.891  1.00  0.00    -0.347 N 
ATOM     22  H1  UNL     1      11.337  -5.559  10.090  1.00  0.00     0.163 HD
HETATM   23  O1  UNL     1      13.903  -4.333   8.660  1.00  0.00    -0.272 OA
BRANCH  21  24
HETATM   24  C2  UNL     1      12.058  -3.643  10.658  1.00  0.00     0.169 C 
HETATM   25  C1  UNL     1      10.887  -2.772  10.375  1.00  0.00     0.042 C 
BRANCH  24  26
HETATM   26  C14 UNL     1      12.077  -3.951  12.110  1.00  0.00     0.253 C 
HETATM   27  N3  UNL     1      12.726  -5.148  12.550  1.00  0.00    -0.060 NA
HETATM   28  O7  UNL     1      11.536  -3.178  12.913  1.00  0.00    -0.275 OA
ENDBRANCH  24  26
ENDBRANCH  21  24
ENDBRANCH  19  20
ENDBRANCH   1  19
TORSDOF 7
ENDMDL
MODEL 4
REMARK VINA RESULT: -6.798354283      2.229      3.734
REMARK  7 active torsions:
REMARK  status: ('A' for Active; 'I' for Inactive)
REMARK    1  A    between atoms: C2_2  and  N1_3 
REMARK    2  A    between atoms: C2_2  and  C14_26 
REMARK       I    between atoms: N1_3  and  C3_5 
REMARK    3  A    between atoms: C3_5  and  C4_7 
REMARK    4  A    between atoms: C4_7  and  N2_8 
REMARK       I    between atoms: N2_8  and  C5_10 
REMARK    5  A    between atoms: C5_10  and  O3_12 
REMARK    6  A    between atoms: O3_12  and  C6_13 
REMARK    7  A    between atoms: C12_21  and  O5_23 
ROOT
HETATM    1  N2  UNL     1       9.633  -5.195   5.887  1.00  0.00    -0.328 N 
ATOM      2  H2  UNL     1      10.194  -6.041   5.983  1.00  0.00     0.165 HD
HETATM    3  C5  UNL     1       8.881  -5.004   4.690  1.00  0.00     0.363 C 
HETATM    4  O2  UNL     1       8.205  -3.953   4.581  1.00  0.00    -0.238 OA
ENDROOT
BRANCH   3   5
HETATM    5  O3  UNL     1       8.878  -5.937   3.663  1.00  0.00    -0.270 OA
BRANCH   5   6
HETATM    6  C6  UNL     1      10.075  -6.539   3.269  1.00  0.00     0.298 C 
HETATM    7  C7  UNL     1      10.284  -7.837   4.060  1.00  0.00     0.231 C 
HETATM    8  O4  UNL     1      11.306  -8.516   3.442  1.00  0.00    -0.359 OA
HETATM    9  C8  UNL     1      12.343  -7.743   3.003  1.00  0.00     0.164 C 
HETATM   10  C9  UNL     1      13.665  -8.417   3.304  1.00  0.00     0.056 C 
HETATM   11  S1  UNL     1      12.413  -7.671   1.170  1.00  0.00    -0.126 SA
HETATM   12  C12 UNL     1      12.370  -6.348   3.520  1.00  0.00     0.202 C 
HETATM   13  C10 UNL     1      13.868  -9.480   2.264  1.00  0.00     0.014 C 
HETATM   14  C11 UNL     1      13.890  -8.739   0.928  1.00  0.00     0.077 C 
HETATM   15  C13 UNL     1      13.043  -6.243   4.885  1.00  0.00     0.083 C 
HETATM   16  O6  UNL     1      11.155  -5.721   3.583  1.00  0.00    -0.319 OA
BRANCH  12  17
HETATM   17  O5  UNL     1      13.179  -5.591   2.639  1.00  0.00    -0.362 OA
ATOM     18  H5  UNL     1      12.827  -4.708   2.624  1.00  0.00     0.213 HD
ENDBRANCH  12  17
ENDBRANCH   5   6
ENDBRANCH   3   5
BRANCH   1  19
HETATM   19  C4  UNL     1       9.632  -4.252   6.952  1.00  0.00     0.227 C 
BRANCH  19  20
HETATM   20  C3  UNL     1      10.550  -4.501   8.062  1.00  0.00     0.236 C 
HETATM   21  N1  UNL     1      10.897  -3.571   9.043  1.00  0.00    -0.347 N 
ATOM     22  H1  UNL     1      10.476  -2.643   8.988  1.00  0.00     0.163 HD
HETATM   23  O1  UNL     1      11.062  -5.654   8.135  1.00  0.00    -0.272 OA
BRANCH  21  24
HETATM   24  C2  UNL     1      11.814  -3.833  10.134  1.00  0.00     0.169 C 
HETATM   25  C1  UNL     1      13.232  -3.537   9.801  1.00  0.00     0.042 C 
BRANCH  24  26
HETATM   26  C14 UNL     1      11.430  -3.032  11.322  1.00  0.00     0.253 C 
HETATM   27  N3  UNL     1      10.259  -2.213  11.250  1.00  0.00    -0.060 NA
HETATM   28  O7  UNL     1      12.121  -3.080  12.350  1.00  0.00    -0.275 OA
ENDBRANCH  24  26
ENDBRANCH  21  24
ENDBRANCH  19  20
ENDBRANCH   1  19
TORSDOF 7
ENDMDL
MODEL 5
REMARK VINA RESULT: -6.777082677      1.906      2.738
REMARK  7 active torsions:
REMARK  status: ('A' for Active; 'I' for Inactive)
REMARK    1  A    between atoms: C2_2  and  N1_3 
REMARK    2  A    between atoms: C2_2  and  C14_26 
REMARK       I    between atoms: N1_3  and  C3_5 
REMARK    3  A    between atoms: C3_5  and  C4_7 
REMARK    4  A    between atoms: C4_7  and  N2_8 
REMARK       I    between atoms: N2_8  and  C5_10 
REMARK    5  A    between atoms: C5_10  and  O3_12 
REMARK    6  A    between atoms: O3_12  and  C6_13 
REMARK    7  A    between atoms: C12_21  and  O5_23 
ROOT
HETATM    1  N2  UNL     1      12.192  -5.433   7.235  1.00  0.00    -0.328 N 
ATOM      2  H2  UNL     1      11.921  -4.656   6.632  1.00  0.00     0.165 HD
HETATM    3  C5  UNL     1      11.426  -6.635   7.189  1.00  0.00     0.363 C 
HETATM    4  O2  UNL     1      11.765  -7.577   7.945  1.00  0.00    -0.238 OA
ENDROOT
BRANCH   3   5
HETATM    5  O3  UNL     1      10.336  -6.785   6.344  1.00  0.00    -0.270 OA
BRANCH   5   6
HETATM    6  C6  UNL     1      10.496  -6.609   4.968  1.00  0.00     0.298 C 
HETATM    7  C7  UNL     1      10.015  -7.865   4.229  1.00  0.00     0.231 C 
HETATM    8  O4  UNL     1       9.930  -7.532   2.899  1.00  0.00    -0.359 OA
HETATM    9  C8  UNL     1      10.936  -6.737   2.427  1.00  0.00     0.164 C 
HETATM   10  C9  UNL     1      11.383  -7.210   1.061  1.00  0.00     0.056 C 
HETATM   11  S1  UNL     1      10.338  -5.050   2.019  1.00  0.00    -0.126 SA
HETATM   12  C12 UNL     1      12.121  -6.603   3.317  1.00  0.00     0.202 C 
HETATM   13  C10 UNL     1      10.373  -6.716   0.067  1.00  0.00     0.014 C 
HETATM   14  C11 UNL     1      10.400  -5.193   0.187  1.00  0.00     0.077 C 
HETATM   15  C13 UNL     1      13.118  -7.744   3.139  1.00  0.00     0.083 C 
HETATM   16  O6  UNL     1      11.843  -6.470   4.651  1.00  0.00    -0.319 OA
BRANCH  12  17
HETATM   17  O5  UNL     1      12.810  -5.432   2.922  1.00  0.00    -0.362 OA
ATOM     18  H5  UNL     1      12.906  -4.888   3.695  1.00  0.00     0.213 HD
ENDBRANCH  12  17
ENDBRANCH   5   6
ENDBRANCH   3   5
BRANCH   1  19
HETATM   19  C4  UNL     1      13.319  -5.273   8.088  1.00  0.00     0.227 C 
BRANCH  19  20
HETATM   20  C3  UNL     1      13.168  -4.373   9.230  1.00  0.00     0.236 C 
HETATM   21  N1  UNL     1      12.102  -4.389  10.131  1.00  0.00    -0.347 N 
ATOM     22  H1  UNL     1      11.369  -5.084   9.988  1.00  0.00     0.163 HD
HETATM   23  O1  UNL     1      14.082  -3.520   9.413  1.00  0.00    -0.272 OA
BRANCH  21  24
HETATM   24  C2  UNL     1      11.965  -3.485  11.255  1.00  0.00     0.169 C 
HETATM   25  C1  UNL     1      10.858  -2.506  11.097  1.00  0.00     0.042 C 
BRANCH  24  26
HETATM   26  C14 UNL     1      11.739  -4.257  12.501  1.00  0.00     0.253 C 
HETATM   27  N3  UNL     1      12.553  -5.407  12.755  1.00  0.00    -0.060 NA
HETATM   28  O7  UNL     1      10.858  -3.902  13.297  1.00  0.00    -0.275 OA
ENDBRANCH  24  26
ENDBRANCH  21  24
ENDBRANCH  19  20
ENDBRANCH   1  19
TORSDOF 7
ENDMDL
