MODEL 1
REMARK VINA RESULT: -7.530418117      0.000      0.000
REMARK  8 active torsions:
REMARK  status: ('A' for Active; 'I' for Inactive)
REMARK    1  A    between atoms: C2_2  and  O2_4 
REMARK    2  A    between atoms: O2_4  and  C3_5 
REMARK    3  A    between atoms: C4_6  and  O3_7 
REMARK    4  A    between atoms: C15_19  and  O4_20 
REMARK    5  A    between atoms: O4_20  and  C16_21 
REMARK    6  A    between atoms: C19_25  and  O6_26 
REMARK    7  A    between atoms: C20_28  and  O7_29 
REMARK    8  A    between atoms: C21_31  and  O8_32 
ROOT
HETATM    1  C3  UNL     1       0.225   3.908 -16.355  1.00  0.00     0.168 C 
HETATM    2  C4  UNL     1      -0.371   5.145 -16.907  1.00  0.00     0.149 C 
HETATM    3  C5  UNL     1      -0.649   6.112 -15.859  1.00  0.00     0.046 C 
HETATM    4  C6  UNL     1       0.385   6.265 -14.727  1.00  0.00    -0.007 C 
HETATM    5  C7  UNL     1      -0.178   7.385 -13.867  1.00  0.00     0.013 C 
HETATM    6  C8  UNL     1      -0.379   7.166 -12.430  1.00  0.00     0.006 C 
HETATM    7  C9  UNL     1       0.621   6.526 -11.593  1.00  0.00    -0.010 C 
HETATM    8  C10 UNL     1       1.199   7.516 -10.595  1.00  0.00     0.011 C 
HETATM    9  C11 UNL     1       1.786   5.861 -12.241  1.00  0.00    -0.040 C 
HETATM   10  C12 UNL     1       2.581   5.292 -11.039  1.00  0.00     0.015 C 
HETATM   11  C13 UNL     1       2.734   6.680 -12.989  1.00  0.00     0.012 C 
HETATM   12  C14 UNL     1       2.897   6.459 -14.440  1.00  0.00     0.034 C 
HETATM   13  C15 UNL     1       1.671   6.756 -15.289  1.00  0.00     0.133 C 
HETATM   14  C22 UNL     1       1.416   4.648 -13.036  1.00  0.00     0.015 C 
HETATM   15  C23 UNL     1       0.362   4.948 -14.044  1.00  0.00     0.008 C 
HETATM   16  C24 UNL     1       0.058   3.734 -14.874  1.00  0.00    -0.014 C 
HETATM   17  C25 UNL     1      -1.323   3.155 -14.655  1.00  0.00     0.018 C 
HETATM   18  C26 UNL     1       0.981   2.589 -14.483  1.00  0.00     0.018 C 
ENDROOT
BRANCH  13  19
HETATM   19  O4  UNL     1       1.805   8.004 -15.687  1.00  0.00    -0.352 OA
BRANCH  19  20
HETATM   20  C16 UNL     1       2.576   8.639 -16.496  1.00  0.00     0.291 C 
HETATM   21  O5  UNL     1       2.508   9.979 -16.055  1.00  0.00    -0.351 OA
HETATM   22  C17 UNL     1       3.011  10.970 -16.749  1.00  0.00     0.152 C 
HETATM   23  C18 UNL     1       2.076  12.188 -16.612  1.00  0.00     0.042 C 
HETATM   24  C19 UNL     1       3.435  10.799 -18.159  1.00  0.00     0.178 C 
HETATM   25  C20 UNL     1       3.406   9.428 -18.702  1.00  0.00     0.183 C 
HETATM   26  C21 UNL     1       2.287   8.664 -17.982  1.00  0.00     0.204 C 
BRANCH  24  27
HETATM   27  O6  UNL     1       4.708  11.331 -18.441  1.00  0.00    -0.390 OA
ATOM     28  H6  UNL     1       4.698  12.252 -18.675  1.00  0.00     0.210 HD
ENDBRANCH  24  27
BRANCH  25  29
HETATM   29  O7  UNL     1       4.583   8.709 -18.509  1.00  0.00    -0.390 OA
ATOM     30  H7  UNL     1       4.455   7.837 -18.155  1.00  0.00     0.210 HD
ENDBRANCH  25  29
BRANCH  26  31
HETATM   31  O8  UNL     1       2.328   7.426 -18.597  1.00  0.00    -0.388 OA
ATOM     32  H8  UNL     1       1.996   7.416 -19.486  1.00  0.00     0.210 HD
ENDBRANCH  26  31
ENDBRANCH  19  20
ENDBRANCH  13  19
BRANCH   2  33
HETATM   33  O3  UNL     1       0.357   5.564 -18.002  1.00  0.00    -0.393 OA
ATOM     34  H3  UNL     1      -0.232   5.815 -18.702  1.00  0.00     0.210 HD
ENDBRANCH   2  33
BRANCH   1  35
HETATM   35  O2  UNL     1      -0.364   2.803 -17.053  1.00  0.00    -0.313 OA
BRANCH  35  36
HETATM   36  C2  UNL     1      -0.020   2.398 -18.310  1.00  0.00     0.255 C 
HETATM   37  C1  UNL     1      -0.890   2.672 -19.512  1.00  0.00     0.126 C 
HETATM   38  O1  UNL     1       1.061   1.773 -18.463  1.00  0.00    -0.266 OA
ENDBRANCH  35  36
ENDBRANCH   1  35
TORSDOF 8
ENDMDL
MODEL 2
REMARK VINA RESULT: -7.372870787      1.470      2.227
REMARK  8 active torsions:
REMARK  status: ('A' for Active; 'I' for Inactive)
REMARK    1  A    between atoms: C2_2  and  O2_4 
REMARK    2  A    between atoms: O2_4  and  C3_5 
REMARK    3  A    between atoms: C4_6  and  O3_7 
REMARK    4  A    between atoms: C15_19  and  O4_20 
REMARK    5  A    between atoms: O4_20  and  C16_21 
REMARK    6  A    between atoms: C19_25  and  O6_26 
REMARK    7  A    between atoms: C20_28  and  O7_29 
REMARK    8  A    between atoms: C21_31  and  O8_32 
ROOT
HETATM    1  C3  UNL     1       0.403   4.356 -16.547  1.00  0.00     0.168 C 
HETATM    2  C4  UNL     1      -0.314   5.628 -16.304  1.00  0.00     0.149 C 
HETATM    3  C5  UNL     1       0.052   6.204 -15.021  1.00  0.00     0.046 C 
HETATM    4  C6  UNL     1       1.530   6.128 -14.591  1.00  0.00    -0.007 C 
HETATM    5  C7  UNL     1       1.564   6.873 -13.268  1.00  0.00     0.013 C 
HETATM    6  C8  UNL     1       2.123   6.218 -12.079  1.00  0.00     0.006 C 
HETATM    7  C9  UNL     1       3.368   5.472 -12.114  1.00  0.00    -0.010 C 
HETATM    8  C10 UNL     1       4.441   6.178 -11.301  1.00  0.00     0.011 C 
HETATM    9  C11 UNL     1       3.986   5.161 -13.434  1.00  0.00    -0.040 C 
HETATM   10  C12 UNL     1       5.250   4.352 -13.051  1.00  0.00     0.015 C 
HETATM   11  C13 UNL     1       4.460   6.264 -14.264  1.00  0.00     0.012 C 
HETATM   12  C14 UNL     1       3.835   6.502 -15.580  1.00  0.00     0.034 C 
HETATM   13  C15 UNL     1       2.368   6.901 -15.546  1.00  0.00     0.133 C 
HETATM   14  C22 UNL     1       3.183   4.205 -14.260  1.00  0.00     0.015 C 
HETATM   15  C23 UNL     1       1.780   4.672 -14.440  1.00  0.00     0.008 C 
HETATM   16  C24 UNL     1       1.016   3.734 -15.327  1.00  0.00    -0.014 C 
HETATM   17  C25 UNL     1      -0.087   2.967 -14.628  1.00  0.00     0.018 C 
HETATM   18  C26 UNL     1       1.934   2.633 -15.839  1.00  0.00     0.018 C 
ENDROOT
BRANCH  13  19
HETATM   19  O4  UNL     1       2.354   8.218 -15.547  1.00  0.00    -0.352 OA
BRANCH  19  20
HETATM   20  C16 UNL     1       2.514   9.143 -16.425  1.00  0.00     0.291 C 
HETATM   21  O5  UNL     1       1.905   8.621 -17.587  1.00  0.00    -0.351 OA
HETATM   22  C17 UNL     1       2.031   9.193 -18.759  1.00  0.00     0.152 C 
HETATM   23  C18 UNL     1       2.140   8.092 -19.832  1.00  0.00     0.042 C 
HETATM   24  C19 UNL     1       3.036  10.255 -19.005  1.00  0.00     0.178 C 
HETATM   25  C20 UNL     1       3.786  10.747 -17.835  1.00  0.00     0.183 C 
HETATM   26  C21 UNL     1       3.902   9.589 -16.834  1.00  0.00     0.204 C 
BRANCH  24  27
HETATM   27  O6  UNL     1       2.522  11.383 -19.674  1.00  0.00    -0.390 OA
ATOM     28  H6  UNL     1       1.982  11.942 -19.128  1.00  0.00     0.210 HD
ENDBRANCH  24  27
BRANCH  25  29
HETATM   29  O7  UNL     1       3.176  11.806 -17.167  1.00  0.00    -0.390 OA
ATOM     30  H7  UNL     1       3.631  12.087 -16.382  1.00  0.00     0.210 HD
ENDBRANCH  25  29
BRANCH  26  31
HETATM   31  O8  UNL     1       4.649  10.150 -15.815  1.00  0.00    -0.388 OA
ATOM     32  H8  UNL     1       4.522   9.748 -14.965  1.00  0.00     0.210 HD
ENDBRANCH  26  31
ENDBRANCH  19  20
ENDBRANCH  13  19
BRANCH   2  33
HETATM   33  O3  UNL     1      -0.232   6.430 -17.424  1.00  0.00    -0.393 OA
ATOM     34  H3  UNL     1      -1.057   6.412 -17.893  1.00  0.00     0.210 HD
ENDBRANCH   2  33
BRANCH   1  35
HETATM   35  O2  UNL     1      -0.530   3.450 -17.150  1.00  0.00    -0.313 OA
BRANCH  35  36
HETATM   36  C2  UNL     1      -0.486   3.028 -18.447  1.00  0.00     0.255 C 
HETATM   37  C1  UNL     1      -1.395   3.592 -19.511  1.00  0.00     0.126 C 
HETATM   38  O1  UNL     1       0.345   2.136 -18.758  1.00  0.00    -0.266 OA
ENDBRANCH  35  36
ENDBRANCH   1  35
TORSDOF 8
ENDMDL
MODEL 3
REMARK VINA RESULT: -7.158541628      0.932      1.801
REMARK  8 active torsions:
REMARK  status: ('A' for Active; 'I' for Inactive)
REMARK    1  A    between atoms: C2_2  and  O2_4 
REMARK    2  A    between atoms: O2_4  and  C3_5 
REMARK    3  A    between atoms: C4_6  and  O3_7 
REMARK    4  A    between atoms: C15_19  and  O4_20 
REMARK    5  A    between atoms: O4_20  and  C16_21 
REMARK    6  A    between atoms: C19_25  and  O6_26 
REMARK    7  A    between atoms: C20_28  and  O7_29 
REMARK    8  A    between atoms: C21_31  and  O8_32 
ROOT
HETATM    1  C3  UNL     1       0.285   4.011 -16.314  1.00  0.00     0.168 C 
HETATM    2  C4  UNL     1      -0.193   5.296 -16.870  1.00  0.00     0.149 C 
HETATM    3  C5  UNL     1      -0.424   6.273 -15.819  1.00  0.00     0.046 C 
HETATM    4  C6  UNL     1       0.583   6.332 -14.655  1.00  0.00    -0.007 C 
HETATM    5  C7  UNL     1       0.086   7.485 -13.800  1.00  0.00     0.013 C 
HETATM    6  C8  UNL     1      -0.176   7.271 -12.372  1.00  0.00     0.006 C 
HETATM    7  C9  UNL     1       0.743   6.545 -11.513  1.00  0.00    -0.010 C 
HETATM    8  C10 UNL     1       1.368   7.475 -10.486  1.00  0.00     0.011 C 
HETATM    9  C11 UNL     1       1.870   5.794 -12.133  1.00  0.00    -0.040 C 
HETATM   10  C12 UNL     1       2.580   5.152 -10.915  1.00  0.00     0.015 C 
HETATM   11  C13 UNL     1       2.904   6.541 -12.843  1.00  0.00     0.012 C 
HETATM   12  C14 UNL     1       3.093   6.321 -14.291  1.00  0.00     0.034 C 
HETATM   13  C15 UNL     1       1.921   6.723 -15.173  1.00  0.00     0.133 C 
HETATM   14  C22 UNL     1       1.429   4.622 -12.952  1.00  0.00     0.015 C 
HETATM   15  C23 UNL     1       0.434   5.015 -13.989  1.00  0.00     0.008 C 
HETATM   16  C24 UNL     1       0.059   3.837 -14.841  1.00  0.00    -0.014 C 
HETATM   17  C25 UNL     1      -1.370   3.369 -14.670  1.00  0.00     0.018 C 
HETATM   18  C26 UNL     1       0.875   2.618 -14.436  1.00  0.00     0.018 C 
ENDROOT
BRANCH  13  19
HETATM   19  O4  UNL     1       2.167   7.960 -15.552  1.00  0.00    -0.352 OA
BRANCH  19  20
HETATM   20  C16 UNL     1       2.146   8.607 -16.663  1.00  0.00     0.291 C 
HETATM   21  O5  UNL     1       2.733   7.716 -17.589  1.00  0.00    -0.351 OA
HETATM   22  C17 UNL     1       3.068   8.087 -18.800  1.00  0.00     0.152 C 
HETATM   23  C18 UNL     1       4.383   7.380 -19.183  1.00  0.00     0.042 C 
HETATM   24  C19 UNL     1       3.117   9.516 -19.193  1.00  0.00     0.178 C 
HETATM   25  C20 UNL     1       2.627  10.496 -18.206  1.00  0.00     0.183 C 
HETATM   26  C21 UNL     1       2.886   9.920 -16.807  1.00  0.00     0.204 C 
BRANCH  24  27
HETATM   27  O6  UNL     1       2.471   9.795 -20.413  1.00  0.00    -0.390 OA
ATOM     28  H6  UNL     1       2.574   9.115 -21.068  1.00  0.00     0.210 HD
ENDBRANCH  24  27
BRANCH  25  29
HETATM   29  O7  UNL     1       1.262  10.763 -18.292  1.00  0.00    -0.390 OA
ATOM     30  H7  UNL     1       0.731  10.294 -17.660  1.00  0.00     0.210 HD
ENDBRANCH  25  29
BRANCH  26  31
HETATM   31  O8  UNL     1       2.431  10.930 -15.981  1.00  0.00    -0.388 OA
ATOM     32  H8  UNL     1       2.811  10.930 -15.110  1.00  0.00     0.210 HD
ENDBRANCH  26  31
ENDBRANCH  19  20
ENDBRANCH  13  19
BRANCH   2  33
HETATM   33  O3  UNL     1       0.600   5.666 -17.937  1.00  0.00    -0.393 OA
ATOM     34  H3  UNL     1       0.276   5.262 -18.733  1.00  0.00     0.210 HD
ENDBRANCH   2  33
BRANCH   1  35
HETATM   35  O2  UNL     1      -0.369   2.963 -17.042  1.00  0.00    -0.313 OA
BRANCH  35  36
HETATM   36  C2  UNL     1      -0.040   2.563 -18.305  1.00  0.00     0.255 C 
HETATM   37  C1  UNL     1      -0.909   2.866 -19.500  1.00  0.00     0.126 C 
HETATM   38  O1  UNL     1       1.028   1.918 -18.469  1.00  0.00    -0.266 OA
ENDBRANCH  35  36
ENDBRANCH   1  35
TORSDOF 8
ENDMDL
MODEL 4
REMARK VINA RESULT: -7.026677281      1.245      1.561
REMARK  8 active torsions:
REMARK  status: ('A' for Active; 'I' for Inactive)
REMARK    1  A    between atoms: C2_2  and  O2_4 
REMARK    2  A    between atoms: O2_4  and  C3_5 
REMARK    3  A    between atoms: C4_6  and  O3_7 
REMARK    4  A    between atoms: C15_19  and  O4_20 
REMARK    5  A    between atoms: O4_20  and  C16_21 
REMARK    6  A    between atoms: C19_25  and  O6_26 
REMARK    7  A    between atoms: C20_28  and  O7_29 
REMARK    8  A    between atoms: C21_31  and  O8_32 
ROOT
HETATM    1  C3  UNL     1       0.432   4.209 -16.657  1.00  0.00     0.168 C 
HETATM    2  C4  UNL     1      -0.271   5.502 -16.506  1.00  0.00     0.149 C 
HETATM    3  C5  UNL     1       0.066   6.143 -15.246  1.00  0.00     0.046 C 
HETATM    4  C6  UNL     1       1.528   6.068 -14.768  1.00  0.00    -0.007 C 
HETATM    5  C7  UNL     1       1.535   6.885 -13.486  1.00  0.00     0.013 C 
HETATM    6  C8  UNL     1       2.047   6.288 -12.247  1.00  0.00     0.006 C 
HETATM    7  C9  UNL     1       3.281   5.523 -12.203  1.00  0.00    -0.010 C 
HETATM    8  C10 UNL     1       4.339   6.257 -11.397  1.00  0.00     0.011 C 
HETATM    9  C11 UNL     1       3.932   5.131 -13.484  1.00  0.00    -0.040 C 
HETATM   10  C12 UNL     1       5.171   4.326 -13.018  1.00  0.00     0.015 C 
HETATM   11  C13 UNL     1       4.449   6.179 -14.358  1.00  0.00     0.012 C 
HETATM   12  C14 UNL     1       3.868   6.354 -15.704  1.00  0.00     0.034 C 
HETATM   13  C15 UNL     1       2.407   6.775 -15.736  1.00  0.00     0.133 C 
HETATM   14  C22 UNL     1       3.139   4.143 -14.280  1.00  0.00     0.015 C 
HETATM   15  C23 UNL     1       1.750   4.620 -14.529  1.00  0.00     0.008 C 
HETATM   16  C24 UNL     1       0.997   3.645 -15.387  1.00  0.00    -0.014 C 
HETATM   17  C25 UNL     1      -0.138   2.935 -14.681  1.00  0.00     0.018 C 
HETATM   18  C26 UNL     1       1.912   2.505 -15.809  1.00  0.00     0.018 C 
ENDROOT
BRANCH  13  19
HETATM   19  O4  UNL     1       2.415   8.090 -15.810  1.00  0.00    -0.352 OA
BRANCH  19  20
HETATM   20  C16 UNL     1       2.868   8.967 -16.634  1.00  0.00     0.291 C 
HETATM   21  O5  UNL     1       2.922  10.156 -15.873  1.00  0.00    -0.351 OA
HETATM   22  C17 UNL     1       3.152  11.325 -16.418  1.00  0.00     0.152 C 
HETATM   23  C18 UNL     1       2.290  12.380 -15.697  1.00  0.00     0.042 C 
HETATM   24  C19 UNL     1       3.095  11.526 -17.886  1.00  0.00     0.178 C 
HETATM   25  C20 UNL     1       2.916  10.322 -18.717  1.00  0.00     0.183 C 
HETATM   26  C21 UNL     1       2.109   9.305 -17.899  1.00  0.00     0.204 C 
BRANCH  24  27
HETATM   27  O6  UNL     1       4.196  12.233 -18.409  1.00  0.00    -0.390 OA
ATOM     28  H6  UNL     1       4.330  12.103 -19.340  1.00  0.00     0.210 HD
ENDBRANCH  24  27
BRANCH  25  29
HETATM   29  O7  UNL     1       4.106   9.698 -19.086  1.00  0.00    -0.390 OA
ATOM     30  H7  UNL     1       4.105   9.344 -19.968  1.00  0.00     0.210 HD
ENDBRANCH  25  29
BRANCH  26  31
HETATM   31  O8  UNL     1       1.971   8.252 -18.785  1.00  0.00    -0.388 OA
ATOM     32  H8  UNL     1       2.361   8.400 -19.638  1.00  0.00     0.210 HD
ENDBRANCH  26  31
ENDBRANCH  19  20
ENDBRANCH  13  19
BRANCH   2  33
HETATM   33  O3  UNL     1      -0.142   6.240 -17.666  1.00  0.00    -0.393 OA
ATOM     34  H3  UNL     1      -0.574   5.791 -18.382  1.00  0.00     0.210 HD
ENDBRANCH   2  33
BRANCH   1  35
HETATM   35  O2  UNL     1      -0.498   3.285 -17.238  1.00  0.00    -0.313 OA
BRANCH  35  36
HETATM   36  C2  UNL     1      -0.458   2.841 -18.529  1.00  0.00     0.255 C 
HETATM   37  C1  UNL     1      -1.358   3.402 -19.602  1.00  0.00     0.126 C 
HETATM   38  O1  UNL     1       0.359   1.932 -18.825  1.00  0.00    -0.266 OA
ENDBRANCH  35  36
ENDBRANCH   1  35
TORSDOF 8
ENDMDL
MODEL 5
REMARK VINA RESULT: -6.771540187     11.629     15.430
REMARK  8 active torsions:
REMARK  status: ('A' for Active; 'I' for Inactive)
REMARK    1  A    between atoms: C2_2  and  O2_4 
REMARK    2  A    between atoms: O2_4  and  C3_5 
REMARK    3  A    between atoms: C4_6  and  O3_7 
REMARK    4  A    between atoms: C15_19  and  O4_20 
REMARK    5  A    between atoms: O4_20  and  C16_21 
REMARK    6  A    between atoms: C19_25  and  O6_26 
REMARK    7  A    between atoms: C20_28  and  O7_29 
REMARK    8  A    between atoms: C21_31  and  O8_32 
ROOT
HETATM    1  C3  UNL     1      -9.245   5.067 -20.374  1.00  0.00     0.168 C 
HETATM    2  C4  UNL     1      -9.924   6.058 -19.510  1.00  0.00     0.149 C 
HETATM    3  C5  UNL     1     -11.282   6.312 -19.962  1.00  0.00     0.046 C 
HETATM    4  C6  UNL     1     -12.113   5.112 -20.456  1.00  0.00    -0.007 C 
HETATM    5  C7  UNL     1     -13.471   5.716 -20.774  1.00  0.00     0.013 C 
HETATM    6  C8  UNL     1     -14.062   5.517 -22.103  1.00  0.00     0.006 C 
HETATM    7  C9  UNL     1     -14.068   4.225 -22.767  1.00  0.00    -0.010 C 
HETATM    8  C10 UNL     1     -15.485   3.690 -22.886  1.00  0.00     0.011 C 
HETATM    9  C11 UNL     1     -13.252   3.117 -22.196  1.00  0.00    -0.040 C 
HETATM   10  C12 UNL     1     -13.502   1.950 -23.183  1.00  0.00     0.015 C 
HETATM   11  C13 UNL     1     -13.600   2.598 -20.876  1.00  0.00     0.012 C 
HETATM   12  C14 UNL     1     -12.634   2.728 -19.768  1.00  0.00     0.034 C 
HETATM   13  C15 UNL     1     -12.317   4.152 -19.340  1.00  0.00     0.133 C 
HETATM   14  C22 UNL     1     -11.777   3.354 -22.282  1.00  0.00     0.015 C 
HETATM   15  C23 UNL     1     -11.389   4.654 -21.668  1.00  0.00     0.008 C 
HETATM   16  C24 UNL     1      -9.899   4.837 -21.705  1.00  0.00    -0.014 C 
HETATM   17  C25 UNL     1      -9.426   5.945 -22.621  1.00  0.00     0.018 C 
HETATM   18  C26 UNL     1      -9.235   3.597 -22.286  1.00  0.00     0.018 C 
ENDROOT
BRANCH  13  19
HETATM   19  O4  UNL     1     -13.148   4.423 -18.355  1.00  0.00    -0.352 OA
BRANCH  19  20
HETATM   20  C16 UNL     1     -13.094   4.412 -17.070  1.00  0.00     0.291 C 
HETATM   21  O5  UNL     1     -14.297   3.781 -16.683  1.00  0.00    -0.351 OA
HETATM   22  C17 UNL     1     -14.702   3.754 -15.437  1.00  0.00     0.152 C 
HETATM   23  C18 UNL     1     -16.235   3.905 -15.418  1.00  0.00     0.042 C 
HETATM   24  C19 UNL     1     -14.084   4.611 -14.397  1.00  0.00     0.178 C 
HETATM   25  C20 UNL     1     -12.894   5.385 -14.792  1.00  0.00     0.183 C 
HETATM   26  C21 UNL     1     -13.020   5.706 -16.288  1.00  0.00     0.204 C 
BRANCH  24  27
HETATM   27  O6  UNL     1     -13.759   3.924 -13.211  1.00  0.00    -0.390 OA
ATOM     28  H6  UNL     1     -14.372   3.234 -12.984  1.00  0.00     0.210 HD
ENDBRANCH  24  27
BRANCH  25  29
HETATM   29  O7  UNL     1     -11.687   4.712 -14.618  1.00  0.00    -0.390 OA
ATOM     30  H7  UNL     1     -11.387   4.671 -13.718  1.00  0.00     0.210 HD
ENDBRANCH  25  29
BRANCH  26  31
HETATM   31  O8  UNL     1     -11.886   6.459 -16.528  1.00  0.00    -0.388 OA
ATOM     32  H8  UNL     1     -12.038   7.256 -17.020  1.00  0.00     0.210 HD
ENDBRANCH  26  31
ENDBRANCH  19  20
ENDBRANCH  13  19
BRANCH   2  33
HETATM   33  O3  UNL     1      -9.731   5.729 -18.184  1.00  0.00    -0.393 OA
ATOM     34  H3  UNL     1     -10.057   4.852 -18.020  1.00  0.00     0.210 HD
ENDBRANCH   2  33
BRANCH   1  35
HETATM   35  O2  UNL     1      -7.896   5.514 -20.556  1.00  0.00    -0.313 OA
BRANCH  35  36
HETATM   36  C2  UNL     1      -6.799   4.955 -19.966  1.00  0.00     0.255 C 
HETATM   37  C1  UNL     1      -5.902   3.982 -20.688  1.00  0.00     0.126 C 
HETATM   38  O1  UNL     1      -6.536   5.269 -18.776  1.00  0.00    -0.266 OA
ENDBRANCH  35  36
ENDBRANCH   1  35
TORSDOF 8
ENDMDL
