MODEL 1
REMARK VINA RESULT: -6.023039920      0.000      0.000
REMARK  9 active torsions:
REMARK  status: ('A' for Active; 'I' for Inactive)
REMARK    1  A    between atoms: C3_4  and  O2_5 
REMARK    2  A    between atoms: C4_7  and  N1_8 
REMARK       I    between atoms: N1_8  and  C5_10 
REMARK    3  A    between atoms: C5_10  and  O4_12 
REMARK    4  A    between atoms: O4_12  and  C6_13 
REMARK    5  A    between atoms: C17_24  and  N2_25 
REMARK       I    between atoms: N2_25  and  C18_27 
REMARK    6  A    between atoms: C18_27  and  O6_29 
REMARK    7  A    between atoms: O6_29  and  C19_30 
REMARK    8  A    between atoms: C23_34  and  O7_35 
REMARK    9  A    between atoms: C24_37  and  O8_38 
ROOT
HETATM    1  C1  UNL     1      -9.829   4.393 -24.568  1.00  0.00     0.042 C 
HETATM    2  C2  UNL     1      -8.762   5.474 -24.612  1.00  0.00     0.152 C 
HETATM    3  O1  UNL     1      -7.549   4.854 -24.552  1.00  0.00    -0.352 OA
HETATM    4  C3  UNL     1      -6.704   5.176 -23.533  1.00  0.00     0.280 C 
HETATM    5  C4  UNL     1      -5.571   4.147 -23.380  1.00  0.00     0.141 C 
HETATM    6  C10 UNL     1      -5.043   4.318 -21.959  1.00  0.00     0.030 C 
HETATM    7  C11 UNL     1      -6.021   3.762 -20.950  1.00  0.00     0.002 C 
HETATM    8  C12 UNL     1      -6.340   4.766 -19.870  1.00  0.00     0.000 C 
HETATM    9  C13 UNL     1      -7.738   4.567 -19.315  1.00  0.00     0.000 C 
HETATM   10  C14 UNL     1      -8.437   5.898 -19.336  1.00  0.00     0.000 C 
HETATM   11  C15 UNL     1      -9.924   5.778 -19.454  1.00  0.00     0.002 C 
HETATM   12  C16 UNL     1     -10.419   5.600 -20.869  1.00  0.00     0.028 C 
HETATM   13  C17 UNL     1     -10.377   6.904 -21.648  1.00  0.00     0.118 C 
HETATM   14  C23 UNL     1     -10.390   6.656 -23.155  1.00  0.00     0.172 C 
HETATM   15  C24 UNL     1      -9.000   6.630 -23.723  1.00  0.00     0.177 C 
ENDROOT
BRANCH   5  16
HETATM   16  N1  UNL     1      -4.502   4.536 -24.252  1.00  0.00    -0.328 N 
HETATM   17  C5  UNL     1      -4.105   3.832 -25.401  1.00  0.00     0.361 C 
HETATM   18  O3  UNL     1      -4.740   2.762 -25.699  1.00  0.00    -0.238 OA
ATOM     19  H1  UNL     1      -3.991   5.388 -24.020  1.00  0.00     0.165 HD
BRANCH  17  20
HETATM   20  O4  UNL     1      -3.085   4.207 -26.227  1.00  0.00    -0.294 OA
BRANCH  20  21
HETATM   21  C6  UNL     1      -1.733   3.814 -26.071  1.00  0.00     0.061 C 
HETATM   22  C7  UNL     1      -0.868   4.934 -26.597  1.00  0.00     0.046 C 
HETATM   23  C8  UNL     1      -1.391   3.597 -24.607  1.00  0.00     0.046 C 
HETATM   24  C9  UNL     1      -1.421   2.550 -26.822  1.00  0.00     0.046 C 
ENDBRANCH  20  21
ENDBRANCH  17  20
ENDBRANCH   5  16
BRANCH   4  25
HETATM   25  O2  UNL     1      -6.124   6.402 -23.840  1.00  0.00    -0.369 OA
ATOM     26  H2  UNL     1      -6.762   6.908 -24.328  1.00  0.00     0.212 HD
ENDBRANCH   4  25
BRANCH  15  27
HETATM   27  O8  UNL     1      -8.766   7.824 -24.458  1.00  0.00    -0.390 OA
ATOM     28  H8  UNL     1      -8.239   8.410 -23.927  1.00  0.00     0.210 HD
ENDBRANCH  15  27
BRANCH  14  29
HETATM   29  O7  UNL     1     -11.085   7.711 -23.794  1.00  0.00    -0.391 OA
ATOM     30  H7  UNL     1     -12.018   7.594 -23.663  1.00  0.00     0.210 HD
ENDBRANCH  14  29
BRANCH  13  31
HETATM   31  N2  UNL     1     -11.610   7.602 -21.333  1.00  0.00    -0.330 N 
HETATM   32  C18 UNL     1     -11.662   8.727 -20.479  1.00  0.00     0.361 C 
HETATM   33  O5  UNL     1     -10.603   9.149 -19.966  1.00  0.00    -0.238 OA
ATOM     34  H2  UNL     1     -12.479   7.264 -21.747  1.00  0.00     0.165 HD
BRANCH  32  35
HETATM   35  O6  UNL     1     -12.849   9.340 -20.223  1.00  0.00    -0.294 OA
BRANCH  35  36
HETATM   36  C19 UNL     1     -13.492  10.252 -21.091  1.00  0.00     0.061 C 
HETATM   37  C20 UNL     1     -12.424  10.881 -21.964  1.00  0.00     0.046 C 
HETATM   38  C21 UNL     1     -14.376   9.444 -22.017  1.00  0.00     0.046 C 
HETATM   39  C22 UNL     1     -14.306  11.286 -20.399  1.00  0.00     0.046 C 
ENDBRANCH  35  36
ENDBRANCH  32  35
ENDBRANCH  13  31
TORSDOF 9
ENDMDL
MODEL 2
REMARK VINA RESULT: -5.841740762      3.341      5.272
REMARK  9 active torsions:
REMARK  status: ('A' for Active; 'I' for Inactive)
REMARK    1  A    between atoms: C3_4  and  O2_5 
REMARK    2  A    between atoms: C4_7  and  N1_8 
REMARK       I    between atoms: N1_8  and  C5_10 
REMARK    3  A    between atoms: C5_10  and  O4_12 
REMARK    4  A    between atoms: O4_12  and  C6_13 
REMARK    5  A    between atoms: C17_24  and  N2_25 
REMARK       I    between atoms: N2_25  and  C18_27 
REMARK    6  A    between atoms: C18_27  and  O6_29 
REMARK    7  A    between atoms: O6_29  and  C19_30 
REMARK    8  A    between atoms: C23_34  and  O7_35 
REMARK    9  A    between atoms: C24_37  and  O8_38 
ROOT
HETATM    1  C1  UNL     1      -7.893   6.190 -18.872  1.00  0.00     0.042 C 
HETATM    2  C2  UNL     1      -8.559   5.176 -19.786  1.00  0.00     0.152 C 
HETATM    3  O1  UNL     1      -8.035   5.346 -21.034  1.00  0.00    -0.352 OA
HETATM    4  C3  UNL     1      -8.883   5.639 -22.060  1.00  0.00     0.280 C 
HETATM    5  C4  UNL     1      -8.131   6.168 -23.293  1.00  0.00     0.141 C 
HETATM    6  C10 UNL     1      -9.168   6.921 -24.121  1.00  0.00     0.030 C 
HETATM    7  C11 UNL     1      -9.530   8.235 -23.469  1.00  0.00     0.002 C 
HETATM    8  C12 UNL     1     -11.023   8.389 -23.315  1.00  0.00     0.000 C 
HETATM    9  C13 UNL     1     -11.378   9.246 -22.114  1.00  0.00     0.000 C 
HETATM   10  C14 UNL     1     -12.402   8.501 -21.303  1.00  0.00     0.000 C 
HETATM   11  C15 UNL     1     -12.368   8.855 -19.849  1.00  0.00     0.002 C 
HETATM   12  C16 UNL     1     -11.327   8.104 -19.054  1.00  0.00     0.028 C 
HETATM   13  C17 UNL     1     -11.752   6.671 -18.783  1.00  0.00     0.118 C 
HETATM   14  C23 UNL     1     -10.555   5.787 -18.439  1.00  0.00     0.172 C 
HETATM   15  C24 UNL     1     -10.026   5.075 -19.652  1.00  0.00     0.177 C 
ENDROOT
BRANCH   5  16
HETATM   16  N1  UNL     1      -7.731   5.041 -24.082  1.00  0.00    -0.328 N 
HETATM   17  C5  UNL     1      -6.789   5.083 -25.124  1.00  0.00     0.361 C 
HETATM   18  O3  UNL     1      -6.242   6.207 -25.394  1.00  0.00    -0.238 OA
ATOM     19  H1  UNL     1      -8.164   4.142 -23.872  1.00  0.00     0.165 HD
BRANCH  17  20
HETATM   20  O4  UNL     1      -6.413   4.006 -25.873  1.00  0.00    -0.294 OA
BRANCH  20  21
HETATM   21  C6  UNL     1      -5.080   3.546 -26.015  1.00  0.00     0.061 C 
HETATM   22  C7  UNL     1      -5.137   2.134 -26.546  1.00  0.00     0.046 C 
HETATM   23  C8  UNL     1      -4.309   4.397 -27.010  1.00  0.00     0.046 C 
HETATM   24  C9  UNL     1      -4.337   3.557 -24.709  1.00  0.00     0.046 C 
ENDBRANCH  20  21
ENDBRANCH  17  20
ENDBRANCH   5  16
BRANCH   4  25
HETATM   25  O2  UNL     1      -9.522   4.460 -22.427  1.00  0.00    -0.369 OA
ATOM     26  H2  UNL     1      -9.055   4.101 -23.173  1.00  0.00     0.212 HD
ENDBRANCH   4  25
BRANCH  15  27
HETATM   27  O8  UNL     1     -10.384   3.701 -19.587  1.00  0.00    -0.390 OA
ATOM     28  H8  UNL     1     -11.315   3.637 -19.413  1.00  0.00     0.210 HD
ENDBRANCH  15  27
BRANCH  14  29
HETATM   29  O7  UNL     1     -10.958   4.796 -17.513  1.00  0.00    -0.391 OA
ATOM     30  H7  UNL     1     -11.644   4.267 -17.902  1.00  0.00     0.210 HD
ENDBRANCH  14  29
BRANCH  13  31
HETATM   31  N2  UNL     1     -12.586   6.716 -17.597  1.00  0.00    -0.330 N 
HETATM   32  C18 UNL     1     -13.953   6.351 -17.601  1.00  0.00     0.361 C 
HETATM   33  O5  UNL     1     -14.475   5.971 -18.670  1.00  0.00    -0.238 OA
ATOM     34  H2  UNL     1     -12.168   7.025 -16.719  1.00  0.00     0.165 HD
BRANCH  32  35
HETATM   35  O6  UNL     1     -14.682   6.413 -16.455  1.00  0.00    -0.294 OA
BRANCH  35  36
HETATM   36  C19 UNL     1     -14.494   5.578 -15.329  1.00  0.00     0.061 C 
HETATM   37  C20 UNL     1     -13.633   6.337 -14.337  1.00  0.00     0.046 C 
HETATM   38  C21 UNL     1     -15.844   5.398 -14.671  1.00  0.00     0.046 C 
HETATM   39  C22 UNL     1     -13.911   4.247 -15.645  1.00  0.00     0.046 C 
ENDBRANCH  35  36
ENDBRANCH  32  35
ENDBRANCH  13  31
TORSDOF 9
ENDMDL
MODEL 3
REMARK VINA RESULT: -5.829836836     11.070     15.817
REMARK  9 active torsions:
REMARK  status: ('A' for Active; 'I' for Inactive)
REMARK    1  A    between atoms: C3_4  and  O2_5 
REMARK    2  A    between atoms: C4_7  and  N1_8 
REMARK       I    between atoms: N1_8  and  C5_10 
REMARK    3  A    between atoms: C5_10  and  O4_12 
REMARK    4  A    between atoms: O4_12  and  C6_13 
REMARK    5  A    between atoms: C17_24  and  N2_25 
REMARK       I    between atoms: N2_25  and  C18_27 
REMARK    6  A    between atoms: C18_27  and  O6_29 
REMARK    7  A    between atoms: O6_29  and  C19_30 
REMARK    8  A    between atoms: C23_34  and  O7_35 
REMARK    9  A    between atoms: C24_37  and  O8_38 
ROOT
HETATM    1  C1  UNL     1       2.916   9.196 -16.465  1.00  0.00     0.042 C 
HETATM    2  C2  UNL     1       2.493   7.748 -16.647  1.00  0.00     0.152 C 
HETATM    3  O1  UNL     1       2.106   7.279 -15.426  1.00  0.00    -0.352 OA
HETATM    4  C3  UNL     1       2.751   6.194 -14.914  1.00  0.00     0.280 C 
HETATM    5  C4  UNL     1       2.479   6.022 -13.410  1.00  0.00     0.141 C 
HETATM    6  C10 UNL     1       3.613   5.150 -12.878  1.00  0.00     0.030 C 
HETATM    7  C11 UNL     1       4.906   5.930 -12.809  1.00  0.00     0.002 C 
HETATM    8  C12 UNL     1       6.031   5.207 -13.506  1.00  0.00     0.000 C 
HETATM    9  C13 UNL     1       7.055   6.174 -14.070  1.00  0.00     0.000 C 
HETATM   10  C14 UNL     1       7.294   5.805 -15.509  1.00  0.00     0.000 C 
HETATM   11  C15 UNL     1       7.722   6.967 -16.348  1.00  0.00     0.002 C 
HETATM   12  C16 UNL     1       6.582   7.819 -16.853  1.00  0.00     0.028 C 
HETATM   13  C17 UNL     1       5.847   7.150 -18.002  1.00  0.00     0.118 C 
HETATM   14  C23 UNL     1       4.446   7.731 -18.183  1.00  0.00     0.172 C 
HETATM   15  C24 UNL     1       3.412   6.920 -17.455  1.00  0.00     0.177 C 
ENDROOT
BRANCH   5  16
HETATM   16  N1  UNL     1       1.281   5.250 -13.264  1.00  0.00    -0.328 N 
HETATM   17  C5  UNL     1      -0.008   5.787 -13.103  1.00  0.00     0.361 C 
HETATM   18  O3  UNL     1      -0.129   7.060 -13.083  1.00  0.00    -0.238 OA
ATOM     19  H1  UNL     1       1.370   4.234 -13.279  1.00  0.00     0.165 HD
BRANCH  17  20
HETATM   20  O4  UNL     1      -1.146   5.047 -12.964  1.00  0.00    -0.294 OA
BRANCH  20  21
HETATM   21  C6  UNL     1      -1.859   4.452 -14.034  1.00  0.00     0.061 C 
HETATM   22  C7  UNL     1      -2.374   3.117 -13.555  1.00  0.00     0.046 C 
HETATM   23  C8  UNL     1      -3.050   5.304 -14.440  1.00  0.00     0.046 C 
HETATM   24  C9  UNL     1      -0.992   4.246 -15.245  1.00  0.00     0.046 C 
ENDBRANCH  20  21
ENDBRANCH  17  20
ENDBRANCH   5  16
BRANCH   4  25
HETATM   25  O2  UNL     1       2.260   5.067 -15.564  1.00  0.00    -0.369 OA
ATOM     26  H2  UNL     1       3.002   4.517 -15.786  1.00  0.00     0.212 HD
ENDBRANCH   4  25
BRANCH  15  27
HETATM   27  O8  UNL     1       2.647   6.175 -18.394  1.00  0.00    -0.390 OA
ATOM     28  H8  UNL     1       2.294   5.408 -17.958  1.00  0.00     0.210 HD
ENDBRANCH  15  27
BRANCH  14  29
HETATM   29  O7  UNL     1       4.106   7.708 -19.556  1.00  0.00    -0.391 OA
ATOM     30  H7  UNL     1       3.861   8.583 -19.832  1.00  0.00     0.210 HD
ENDBRANCH  14  29
BRANCH  13  31
HETATM   31  N2  UNL     1       6.590   7.481 -19.203  1.00  0.00    -0.330 N 
HETATM   32  C18 UNL     1       7.281   6.516 -19.973  1.00  0.00     0.361 C 
HETATM   33  O5  UNL     1       7.256   5.321 -19.610  1.00  0.00    -0.238 OA
ATOM     34  H2  UNL     1       6.615   8.454 -19.507  1.00  0.00     0.165 HD
BRANCH  32  35
HETATM   35  O6  UNL     1       7.958   6.888 -21.092  1.00  0.00    -0.294 OA
BRANCH  35  36
HETATM   36  C19 UNL     1       7.465   6.776 -22.411  1.00  0.00     0.061 C 
HETATM   37  C20 UNL     1       8.106   7.878 -23.234  1.00  0.00     0.046 C 
HETATM   38  C21 UNL     1       7.981   5.469 -22.975  1.00  0.00     0.046 C 
HETATM   39  C22 UNL     1       5.982   6.814 -22.516  1.00  0.00     0.046 C 
ENDBRANCH  35  36
ENDBRANCH  32  35
ENDBRANCH  13  31
TORSDOF 9
ENDMDL
MODEL 4
REMARK VINA RESULT: -5.725521526      8.789     13.038
REMARK  9 active torsions:
REMARK  status: ('A' for Active; 'I' for Inactive)
REMARK    1  A    between atoms: C3_4  and  O2_5 
REMARK    2  A    between atoms: C4_7  and  N1_8 
REMARK       I    between atoms: N1_8  and  C5_10 
REMARK    3  A    between atoms: C5_10  and  O4_12 
REMARK    4  A    between atoms: O4_12  and  C6_13 
REMARK    5  A    between atoms: C17_24  and  N2_25 
REMARK       I    between atoms: N2_25  and  C18_27 
REMARK    6  A    between atoms: C18_27  and  O6_29 
REMARK    7  A    between atoms: O6_29  and  C19_30 
REMARK    8  A    between atoms: C23_34  and  O7_35 
REMARK    9  A    between atoms: C24_37  and  O8_38 
ROOT
HETATM    1  C1  UNL     1      -2.885   4.124 -13.351  1.00  0.00     0.042 C 
HETATM    2  C2  UNL     1      -2.913   5.483 -14.030  1.00  0.00     0.152 C 
HETATM    3  O1  UNL     1      -3.739   5.383 -15.111  1.00  0.00    -0.352 OA
HETATM    4  C3  UNL     1      -3.232   5.664 -16.344  1.00  0.00     0.280 C 
HETATM    5  C4  UNL     1      -4.143   5.149 -17.471  1.00  0.00     0.141 C 
HETATM    6  C10 UNL     1      -3.258   5.052 -18.710  1.00  0.00     0.030 C 
HETATM    7  C11 UNL     1      -2.308   3.882 -18.605  1.00  0.00     0.002 C 
HETATM    8  C12 UNL     1      -0.880   4.299 -18.858  1.00  0.00     0.000 C 
HETATM    9  C13 UNL     1       0.102   3.422 -18.104  1.00  0.00     0.000 C 
HETATM   10  C14 UNL     1       1.048   4.324 -17.360  1.00  0.00     0.000 C 
HETATM   11  C15 UNL     1       1.610   3.694 -16.125  1.00  0.00     0.002 C 
HETATM   12  C16 UNL     1       0.711   3.794 -14.916  1.00  0.00     0.028 C 
HETATM   13  C17 UNL     1       0.730   5.190 -14.316  1.00  0.00     0.118 C 
HETATM   14  C23 UNL     1      -0.499   5.441 -13.445  1.00  0.00     0.172 C 
HETATM   15  C24 UNL     1      -1.594   6.122 -14.215  1.00  0.00     0.177 C 
ENDROOT
BRANCH   5  16
HETATM   16  N1  UNL     1      -5.113   6.165 -17.752  1.00  0.00    -0.328 N 
HETATM   17  C5  UNL     1      -6.463   5.924 -18.061  1.00  0.00     0.361 C 
HETATM   18  O3  UNL     1      -6.863   4.710 -18.096  1.00  0.00    -0.238 OA
ATOM     19  H1  UNL     1      -4.801   7.135 -17.725  1.00  0.00     0.165 HD
BRANCH  17  20
HETATM   20  O4  UNL     1      -7.383   6.896 -18.329  1.00  0.00    -0.294 OA
BRANCH  20  21
HETATM   21  C6  UNL     1      -8.623   6.678 -18.979  1.00  0.00     0.061 C 
HETATM   22  C7  UNL     1      -9.308   8.015 -19.118  1.00  0.00     0.046 C 
HETATM   23  C8  UNL     1      -8.419   6.101 -20.369  1.00  0.00     0.046 C 
HETATM   24  C9  UNL     1      -9.510   5.743 -18.205  1.00  0.00     0.046 C 
ENDBRANCH  20  21
ENDBRANCH  17  20
ENDBRANCH   5  16
BRANCH   4  25
HETATM   25  O2  UNL     1      -3.155   7.048 -16.461  1.00  0.00    -0.369 OA
ATOM     26  H2  UNL     1      -2.293   7.314 -16.162  1.00  0.00     0.212 HD
ENDBRANCH   4  25
BRANCH  15  27
HETATM   27  O8  UNL     1      -1.686   7.481 -13.808  1.00  0.00    -0.390 OA
ATOM     28  H8  UNL     1      -0.922   7.946 -14.127  1.00  0.00     0.210 HD
ENDBRANCH  15  27
BRANCH  14  29
HETATM   29  O7  UNL     1      -0.144   6.297 -12.375  1.00  0.00    -0.391 OA
ATOM     30  H7  UNL     1      -0.511   5.957 -11.568  1.00  0.00     0.210 HD
ENDBRANCH  14  29
BRANCH  13  31
HETATM   31  N2  UNL     1       1.879   5.233 -13.431  1.00  0.00    -0.330 N 
HETATM   32  C18 UNL     1       3.051   5.968 -13.725  1.00  0.00     0.361 C 
HETATM   33  O5  UNL     1       3.110   6.614 -14.793  1.00  0.00    -0.238 OA
ATOM     34  H2  UNL     1       1.840   4.708 -12.557  1.00  0.00     0.165 HD
BRANCH  32  35
HETATM   35  O6  UNL     1       4.096   5.970 -12.853  1.00  0.00    -0.294 OA
BRANCH  35  36
HETATM   36  C19 UNL     1       5.311   5.274 -13.045  1.00  0.00     0.061 C 
HETATM   37  C20 UNL     1       6.335   6.273 -13.549  1.00  0.00     0.046 C 
HETATM   38  C21 UNL     1       5.791   4.823 -11.683  1.00  0.00     0.046 C 
HETATM   39  C22 UNL     1       5.207   4.100 -13.952  1.00  0.00     0.046 C 
ENDBRANCH  35  36
ENDBRANCH  32  35
ENDBRANCH  13  31
TORSDOF 9
ENDMDL
MODEL 5
REMARK VINA RESULT: -5.597004553      3.664     10.261
REMARK  9 active torsions:
REMARK  status: ('A' for Active; 'I' for Inactive)
REMARK    1  A    between atoms: C3_4  and  O2_5 
REMARK    2  A    between atoms: C4_7  and  N1_8 
REMARK       I    between atoms: N1_8  and  C5_10 
REMARK    3  A    between atoms: C5_10  and  O4_12 
REMARK    4  A    between atoms: O4_12  and  C6_13 
REMARK    5  A    between atoms: C17_24  and  N2_25 
REMARK       I    between atoms: N2_25  and  C18_27 
REMARK    6  A    between atoms: C18_27  and  O6_29 
REMARK    7  A    between atoms: O6_29  and  C19_30 
REMARK    8  A    between atoms: C23_34  and  O7_35 
REMARK    9  A    between atoms: C24_37  and  O8_38 
ROOT
HETATM    1  C1  UNL     1     -11.970   3.287 -20.796  1.00  0.00     0.042 C 
HETATM    2  C2  UNL     1     -11.292   3.992 -19.634  1.00  0.00     0.152 C 
HETATM    3  O1  UNL     1     -12.200   4.852 -19.091  1.00  0.00    -0.352 OA
HETATM    4  C3  UNL     1     -11.890   6.177 -19.039  1.00  0.00     0.280 C 
HETATM    5  C4  UNL     1     -13.129   7.046 -18.765  1.00  0.00     0.141 C 
HETATM    6  C10 UNL     1     -12.766   8.450 -19.240  1.00  0.00     0.030 C 
HETATM    7  C11 UNL     1     -12.742   8.521 -20.749  1.00  0.00     0.002 C 
HETATM    8  C12 UNL     1     -11.451   9.108 -21.260  1.00  0.00     0.000 C 
HETATM    9  C13 UNL     1     -11.091   8.565 -22.630  1.00  0.00     0.000 C 
HETATM   10  C14 UNL     1      -9.664   8.092 -22.578  1.00  0.00     0.000 C 
HETATM   11  C15 UNL     1      -9.375   6.994 -23.554  1.00  0.00     0.002 C 
HETATM   12  C16 UNL     1      -9.753   5.616 -23.064  1.00  0.00     0.028 C 
HETATM   13  C17 UNL     1      -8.757   5.090 -22.045  1.00  0.00     0.118 C 
HETATM   14  C23 UNL     1      -9.362   3.971 -21.198  1.00  0.00     0.172 C 
HETATM   15  C24 UNL     1      -9.931   4.497 -19.912  1.00  0.00     0.177 C 
ENDROOT
BRANCH   5  16
HETATM   16  N1  UNL     1     -13.299   7.136 -17.346  1.00  0.00    -0.328 N 
HETATM   17  C5  UNL     1     -14.419   6.667 -16.638  1.00  0.00     0.361 C 
HETATM   18  O3  UNL     1     -15.362   6.117 -17.304  1.00  0.00    -0.238 OA
ATOM     19  H1  UNL     1     -12.551   7.574 -16.808  1.00  0.00     0.165 HD
BRANCH  17  20
HETATM   20  O4  UNL     1     -14.575   6.757 -15.285  1.00  0.00    -0.294 OA
BRANCH  20  21
HETATM   21  C6  UNL     1     -14.888   7.948 -14.585  1.00  0.00     0.061 C 
HETATM   22  C7  UNL     1     -13.614   8.456 -13.955  1.00  0.00     0.046 C 
HETATM   23  C8  UNL     1     -15.412   9.017 -15.528  1.00  0.00     0.046 C 
HETATM   24  C9  UNL     1     -15.916   7.719 -13.512  1.00  0.00     0.046 C 
ENDBRANCH  20  21
ENDBRANCH  17  20
ENDBRANCH   5  16
BRANCH   4  25
HETATM   25  O2  UNL     1     -11.003   6.361 -17.985  1.00  0.00    -0.369 OA
ATOM     26  H2  UNL     1     -11.505   6.659 -17.235  1.00  0.00     0.212 HD
ENDBRANCH   4  25
BRANCH  15  27
HETATM   27  O8  UNL     1      -9.081   4.131 -18.832  1.00  0.00    -0.390 OA
ATOM     28  H8  UNL     1      -9.135   3.191 -18.709  1.00  0.00     0.210 HD
ENDBRANCH  15  27
BRANCH  14  29
HETATM   29  O7  UNL     1      -8.348   3.043 -20.860  1.00  0.00    -0.391 OA
ATOM     30  H7  UNL     1      -7.515   3.497 -20.805  1.00  0.00     0.210 HD
ENDBRANCH  14  29
BRANCH  13  31
HETATM   31  N2  UNL     1      -7.677   4.492 -22.808  1.00  0.00    -0.330 N 
HETATM   32  C18 UNL     1      -6.339   4.456 -22.352  1.00  0.00     0.361 C 
HETATM   33  O5  UNL     1      -6.063   4.959 -21.242  1.00  0.00    -0.238 OA
ATOM     34  H2  UNL     1      -7.893   4.079 -23.715  1.00  0.00     0.165 HD
BRANCH  32  35
HETATM   35  O6  UNL     1      -5.370   3.880 -23.113  1.00  0.00    -0.294 OA
BRANCH  35  36
HETATM   36  C19 UNL     1      -4.952   4.347 -24.380  1.00  0.00     0.061 C 
HETATM   37  C20 UNL     1      -5.377   5.798 -24.495  1.00  0.00     0.046 C 
HETATM   38  C21 UNL     1      -3.439   4.344 -24.384  1.00  0.00     0.046 C 
HETATM   39  C22 UNL     1      -5.456   3.543 -25.525  1.00  0.00     0.046 C 
ENDBRANCH  35  36
ENDBRANCH  32  35
ENDBRANCH  13  31
TORSDOF 9
ENDMDL
