MODEL 1
REMARK VINA RESULT: -8.989864472      0.000      0.000
REMARK  8 active torsions:
REMARK  status: ('A' for Active; 'I' for Inactive)
REMARK    1  A    between atoms: C4_4  and  C5_5 
REMARK    2  A    between atoms: C5_5  and  C6_6 
REMARK    3  A    between atoms: C11_11  and  C12_12 
REMARK    4  A    between atoms: C13_13  and  C14_14 
REMARK    5  A    between atoms: C15_15  and  C16_16 
REMARK    6  A    between atoms: C17_17  and  C18_18 
REMARK    7  A    between atoms: C19_19  and  C20_20 
REMARK    8  A    between atoms: C21_21  and  C22_22 
ROOT
HETATM    1  C6  UNL     1      -8.070  13.280  -7.026  1.00  0.00    -0.016 C 
HETATM    2  C7  UNL     1      -9.108  12.402  -6.373  1.00  0.00     0.020 C 
HETATM    3  C8  UNL     1      -6.725  12.556  -6.898  1.00  0.00    -0.016 C 
HETATM    4  C9  UNL     1      -5.532  12.784  -7.479  1.00  0.00     0.004 C 
HETATM    5  C10 UNL     1      -5.357  13.918  -8.446  1.00  0.00    -0.058 C 
HETATM    6  C11 UNL     1      -4.142  14.376  -8.428  1.00  0.00     0.007 C 
HETATM    7  C23 UNL     1      -6.249  14.564  -9.370  1.00  0.00     0.039 C 
HETATM    8  C24 UNL     1      -7.605  13.836  -9.663  1.00  0.00     0.014 C 
HETATM    9  C25 UNL     1      -8.074  13.530  -8.403  1.00  0.00    -0.036 C 
HETATM   10  C26 UNL     1      -8.355  12.139  -8.725  1.00  0.00     0.016 C 
HETATM   11  C27 UNL     1      -8.819  14.771  -8.283  1.00  0.00     0.016 C 
ENDROOT
BRANCH   6  12
HETATM   12  C12 UNL     1      -3.751  15.488  -9.297  1.00  0.00     0.001 C 
HETATM   13  C13 UNL     1      -2.733  16.252  -8.869  1.00  0.00     0.000 C 
BRANCH  13  14
HETATM   14  C14 UNL     1      -2.308  17.357  -9.684  1.00  0.00     0.000 C 
HETATM   15  C15 UNL     1      -2.704  18.581  -9.474  1.00  0.00     0.000 C 
BRANCH  15  16
HETATM   16  C16 UNL     1      -3.611  18.987  -8.414  1.00  0.00     0.000 C 
HETATM   17  C17 UNL     1      -4.906  18.914  -8.450  1.00  0.00     0.000 C 
BRANCH  17  18
HETATM   18  C18 UNL     1      -5.645  18.395  -9.607  1.00  0.00     0.000 C 
HETATM   19  C19 UNL     1      -6.936  18.127  -9.461  1.00  0.00     0.000 C 
BRANCH  19  20
HETATM   20  C20 UNL     1      -7.703  17.615 -10.574  1.00  0.00     0.007 C 
HETATM   21  C21 UNL     1      -9.016  17.787 -10.589  1.00  0.00     0.084 C 
BRANCH  21  22
HETATM   22  C22 UNL     1      -9.781  17.272 -11.708  1.00  0.00     0.198 C 
HETATM   23  O1  UNL     1      -9.754  17.894 -12.797  1.00  0.00    -0.645 OA
HETATM   24  O2  UNL     1     -10.522  16.128 -11.577  1.00  0.00    -0.645 OA
ENDBRANCH  21  22
ENDBRANCH  19  20
ENDBRANCH  17  18
ENDBRANCH  15  16
ENDBRANCH  13  14
ENDBRANCH   6  12
BRANCH   1  25
HETATM   25  C5  UNL     1      -8.025  14.413  -5.990  1.00  0.00     0.041 C 
BRANCH  25  26
HETATM   26  C4  UNL     1      -8.186  13.983  -4.602  1.00  0.00    -0.024 C 
HETATM   27  C2  UNL     1      -8.177  14.886  -3.636  1.00  0.00    -0.091 C 
HETATM   28  C1  UNL     1      -8.341  14.488  -2.186  1.00  0.00     0.042 C 
HETATM   29  C3  UNL     1      -8.001  16.343  -3.893  1.00  0.00     0.042 C 
ENDBRANCH  25  26
ENDBRANCH   1  25
TORSDOF 8
ENDMDL
MODEL 2
REMARK VINA RESULT: -7.978715105      1.883      4.449
REMARK  8 active torsions:
REMARK  status: ('A' for Active; 'I' for Inactive)
REMARK    1  A    between atoms: C4_4  and  C5_5 
REMARK    2  A    between atoms: C5_5  and  C6_6 
REMARK    3  A    between atoms: C11_11  and  C12_12 
REMARK    4  A    between atoms: C13_13  and  C14_14 
REMARK    5  A    between atoms: C15_15  and  C16_16 
REMARK    6  A    between atoms: C17_17  and  C18_18 
REMARK    7  A    between atoms: C19_19  and  C20_20 
REMARK    8  A    between atoms: C21_21  and  C22_22 
ROOT
HETATM    1  C6  UNL     1      -6.025  14.067  -9.721  1.00  0.00    -0.016 C 
HETATM    2  C7  UNL     1      -5.473  13.276 -10.880  1.00  0.00     0.020 C 
HETATM    3  C8  UNL     1      -5.744  13.258  -8.450  1.00  0.00    -0.016 C 
HETATM    4  C9  UNL     1      -5.830  13.586  -7.148  1.00  0.00     0.004 C 
HETATM    5  C10 UNL     1      -6.265  14.961  -6.733  1.00  0.00    -0.058 C 
HETATM    6  C11 UNL     1      -6.870  14.943  -5.584  1.00  0.00     0.007 C 
HETATM    7  C23 UNL     1      -6.133  16.257  -7.343  1.00  0.00     0.039 C 
HETATM    8  C24 UNL     1      -5.132  16.369  -8.543  1.00  0.00     0.014 C 
HETATM    9  C25 UNL     1      -5.481  15.300  -9.342  1.00  0.00    -0.036 C 
HETATM   10  C26 UNL     1      -4.115  14.820  -9.487  1.00  0.00     0.016 C 
HETATM   11  C27 UNL     1      -6.429  16.078 -10.120  1.00  0.00     0.016 C 
ENDROOT
BRANCH   6  12
HETATM   12  C12 UNL     1      -7.380  16.181  -4.990  1.00  0.00     0.001 C 
HETATM   13  C13 UNL     1      -8.509  16.677  -5.520  1.00  0.00     0.000 C 
BRANCH  13  14
HETATM   14  C14 UNL     1      -9.055  17.890  -4.975  1.00  0.00     0.000 C 
HETATM   15  C15 UNL     1      -8.611  19.071  -5.301  1.00  0.00     0.000 C 
BRANCH  15  16
HETATM   16  C16 UNL     1      -7.528  19.319  -6.238  1.00  0.00     0.000 C 
HETATM   17  C17 UNL     1      -7.629  19.331  -7.532  1.00  0.00     0.000 C 
BRANCH  17  18
HETATM   18  C18 UNL     1      -8.891  19.085  -8.238  1.00  0.00     0.000 C 
HETATM   19  C19 UNL     1      -8.843  18.509  -9.432  1.00  0.00     0.000 C 
BRANCH  19  20
HETATM   20  C20 UNL     1     -10.063  18.247 -10.163  1.00  0.00     0.007 C 
HETATM   21  C21 UNL     1     -10.025  18.190 -11.485  1.00  0.00     0.084 C 
BRANCH  21  22
HETATM   22  C22 UNL     1     -11.251  17.928 -12.214  1.00  0.00     0.198 C 
HETATM   23  O1  UNL     1     -11.823  16.823 -12.056  1.00  0.00    -0.645 OA
HETATM   24  O2  UNL     1     -11.773  18.868 -13.061  1.00  0.00    -0.645 OA
ENDBRANCH  21  22
ENDBRANCH  19  20
ENDBRANCH  17  18
ENDBRANCH  15  16
ENDBRANCH  13  14
ENDBRANCH   6  12
BRANCH   1  25
HETATM   25  C5  UNL     1      -7.525  13.887  -9.998  1.00  0.00     0.041 C 
BRANCH  25  26
HETATM   26  C4  UNL     1      -8.020  12.521  -9.828  1.00  0.00    -0.024 C 
HETATM   27  C2  UNL     1      -8.853  12.250  -8.837  1.00  0.00    -0.091 C 
HETATM   28  C1  UNL     1      -9.392  10.854  -8.622  1.00  0.00     0.042 C 
HETATM   29  C3  UNL     1      -9.313  13.280  -7.863  1.00  0.00     0.042 C 
ENDBRANCH  25  26
ENDBRANCH   1  25
TORSDOF 8
ENDMDL
MODEL 3
REMARK VINA RESULT: -7.972555875      1.770      2.637
REMARK  8 active torsions:
REMARK  status: ('A' for Active; 'I' for Inactive)
REMARK    1  A    between atoms: C4_4  and  C5_5 
REMARK    2  A    between atoms: C5_5  and  C6_6 
REMARK    3  A    between atoms: C11_11  and  C12_12 
REMARK    4  A    between atoms: C13_13  and  C14_14 
REMARK    5  A    between atoms: C15_15  and  C16_16 
REMARK    6  A    between atoms: C17_17  and  C18_18 
REMARK    7  A    between atoms: C19_19  and  C20_20 
REMARK    8  A    between atoms: C21_21  and  C22_22 
ROOT
HETATM    1  C6  UNL     1      -8.302  13.010  -8.203  1.00  0.00    -0.016 C 
HETATM    2  C7  UNL     1      -8.950  11.650  -8.276  1.00  0.00     0.020 C 
HETATM    3  C8  UNL     1      -6.799  12.780  -8.006  1.00  0.00    -0.016 C 
HETATM    4  C9  UNL     1      -5.751  13.621  -8.087  1.00  0.00     0.004 C 
HETATM    5  C10 UNL     1      -5.958  15.068  -8.427  1.00  0.00    -0.058 C 
HETATM    6  C11 UNL     1      -5.045  15.818  -7.888  1.00  0.00     0.007 C 
HETATM    7  C23 UNL     1      -6.937  15.758  -9.223  1.00  0.00     0.039 C 
HETATM    8  C24 UNL     1      -7.838  14.874 -10.150  1.00  0.00     0.014 C 
HETATM    9  C25 UNL     1      -8.268  13.872  -9.305  1.00  0.00    -0.036 C 
HETATM   10  C26 UNL     1      -7.920  12.798 -10.222  1.00  0.00     0.016 C 
HETATM   11  C27 UNL     1      -9.463  14.596  -8.910  1.00  0.00     0.016 C 
ENDROOT
BRANCH   6  12
HETATM   12  C12 UNL     1      -5.057  17.269  -8.090  1.00  0.00     0.001 C 
HETATM   13  C13 UNL     1      -5.678  17.998  -7.150  1.00  0.00     0.000 C 
BRANCH  13  14
HETATM   14  C14 UNL     1      -5.719  19.428  -7.298  1.00  0.00     0.000 C 
HETATM   15  C15 UNL     1      -6.662  20.163  -6.780  1.00  0.00     0.000 C 
BRANCH  15  16
HETATM   16  C16 UNL     1      -7.777  19.652  -6.001  1.00  0.00     0.000 C 
HETATM   17  C17 UNL     1      -8.968  19.402  -6.451  1.00  0.00     0.000 C 
BRANCH  17  18
HETATM   18  C18 UNL     1      -9.354  19.610  -7.851  1.00  0.00     0.000 C 
HETATM   19  C19 UNL     1      -9.151  18.623  -8.714  1.00  0.00     0.000 C 
BRANCH  19  20
HETATM   20  C20 UNL     1      -9.518  18.786 -10.103  1.00  0.00     0.007 C 
HETATM   21  C21 UNL     1     -10.302  17.885 -10.675  1.00  0.00     0.084 C 
BRANCH  21  22
HETATM   22  C22 UNL     1     -10.667  18.052 -12.068  1.00  0.00     0.198 C 
HETATM   23  O1  UNL     1     -11.448  17.223 -12.592  1.00  0.00    -0.645 OA
HETATM   24  O2  UNL     1     -10.166  19.095 -12.799  1.00  0.00    -0.645 OA
ENDBRANCH  21  22
ENDBRANCH  19  20
ENDBRANCH  17  18
ENDBRANCH  15  16
ENDBRANCH  13  14
ENDBRANCH   6  12
BRANCH   1  25
HETATM   25  C5  UNL     1      -8.831  13.457  -6.832  1.00  0.00     0.041 C 
BRANCH  25  26
HETATM   26  C4  UNL     1      -7.804  13.917  -5.898  1.00  0.00    -0.024 C 
HETATM   27  C2  UNL     1      -7.802  15.180  -5.505  1.00  0.00    -0.091 C 
HETATM   28  C1  UNL     1      -6.762  15.701  -4.540  1.00  0.00     0.042 C 
HETATM   29  C3  UNL     1      -8.805  16.176  -5.978  1.00  0.00     0.042 C 
ENDBRANCH  25  26
ENDBRANCH   1  25
TORSDOF 8
ENDMDL
MODEL 4
REMARK VINA RESULT: -7.899637448      2.505      5.681
REMARK  8 active torsions:
REMARK  status: ('A' for Active; 'I' for Inactive)
REMARK    1  A    between atoms: C4_4  and  C5_5 
REMARK    2  A    between atoms: C5_5  and  C6_6 
REMARK    3  A    between atoms: C11_11  and  C12_12 
REMARK    4  A    between atoms: C13_13  and  C14_14 
REMARK    5  A    between atoms: C15_15  and  C16_16 
REMARK    6  A    between atoms: C17_17  and  C18_18 
REMARK    7  A    between atoms: C19_19  and  C20_20 
REMARK    8  A    between atoms: C21_21  and  C22_22 
ROOT
HETATM    1  C6  UNL     1      -6.278  13.949 -10.479  1.00  0.00    -0.016 C 
HETATM    2  C7  UNL     1      -5.944  13.755 -11.936  1.00  0.00     0.020 C 
HETATM    3  C8  UNL     1      -7.453  13.017 -10.160  1.00  0.00    -0.016 C 
HETATM    4  C9  UNL     1      -7.998  12.640  -8.988  1.00  0.00     0.004 C 
HETATM    5  C10 UNL     1      -7.447  13.152  -7.689  1.00  0.00    -0.058 C 
HETATM    6  C11 UNL     1      -8.370  13.225  -6.778  1.00  0.00     0.007 C 
HETATM    7  C23 UNL     1      -6.131  13.552  -7.272  1.00  0.00     0.039 C 
HETATM    8  C24 UNL     1      -4.946  13.166  -8.222  1.00  0.00     0.014 C 
HETATM    9  C25 UNL     1      -5.394  13.572  -9.462  1.00  0.00    -0.036 C 
HETATM   10  C26 UNL     1      -5.072  12.312 -10.113  1.00  0.00     0.016 C 
HETATM   11  C27 UNL     1      -4.804  14.893  -9.339  1.00  0.00     0.016 C 
ENDROOT
BRANCH   6  12
HETATM   12  C12 UNL     1      -8.050  13.702  -5.430  1.00  0.00     0.001 C 
HETATM   13  C13 UNL     1      -8.083  15.032  -5.244  1.00  0.00     0.000 C 
BRANCH  13  14
HETATM   14  C14 UNL     1      -7.779  15.555  -3.940  1.00  0.00     0.000 C 
HETATM   15  C15 UNL     1      -8.138  16.748  -3.558  1.00  0.00     0.000 C 
BRANCH  15  16
HETATM   16  C16 UNL     1      -8.878  17.692  -4.378  1.00  0.00     0.000 C 
HETATM   17  C17 UNL     1      -8.408  18.348  -5.394  1.00  0.00     0.000 C 
BRANCH  17  18
HETATM   18  C18 UNL     1      -7.023  18.216  -5.860  1.00  0.00     0.000 C 
HETATM   19  C19 UNL     1      -6.814  17.875  -7.125  1.00  0.00     0.000 C 
BRANCH  19  20
HETATM   20  C20 UNL     1      -5.465  17.734  -7.627  1.00  0.00     0.007 C 
HETATM   21  C21 UNL     1      -4.978  18.658  -8.440  1.00  0.00     0.084 C 
BRANCH  21  22
HETATM   22  C22 UNL     1      -3.625  18.513  -8.941  1.00  0.00     0.198 C 
HETATM   23  O1  UNL     1      -3.328  19.036 -10.041  1.00  0.00    -0.645 OA
HETATM   24  O2  UNL     1      -2.689  17.816  -8.225  1.00  0.00    -0.645 OA
ENDBRANCH  21  22
ENDBRANCH  19  20
ENDBRANCH  17  18
ENDBRANCH  15  16
ENDBRANCH  13  14
ENDBRANCH   6  12
BRANCH   1  25
HETATM   25  C5  UNL     1      -6.883  15.359 -10.554  1.00  0.00     0.041 C 
BRANCH  25  26
HETATM   26  C4  UNL     1      -8.344  15.404 -10.491  1.00  0.00    -0.024 C 
HETATM   27  C2  UNL     1      -8.986  16.432 -11.021  1.00  0.00    -0.091 C 
HETATM   28  C1  UNL     1     -10.494  16.522 -10.981  1.00  0.00     0.042 C 
HETATM   29  C3  UNL     1      -8.285  17.569 -11.682  1.00  0.00     0.042 C 
ENDBRANCH  25  26
ENDBRANCH   1  25
TORSDOF 8
ENDMDL
MODEL 5
REMARK VINA RESULT: -7.851107829      2.696      5.472
REMARK  8 active torsions:
REMARK  status: ('A' for Active; 'I' for Inactive)
REMARK    1  A    between atoms: C4_4  and  C5_5 
REMARK    2  A    between atoms: C5_5  and  C6_6 
REMARK    3  A    between atoms: C11_11  and  C12_12 
REMARK    4  A    between atoms: C13_13  and  C14_14 
REMARK    5  A    between atoms: C15_15  and  C16_16 
REMARK    6  A    between atoms: C17_17  and  C18_18 
REMARK    7  A    between atoms: C19_19  and  C20_20 
REMARK    8  A    between atoms: C21_21  and  C22_22 
ROOT
HETATM    1  C6  UNL     1      -6.676  13.313  -7.213  1.00  0.00    -0.016 C 
HETATM    2  C7  UNL     1      -5.907  12.207  -6.537  1.00  0.00     0.020 C 
HETATM    3  C8  UNL     1      -7.710  12.647  -8.127  1.00  0.00    -0.016 C 
HETATM    4  C9  UNL     1      -8.772  13.148  -8.785  1.00  0.00     0.004 C 
HETATM    5  C10 UNL     1      -9.115  14.606  -8.684  1.00  0.00    -0.058 C 
HETATM    6  C11 UNL     1      -9.699  15.033  -9.763  1.00  0.00     0.007 C 
HETATM    7  C23 UNL     1      -8.937  15.585  -7.646  1.00  0.00     0.039 C 
HETATM    8  C24 UNL     1      -8.551  15.043  -6.228  1.00  0.00     0.014 C 
HETATM    9  C25 UNL     1      -7.514  14.175  -6.496  1.00  0.00    -0.036 C 
HETATM   10  C26 UNL     1      -8.077  13.086  -5.711  1.00  0.00     0.016 C 
HETATM   11  C27 UNL     1      -6.498  15.198  -6.330  1.00  0.00     0.016 C 
ENDROOT
BRANCH   6  12
HETATM   12  C12 UNL     1     -10.119  16.432  -9.879  1.00  0.00     0.001 C 
HETATM   13  C13 UNL     1      -9.185  17.304 -10.289  1.00  0.00     0.000 C 
BRANCH  13  14
HETATM   14  C14 UNL     1      -9.543  18.690 -10.422  1.00  0.00     0.000 C 
HETATM   15  C15 UNL     1      -9.708  19.476  -9.396  1.00  0.00     0.000 C 
BRANCH  15  16
HETATM   16  C16 UNL     1      -9.558  19.070  -8.009  1.00  0.00     0.000 C 
HETATM   17  C17 UNL     1      -8.433  18.889  -7.386  1.00  0.00     0.000 C 
BRANCH  17  18
HETATM   18  C18 UNL     1      -7.127  19.078  -8.025  1.00  0.00     0.000 C 
HETATM   19  C19 UNL     1      -6.318  18.031  -8.127  1.00  0.00     0.000 C 
BRANCH  19  20
HETATM   20  C20 UNL     1      -5.021  18.171  -8.751  1.00  0.00     0.007 C 
HETATM   21  C21 UNL     1      -4.056  17.322  -8.434  1.00  0.00     0.084 C 
BRANCH  21  22
HETATM   22  C22 UNL     1      -2.757  17.466  -9.062  1.00  0.00     0.198 C 
HETATM   23  O1  UNL     1      -2.327  18.619  -9.305  1.00  0.00    -0.645 OA
HETATM   24  O2  UNL     1      -2.014  16.363  -9.386  1.00  0.00    -0.645 OA
ENDBRANCH  21  22
ENDBRANCH  19  20
ENDBRANCH  17  18
ENDBRANCH  15  16
ENDBRANCH  13  14
ENDBRANCH   6  12
BRANCH   1  25
HETATM   25  C5  UNL     1      -5.577  13.836  -8.149  1.00  0.00     0.041 C 
BRANCH  25  26
HETATM   26  C4  UNL     1      -5.356  13.027  -9.347  1.00  0.00    -0.024 C 
HETATM   27  C2  UNL     1      -5.609  13.545 -10.538  1.00  0.00    -0.091 C 
HETATM   28  C1  UNL     1      -5.395  12.748 -11.804  1.00  0.00     0.042 C 
HETATM   29  C3  UNL     1      -6.123  14.932 -10.723  1.00  0.00     0.042 C 
ENDBRANCH  25  26
ENDBRANCH   1  25
TORSDOF 8
ENDMDL
