MODEL 1
REMARK VINA RESULT: -5.068086313      0.000      0.000
REMARK  10 active torsions:
REMARK  status: ('A' for Active; 'I' for Inactive)
REMARK    1  A    between atoms: C2_2  and  C3_3 
REMARK    2  A    between atoms: C6_6  and  C7_7 
REMARK    3  A    between atoms: C8_8  and  C9_9 
REMARK    4  A    between atoms: C11_11  and  C12_12 
REMARK    5  A    between atoms: C13_13  and  C15_15 
REMARK    6  A    between atoms: C15_15  and  C16_16 
REMARK    7  A    between atoms: C16_16  and  C17_17 
REMARK    8  A    between atoms: C17_17  and  C18_18 
REMARK    9  A    between atoms: C18_18  and  C20_20 
REMARK   10  A    between atoms: C25_25  and  C27_27 
ROOT
HETATM    1  C7  UNL     1      -7.918  16.384  -3.401  1.00  0.00    -0.018 C 
HETATM    2  C8  UNL     1      -7.844  15.122  -3.154  1.00  0.00     0.003 C 
ENDROOT
BRANCH   2   3
HETATM    3  C9  UNL     1      -8.185  14.597  -1.798  1.00  0.00    -0.062 C 
HETATM    4  C10 UNL     1      -9.268  15.290  -1.097  1.00  0.00     0.048 C 
HETATM    5  C11 UNL     1      -7.501  13.591  -1.354  1.00  0.00     0.007 C 
BRANCH   5   6
HETATM    6  C12 UNL     1      -7.634  12.876  -0.072  1.00  0.00     0.007 C 
HETATM    7  C13 UNL     1      -6.851  11.957   0.431  1.00  0.00    -0.062 C 
HETATM    8  C14 UNL     1      -5.779  11.865  -1.107  1.00  0.00     0.048 C 
BRANCH   7   9
HETATM    9  C15 UNL     1      -6.026  10.992   0.958  1.00  0.00     0.007 C 
BRANCH   9  10
HETATM   10  C16 UNL     1      -6.618  10.168   2.046  1.00  0.00     0.001 C 
BRANCH  10  11
HETATM   11  C17 UNL     1      -7.838   9.715   1.907  1.00  0.00     0.007 C 
BRANCH  11  12
HETATM   12  C18 UNL     1      -8.090   8.330   1.536  1.00  0.00    -0.060 C 
HETATM   13  C19 UNL     1      -7.166   7.523   0.688  1.00  0.00     0.048 C 
BRANCH  12  14
HETATM   14  C20 UNL     1      -9.216   7.745   1.978  1.00  0.00    -0.082 C 
HETATM   15  C21 UNL     1      -9.641   8.009   3.374  1.00  0.00     0.043 C 
HETATM   16  C22 UNL     1     -10.013   6.843   1.139  1.00  0.00     0.043 C 
ENDBRANCH  12  14
ENDBRANCH  11  12
ENDBRANCH  10  11
ENDBRANCH   9  10
ENDBRANCH   7   9
ENDBRANCH   5   6
ENDBRANCH   2   3
BRANCH   1  17
HETATM   17  C6  UNL     1      -7.599  16.942  -4.751  1.00  0.00     0.031 C 
HETATM   18  C5  UNL     1      -6.903  15.773  -5.453  1.00  0.00     0.027 C 
HETATM   19  C3  UNL     1      -6.639  16.006  -6.912  1.00  0.00    -0.005 C 
HETATM   20  C4  UNL     1      -5.146  16.267  -7.025  1.00  0.00     0.021 C 
HETATM   21  C25 UNL     1      -7.504  16.998  -7.619  1.00  0.00     0.073 C 
HETATM   22  C24 UNL     1      -8.769  17.216  -6.854  1.00  0.00    -0.009 C 
HETATM   23  C26 UNL     1      -8.043  16.305  -8.936  1.00  0.00     0.032 C 
HETATM   24  C23 UNL     1      -8.801  17.191  -5.546  1.00  0.00    -0.021 C 
BRANCH  19  25
HETATM   25  C2  UNL     1      -6.881  14.658  -7.552  1.00  0.00    -0.026 C 
HETATM   26  C1  UNL     1      -6.790  13.552  -6.898  1.00  0.00     0.008 C 
ENDBRANCH  19  25
BRANCH  21  27
HETATM   27  C27 UNL     1      -6.965  18.226  -8.013  1.00  0.00     0.186 C 
HETATM   28  O1  UNL     1      -6.199  19.183  -7.972  1.00  0.00    -0.647 OA
HETATM   29  O2  UNL     1      -7.847  18.751  -9.241  1.00  0.00    -0.647 OA
ENDBRANCH  21  27
ENDBRANCH   1  17
TORSDOF 10
ENDMDL
MODEL 2
REMARK VINA RESULT: -5.044981050      1.387      1.917
REMARK  10 active torsions:
REMARK  status: ('A' for Active; 'I' for Inactive)
REMARK    1  A    between atoms: C2_2  and  C3_3 
REMARK    2  A    between atoms: C6_6  and  C7_7 
REMARK    3  A    between atoms: C8_8  and  C9_9 
REMARK    4  A    between atoms: C11_11  and  C12_12 
REMARK    5  A    between atoms: C13_13  and  C15_15 
REMARK    6  A    between atoms: C15_15  and  C16_16 
REMARK    7  A    between atoms: C16_16  and  C17_17 
REMARK    8  A    between atoms: C17_17  and  C18_18 
REMARK    9  A    between atoms: C18_18  and  C20_20 
REMARK   10  A    between atoms: C25_25  and  C27_27 
ROOT
HETATM    1  C7  UNL     1      -8.057  14.301  -4.210  1.00  0.00    -0.018 C 
HETATM    2  C8  UNL     1      -7.698  14.951  -3.157  1.00  0.00     0.003 C 
ENDROOT
BRANCH   2   3
HETATM    3  C9  UNL     1      -8.104  14.474  -1.801  1.00  0.00    -0.062 C 
HETATM    4  C10 UNL     1      -9.230  15.181  -1.185  1.00  0.00     0.048 C 
HETATM    5  C11 UNL     1      -7.435  13.495  -1.283  1.00  0.00     0.007 C 
BRANCH   5   6
HETATM    6  C12 UNL     1      -7.628  12.829   0.018  1.00  0.00     0.007 C 
HETATM    7  C13 UNL     1      -6.884  11.910   0.578  1.00  0.00    -0.062 C 
HETATM    8  C14 UNL     1      -5.764  11.739  -0.918  1.00  0.00     0.048 C 
BRANCH   7   9
HETATM    9  C15 UNL     1      -6.101  10.945   1.166  1.00  0.00     0.007 C 
BRANCH   9  10
HETATM   10  C16 UNL     1      -6.765  10.140   2.226  1.00  0.00     0.001 C 
BRANCH  10  11
HETATM   11  C17 UNL     1      -7.965   9.668   2.007  1.00  0.00     0.007 C 
BRANCH  11  12
HETATM   12  C18 UNL     1      -8.170   8.279   1.620  1.00  0.00    -0.060 C 
HETATM   13  C19 UNL     1      -7.238   7.524   0.734  1.00  0.00     0.048 C 
BRANCH  12  14
HETATM   14  C20 UNL     1      -9.259   7.641   2.083  1.00  0.00    -0.082 C 
HETATM   15  C21 UNL     1      -9.995   6.748   1.155  1.00  0.00     0.043 C 
HETATM   16  C22 UNL     1      -9.750   7.821   3.453  1.00  0.00     0.043 C 
ENDBRANCH  12  14
ENDBRANCH  11  12
ENDBRANCH  10  11
ENDBRANCH   9  10
ENDBRANCH   7   9
ENDBRANCH   5   6
ENDBRANCH   2   3
BRANCH   1  17
HETATM   17  C6  UNL     1      -7.654  14.741  -5.581  1.00  0.00     0.031 C 
HETATM   18  C5  UNL     1      -7.694  13.440  -6.386  1.00  0.00     0.027 C 
HETATM   19  C3  UNL     1      -7.508  13.630  -7.864  1.00  0.00    -0.005 C 
HETATM   20  C4  UNL     1      -6.098  13.151  -8.168  1.00  0.00     0.021 C 
HETATM   21  C25 UNL     1      -7.854  14.966  -8.435  1.00  0.00     0.073 C 
HETATM   22  C24 UNL     1      -8.764  15.704  -7.507  1.00  0.00    -0.009 C 
HETATM   23  C26 UNL     1      -8.799  14.721  -9.680  1.00  0.00     0.032 C 
HETATM   24  C23 UNL     1      -8.663  15.596  -6.206  1.00  0.00    -0.021 C 
BRANCH  19  25
HETATM   25  C2  UNL     1      -8.442  12.617  -8.488  1.00  0.00    -0.026 C 
HETATM   26  C1  UNL     1      -9.069  11.731  -7.793  1.00  0.00     0.008 C 
ENDBRANCH  19  25
BRANCH  21  27
HETATM   27  C27 UNL     1      -6.833  15.812  -8.878  1.00  0.00     0.186 C 
HETATM   28  O1  UNL     1      -5.904  16.606  -8.770  1.00  0.00    -0.647 OA
HETATM   29  O2  UNL     1      -6.853  15.771 -10.478  1.00  0.00    -0.647 OA
ENDBRANCH  21  27
ENDBRANCH   1  17
TORSDOF 10
ENDMDL
MODEL 3
REMARK VINA RESULT: -5.040751002      0.469      1.078
REMARK  10 active torsions:
REMARK  status: ('A' for Active; 'I' for Inactive)
REMARK    1  A    between atoms: C2_2  and  C3_3 
REMARK    2  A    between atoms: C6_6  and  C7_7 
REMARK    3  A    between atoms: C8_8  and  C9_9 
REMARK    4  A    between atoms: C11_11  and  C12_12 
REMARK    5  A    between atoms: C13_13  and  C15_15 
REMARK    6  A    between atoms: C15_15  and  C16_16 
REMARK    7  A    between atoms: C16_16  and  C17_17 
REMARK    8  A    between atoms: C17_17  and  C18_18 
REMARK    9  A    between atoms: C18_18  and  C20_20 
REMARK   10  A    between atoms: C25_25  and  C27_27 
ROOT
HETATM    1  C7  UNL     1      -7.790  16.386  -3.416  1.00  0.00    -0.018 C 
HETATM    2  C8  UNL     1      -7.913  15.120  -3.215  1.00  0.00     0.003 C 
ENDROOT
BRANCH   2   3
HETATM    3  C9  UNL     1      -8.202  14.598  -1.845  1.00  0.00    -0.062 C 
HETATM    4  C10 UNL     1      -9.265  15.285  -1.109  1.00  0.00     0.048 C 
HETATM    5  C11 UNL     1      -7.494  13.600  -1.422  1.00  0.00     0.007 C 
BRANCH   5   6
HETATM    6  C12 UNL     1      -7.576  12.889  -0.133  1.00  0.00     0.007 C 
HETATM    7  C13 UNL     1      -6.761  11.986   0.350  1.00  0.00    -0.062 C 
HETATM    8  C14 UNL     1      -5.736  11.905  -1.219  1.00  0.00     0.048 C 
BRANCH   7   9
HETATM    9  C15 UNL     1      -5.905  11.039   0.856  1.00  0.00     0.007 C 
BRANCH   9  10
HETATM   10  C16 UNL     1      -6.119  10.678   2.284  1.00  0.00     0.001 C 
BRANCH  10  11
HETATM   11  C17 UNL     1      -6.639   9.513   2.572  1.00  0.00     0.007 C 
BRANCH  11  12
HETATM   12  C18 UNL     1      -8.021   9.200   2.236  1.00  0.00    -0.060 C 
HETATM   13  C19 UNL     1      -9.182  10.028   2.669  1.00  0.00     0.048 C 
BRANCH  12  14
HETATM   14  C20 UNL     1      -8.266   8.104   1.498  1.00  0.00    -0.082 C 
HETATM   15  C21 UNL     1      -7.157   7.542   0.688  1.00  0.00     0.043 C 
HETATM   16  C22 UNL     1      -9.588   7.471   1.448  1.00  0.00     0.043 C 
ENDBRANCH  12  14
ENDBRANCH  11  12
ENDBRANCH  10  11
ENDBRANCH   9  10
ENDBRANCH   7   9
ENDBRANCH   5   6
ENDBRANCH   2   3
BRANCH   1  17
HETATM   17  C6  UNL     1      -7.516  16.944  -4.776  1.00  0.00     0.031 C 
HETATM   18  C5  UNL     1      -6.824  15.783  -5.493  1.00  0.00     0.027 C 
HETATM   19  C3  UNL     1      -6.604  16.015  -6.960  1.00  0.00    -0.005 C 
HETATM   20  C4  UNL     1      -5.119  16.296  -7.115  1.00  0.00     0.021 C 
HETATM   21  C25 UNL     1      -7.503  16.992  -7.645  1.00  0.00     0.073 C 
HETATM   22  C24 UNL     1      -8.749  17.195  -6.846  1.00  0.00    -0.009 C 
HETATM   23  C26 UNL     1      -8.068  16.288  -8.945  1.00  0.00     0.032 C 
HETATM   24  C23 UNL     1      -8.744  17.174  -5.537  1.00  0.00    -0.021 C 
BRANCH  19  25
HETATM   25  C2  UNL     1      -6.845  14.661  -7.589  1.00  0.00    -0.026 C 
HETATM   26  C1  UNL     1      -6.779  13.563  -6.919  1.00  0.00     0.008 C 
ENDBRANCH  19  25
BRANCH  21  27
HETATM   27  C27 UNL     1      -6.992  18.227  -8.058  1.00  0.00     0.186 C 
HETATM   28  O1  UNL     1      -6.238  19.193  -8.042  1.00  0.00    -0.647 OA
HETATM   29  O2  UNL     1      -7.920  18.738  -9.258  1.00  0.00    -0.647 OA
ENDBRANCH  21  27
ENDBRANCH   1  17
TORSDOF 10
ENDMDL
MODEL 4
REMARK VINA RESULT: -4.977465613      1.133      1.636
REMARK  10 active torsions:
REMARK  status: ('A' for Active; 'I' for Inactive)
REMARK    1  A    between atoms: C2_2  and  C3_3 
REMARK    2  A    between atoms: C6_6  and  C7_7 
REMARK    3  A    between atoms: C8_8  and  C9_9 
REMARK    4  A    between atoms: C11_11  and  C12_12 
REMARK    5  A    between atoms: C13_13  and  C15_15 
REMARK    6  A    between atoms: C15_15  and  C16_16 
REMARK    7  A    between atoms: C16_16  and  C17_17 
REMARK    8  A    between atoms: C17_17  and  C18_18 
REMARK    9  A    between atoms: C18_18  and  C20_20 
REMARK   10  A    between atoms: C25_25  and  C27_27 
ROOT
HETATM    1  C7  UNL     1      -7.722  15.652  -3.615  1.00  0.00    -0.018 C 
HETATM    2  C8  UNL     1      -8.014  14.473  -3.187  1.00  0.00     0.003 C 
ENDROOT
BRANCH   2   3
HETATM    3  C9  UNL     1      -8.171  14.220  -1.724  1.00  0.00    -0.062 C 
HETATM    4  C10 UNL     1      -9.092  15.111  -1.014  1.00  0.00     0.048 C 
HETATM    5  C11 UNL     1      -7.485  13.252  -1.205  1.00  0.00     0.007 C 
BRANCH   5   6
HETATM    6  C12 UNL     1      -7.459  12.782   0.192  1.00  0.00     0.007 C 
HETATM    7  C13 UNL     1      -6.652  11.911   0.741  1.00  0.00    -0.062 C 
HETATM    8  C14 UNL     1      -5.826  11.477  -0.887  1.00  0.00     0.048 C 
BRANCH   7   9
HETATM    9  C15 UNL     1      -5.803  10.996   1.316  1.00  0.00     0.007 C 
BRANCH   9  10
HETATM   10  C16 UNL     1      -6.185  10.536   2.679  1.00  0.00     0.001 C 
BRANCH  10  11
HETATM   11  C17 UNL     1      -6.725   9.352   2.820  1.00  0.00     0.007 C 
BRANCH  11  12
HETATM   12  C18 UNL     1      -8.070   9.075   2.336  1.00  0.00    -0.060 C 
HETATM   13  C19 UNL     1      -9.255   9.917   2.666  1.00  0.00     0.048 C 
BRANCH  12  14
HETATM   14  C20 UNL     1      -8.257   7.999   1.552  1.00  0.00    -0.082 C 
HETATM   15  C21 UNL     1      -7.163   7.604   0.632  1.00  0.00     0.043 C 
HETATM   16  C22 UNL     1      -9.507   7.232   1.558  1.00  0.00     0.043 C 
ENDBRANCH  12  14
ENDBRANCH  11  12
ENDBRANCH  10  11
ENDBRANCH   9  10
ENDBRANCH   7   9
ENDBRANCH   5   6
ENDBRANCH   2   3
BRANCH   1  17
HETATM   17  C6  UNL     1      -7.572  15.945  -5.074  1.00  0.00     0.031 C 
HETATM   18  C5  UNL     1      -7.724  14.566  -5.721  1.00  0.00     0.027 C 
HETATM   19  C3  UNL     1      -7.801  14.600  -7.220  1.00  0.00    -0.005 C 
HETATM   20  C4  UNL     1      -6.456  14.094  -7.714  1.00  0.00     0.021 C 
HETATM   21  C25 UNL     1      -8.268  15.867  -7.857  1.00  0.00     0.073 C 
HETATM   22  C24 UNL     1      -9.018  16.697  -6.866  1.00  0.00    -0.009 C 
HETATM   23  C26 UNL     1      -9.410  15.489  -8.886  1.00  0.00     0.032 C 
HETATM   24  C23 UNL     1      -8.691  16.727  -5.599  1.00  0.00    -0.021 C 
BRANCH  19  25
HETATM   25  C2  UNL     1      -8.807  13.524  -7.562  1.00  0.00    -0.026 C 
HETATM   26  C1  UNL     1      -8.884  12.413  -6.914  1.00  0.00     0.008 C 
ENDBRANCH  19  25
BRANCH  21  27
HETATM   27  C27 UNL     1      -7.357  16.664  -8.557  1.00  0.00     0.186 C 
HETATM   28  O1  UNL     1      -6.440  17.466  -8.695  1.00  0.00    -0.647 OA
HETATM   29  O2  UNL     1      -7.654  16.455 -10.116  1.00  0.00    -0.647 OA
ENDBRANCH  21  27
ENDBRANCH   1  17
TORSDOF 10
ENDMDL
MODEL 5
REMARK VINA RESULT: -4.845865404      1.131      2.348
REMARK  10 active torsions:
REMARK  status: ('A' for Active; 'I' for Inactive)
REMARK    1  A    between atoms: C2_2  and  C3_3 
REMARK    2  A    between atoms: C6_6  and  C7_7 
REMARK    3  A    between atoms: C8_8  and  C9_9 
REMARK    4  A    between atoms: C11_11  and  C12_12 
REMARK    5  A    between atoms: C13_13  and  C15_15 
REMARK    6  A    between atoms: C15_15  and  C16_16 
REMARK    7  A    between atoms: C16_16  and  C17_17 
REMARK    8  A    between atoms: C17_17  and  C18_18 
REMARK    9  A    between atoms: C18_18  and  C20_20 
REMARK   10  A    between atoms: C25_25  and  C27_27 
ROOT
HETATM    1  C7  UNL     1      -8.122  15.752  -3.730  1.00  0.00    -0.018 C 
HETATM    2  C8  UNL     1      -7.822  14.595  -3.248  1.00  0.00     0.003 C 
ENDROOT
BRANCH   2   3
HETATM    3  C9  UNL     1      -8.090  14.283  -1.813  1.00  0.00    -0.062 C 
HETATM    4  C10 UNL     1      -9.102  15.113  -1.155  1.00  0.00     0.048 C 
HETATM    5  C11 UNL     1      -7.412  13.323  -1.270  1.00  0.00     0.007 C 
BRANCH   5   6
HETATM    6  C12 UNL     1      -7.483  12.803   0.107  1.00  0.00     0.007 C 
HETATM    7  C13 UNL     1      -6.724  11.903   0.676  1.00  0.00    -0.062 C 
HETATM    8  C14 UNL     1      -5.796  11.516  -0.908  1.00  0.00     0.048 C 
BRANCH   7   9
HETATM    9  C15 UNL     1      -5.925  10.957   1.273  1.00  0.00     0.007 C 
BRANCH   9  10
HETATM   10  C16 UNL     1      -6.580  10.137   2.328  1.00  0.00     0.001 C 
BRANCH  10  11
HETATM   11  C17 UNL     1      -7.801   9.709   2.131  1.00  0.00     0.007 C 
BRANCH  11  12
HETATM   12  C18 UNL     1      -8.058   8.366   1.632  1.00  0.00    -0.060 C 
HETATM   13  C19 UNL     1      -7.128   7.631   0.728  1.00  0.00     0.048 C 
BRANCH  12  14
HETATM   14  C20 UNL     1      -9.196   7.754   2.003  1.00  0.00    -0.082 C 
HETATM   15  C21 UNL     1      -9.735   8.036   3.355  1.00  0.00     0.043 C 
HETATM   16  C22 UNL     1      -9.896   6.805   1.131  1.00  0.00     0.043 C 
ENDBRANCH  12  14
ENDBRANCH  11  12
ENDBRANCH  10  11
ENDBRANCH   9  10
ENDBRANCH   7   9
ENDBRANCH   5   6
ENDBRANCH   2   3
BRANCH   1  17
HETATM   17  C6  UNL     1      -7.881  16.093  -5.165  1.00  0.00     0.031 C 
HETATM   18  C5  UNL     1      -8.329  17.555  -5.253  1.00  0.00     0.027 C 
HETATM   19  C3  UNL     1      -8.016  18.212  -6.565  1.00  0.00    -0.005 C 
HETATM   20  C4  UNL     1      -9.342  18.318  -7.301  1.00  0.00     0.021 C 
HETATM   21  C25 UNL     1      -6.895  17.642  -7.371  1.00  0.00     0.073 C 
HETATM   22  C24 UNL     1      -5.996  16.825  -6.500  1.00  0.00    -0.009 C 
HETATM   23  C26 UNL     1      -5.943  18.840  -7.776  1.00  0.00     0.032 C 
HETATM   24  C23 UNL     1      -6.457  16.121  -5.497  1.00  0.00    -0.021 C 
BRANCH  19  25
HETATM   25  C2  UNL     1      -7.629  19.625  -6.188  1.00  0.00    -0.026 C 
HETATM   26  C1  UNL     1      -8.285  20.316  -5.321  1.00  0.00     0.008 C 
ENDBRANCH  19  25
BRANCH  21  27
HETATM   27  C27 UNL     1      -7.177  16.948  -8.551  1.00  0.00     0.186 C 
HETATM   28  O1  UNL     1      -7.588  16.020  -9.239  1.00  0.00    -0.647 OA
HETATM   29  O2  UNL     1      -6.661  17.858  -9.763  1.00  0.00    -0.647 OA
ENDBRANCH  21  27
ENDBRANCH   1  17
TORSDOF 10
ENDMDL
