MODEL 1
REMARK VINA RESULT: -8.233758087      0.000      0.000
REMARK  5 active torsions:
REMARK  status: ('A' for Active; 'I' for Inactive)
REMARK    1  A    between atoms: C2_2  and  C3_3 
REMARK    2  A    between atoms: C2_2  and  N1_8 
REMARK    3  A    between atoms: C3_3  and  C4_4 
REMARK    4  A    between atoms: N1_8  and  C8_10 
REMARK    5  A    between atoms: C11_18  and  C12_19 
ROOT
HETATM    1  C8  UNL     1       0.560  18.419  19.869  1.00  0.00     0.115 A 
HETATM    2  N2  UNL     1       1.429  18.164  20.831  1.00  0.00    -0.338 N 
ATOM      3  H2  UNL     1       1.505  18.856  21.577  1.00  0.00     0.168 HD
HETATM    4  C9  UNL     1       2.213  17.096  20.926  1.00  0.00     0.182 A 
HETATM    5  N3  UNL     1       2.115  16.186  19.948  1.00  0.00    -0.346 N 
ATOM      6  H3  UNL     1       2.698  15.349  19.973  1.00  0.00     0.167 HD
HETATM    7  C10 UNL     1       1.239  16.375  18.914  1.00  0.00     0.089 A 
HETATM    8  S1  UNL     1       0.844  15.468  17.512  1.00  0.00    -0.075 SA
HETATM    9  C11 UNL     1      -0.334  16.514  16.847  1.00  0.00    -0.007 A 
HETATM   10  C16 UNL     1      -0.374  17.541  17.753  1.00  0.00     0.033 A 
HETATM   11  C17 UNL     1       0.439  17.466  18.821  1.00  0.00     0.043 A 
ENDROOT
BRANCH   1  12
HETATM   12  N1  UNL     1      -0.124  19.463  19.839  1.00  0.00    -0.371 N 
ATOM     13  H1  UNL     1       0.306  20.149  19.219  1.00  0.00     0.161 HD
BRANCH  12  14
HETATM   14  C2  UNL     1      -1.308  19.986  20.398  1.00  0.00     0.079 C 
HETATM   15  C1  UNL     1      -1.727  21.134  19.461  1.00  0.00     0.032 C 
BRANCH  14  16
HETATM   16  C3  UNL     1      -1.251  20.314  21.823  1.00  0.00     0.034 C 
BRANCH  16  17
HETATM   17  C4  UNL     1      -2.151  19.682  22.811  1.00  0.00    -0.042 A 
HETATM   18  C5  UNL     1      -2.283  18.159  22.538  1.00  0.00     0.015 C 
HETATM   19  C6  UNL     1      -1.915  19.852  24.332  1.00  0.00     0.010 A 
HETATM   20  C7  UNL     1      -3.125  20.326  23.660  1.00  0.00     0.010 A 
ENDBRANCH  16  17
ENDBRANCH  14  16
ENDBRANCH  12  14
ENDBRANCH   1  12
BRANCH   9  21
HETATM   21  C12 UNL     1      -1.140  16.386  15.574  1.00  0.00    -0.018 C 
HETATM   22  C13 UNL     1      -2.205  17.455  15.518  1.00  0.00     0.020 C 
HETATM   23  C14 UNL     1      -1.742  15.005  15.601  1.00  0.00     0.020 C 
HETATM   24  C15 UNL     1      -0.196  16.490  14.422  1.00  0.00     0.020 C 
ENDBRANCH   9  21
TORSDOF 5
ENDMDL
MODEL 2
REMARK VINA RESULT: -8.230947581      1.195      2.110
REMARK  5 active torsions:
REMARK  status: ('A' for Active; 'I' for Inactive)
REMARK    1  A    between atoms: C2_2  and  C3_3 
REMARK    2  A    between atoms: C2_2  and  N1_8 
REMARK    3  A    between atoms: C3_3  and  C4_4 
REMARK    4  A    between atoms: N1_8  and  C8_10 
REMARK    5  A    between atoms: C11_18  and  C12_19 
ROOT
HETATM    1  C8  UNL     1       0.859  18.168  20.030  1.00  0.00     0.115 A 
HETATM    2  N2  UNL     1       1.719  17.860  20.985  1.00  0.00    -0.338 N 
ATOM      3  H2  UNL     1       1.828  18.536  21.740  1.00  0.00     0.168 HD
HETATM    4  C9  UNL     1       2.457  16.758  21.058  1.00  0.00     0.182 A 
HETATM    5  N3  UNL     1       2.316  15.869  20.066  1.00  0.00    -0.346 N 
ATOM      6  H3  UNL     1       2.862  15.007  20.076  1.00  0.00     0.167 HD
HETATM    7  C10 UNL     1       1.444  16.112  19.040  1.00  0.00     0.089 A 
HETATM    8  S1  UNL     1       1.005  15.246  17.625  1.00  0.00    -0.075 SA
HETATM    9  C11 UNL     1      -0.128  16.352  16.982  1.00  0.00    -0.007 A 
HETATM   10  C16 UNL     1      -0.121  17.365  17.905  1.00  0.00     0.033 A 
HETATM   11  C17 UNL     1       0.693  17.238  18.968  1.00  0.00     0.043 A 
ENDROOT
BRANCH   1  12
HETATM   12  N1  UNL     1       0.220  19.241  20.020  1.00  0.00    -0.371 N 
ATOM     13  H1  UNL     1       0.645  19.898  19.365  1.00  0.00     0.161 HD
BRANCH  12  14
HETATM   14  C2  UNL     1      -0.907  19.824  20.633  1.00  0.00     0.079 C 
HETATM   15  C1  UNL     1      -1.705  18.645  21.221  1.00  0.00     0.032 C 
BRANCH  14  16
HETATM   16  C3  UNL     1      -1.669  20.763  19.809  1.00  0.00     0.034 C 
BRANCH  16  17
HETATM   17  C4  UNL     1      -2.600  21.749  20.399  1.00  0.00    -0.042 A 
HETATM   18  C5  UNL     1      -2.049  22.286  21.748  1.00  0.00     0.015 C 
HETATM   19  C6  UNL     1      -3.086  22.976  19.588  1.00  0.00     0.010 A 
HETATM   20  C7  UNL     1      -3.996  21.945  20.088  1.00  0.00     0.010 A 
ENDBRANCH  16  17
ENDBRANCH  14  16
ENDBRANCH  12  14
ENDBRANCH   1  12
BRANCH   9  21
HETATM   21  C12 UNL     1      -0.944  16.279  15.710  1.00  0.00    -0.018 C 
HETATM   22  C13 UNL     1      -1.924  17.426  15.651  1.00  0.00     0.020 C 
HETATM   23  C14 UNL     1      -1.649  14.948  15.746  1.00  0.00     0.020 C 
HETATM   24  C15 UNL     1       0.004  16.305  14.557  1.00  0.00     0.020 C 
ENDBRANCH   9  21
TORSDOF 5
ENDMDL
MODEL 3
REMARK VINA RESULT: -7.986904737      2.082      3.520
REMARK  5 active torsions:
REMARK  status: ('A' for Active; 'I' for Inactive)
REMARK    1  A    between atoms: C2_2  and  C3_3 
REMARK    2  A    between atoms: C2_2  and  N1_8 
REMARK    3  A    between atoms: C3_3  and  C4_4 
REMARK    4  A    between atoms: N1_8  and  C8_10 
REMARK    5  A    between atoms: C11_18  and  C12_19 
ROOT
HETATM    1  C8  UNL     1       2.018  15.238  19.017  1.00  0.00     0.115 A 
HETATM    2  N2  UNL     1       2.665  14.125  19.313  1.00  0.00    -0.338 N 
ATOM      3  H2  UNL     1       3.282  14.155  20.125  1.00  0.00     0.168 HD
HETATM    4  C9  UNL     1       2.595  12.971  18.659  1.00  0.00     0.182 A 
HETATM    5  N3  UNL     1       1.787  12.930  17.591  1.00  0.00    -0.346 N 
ATOM      6  H3  UNL     1       1.700  12.067  17.054  1.00  0.00     0.167 HD
HETATM    7  C10 UNL     1       1.079  14.040  17.217  1.00  0.00     0.089 A 
HETATM    8  S1  UNL     1      -0.019  14.374  15.942  1.00  0.00    -0.075 SA
HETATM    9  C11 UNL     1      -0.351  16.011  16.304  1.00  0.00    -0.007 A 
HETATM   10  C16 UNL     1       0.415  16.237  17.417  1.00  0.00     0.033 A 
HETATM   11  C17 UNL     1       1.153  15.216  17.888  1.00  0.00     0.043 A 
ENDROOT
BRANCH   1  12
HETATM   12  N1  UNL     1       2.158  16.293  19.669  1.00  0.00    -0.371 N 
ATOM     13  H1  UNL     1       2.730  16.957  19.146  1.00  0.00     0.161 HD
BRANCH  12  14
HETATM   14  C2  UNL     1       1.771  16.850  20.904  1.00  0.00     0.079 C 
HETATM   15  C1  UNL     1       2.919  16.520  21.876  1.00  0.00     0.032 C 
BRANCH  14  16
HETATM   16  C3  UNL     1       0.425  16.508  21.365  1.00  0.00     0.034 C 
BRANCH  16  17
HETATM   17  C4  UNL     1      -0.532  17.536  21.828  1.00  0.00    -0.042 A 
HETATM   18  C5  UNL     1       0.195  18.629  22.657  1.00  0.00     0.015 C 
HETATM   19  C6  UNL     1      -1.464  18.267  20.831  1.00  0.00     0.010 A 
HETATM   20  C7  UNL     1      -1.969  17.430  21.919  1.00  0.00     0.010 A 
ENDBRANCH  16  17
ENDBRANCH  14  16
ENDBRANCH  12  14
ENDBRANCH   1  12
BRANCH   9  21
HETATM   21  C12 UNL     1      -1.245  17.002  15.592  1.00  0.00    -0.018 C 
HETATM   22  C13 UNL     1      -0.711  17.290  14.210  1.00  0.00     0.020 C 
HETATM   23  C14 UNL     1      -1.256  18.240  16.452  1.00  0.00     0.020 C 
HETATM   24  C15 UNL     1      -2.620  16.424  15.542  1.00  0.00     0.020 C 
ENDBRANCH   9  21
TORSDOF 5
ENDMDL
MODEL 4
REMARK VINA RESULT: -7.945430844      2.469      6.122
REMARK  5 active torsions:
REMARK  status: ('A' for Active; 'I' for Inactive)
REMARK    1  A    between atoms: C2_2  and  C3_3 
REMARK    2  A    between atoms: C2_2  and  N1_8 
REMARK    3  A    between atoms: C3_3  and  C4_4 
REMARK    4  A    between atoms: N1_8  and  C8_10 
REMARK    5  A    between atoms: C11_18  and  C12_19 
ROOT
HETATM    1  C8  UNL     1       1.081  14.429  18.242  1.00  0.00     0.115 A 
HETATM    2  N2  UNL     1       2.166  13.697  18.059  1.00  0.00    -0.338 N 
ATOM      3  H2  UNL     1       2.139  13.021  17.295  1.00  0.00     0.168 HD
HETATM    4  C9  UNL     1       3.286  13.751  18.770  1.00  0.00     0.182 A 
HETATM    5  N3  UNL     1       3.322  14.636  19.774  1.00  0.00    -0.346 N 
ATOM      6  H3  UNL     1       4.160  14.714  20.351  1.00  0.00     0.167 HD
HETATM    7  C10 UNL     1       2.241  15.434  20.031  1.00  0.00     0.089 A 
HETATM    8  S1  UNL     1       1.910  16.646  21.199  1.00  0.00    -0.075 SA
HETATM    9  C11 UNL     1       0.318  17.044  20.721  1.00  0.00    -0.007 A 
HETATM   10  C16 UNL     1       0.103  16.207  19.658  1.00  0.00     0.033 A 
HETATM   11  C17 UNL     1       1.099  15.376  19.302  1.00  0.00     0.043 A 
ENDROOT
BRANCH   1  12
HETATM   12  N1  UNL     1       0.054  14.300  17.544  1.00  0.00    -0.371 N 
ATOM     13  H1  UNL     1      -0.693  13.872  18.091  1.00  0.00     0.161 HD
BRANCH  12  14
HETATM   14  C2  UNL     1      -0.391  14.562  16.233  1.00  0.00     0.079 C 
HETATM   15  C1  UNL     1       0.215  13.442  15.367  1.00  0.00     0.032 C 
BRANCH  14  16
HETATM   16  C3  UNL     1      -0.184  15.927  15.748  1.00  0.00     0.034 C 
BRANCH  16  17
HETATM   17  C4  UNL     1      -1.242  16.957  15.826  1.00  0.00    -0.042 A 
HETATM   18  C5  UNL     1      -0.796  18.135  16.734  1.00  0.00     0.015 C 
HETATM   19  C6  UNL     1      -1.850  17.577  14.544  1.00  0.00     0.010 A 
HETATM   20  C7  UNL     1      -2.642  16.813  15.508  1.00  0.00     0.010 A 
ENDBRANCH  16  17
ENDBRANCH  14  16
ENDBRANCH  12  14
ENDBRANCH   1  12
BRANCH   9  21
HETATM   21  C12 UNL     1      -0.651  18.047  21.307  1.00  0.00    -0.018 C 
HETATM   22  C13 UNL     1      -0.988  19.106  20.286  1.00  0.00     0.020 C 
HETATM   23  C14 UNL     1       0.039  18.635  22.510  1.00  0.00     0.020 C 
HETATM   24  C15 UNL     1      -1.867  17.303  21.750  1.00  0.00     0.020 C 
ENDBRANCH   9  21
TORSDOF 5
ENDMDL
MODEL 5
REMARK VINA RESULT: -7.908741156      3.146      7.629
REMARK  5 active torsions:
REMARK  status: ('A' for Active; 'I' for Inactive)
REMARK    1  A    between atoms: C2_2  and  C3_3 
REMARK    2  A    between atoms: C2_2  and  N1_8 
REMARK    3  A    between atoms: C3_3  and  C4_4 
REMARK    4  A    between atoms: N1_8  and  C8_10 
REMARK    5  A    between atoms: C11_18  and  C12_19 
ROOT
HETATM    1  C8  UNL     1      -0.518  20.233  21.869  1.00  0.00     0.115 A 
HETATM    2  N2  UNL     1      -0.331  20.891  20.739  1.00  0.00    -0.338 N 
ATOM      3  H2  UNL     1       0.338  20.491  20.081  1.00  0.00     0.168 HD
HETATM    4  C9  UNL     1      -0.927  22.020  20.373  1.00  0.00     0.182 A 
HETATM    5  N3  UNL     1      -1.805  22.547  21.236  1.00  0.00    -0.346 N 
ATOM      6  H3  UNL     1      -2.288  23.414  21.003  1.00  0.00     0.167 HD
HETATM    7  C10 UNL     1      -2.057  21.927  22.430  1.00  0.00     0.089 A 
HETATM    8  S1  UNL     1      -3.077  22.286  23.762  1.00  0.00    -0.075 SA
HETATM    9  C11 UNL     1      -2.692  20.949  24.755  1.00  0.00    -0.007 A 
HETATM   10  C16 UNL     1      -1.773  20.266  24.002  1.00  0.00     0.033 A 
HETATM   11  C17 UNL     1      -1.447  20.774  22.800  1.00  0.00     0.043 A 
ENDROOT
BRANCH   1  12
HETATM   12  N1  UNL     1       0.103  19.187  22.151  1.00  0.00    -0.371 N 
ATOM     13  H1  UNL     1       1.011  19.414  22.557  1.00  0.00     0.161 HD
BRANCH  12  14
HETATM   14  C2  UNL     1      -0.064  17.789  22.081  1.00  0.00     0.079 C 
HETATM   15  C1  UNL     1       1.327  17.199  22.380  1.00  0.00     0.032 C 
BRANCH  14  16
HETATM   16  C3  UNL     1      -0.726  17.284  20.878  1.00  0.00     0.034 C 
BRANCH  16  17
HETATM   17  C4  UNL     1       0.000  17.092  19.604  1.00  0.00    -0.042 A 
HETATM   18  C5  UNL     1       0.029  15.590  19.210  1.00  0.00     0.015 C 
HETATM   19  C6  UNL     1      -0.389  17.887  18.333  1.00  0.00     0.010 A 
HETATM   20  C7  UNL     1       0.925  17.998  18.967  1.00  0.00     0.010 A 
ENDBRANCH  16  17
ENDBRANCH  14  16
ENDBRANCH  12  14
ENDBRANCH   1  12
BRANCH   9  21
HETATM   21  C12 UNL     1      -3.200  20.582  26.131  1.00  0.00    -0.018 C 
HETATM   22  C13 UNL     1      -3.826  19.208  26.109  1.00  0.00     0.020 C 
HETATM   23  C14 UNL     1      -4.204  21.643  26.499  1.00  0.00     0.020 C 
HETATM   24  C15 UNL     1      -2.046  20.646  27.077  1.00  0.00     0.020 C 
ENDBRANCH   9  21
TORSDOF 5
ENDMDL
