MODEL 1
REMARK VINA RESULT: -8.712222573      0.000      0.000
REMARK  3 active torsions:
REMARK  status: ('A' for Active; 'I' for Inactive)
REMARK       I    between atoms: C1_2  and  N1_3 
REMARK    1  A    between atoms: C1_2  and  C15_21 
REMARK    2  A    between atoms: N1_3  and  C2_5 
REMARK    3  A    between atoms: C3_8  and  C4_9 
ROOT
HETATM    1  C2  UNL     1       0.878  18.429  19.987  1.00  0.00     0.151 A 
HETATM    2  N2  UNL     1       0.453  17.926  18.848  1.00  0.00    -0.339 N 
ATOM      3  H2  UNL     1      -0.141  18.480  18.231  1.00  0.00     0.168 HD
HETATM    4  C3  UNL     1       0.796  16.722  18.518  1.00  0.00     0.026 A 
HETATM    5  C14 UNL     1       1.598  16.022  19.384  1.00  0.00     0.079 A 
HETATM    6  S1  UNL     1       1.809  17.167  20.642  1.00  0.00    -0.064 SA
ENDROOT
BRANCH   4   7
HETATM    7  C4  UNL     1       0.276  16.081  17.247  1.00  0.00     0.004 C 
HETATM    8  C5  UNL     1      -0.703  14.980  17.616  1.00  0.00     0.020 C 
HETATM    9  C6  UNL     1      -1.232  14.384  16.353  1.00  0.00    -0.013 C 
HETATM   10  C7  UNL     1      -0.103  13.809  15.498  1.00  0.00     0.009 C 
HETATM   11  C11 UNL     1      -1.949  15.410  15.498  1.00  0.00     0.009 C 
HETATM   12  C8  UNL     1       0.880  14.912  15.180  1.00  0.00    -0.013 C 
HETATM   13  C9  UNL     1       0.199  16.028  14.422  1.00  0.00     0.009 C 
HETATM   14  C13 UNL     1       1.402  15.477  16.480  1.00  0.00     0.020 C 
HETATM   15  C10 UNL     1      -1.003  16.534  15.181  1.00  0.00    -0.013 C 
HETATM   16  C12 UNL     1      -0.493  17.128  16.483  1.00  0.00     0.020 C 
ENDBRANCH   4   7
BRANCH   1  17
HETATM   17  N1  UNL     1       0.618  19.731  20.547  1.00  0.00    -0.307 N 
HETATM   18  C1  UNL     1      -0.697  20.121  20.876  1.00  0.00     0.227 C 
HETATM   19  O1  UNL     1      -1.643  19.322  20.675  1.00  0.00    -0.273 OA
ATOM     20  H1  UNL     1       1.391  20.376  20.706  1.00  0.00     0.171 HD
BRANCH  18  21
HETATM   21  C15 UNL     1      -0.937  21.447  21.442  1.00  0.00     0.078 C 
HETATM   22  C16 UNL     1      -1.906  22.329  20.622  1.00  0.00     0.014 C 
HETATM   23  C17 UNL     1      -2.344  22.894  21.948  1.00  0.00     0.002 C 
HETATM   24  C18 UNL     1      -2.048  21.495  22.519  1.00  0.00     0.014 C 
ENDBRANCH  18  21
ENDBRANCH   1  17
TORSDOF 3
ENDMDL
MODEL 2
REMARK VINA RESULT: -8.612143651      1.098      2.073
REMARK  3 active torsions:
REMARK  status: ('A' for Active; 'I' for Inactive)
REMARK       I    between atoms: C1_2  and  N1_3 
REMARK    1  A    between atoms: C1_2  and  C15_21 
REMARK    2  A    between atoms: N1_3  and  C2_5 
REMARK    3  A    between atoms: C3_8  and  C4_9 
ROOT
HETATM    1  C2  UNL     1       0.754  17.788  20.374  1.00  0.00     0.151 A 
HETATM    2  N2  UNL     1       0.241  17.631  19.173  1.00  0.00    -0.339 N 
ATOM      3  H2  UNL     1      -0.414  18.319  18.800  1.00  0.00     0.168 HD
HETATM    4  C3  UNL     1       0.574  16.597  18.468  1.00  0.00     0.026 A 
HETATM    5  C14 UNL     1       1.460  15.704  19.018  1.00  0.00     0.079 A 
HETATM    6  S1  UNL     1       1.761  16.427  20.542  1.00  0.00    -0.064 SA
ENDROOT
BRANCH   4   7
HETATM    7  C4  UNL     1      -0.043  16.344  17.108  1.00  0.00     0.004 C 
HETATM    8  C5  UNL     1       1.059  15.986  16.127  1.00  0.00     0.020 C 
HETATM    9  C6  UNL     1       0.430  15.705  14.801  1.00  0.00    -0.013 C 
HETATM   10  C7  UNL     1      -0.345  16.920  14.290  1.00  0.00     0.009 C 
HETATM   11  C11 UNL     1      -0.555  14.555  14.872  1.00  0.00     0.009 C 
HETATM   12  C8  UNL     1      -1.407  17.284  15.302  1.00  0.00    -0.013 C 
HETATM   13  C9  UNL     1      -2.363  16.132  15.508  1.00  0.00     0.009 C 
HETATM   14  C13 UNL     1      -0.731  17.573  16.621  1.00  0.00     0.020 C 
HETATM   15  C10 UNL     1      -1.615  14.877  15.888  1.00  0.00    -0.013 C 
HETATM   16  C12 UNL     1      -0.947  15.143  17.226  1.00  0.00     0.020 C 
ENDBRANCH   4   7
BRANCH   1  17
HETATM   17  N1  UNL     1       0.522  18.849  21.319  1.00  0.00    -0.307 N 
HETATM   18  C1  UNL     1      -0.678  18.902  22.059  1.00  0.00     0.227 C 
HETATM   19  O1  UNL     1      -1.546  18.014  21.885  1.00  0.00    -0.273 OA
ATOM     20  H1  UNL     1       1.231  19.569  21.455  1.00  0.00     0.171 HD
BRANCH  18  21
HETATM   21  C15 UNL     1      -0.892  19.990  23.011  1.00  0.00     0.078 C 
HETATM   22  C16 UNL     1      -1.828  21.111  22.506  1.00  0.00     0.014 C 
HETATM   23  C17 UNL     1      -2.269  21.243  23.941  1.00  0.00     0.002 C 
HETATM   24  C18 UNL     1      -2.015  19.727  24.044  1.00  0.00     0.014 C 
ENDBRANCH  18  21
ENDBRANCH   1  17
TORSDOF 3
ENDMDL
MODEL 3
REMARK VINA RESULT: -8.424822195      1.121      1.997
REMARK  3 active torsions:
REMARK  status: ('A' for Active; 'I' for Inactive)
REMARK       I    between atoms: C1_2  and  N1_3 
REMARK    1  A    between atoms: C1_2  and  C15_21 
REMARK    2  A    between atoms: N1_3  and  C2_5 
REMARK    3  A    between atoms: C3_8  and  C4_9 
ROOT
HETATM    1  C2  UNL     1       0.794  17.687  20.400  1.00  0.00     0.151 A 
HETATM    2  N2  UNL     1       0.236  17.529  19.219  1.00  0.00    -0.339 N 
ATOM      3  H2  UNL     1      -0.467  18.191  18.890  1.00  0.00     0.168 HD
HETATM    4  C3  UNL     1       0.588  16.526  18.478  1.00  0.00     0.026 A 
HETATM    5  C14 UNL     1       1.539  15.668  18.968  1.00  0.00     0.079 A 
HETATM    6  S1  UNL     1       1.871  16.374  20.494  1.00  0.00    -0.064 SA
ENDROOT
BRANCH   4   7
HETATM    7  C4  UNL     1      -0.077  16.271  17.140  1.00  0.00     0.004 C 
HETATM    8  C5  UNL     1      -0.852  17.512  16.732  1.00  0.00     0.020 C 
HETATM    9  C6  UNL     1      -1.470  17.256  15.396  1.00  0.00    -0.013 C 
HETATM   10  C7  UNL     1      -2.408  16.050  15.443  1.00  0.00     0.009 C 
HETATM   11  C11 UNL     1      -0.428  16.960  14.336  1.00  0.00     0.009 C 
HETATM   12  C8  UNL     1      -1.624  14.839  15.893  1.00  0.00    -0.013 C 
HETATM   13  C9  UNL     1      -0.490  14.553  14.934  1.00  0.00     0.009 C 
HETATM   14  C13 UNL     1      -1.029  15.131  17.249  1.00  0.00     0.020 C 
HETATM   15  C10 UNL     1       0.385  15.771  14.764  1.00  0.00    -0.013 C 
HETATM   16  C12 UNL     1       1.011  16.065  16.116  1.00  0.00     0.020 C 
ENDBRANCH   4   7
BRANCH   1  17
HETATM   17  N1  UNL     1       0.553  18.717  21.377  1.00  0.00    -0.307 N 
HETATM   18  C1  UNL     1      -0.699  18.819  22.019  1.00  0.00     0.227 C 
HETATM   19  O1  UNL     1      -1.606  18.003  21.728  1.00  0.00    -0.273 OA
ATOM     20  H1  UNL     1       1.294  19.378  21.607  1.00  0.00     0.171 HD
BRANCH  18  21
HETATM   21  C15 UNL     1      -0.921  19.873  23.006  1.00  0.00     0.078 C 
HETATM   22  C16 UNL     1      -1.770  21.060  22.498  1.00  0.00     0.014 C 
HETATM   23  C17 UNL     1      -2.292  21.151  23.908  1.00  0.00     0.002 C 
HETATM   24  C18 UNL     1      -2.117  19.622  23.956  1.00  0.00     0.014 C 
ENDBRANCH  18  21
ENDBRANCH   1  17
TORSDOF 3
ENDMDL
MODEL 4
REMARK VINA RESULT: -8.173703444      1.636      7.357
REMARK  3 active torsions:
REMARK  status: ('A' for Active; 'I' for Inactive)
REMARK       I    between atoms: C1_2  and  N1_3 
REMARK    1  A    between atoms: C1_2  and  C15_21 
REMARK    2  A    between atoms: N1_3  and  C2_5 
REMARK    3  A    between atoms: C3_8  and  C4_9 
ROOT
HETATM    1  C2  UNL     1       0.043  17.594  18.628  1.00  0.00     0.151 A 
HETATM    2  N2  UNL     1      -0.873  18.409  19.104  1.00  0.00    -0.339 N 
ATOM      3  H2  UNL     1      -1.805  18.434  18.690  1.00  0.00     0.168 HD
HETATM    4  C3  UNL     1      -0.581  19.181  20.103  1.00  0.00     0.026 A 
HETATM    5  C14 UNL     1       0.687  19.106  20.623  1.00  0.00     0.079 A 
HETATM    6  S1  UNL     1       1.389  17.907  19.619  1.00  0.00    -0.064 SA
ENDROOT
BRANCH   4   7
HETATM    7  C4  UNL     1      -1.586  20.180  20.640  1.00  0.00     0.004 C 
HETATM    8  C5  UNL     1      -0.856  21.199  21.497  1.00  0.00     0.020 C 
HETATM    9  C6  UNL     1      -1.854  22.196  21.987  1.00  0.00    -0.013 C 
HETATM   10  C7  UNL     1      -2.953  21.520  22.807  1.00  0.00     0.009 C 
HETATM   11  C11 UNL     1      -2.541  22.920  20.847  1.00  0.00     0.009 C 
HETATM   12  C8  UNL     1      -3.635  20.481  21.948  1.00  0.00    -0.013 C 
HETATM   13  C9  UNL     1      -4.249  21.123  20.724  1.00  0.00     0.009 C 
HETATM   14  C13 UNL     1      -2.598  19.487  21.485  1.00  0.00     0.020 C 
HETATM   15  C10 UNL     1      -3.214  21.911  19.958  1.00  0.00    -0.013 C 
HETATM   16  C12 UNL     1      -2.173  20.921  19.465  1.00  0.00     0.020 C 
ENDBRANCH   4   7
BRANCH   1  17
HETATM   17  N1  UNL     1      -0.063  16.664  17.534  1.00  0.00    -0.307 N 
HETATM   18  C1  UNL     1      -0.817  16.988  16.386  1.00  0.00     0.227 C 
HETATM   19  O1  UNL     1      -1.399  18.097  16.328  1.00  0.00    -0.273 OA
ATOM     20  H1  UNL     1       0.411  15.763  17.589  1.00  0.00     0.171 HD
BRANCH  18  21
HETATM   21  C15 UNL     1      -0.912  16.028  15.289  1.00  0.00     0.078 C 
HETATM   22  C16 UNL     1       0.297  16.030  14.327  1.00  0.00     0.014 C 
HETATM   23  C17 UNL     1       0.046  14.551  14.180  1.00  0.00     0.002 C 
HETATM   24  C18 UNL     1      -0.435  14.598  15.642  1.00  0.00     0.014 C 
ENDBRANCH  18  21
ENDBRANCH   1  17
TORSDOF 3
ENDMDL
MODEL 5
REMARK VINA RESULT: -8.156941582      1.896      7.206
REMARK  3 active torsions:
REMARK  status: ('A' for Active; 'I' for Inactive)
REMARK       I    between atoms: C1_2  and  N1_3 
REMARK    1  A    between atoms: C1_2  and  C15_21 
REMARK    2  A    between atoms: N1_3  and  C2_5 
REMARK    3  A    between atoms: C3_8  and  C4_9 
ROOT
HETATM    1  C2  UNL     1       0.255  16.175  18.949  1.00  0.00     0.151 A 
HETATM    2  N2  UNL     1      -0.490  17.062  19.574  1.00  0.00    -0.339 N 
ATOM      3  H2  UNL     1      -1.352  17.402  19.147  1.00  0.00     0.168 HD
HETATM    4  C3  UNL     1      -0.119  17.499  20.736  1.00  0.00     0.026 A 
HETATM    5  C14 UNL     1       1.048  17.007  21.264  1.00  0.00     0.079 A 
HETATM    6  S1  UNL     1       1.544  15.927  20.030  1.00  0.00    -0.064 SA
ENDROOT
BRANCH   4   7
HETATM    7  C4  UNL     1      -0.913  18.567  21.460  1.00  0.00     0.004 C 
HETATM    8  C5  UNL     1      -0.010  19.248  22.474  1.00  0.00     0.020 C 
HETATM    9  C6  UNL     1      -0.797  20.321  23.152  1.00  0.00    -0.013 C 
HETATM   10  C7  UNL     1      -2.026  19.744  23.856  1.00  0.00     0.009 C 
HETATM   11  C11 UNL     1      -1.303  21.360  22.172  1.00  0.00     0.009 C 
HETATM   12  C8  UNL     1      -2.886  19.035  22.835  1.00  0.00    -0.013 C 
HETATM   13  C9  UNL     1      -3.333  19.996  21.758  1.00  0.00     0.009 C 
HETATM   14  C13 UNL     1      -2.060  17.951  22.184  1.00  0.00     0.020 C 
HETATM   15  C10 UNL     1      -2.146  20.683  21.128  1.00  0.00    -0.013 C 
HETATM   16  C12 UNL     1      -1.316  19.609  20.448  1.00  0.00     0.020 C 
ENDBRANCH   4   7
BRANCH   1  17
HETATM   17  N1  UNL     1       0.036  15.564  17.664  1.00  0.00    -0.307 N 
HETATM   18  C1  UNL     1      -0.618  16.273  16.634  1.00  0.00     0.227 C 
HETATM   19  O1  UNL     1      -1.011  17.444  16.849  1.00  0.00    -0.273 OA
ATOM     20  H1  UNL     1       0.356  14.611  17.496  1.00  0.00     0.171 HD
BRANCH  18  21
HETATM   21  C15 UNL     1      -0.830  15.632  15.338  1.00  0.00     0.078 C 
HETATM   22  C16 UNL     1       0.118  16.117  14.218  1.00  0.00     0.014 C 
HETATM   23  C17 UNL     1       0.040  14.708  13.689  1.00  0.00     0.002 C 
HETATM   24  C18 UNL     1      -0.099  14.279  15.162  1.00  0.00     0.014 C 
ENDBRANCH  18  21
ENDBRANCH   1  17
TORSDOF 3
ENDMDL
