MODEL 1
REMARK VINA RESULT: -8.367592697      0.000      0.000
REMARK  4 active torsions:
REMARK  status: ('A' for Active; 'I' for Inactive)
REMARK    1  A    between atoms: C6_9  and  C7_10 
REMARK    2  A    between atoms: C7_10  and  O1_11 
REMARK    3  A    between atoms: C10_15  and  C12_17 
REMARK    4  A    between atoms: C12_17  and  C15_20 
ROOT
HETATM    1  C7  UNL     1       1.071  15.797  18.539  1.00  0.00     0.089 C 
HETATM    2  C8  UNL     1       0.015  15.353  19.478  1.00  0.00     0.044 C 
HETATM    3  C9  UNL     1      -0.325  16.164  20.661  1.00  0.00     0.013 C 
HETATM    4  C10 UNL     1       0.413  17.384  21.038  1.00  0.00    -0.037 C 
HETATM    5  C11 UNL     1       1.454  16.946  22.066  1.00  0.00     0.016 C 
HETATM    6  C18 UNL     1       1.213  17.903  19.881  1.00  0.00     0.013 C 
HETATM    7  C19 UNL     1       0.914  17.299  18.546  1.00  0.00     0.044 C 
ENDROOT
BRANCH   1   8
HETATM    8  C6  UNL     1       1.006  15.294  17.146  1.00  0.00     0.023 A 
HETATM    9  C2  UNL     1       1.718  14.140  16.782  1.00  0.00     0.033 A 
HETATM   10  C1  UNL     1       2.582  13.238  17.584  1.00  0.00     0.070 C 
HETATM   11  N1  UNL     1       1.450  13.962  15.478  1.00  0.00    -0.303 N 
HETATM   12  N2  UNL     1       0.650  14.892  15.029  1.00  0.00    -0.300 N 
ATOM     13  H1  UNL     1       1.823  13.200  14.912  1.00  0.00     0.186 HD
HETATM   14  C3  UNL     1       0.129  15.048  13.663  1.00  0.00     0.177 C 
HETATM   15  C4  UNL     1       0.339  15.759  16.046  1.00  0.00     0.035 A 
HETATM   16  C5  UNL     1      -0.566  16.925  15.875  1.00  0.00     0.070 C 
ENDBRANCH   1   8
BRANCH   1  17
HETATM   17  O1  UNL     1       2.354  15.379  18.970  1.00  0.00    -0.385 OA
ATOM     18  H1  UNL     1       2.812  16.200  19.110  1.00  0.00     0.211 HD
ENDBRANCH   1  17
BRANCH   4  19
HETATM   19  C12 UNL     1      -0.431  18.517  21.537  1.00  0.00    -0.037 C 
HETATM   20  C13 UNL     1      -1.903  18.060  21.684  1.00  0.00     0.016 C 
HETATM   21  C14 UNL     1       0.032  18.858  22.930  1.00  0.00     0.016 C 
BRANCH  19  22
HETATM   22  C15 UNL     1      -0.541  19.775  20.774  1.00  0.00    -0.014 C 
HETATM   23  C16 UNL     1      -1.611  19.964  19.778  1.00  0.00     0.010 C 
HETATM   24  C17 UNL     1      -0.230  21.045  21.555  1.00  0.00     0.010 C 
ENDBRANCH  19  22
ENDBRANCH   4  19
TORSDOF 4
ENDMDL
MODEL 2
REMARK VINA RESULT: -8.314917936      0.712      1.306
REMARK  4 active torsions:
REMARK  status: ('A' for Active; 'I' for Inactive)
REMARK    1  A    between atoms: C6_9  and  C7_10 
REMARK    2  A    between atoms: C7_10  and  O1_11 
REMARK    3  A    between atoms: C10_15  and  C12_17 
REMARK    4  A    between atoms: C12_17  and  C15_20 
ROOT
HETATM    1  C7  UNL     1       0.875  16.030  18.758  1.00  0.00     0.089 C 
HETATM    2  C8  UNL     1      -0.073  15.415  19.716  1.00  0.00     0.044 C 
HETATM    3  C9  UNL     1      -0.547  16.171  20.890  1.00  0.00     0.013 C 
HETATM    4  C10 UNL     1      -0.042  17.512  21.239  1.00  0.00    -0.037 C 
HETATM    5  C11 UNL     1       1.070  17.290  22.262  1.00  0.00     0.016 C 
HETATM    6  C18 UNL     1       0.640  18.149  20.065  1.00  0.00     0.013 C 
HETATM    7  C19 UNL     1       0.445  17.477  18.744  1.00  0.00     0.044 C 
ENDROOT
BRANCH   1   8
HETATM    8  C6  UNL     1       0.892  15.499  17.373  1.00  0.00     0.023 A 
HETATM    9  C2  UNL     1       1.656  14.362  17.066  1.00  0.00     0.033 A 
HETATM   10  C1  UNL     1       2.510  13.504  17.925  1.00  0.00     0.070 C 
HETATM   11  N1  UNL     1       1.456  14.152  15.755  1.00  0.00    -0.303 N 
HETATM   12  N2  UNL     1       0.650  15.047  15.251  1.00  0.00    -0.300 N 
ATOM     13  H1  UNL     1       1.879  13.392  15.222  1.00  0.00     0.186 HD
HETATM   14  C3  UNL     1       0.189  15.160  13.859  1.00  0.00     0.177 C 
HETATM   15  C4  UNL     1       0.264  15.922  16.235  1.00  0.00     0.035 A 
HETATM   16  C5  UNL     1      -0.668  17.055  15.998  1.00  0.00     0.070 C 
ENDBRANCH   1   8
BRANCH   1  17
HETATM   17  O1  UNL     1       2.217  15.862  19.181  1.00  0.00    -0.385 OA
ATOM     18  H1  UNL     1       2.254  14.943  19.417  1.00  0.00     0.211 HD
ENDBRANCH   1  17
BRANCH   4  19
HETATM   19  C12 UNL     1      -1.075  18.479  21.731  1.00  0.00    -0.037 C 
HETATM   20  C13 UNL     1      -1.581  19.358  20.561  1.00  0.00     0.016 C 
HETATM   21  C14 UNL     1      -2.270  17.684  22.191  1.00  0.00     0.016 C 
BRANCH  19  22
HETATM   22  C15 UNL     1      -0.753  19.466  22.781  1.00  0.00    -0.014 C 
HETATM   23  C16 UNL     1      -0.172  20.775  22.435  1.00  0.00     0.010 C 
HETATM   24  C17 UNL     1      -1.748  19.546  23.931  1.00  0.00     0.010 C 
ENDBRANCH  19  22
ENDBRANCH   4  19
TORSDOF 4
ENDMDL
MODEL 3
REMARK VINA RESULT: -7.896955785      2.270      3.504
REMARK  4 active torsions:
REMARK  status: ('A' for Active; 'I' for Inactive)
REMARK    1  A    between atoms: C6_9  and  C7_10 
REMARK    2  A    between atoms: C7_10  and  O1_11 
REMARK    3  A    between atoms: C10_15  and  C12_17 
REMARK    4  A    between atoms: C12_17  and  C15_20 
ROOT
HETATM    1  C7  UNL     1       0.723  18.042  20.257  1.00  0.00     0.089 C 
HETATM    2  C8  UNL     1       0.847  18.126  21.730  1.00  0.00     0.044 C 
HETATM    3  C9  UNL     1      -0.045  19.004  22.508  1.00  0.00     0.013 C 
HETATM    4  C10 UNL     1      -1.023  19.913  21.883  1.00  0.00    -0.037 C 
HETATM    5  C11 UNL     1      -0.335  21.273  21.789  1.00  0.00     0.016 C 
HETATM    6  C18 UNL     1      -1.285  19.518  20.460  1.00  0.00     0.013 C 
HETATM    7  C19 UNL     1      -0.765  18.182  20.039  1.00  0.00     0.044 C 
ENDROOT
BRANCH   1   8
HETATM    8  C6  UNL     1       1.212  16.808  19.596  1.00  0.00     0.023 A 
HETATM    9  C2  UNL     1       2.196  16.022  20.216  1.00  0.00     0.033 A 
HETATM   10  C1  UNL     1       2.892  16.184  21.517  1.00  0.00     0.070 C 
HETATM   11  N1  UNL     1       2.410  15.001  19.371  1.00  0.00    -0.303 N 
HETATM   12  N2  UNL     1       1.653  15.098  18.311  1.00  0.00    -0.300 N 
ATOM     13  H1  UNL     1       3.078  14.247  19.535  1.00  0.00     0.186 HD
HETATM   14  C3  UNL     1       1.593  14.184  17.161  1.00  0.00     0.177 C 
HETATM   15  C4  UNL     1       0.875  16.224  18.406  1.00  0.00     0.035 A 
HETATM   16  C5  UNL     1      -0.114  16.622  17.371  1.00  0.00     0.070 C 
ENDBRANCH   1   8
BRANCH   1  17
HETATM   17  O1  UNL     1       1.468  19.064  19.617  1.00  0.00    -0.385 OA
ATOM     18  H1  UNL     1       1.323  19.817  20.177  1.00  0.00     0.211 HD
ENDBRANCH   1  17
BRANCH   4  19
HETATM   19  C12 UNL     1      -2.351  20.000  22.571  1.00  0.00    -0.037 C 
HETATM   20  C13 UNL     1      -3.469  20.282  21.538  1.00  0.00     0.016 C 
HETATM   21  C14 UNL     1      -2.661  18.644  23.149  1.00  0.00     0.016 C 
BRANCH  19  22
HETATM   22  C15 UNL     1      -2.598  21.009  23.620  1.00  0.00    -0.014 C 
HETATM   23  C16 UNL     1      -3.626  22.049  23.442  1.00  0.00     0.010 C 
HETATM   24  C17 UNL     1      -2.516  20.497  25.053  1.00  0.00     0.010 C 
ENDBRANCH  19  22
ENDBRANCH   4  19
TORSDOF 4
ENDMDL
MODEL 4
REMARK VINA RESULT: -7.799214879      4.478      7.520
REMARK  4 active torsions:
REMARK  status: ('A' for Active; 'I' for Inactive)
REMARK    1  A    between atoms: C6_9  and  C7_10 
REMARK    2  A    between atoms: C7_10  and  O1_11 
REMARK    3  A    between atoms: C10_15  and  C12_17 
REMARK    4  A    between atoms: C12_17  and  C15_20 
ROOT
HETATM    1  C7  UNL     1      -1.569  19.547  22.651  1.00  0.00     0.089 C 
HETATM    2  C8  UNL     1      -0.123  19.265  22.813  1.00  0.00     0.044 C 
HETATM    3  C9  UNL     1       0.548  18.277  21.949  1.00  0.00     0.013 C 
HETATM    4  C10 UNL     1      -0.173  17.449  20.965  1.00  0.00    -0.037 C 
HETATM    5  C11 UNL     1      -0.467  16.124  21.664  1.00  0.00     0.016 C 
HETATM    6  C18 UNL     1      -1.522  18.030  20.663  1.00  0.00     0.013 C 
HETATM    7  C19 UNL     1      -1.769  19.418  21.160  1.00  0.00     0.044 C 
ENDROOT
BRANCH   1   8
HETATM    8  C6  UNL     1      -2.066  20.866  23.111  1.00  0.00     0.023 A 
HETATM    9  C2  UNL     1      -2.342  21.077  24.472  1.00  0.00     0.033 A 
HETATM   10  C1  UNL     1      -2.209  20.173  25.641  1.00  0.00     0.070 C 
HETATM   11  N1  UNL     1      -2.767  22.348  24.548  1.00  0.00    -0.303 N 
HETATM   12  N2  UNL     1      -2.771  22.916  23.371  1.00  0.00    -0.300 N 
ATOM     13  H1  UNL     1      -3.050  22.811  25.412  1.00  0.00     0.186 HD
HETATM   14  C3  UNL     1      -3.169  24.292  23.038  1.00  0.00     0.177 C 
HETATM   15  C4  UNL     1      -2.335  22.020  22.429  1.00  0.00     0.035 A 
HETATM   16  C5  UNL     1      -2.204  22.352  20.987  1.00  0.00     0.070 C 
ENDBRANCH   1   8
BRANCH   1  17
HETATM   17  O1  UNL     1      -2.359  18.632  23.391  1.00  0.00    -0.385 OA
ATOM     18  H1  UNL     1      -2.843  18.171  22.715  1.00  0.00     0.211 HD
ENDBRANCH   1  17
BRANCH   4  19
HETATM   19  C12 UNL     1       0.527  17.251  19.655  1.00  0.00    -0.037 C 
HETATM   20  C13 UNL     1       1.531  18.405  19.408  1.00  0.00     0.016 C 
HETATM   21  C14 UNL     1       1.361  16.000  19.761  1.00  0.00     0.016 C 
BRANCH  19  22
HETATM   22  C15 UNL     1      -0.231  17.187  18.390  1.00  0.00    -0.014 C 
HETATM   23  C16 UNL     1      -0.248  18.329  17.460  1.00  0.00     0.010 C 
HETATM   24  C17 UNL     1      -0.200  15.842  17.676  1.00  0.00     0.010 C 
ENDBRANCH  19  22
ENDBRANCH   4  19
TORSDOF 4
ENDMDL
MODEL 5
REMARK VINA RESULT: -7.772261912      1.978      3.448
REMARK  4 active torsions:
REMARK  status: ('A' for Active; 'I' for Inactive)
REMARK    1  A    between atoms: C6_9  and  C7_10 
REMARK    2  A    between atoms: C7_10  and  O1_11 
REMARK    3  A    between atoms: C10_15  and  C12_17 
REMARK    4  A    between atoms: C12_17  and  C15_20 
ROOT
HETATM    1  C7  UNL     1       0.470  17.921  19.771  1.00  0.00     0.089 C 
HETATM    2  C8  UNL     1       0.496  17.450  21.176  1.00  0.00     0.044 C 
HETATM    3  C9  UNL     1      -0.214  18.199  22.229  1.00  0.00     0.013 C 
HETATM    4  C10 UNL     1      -0.889  19.487  21.984  1.00  0.00    -0.037 C 
HETATM    5  C11 UNL     1       0.115  20.570  22.372  1.00  0.00     0.016 C 
HETATM    6  C18 UNL     1      -1.127  19.694  20.517  1.00  0.00     0.013 C 
HETATM    7  C19 UNL     1      -0.917  18.503  19.639  1.00  0.00     0.044 C 
ENDROOT
BRANCH   1   8
HETATM    8  C6  UNL     1       0.694  16.913  18.707  1.00  0.00     0.023 A 
HETATM    9  C2  UNL     1       0.136  17.101  17.432  1.00  0.00     0.033 A 
HETATM   10  C1  UNL     1      -0.690  18.207  16.887  1.00  0.00     0.070 C 
HETATM   11  N1  UNL     1       0.520  16.029  16.722  1.00  0.00    -0.303 N 
HETATM   12  N2  UNL     1       1.252  15.222  17.443  1.00  0.00    -0.300 N 
ATOM     13  H1  UNL     1       0.273  15.866  15.746  1.00  0.00     0.186 HD
HETATM   14  C3  UNL     1       1.858  13.948  17.031  1.00  0.00     0.177 C 
HETATM   15  C4  UNL     1       1.392  15.737  18.707  1.00  0.00     0.035 A 
HETATM   16  C5  UNL     1       2.182  15.072  19.775  1.00  0.00     0.070 C 
ENDBRANCH   1   8
BRANCH   1  17
HETATM   17  O1  UNL     1       1.490  18.875  19.528  1.00  0.00    -0.385 OA
ATOM     18  H1  UNL     1       1.450  19.432  20.297  1.00  0.00     0.211 HD
ENDBRANCH   1  17
BRANCH   4  19
HETATM   19  C12 UNL     1      -2.206  19.664  22.676  1.00  0.00    -0.037 C 
HETATM   20  C13 UNL     1      -3.252  20.244  21.693  1.00  0.00     0.016 C 
HETATM   21  C14 UNL     1      -2.715  18.298  23.057  1.00  0.00     0.016 C 
BRANCH  19  22
HETATM   22  C15 UNL     1      -2.330  20.541  23.858  1.00  0.00    -0.014 C 
HETATM   23  C16 UNL     1      -3.090  21.801  23.787  1.00  0.00     0.010 C 
HETATM   24  C17 UNL     1      -2.497  19.824  25.191  1.00  0.00     0.010 C 
ENDBRANCH  19  22
ENDBRANCH   4  19
TORSDOF 4
ENDMDL
