MODEL 1
REMARK VINA RESULT: -7.236181975      0.000      0.000
REMARK  5 active torsions:
REMARK  status: ('A' for Active; 'I' for Inactive)
REMARK    1  A    between atoms: C2_2  and  C3_3 
REMARK    2  A    between atoms: C3_3  and  N1_4 
REMARK    3  A    between atoms: C4_5  and  O1_6 
REMARK    4  A    between atoms: C5_8  and  N2_9 
REMARK    5  A    between atoms: N2_9  and  N3_11 
ROOT
HETATM    1  N2  UNL     1     -25.875  10.783  76.835  1.00  0.00    -0.290 N 
ATOM      2  H2  UNL     1     -26.158   9.859  76.511  1.00  0.00     0.187 HD
ENDROOT
BRANCH   1   3
HETATM    3  C5  UNL     1     -26.871  11.800  77.105  1.00  0.00     0.145 A 
HETATM    4  C4  UNL     1     -26.920  13.072  76.598  1.00  0.00     0.181 A 
HETATM    5  N1  UNL     1     -27.920  13.842  76.984  1.00  0.00    -0.286 N 
HETATM    6  C11 UNL     1     -28.806  13.328  77.836  1.00  0.00     0.294 A 
HETATM    7  S2  UNL     1     -28.245  11.752  78.106  1.00  0.00    -0.005 SA
HETATM    8  O2  UNL     1     -29.848  13.839  78.361  1.00  0.00    -0.259 OA
BRANCH   4   9
HETATM    9  O1  UNL     1     -25.907  13.523  75.683  1.00  0.00    -0.344 OA
ATOM     10  H1  UNL     1     -25.429  12.927  75.118  1.00  0.00     0.219 HD
ENDBRANCH   4   9
BRANCH   5  11
HETATM   11  C3  UNL     1     -28.039  15.240  76.458  1.00  0.00     0.135 C 
BRANCH  11  12
HETATM   12  C2  UNL     1     -29.288  15.431  75.686  1.00  0.00     0.016 C 
HETATM   13  C1  UNL     1     -30.022  16.707  76.065  1.00  0.00     0.006 C 
ENDBRANCH  11  12
ENDBRANCH   5  11
ENDBRANCH   1   3
BRANCH   1  14
HETATM   14  N3  UNL     1     -24.538  11.080  77.020  1.00  0.00    -0.306 N 
HETATM   15  C6  UNL     1     -23.770  10.594  77.931  1.00  0.00     0.038 C 
HETATM   16  C7  UNL     1     -24.333   9.618  78.895  1.00  0.00     0.066 C 
HETATM   17  C10 UNL     1     -22.378  11.031  77.980  1.00  0.00     0.274 A 
HETATM   18  C8  UNL     1     -23.620   8.295  78.628  1.00  0.00     0.082 C 
HETATM   19  S1  UNL     1     -21.888   8.569  79.126  1.00  0.00    -0.133 SA
HETATM   20  C9  UNL     1     -21.390  10.178  78.537  1.00  0.00     0.284 A 
HETATM   21  N4  UNL     1     -21.385  10.327  77.085  1.00  0.00    -0.048 N 
ATOM     22  H42 UNL     1     -20.710  10.595  76.368  1.00  0.00     0.279 HD
ATOM     23  H41 UNL     1     -21.424   9.708  76.275  1.00  0.00     0.279 HD
ATOM     24  H3  UNL     1     -24.119  11.748  76.373  1.00  0.00     0.186 HD
ENDBRANCH   1  14
TORSDOF 5
ENDMDL
MODEL 2
REMARK VINA RESULT: -7.228738041      2.751      6.920
REMARK  5 active torsions:
REMARK  status: ('A' for Active; 'I' for Inactive)
REMARK    1  A    between atoms: C2_2  and  C3_3 
REMARK    2  A    between atoms: C3_3  and  N1_4 
REMARK    3  A    between atoms: C4_5  and  O1_6 
REMARK    4  A    between atoms: C5_8  and  N2_9 
REMARK    5  A    between atoms: N2_9  and  N3_11 
ROOT
HETATM    1  N2  UNL     1     -25.309   9.499  77.344  1.00  0.00    -0.290 N 
ATOM      2  H2  UNL     1     -26.011   8.771  77.211  1.00  0.00     0.187 HD
ENDROOT
BRANCH   1   3
HETATM    3  C5  UNL     1     -24.124   9.237  78.136  1.00  0.00     0.145 A 
HETATM    4  C4  UNL     1     -23.396  10.139  78.866  1.00  0.00     0.181 A 
HETATM    5  N1  UNL     1     -22.341   9.684  79.514  1.00  0.00    -0.286 N 
HETATM    6  C11 UNL     1     -22.060   8.385  79.411  1.00  0.00     0.294 A 
HETATM    7  S2  UNL     1     -23.280   7.785  78.400  1.00  0.00    -0.005 SA
HETATM    8  O2  UNL     1     -21.120   7.694  79.922  1.00  0.00    -0.259 OA
BRANCH   4   9
HETATM    9  O1  UNL     1     -23.791  11.520  78.907  1.00  0.00    -0.344 OA
ATOM     10  H1  UNL     1     -24.702  11.790  78.912  1.00  0.00     0.219 HD
ENDBRANCH   4   9
BRANCH   5  11
HETATM   11  C3  UNL     1     -21.507  10.616  80.341  1.00  0.00     0.135 C 
BRANCH  11  12
HETATM   12  C2  UNL     1     -20.556  11.388  79.508  1.00  0.00     0.016 C 
HETATM   13  C1  UNL     1     -19.510  12.117  80.335  1.00  0.00     0.006 C 
ENDBRANCH  11  12
ENDBRANCH   5  11
ENDBRANCH   1   3
BRANCH   1  14
HETATM   14  N3  UNL     1     -25.477  10.746  76.771  1.00  0.00    -0.306 N 
HETATM   15  C6  UNL     1     -26.492  11.523  76.925  1.00  0.00     0.038 C 
HETATM   16  C7  UNL     1     -27.609  11.077  77.792  1.00  0.00     0.066 C 
HETATM   17  C10 UNL     1     -26.501  12.807  76.232  1.00  0.00     0.274 A 
HETATM   18  C8  UNL     1     -27.632  12.031  78.982  1.00  0.00     0.082 C 
HETATM   19  S1  UNL     1     -28.125  13.648  78.299  1.00  0.00    -0.133 SA
HETATM   20  C9  UNL     1     -27.248  13.891  76.764  1.00  0.00     0.284 A 
HETATM   21  N4  UNL     1     -25.796  13.970  76.892  1.00  0.00    -0.048 N 
ATOM     22  H42 UNL     1     -25.064  14.635  76.640  1.00  0.00     0.279 HD
ATOM     23  H41 UNL     1     -25.123  14.098  77.647  1.00  0.00     0.279 HD
ATOM     24  H3  UNL     1     -24.726  11.083  76.169  1.00  0.00     0.186 HD
ENDBRANCH   1  14
TORSDOF 5
ENDMDL
MODEL 3
REMARK VINA RESULT: -7.063343581      1.340      1.456
REMARK  5 active torsions:
REMARK  status: ('A' for Active; 'I' for Inactive)
REMARK    1  A    between atoms: C2_2  and  C3_3 
REMARK    2  A    between atoms: C3_3  and  N1_4 
REMARK    3  A    between atoms: C4_5  and  O1_6 
REMARK    4  A    between atoms: C5_8  and  N2_9 
REMARK    5  A    between atoms: N2_9  and  N3_11 
ROOT
HETATM    1  N2  UNL     1     -25.126  10.629  77.417  1.00  0.00    -0.290 N 
ATOM      2  H2  UNL     1     -24.965   9.942  76.681  1.00  0.00     0.187 HD
ENDROOT
BRANCH   1   3
HETATM    3  C5  UNL     1     -26.447  11.191  77.616  1.00  0.00     0.145 A 
HETATM    4  C4  UNL     1     -26.804  12.512  77.567  1.00  0.00     0.181 A 
HETATM    5  N1  UNL     1     -28.071  12.808  77.785  1.00  0.00    -0.286 N 
HETATM    6  C11 UNL     1     -28.909  11.802  78.039  1.00  0.00     0.294 A 
HETATM    7  S2  UNL     1     -27.923  10.425  77.971  1.00  0.00    -0.005 SA
HETATM    8  O2  UNL     1     -30.159  11.801  78.280  1.00  0.00    -0.259 OA
BRANCH   4   9
HETATM    9  O1  UNL     1     -25.815  13.517  77.284  1.00  0.00    -0.344 OA
ATOM     10  H1  UNL     1     -25.424  14.053  77.964  1.00  0.00     0.219 HD
ENDBRANCH   4   9
BRANCH   5  11
HETATM   11  C3  UNL     1     -28.531  14.233  77.734  1.00  0.00     0.135 C 
BRANCH  11  12
HETATM   12  C2  UNL     1     -29.227  14.540  76.462  1.00  0.00     0.016 C 
HETATM   13  C1  UNL     1     -28.736  15.827  75.821  1.00  0.00     0.006 C 
ENDBRANCH  11  12
ENDBRANCH   5  11
ENDBRANCH   1   3
BRANCH   1  14
HETATM   14  N3  UNL     1     -24.088  11.035  78.235  1.00  0.00    -0.306 N 
HETATM   15  C6  UNL     1     -23.320  10.268  78.926  1.00  0.00     0.038 C 
HETATM   16  C7  UNL     1     -23.534   8.802  78.868  1.00  0.00     0.066 C 
HETATM   17  C10 UNL     1     -22.275  10.877  79.743  1.00  0.00     0.274 A 
HETATM   18  C8  UNL     1     -22.291   8.215  78.207  1.00  0.00     0.082 C 
HETATM   19  S1  UNL     1     -20.934   8.490  79.393  1.00  0.00    -0.133 SA
HETATM   20  C9  UNL     1     -21.103  10.139  80.054  1.00  0.00     0.284 A 
HETATM   21  N4  UNL     1     -20.962  11.212  79.075  1.00  0.00    -0.048 N 
ATOM     22  H42 UNL     1     -20.377  12.040  78.960  1.00  0.00     0.279 HD
ATOM     23  H41 UNL     1     -20.617  11.304  78.120  1.00  0.00     0.279 HD
ATOM     24  H3  UNL     1     -23.914  12.038  78.296  1.00  0.00     0.186 HD
ENDBRANCH   1  14
TORSDOF 5
ENDMDL
MODEL 4
REMARK VINA RESULT: -7.021559500      3.135      7.523
REMARK  5 active torsions:
REMARK  status: ('A' for Active; 'I' for Inactive)
REMARK    1  A    between atoms: C2_2  and  C3_3 
REMARK    2  A    between atoms: C3_3  and  N1_4 
REMARK    3  A    between atoms: C4_5  and  O1_6 
REMARK    4  A    between atoms: C5_8  and  N2_9 
REMARK    5  A    between atoms: N2_9  and  N3_11 
ROOT
HETATM    1  N2  UNL     1     -25.304   9.859  77.269  1.00  0.00    -0.290 N 
ATOM      2  H2  UNL     1     -25.973   9.130  77.022  1.00  0.00     0.187 HD
ENDROOT
BRANCH   1   3
HETATM    3  C5  UNL     1     -24.185   9.559  78.139  1.00  0.00     0.145 A 
HETATM    4  C4  UNL     1     -23.448   8.406  78.179  1.00  0.00     0.181 A 
HETATM    5  N1  UNL     1     -22.468   8.340  79.060  1.00  0.00    -0.286 N 
HETATM    6  C11 UNL     1     -22.267   9.398  79.845  1.00  0.00     0.294 A 
HETATM    7  S2  UNL     1     -23.456  10.501  79.353  1.00  0.00    -0.005 SA
HETATM    8  O2  UNL     1     -21.408   9.602  80.763  1.00  0.00    -0.259 OA
BRANCH   4   9
HETATM    9  O1  UNL     1     -23.753   7.324  77.282  1.00  0.00    -0.344 OA
ATOM     10  H1  UNL     1     -24.086   6.488  77.587  1.00  0.00     0.219 HD
ENDBRANCH   4   9
BRANCH   5  11
HETATM   11  C3  UNL     1     -21.615   7.111  79.147  1.00  0.00     0.135 C 
BRANCH  11  12
HETATM   12  C2  UNL     1     -22.346   5.978  79.761  1.00  0.00     0.016 C 
HETATM   13  C1  UNL     1     -22.262   4.708  78.930  1.00  0.00     0.006 C 
ENDBRANCH  11  12
ENDBRANCH   5  11
ENDBRANCH   1   3
BRANCH   1  14
HETATM   14  N3  UNL     1     -25.455  11.143  76.779  1.00  0.00    -0.306 N 
HETATM   15  C6  UNL     1     -26.524  11.857  76.835  1.00  0.00     0.038 C 
HETATM   16  C7  UNL     1     -27.733  11.287  77.478  1.00  0.00     0.066 C 
HETATM   17  C10 UNL     1     -26.503  13.196  76.254  1.00  0.00     0.274 A 
HETATM   18  C8  UNL     1     -27.991  12.130  78.723  1.00  0.00     0.082 C 
HETATM   19  S1  UNL     1     -28.468  13.777  78.104  1.00  0.00    -0.133 SA
HETATM   20  C9  UNL     1     -27.383  14.193  76.749  1.00  0.00     0.284 A 
HETATM   21  N4  UNL     1     -25.975  14.326  77.107  1.00  0.00    -0.048 N 
ATOM     22  H42 UNL     1     -25.252  15.042  77.027  1.00  0.00     0.279 HD
ATOM     23  H41 UNL     1     -25.433  14.417  77.966  1.00  0.00     0.279 HD
ATOM     24  H3  UNL     1     -24.642  11.565  76.331  1.00  0.00     0.186 HD
ENDBRANCH   1  14
TORSDOF 5
ENDMDL
MODEL 5
REMARK VINA RESULT: -6.928364442      1.967      2.795
REMARK  5 active torsions:
REMARK  status: ('A' for Active; 'I' for Inactive)
REMARK    1  A    between atoms: C2_2  and  C3_3 
REMARK    2  A    between atoms: C3_3  and  N1_4 
REMARK    3  A    between atoms: C4_5  and  O1_6 
REMARK    4  A    between atoms: C5_8  and  N2_9 
REMARK    5  A    between atoms: N2_9  and  N3_11 
ROOT
HETATM    1  N2  UNL     1     -23.411  11.036  77.212  1.00  0.00    -0.290 N 
ATOM      2  H2  UNL     1     -22.982  11.756  76.631  1.00  0.00     0.187 HD
ENDROOT
BRANCH   1   3
HETATM    3  C5  UNL     1     -24.756  11.213  77.722  1.00  0.00     0.145 A 
HETATM    4  C4  UNL     1     -25.800  11.852  77.107  1.00  0.00     0.181 A 
HETATM    5  N1  UNL     1     -26.948  11.903  77.757  1.00  0.00    -0.286 N 
HETATM    6  C11 UNL     1     -27.006  11.333  78.961  1.00  0.00     0.294 A 
HETATM    7  S2  UNL     1     -25.445  10.715  79.194  1.00  0.00    -0.005 SA
HETATM    8  O2  UNL     1     -27.968  11.237  79.790  1.00  0.00    -0.259 OA
BRANCH   4   9
HETATM    9  O1  UNL     1     -25.625  12.433  75.804  1.00  0.00    -0.344 OA
ATOM     10  H1  UNL     1     -24.958  13.085  75.622  1.00  0.00     0.219 HD
ENDBRANCH   4   9
BRANCH   5  11
HETATM   11  C3  UNL     1     -28.134  12.577  77.137  1.00  0.00     0.135 C 
BRANCH  11  12
HETATM   12  C2  UNL     1     -28.259  13.985  77.578  1.00  0.00     0.016 C 
HETATM   13  C1  UNL     1     -28.104  14.974  76.434  1.00  0.00     0.006 C 
ENDBRANCH  11  12
ENDBRANCH   5  11
ENDBRANCH   1   3
BRANCH   1  14
HETATM   14  N3  UNL     1     -22.717   9.881  77.521  1.00  0.00    -0.306 N 
HETATM   15  C6  UNL     1     -21.608   9.811  78.170  1.00  0.00     0.038 C 
HETATM   16  C7  UNL     1     -20.981  11.065  78.652  1.00  0.00     0.066 C 
HETATM   17  C10 UNL     1     -21.013   8.498  78.398  1.00  0.00     0.274 A 
HETATM   18  C8  UNL     1     -21.023  11.006  80.176  1.00  0.00     0.082 C 
HETATM   19  S1  UNL     1     -19.891   9.654  80.640  1.00  0.00    -0.133 SA
HETATM   20  C9  UNL     1     -20.166   8.293  79.519  1.00  0.00     0.284 A 
HETATM   21  N4  UNL     1     -21.497   7.700  79.586  1.00  0.00    -0.048 N 
ATOM     22  H42 UNL     1     -21.889   6.772  79.747  1.00  0.00     0.279 HD
ATOM     23  H41 UNL     1     -22.291   7.728  80.226  1.00  0.00     0.279 HD
ATOM     24  H3  UNL     1     -23.122   9.000  77.205  1.00  0.00     0.186 HD
ENDBRANCH   1  14
TORSDOF 5
ENDMDL
