MODEL 1
REMARK VINA RESULT: -7.743055994      0.000      0.000
REMARK  8 active torsions:
REMARK  status: ('A' for Active; 'I' for Inactive)
REMARK    1  A    between atoms: C4_5  and  N1_6 
REMARK    2  A    between atoms: N1_6  and  C5_8 
REMARK    3  A    between atoms: C5_8  and  C6_9 
REMARK    4  A    between atoms: N2_13  and  C10_14 
REMARK    5  A    between atoms: C10_14  and  C11_15 
REMARK    6  A    between atoms: C11_15  and  N3_16 
REMARK    7  A    between atoms: N3_16  and  C12_19 
REMARK    8  A    between atoms: C12_19  and  C13_20 
ROOT
HETATM    1  C6  UNL     1      -6.579  10.764 -20.435  1.00  0.00     0.029 A 
HETATM    2  C7  UNL     1      -5.758   9.691 -20.817  1.00  0.00     0.028 A 
HETATM    3  C8  UNL     1      -5.537   9.751 -22.175  1.00  0.00     0.019 A 
HETATM    4  C9  UNL     1      -6.225  10.861 -22.602  1.00  0.00     0.091 A 
HETATM    5  N2  UNL     1      -6.846  11.459 -21.548  1.00  0.00    -0.357 N 
ENDROOT
BRANCH   5   6
HETATM    6  C10 UNL     1      -7.625  12.666 -21.649  1.00  0.00     0.155 C 
BRANCH   6   7
HETATM    7  C11 UNL     1      -8.767  12.575 -22.621  1.00  0.00     0.253 C 
BRANCH   7   8
HETATM    8  N3  UNL     1     -10.051  12.337 -22.056  1.00  0.00    -0.068 N 
ATOM      9  H32 UNL     1     -10.203  12.921 -21.234  1.00  0.00     0.277 HD
ATOM     10  H31 UNL     1     -10.789  12.702 -22.657  1.00  0.00     0.277 HD
BRANCH   8  11
HETATM   11  C12 UNL     1     -10.276  10.934 -21.747  1.00  0.00     0.290 C 
BRANCH  11  12
HETATM   12  C13 UNL     1     -10.555  10.796 -20.288  1.00  0.00     0.052 A 
HETATM   13  C14 UNL     1     -10.514  11.790 -19.350  1.00  0.00     0.047 A 
HETATM   14  C15 UNL     1     -10.839  11.207 -18.144  1.00  0.00     0.109 A 
HETATM   15  N4  UNL     1     -11.070   9.895 -18.351  1.00  0.00    -0.312 N 
HETATM   16  N5  UNL     1     -10.894   9.676 -19.637  1.00  0.00    -0.304 N 
ATOM     17  H4  UNL     1     -11.331   9.204 -17.648  1.00  0.00     0.186 HD
ATOM     18  H5  UNL     1     -11.001   8.766 -20.083  1.00  0.00     0.186 HD
ENDBRANCH  11  12
ENDBRANCH   8  11
ENDBRANCH   7   8
ENDBRANCH   6   7
ENDBRANCH   5   6
BRANCH   1  19
HETATM   19  C5  UNL     1      -7.033  10.989 -19.058  1.00  0.00     0.177 C 
BRANCH  19  20
HETATM   20  N1  UNL     1      -6.368  12.157 -18.461  1.00  0.00    -0.384 N 
ATOM     21  H1  UNL     1      -5.417  12.379 -18.752  1.00  0.00     0.160 HD
BRANCH  20  22
HETATM   22  C4  UNL     1      -6.986  12.976 -17.510  1.00  0.00     0.028 A 
HETATM   23  C3  UNL     1      -7.049  14.352 -17.599  1.00  0.00     0.031 A 
HETATM   24  C2  UNL     1      -7.666  15.134 -16.646  1.00  0.00     0.026 A 
HETATM   25  C1  UNL     1      -8.253  14.542 -15.543  1.00  0.00     0.034 A 
HETATM   26 CL1  UNL     1      -9.054  15.494 -14.293  1.00  0.00    -0.084 Cl
HETATM   27  C17 UNL     1      -8.198  13.161 -15.435  1.00  0.00     0.026 A 
HETATM   28  C16 UNL     1      -7.576  12.404 -16.404  1.00  0.00     0.031 A 
ENDBRANCH  20  22
ENDBRANCH  19  20
ENDBRANCH   1  19
TORSDOF 8
ENDMDL
MODEL 2
REMARK VINA RESULT: -7.679767130      0.699      1.230
REMARK  8 active torsions:
REMARK  status: ('A' for Active; 'I' for Inactive)
REMARK    1  A    between atoms: C4_5  and  N1_6 
REMARK    2  A    between atoms: N1_6  and  C5_8 
REMARK    3  A    between atoms: C5_8  and  C6_9 
REMARK    4  A    between atoms: N2_13  and  C10_14 
REMARK    5  A    between atoms: C10_14  and  C11_15 
REMARK    6  A    between atoms: C11_15  and  N3_16 
REMARK    7  A    between atoms: N3_16  and  C12_19 
REMARK    8  A    between atoms: C12_19  and  C13_20 
ROOT
HETATM    1  C6  UNL     1      -6.521  11.930 -20.608  1.00  0.00     0.029 A 
HETATM    2  C7  UNL     1      -5.905  10.712 -20.285  1.00  0.00     0.028 A 
HETATM    3  C8  UNL     1      -5.944   9.879 -21.382  1.00  0.00     0.019 A 
HETATM    4  C9  UNL     1      -6.583  10.604 -22.360  1.00  0.00     0.091 A 
HETATM    5  N2  UNL     1      -6.923  11.832 -21.881  1.00  0.00    -0.357 N 
ENDROOT
BRANCH   5   6
HETATM    6  C10 UNL     1      -7.578  12.850 -22.663  1.00  0.00     0.155 C 
BRANCH   6   7
HETATM    7  C11 UNL     1      -8.955  12.469 -23.129  1.00  0.00     0.253 C 
BRANCH   7   8
HETATM    8  N3  UNL     1      -9.939  12.318 -22.112  1.00  0.00    -0.068 N 
ATOM      9  H32 UNL     1      -9.658  12.798 -21.257  1.00  0.00     0.277 HD
ATOM     10  H31 UNL     1     -10.779  12.853 -22.333  1.00  0.00     0.277 HD
BRANCH   8  11
HETATM   11  C12 UNL     1     -10.261  10.926 -21.847  1.00  0.00     0.290 C 
BRANCH  11  12
HETATM   12  C13 UNL     1     -10.449  10.742 -20.378  1.00  0.00     0.052 A 
HETATM   13  C14 UNL     1     -10.046  11.595 -19.389  1.00  0.00     0.047 A 
HETATM   14  C15 UNL     1     -10.428  11.022 -18.194  1.00  0.00     0.109 A 
HETATM   15  N4  UNL     1     -11.045   9.853 -18.459  1.00  0.00    -0.312 N 
HETATM   16  N5  UNL     1     -11.045   9.710 -19.767  1.00  0.00    -0.304 N 
ATOM     17  H4  UNL     1     -11.437   9.204 -17.777  1.00  0.00     0.186 HD
ATOM     18  H5  UNL     1     -11.448   8.911 -20.256  1.00  0.00     0.186 HD
ENDBRANCH  11  12
ENDBRANCH   8  11
ENDBRANCH   7   8
ENDBRANCH   6   7
ENDBRANCH   5   6
BRANCH   1  19
HETATM   19  C5  UNL     1      -6.675  13.039 -19.659  1.00  0.00     0.177 C 
BRANCH  19  20
HETATM   20  N1  UNL     1      -6.588  12.568 -18.269  1.00  0.00    -0.384 N 
ATOM     21  H1  UNL     1      -6.053  11.723 -18.072  1.00  0.00     0.160 HD
BRANCH  20  22
HETATM   22  C4  UNL     1      -7.209  13.230 -17.204  1.00  0.00     0.028 A 
HETATM   23  C3  UNL     1      -7.736  12.593 -16.099  1.00  0.00     0.031 A 
HETATM   24  C2  UNL     1      -8.341  13.273 -15.063  1.00  0.00     0.026 A 
HETATM   25  C1  UNL     1      -8.439  14.652 -15.108  1.00  0.00     0.034 A 
HETATM   26 CL1  UNL     1      -9.204  15.571 -13.812  1.00  0.00    -0.084 Cl
HETATM   27  C17 UNL     1      -7.916  15.309 -16.211  1.00  0.00     0.026 A 
HETATM   28  C16 UNL     1      -7.316  14.604 -17.230  1.00  0.00     0.031 A 
ENDBRANCH  20  22
ENDBRANCH  19  20
ENDBRANCH   1  19
TORSDOF 8
ENDMDL
MODEL 3
REMARK VINA RESULT: -7.678145063      1.527      2.566
REMARK  8 active torsions:
REMARK  status: ('A' for Active; 'I' for Inactive)
REMARK    1  A    between atoms: C4_5  and  N1_6 
REMARK    2  A    between atoms: N1_6  and  C5_8 
REMARK    3  A    between atoms: C5_8  and  C6_9 
REMARK    4  A    between atoms: N2_13  and  C10_14 
REMARK    5  A    between atoms: C10_14  and  C11_15 
REMARK    6  A    between atoms: C11_15  and  N3_16 
REMARK    7  A    between atoms: N3_16  and  C12_19 
REMARK    8  A    between atoms: C12_19  and  C13_20 
ROOT
HETATM    1  C6  UNL     1      -5.999  11.831 -20.287  1.00  0.00     0.029 A 
HETATM    2  C7  UNL     1      -5.203  11.744 -21.440  1.00  0.00     0.028 A 
HETATM    3  C8  UNL     1      -5.184  10.439 -21.881  1.00  0.00     0.019 A 
HETATM    4  C9  UNL     1      -5.972   9.749 -20.991  1.00  0.00     0.091 A 
HETATM    5  N2  UNL     1      -6.453  10.597 -20.040  1.00  0.00    -0.357 N 
ENDROOT
BRANCH   5   6
HETATM    6  C10 UNL     1      -7.338  10.196 -18.976  1.00  0.00     0.155 C 
BRANCH   6   7
HETATM    7  C11 UNL     1      -8.794  10.240 -19.345  1.00  0.00     0.253 C 
BRANCH   7   8
HETATM    8  N3  UNL     1      -9.660  10.854 -18.397  1.00  0.00    -0.068 N 
ATOM      9  H32 UNL     1     -10.033  10.166 -17.743  1.00  0.00     0.277 HD
ATOM     10  H31 UNL     1      -9.135  11.435 -17.744  1.00  0.00     0.277 HD
BRANCH   8  11
HETATM   11  C12 UNL     1     -10.730  11.611 -19.024  1.00  0.00     0.290 C 
BRANCH  11  12
HETATM   12  C13 UNL     1     -10.233  12.980 -19.346  1.00  0.00     0.052 A 
HETATM   13  C14 UNL     1     -10.216  14.062 -18.510  1.00  0.00     0.047 A 
HETATM   14  C15 UNL     1      -9.674  15.107 -19.228  1.00  0.00     0.109 A 
HETATM   15  N4  UNL     1      -9.374  14.665 -20.466  1.00  0.00    -0.312 N 
HETATM   16  N5  UNL     1      -9.717  13.395 -20.510  1.00  0.00    -0.304 N 
ATOM     17  H4  UNL     1      -8.961  15.209 -21.223  1.00  0.00     0.186 HD
ATOM     18  H5  UNL     1      -9.604  12.799 -21.330  1.00  0.00     0.186 HD
ENDBRANCH  11  12
ENDBRANCH   8  11
ENDBRANCH   7   8
ENDBRANCH   6   7
ENDBRANCH   5   6
BRANCH   1  19
HETATM   19  C5  UNL     1      -6.215  13.077 -19.542  1.00  0.00     0.177 C 
BRANCH  19  20
HETATM   20  N1  UNL     1      -6.012  12.878 -18.099  1.00  0.00    -0.384 N 
ATOM     21  H1  UNL     1      -5.260  12.262 -17.792  1.00  0.00     0.160 HD
BRANCH  20  22
HETATM   22  C4  UNL     1      -6.806  13.499 -17.129  1.00  0.00     0.028 A 
HETATM   23  C3  UNL     1      -6.930  14.867 -16.991  1.00  0.00     0.031 A 
HETATM   24  C2  UNL     1      -7.722  15.451 -16.025  1.00  0.00     0.026 A 
HETATM   25  C1  UNL     1      -8.432  14.656 -15.144  1.00  0.00     0.034 A 
HETATM   26 CL1  UNL     1      -9.459  15.350 -13.888  1.00  0.00    -0.084 Cl
HETATM   27  C17 UNL     1      -8.320  13.280 -15.266  1.00  0.00     0.026 A 
HETATM   28  C16 UNL     1      -7.522  12.724 -16.242  1.00  0.00     0.031 A 
ENDBRANCH  20  22
ENDBRANCH  19  20
ENDBRANCH   1  19
TORSDOF 8
ENDMDL
MODEL 4
REMARK VINA RESULT: -7.661100683      2.231      4.788
REMARK  8 active torsions:
REMARK  status: ('A' for Active; 'I' for Inactive)
REMARK    1  A    between atoms: C4_5  and  N1_6 
REMARK    2  A    between atoms: N1_6  and  C5_8 
REMARK    3  A    between atoms: C5_8  and  C6_9 
REMARK    4  A    between atoms: N2_13  and  C10_14 
REMARK    5  A    between atoms: C10_14  and  C11_15 
REMARK    6  A    between atoms: C11_15  and  N3_16 
REMARK    7  A    between atoms: N3_16  and  C12_19 
REMARK    8  A    between atoms: C12_19  and  C13_20 
ROOT
HETATM    1  C6  UNL     1      -8.397  11.397 -19.104  1.00  0.00     0.029 A 
HETATM    2  C7  UNL     1      -9.708  11.123 -18.686  1.00  0.00     0.028 A 
HETATM    3  C8  UNL     1     -10.595  11.742 -19.539  1.00  0.00     0.019 A 
HETATM    4  C9  UNL     1      -9.810  12.383 -20.469  1.00  0.00     0.091 A 
HETATM    5  N2  UNL     1      -8.494  12.167 -20.195  1.00  0.00    -0.357 N 
ENDROOT
BRANCH   5   6
HETATM    6  C10 UNL     1      -7.409  12.674 -20.996  1.00  0.00     0.155 C 
BRANCH   6   7
HETATM    7  C11 UNL     1      -7.081  14.117 -20.736  1.00  0.00     0.253 C 
BRANCH   7   8
HETATM    8  N3  UNL     1      -5.718  14.488 -20.911  1.00  0.00    -0.068 N 
ATOM      9  H32 UNL     1      -5.522  14.711 -21.886  1.00  0.00     0.277 HD
ATOM     10  H31 UNL     1      -5.531  15.399 -20.493  1.00  0.00     0.277 HD
BRANCH   8  11
HETATM   11  C12 UNL     1      -4.795  13.484 -20.410  1.00  0.00     0.290 C 
BRANCH  11  12
HETATM   12  C13 UNL     1      -3.955  14.089 -19.336  1.00  0.00     0.052 A 
HETATM   13  C14 UNL     1      -4.180  15.273 -18.691  1.00  0.00     0.047 A 
HETATM   14  C15 UNL     1      -3.153  15.429 -17.784  1.00  0.00     0.109 A 
HETATM   15  N4  UNL     1      -2.331  14.365 -17.882  1.00  0.00    -0.312 N 
HETATM   16  N5  UNL     1      -2.831  13.582 -18.814  1.00  0.00    -0.304 N 
ATOM     17  H4  UNL     1      -1.483  14.198 -17.339  1.00  0.00     0.186 HD
ATOM     18  H5  UNL     1      -2.413  12.697 -19.103  1.00  0.00     0.186 HD
ENDBRANCH  11  12
ENDBRANCH   8  11
ENDBRANCH   7   8
ENDBRANCH   6   7
ENDBRANCH   5   6
BRANCH   1  19
HETATM   19  C5  UNL     1      -7.202  10.910 -18.403  1.00  0.00     0.177 C 
BRANCH  19  20
HETATM   20  N1  UNL     1      -6.502  12.006 -17.717  1.00  0.00    -0.384 N 
ATOM     21  H1  UNL     1      -5.500  12.115 -17.868  1.00  0.00     0.160 HD
BRANCH  20  22
HETATM   22  C4  UNL     1      -7.153  12.907 -16.867  1.00  0.00     0.028 A 
HETATM   23  C3  UNL     1      -7.261  14.261 -17.112  1.00  0.00     0.031 A 
HETATM   24  C2  UNL     1      -7.910  15.125 -16.255  1.00  0.00     0.026 A 
HETATM   25  C1  UNL     1      -8.484  14.641 -15.093  1.00  0.00     0.034 A 
HETATM   26 CL1  UNL     1      -9.325  15.701 -13.961  1.00  0.00    -0.084 Cl
HETATM   27  C17 UNL     1      -8.385  13.283 -14.830  1.00  0.00     0.026 A 
HETATM   28  C16 UNL     1      -7.732  12.444 -15.705  1.00  0.00     0.031 A 
ENDBRANCH  20  22
ENDBRANCH  19  20
ENDBRANCH   1  19
TORSDOF 8
ENDMDL
MODEL 5
REMARK VINA RESULT: -7.654095867      3.598      5.201
REMARK  8 active torsions:
REMARK  status: ('A' for Active; 'I' for Inactive)
REMARK    1  A    between atoms: C4_5  and  N1_6 
REMARK    2  A    between atoms: N1_6  and  C5_8 
REMARK    3  A    between atoms: C5_8  and  C6_9 
REMARK    4  A    between atoms: N2_13  and  C10_14 
REMARK    5  A    between atoms: C10_14  and  C11_15 
REMARK    6  A    between atoms: C11_15  and  N3_16 
REMARK    7  A    between atoms: N3_16  and  C12_19 
REMARK    8  A    between atoms: C12_19  and  C13_20 
ROOT
HETATM    1  C6  UNL     1      -8.141  12.133 -19.574  1.00  0.00     0.029 A 
HETATM    2  C7  UNL     1      -9.364  11.549 -19.209  1.00  0.00     0.028 A 
HETATM    3  C8  UNL     1     -10.395  12.263 -19.780  1.00  0.00     0.019 A 
HETATM    4  C9  UNL     1      -9.785  13.271 -20.487  1.00  0.00     0.091 A 
HETATM    5  N2  UNL     1      -8.433  13.180 -20.354  1.00  0.00    -0.357 N 
ENDROOT
BRANCH   5   6
HETATM    6  C10 UNL     1      -7.498  14.068 -20.998  1.00  0.00     0.155 C 
BRANCH   6   7
HETATM    7  C11 UNL     1      -7.794  15.525 -20.783  1.00  0.00     0.253 C 
BRANCH   7   8
HETATM    8  N3  UNL     1      -8.147  16.268 -21.945  1.00  0.00    -0.068 N 
ATOM      9  H32 UNL     1      -7.712  15.872 -22.778  1.00  0.00     0.277 HD
ATOM     10  H31 UNL     1      -9.127  16.125 -22.187  1.00  0.00     0.277 HD
BRANCH   8  11
HETATM   11  C12 UNL     1      -7.841  17.683 -21.819  1.00  0.00     0.290 C 
BRANCH  11  12
HETATM   12  C13 UNL     1      -9.058  18.475 -22.165  1.00  0.00     0.052 A 
HETATM   13  C14 UNL     1      -9.240  19.252 -23.275  1.00  0.00     0.047 A 
HETATM   14  C15 UNL     1     -10.505  19.792 -23.175  1.00  0.00     0.109 A 
HETATM   15  N4  UNL     1     -11.069  19.351 -22.033  1.00  0.00    -0.312 N 
HETATM   16  N5  UNL     1     -10.186  18.569 -21.450  1.00  0.00    -0.304 N 
ATOM     17  H4  UNL     1     -12.000  19.579 -21.686  1.00  0.00     0.186 HD
ATOM     18  H5  UNL     1     -10.341  18.092 -20.562  1.00  0.00     0.186 HD
ENDBRANCH  11  12
ENDBRANCH   8  11
ENDBRANCH   7   8
ENDBRANCH   6   7
ENDBRANCH   5   6
BRANCH   1  19
HETATM   19  C5  UNL     1      -6.837  11.637 -19.118  1.00  0.00     0.177 C 
BRANCH  19  20
HETATM   20  N1  UNL     1      -6.226  12.556 -18.146  1.00  0.00    -0.384 N 
ATOM     21  H1  UNL     1      -5.223  12.730 -18.202  1.00  0.00     0.160 HD
BRANCH  20  22
HETATM   22  C4  UNL     1      -6.963  13.203 -17.148  1.00  0.00     0.028 A 
HETATM   23  C3  UNL     1      -7.576  12.553 -16.095  1.00  0.00     0.031 A 
HETATM   24  C2  UNL     1      -8.295  13.217 -15.125  1.00  0.00     0.026 A 
HETATM   25  C1  UNL     1      -8.425  14.593 -15.184  1.00  0.00     0.034 A 
HETATM   26 CL1  UNL     1      -9.335  15.493 -13.970  1.00  0.00    -0.084 Cl
HETATM   27  C17 UNL     1      -7.817  15.263 -16.234  1.00  0.00     0.026 A 
HETATM   28  C16 UNL     1      -7.104  14.573 -17.189  1.00  0.00     0.031 A 
ENDBRANCH  20  22
ENDBRANCH  19  20
ENDBRANCH   1  19
TORSDOF 8
ENDMDL
