MODEL 1
REMARK VINA RESULT: -7.172010663      0.000      0.000
REMARK  9 active torsions:
REMARK  status: ('A' for Active; 'I' for Inactive)
REMARK    1  A    between atoms: N1_1  and  C1_4 
REMARK    2  A    between atoms: C2_7  and  C3_8 
REMARK    3  A    between atoms: C6_14  and  N4_15 
REMARK    4  A    between atoms: N4_15  and  C7_17 
REMARK    5  A    between atoms: C7_17  and  C8_18 
REMARK    6  A    between atoms: C8_18  and  C9_19 
REMARK    7  A    between atoms: C9_19  and  C10_20 
REMARK    8  A    between atoms: C10_20  and  C11_21 
REMARK    9  A    between atoms: C11_21  and  N5_22 
ROOT
HETATM    1  C3  UNL     1      -7.721  12.969 -16.398  1.00  0.00     0.063 A 
HETATM    2  C4  UNL     1      -8.149  12.325 -15.258  1.00  0.00     0.107 A 
HETATM    3  N3  UNL     1      -8.648  13.232 -14.401  1.00  0.00    -0.354 N 
ATOM      4  H3  UNL     1      -9.031  13.014 -13.481  1.00  0.00     0.166 HD
HETATM    5  C5  UNL     1      -8.572  14.473 -14.929  1.00  0.00     0.131 A 
HETATM    6 CL1  UNL     1      -9.128  15.970 -14.160  1.00  0.00    -0.062 Cl
HETATM    7  C6  UNL     1      -7.994  14.315 -16.176  1.00  0.00     0.083 A 
ENDROOT
BRANCH   7   8
HETATM    8  N4  UNL     1      -7.706  15.322 -17.107  1.00  0.00    -0.387 N 
ATOM      9  H4  UNL     1      -6.930  15.955 -16.910  1.00  0.00     0.159 HD
BRANCH   8  10
HETATM   10  C7  UNL     1      -8.446  15.511 -18.324  1.00  0.00     0.120 C 
BRANCH  10  11
HETATM   11  C8  UNL     1      -7.507  15.498 -19.492  1.00  0.00     0.020 C 
BRANCH  11  12
HETATM   12  C9  UNL     1      -8.008  14.583 -20.608  1.00  0.00     0.003 C 
BRANCH  12  13
HETATM   13  C10 UNL     1      -9.277  13.936 -20.119  1.00  0.00     0.022 C 
BRANCH  13  14
HETATM   14  C11 UNL     1      -9.726  12.762 -20.924  1.00  0.00     0.145 C 
BRANCH  14  15
HETATM   15  N5  UNL     1     -10.340  11.759 -20.110  1.00  0.00    -0.296 N 
HETATM   16  C12 UNL     1     -10.467  10.342 -20.417  1.00  0.00     0.280 C 
HETATM   17  N6  UNL     1     -10.482   9.797 -19.055  1.00  0.00    -0.103 NA
HETATM   18  N7  UNL     1     -11.020  10.809 -18.258  1.00  0.00    -0.231 N 
HETATM   19  N8  UNL     1     -10.936  11.928 -18.865  1.00  0.00    -0.232 N 
ATOM     20  H7  UNL     1     -11.420  10.674 -17.329  1.00  0.00     0.205 HD
ATOM     21  H8  UNL     1     -11.261  12.820 -18.491  1.00  0.00     0.209 HD
ENDBRANCH  14  15
ENDBRANCH  13  14
ENDBRANCH  12  13
ENDBRANCH  11  12
ENDBRANCH  10  11
ENDBRANCH   8  10
ENDBRANCH   7   8
BRANCH   1  22
HETATM   22  C2  UNL     1      -7.129  12.319 -17.561  1.00  0.00     0.199 A 
HETATM   23  N2  UNL     1      -7.586  11.273 -18.244  1.00  0.00    -0.166 N 
HETATM   24  C1  UNL     1      -6.720  11.014 -19.239  1.00  0.00     0.698 A 
ATOM     25  H2  UNL     1      -8.443  10.758 -18.047  1.00  0.00     0.186 HD
HETATM   26  N9  UNL     1      -5.727  11.915 -19.156  1.00  0.00    -0.089 N 
HETATM   27  O1  UNL     1      -6.003  12.671 -18.150  1.00  0.00    -0.204 OA
ATOM     28  H9  UNL     1      -4.914  11.987 -19.768  1.00  0.00     0.213 HD
BRANCH  24  29
HETATM   29  N1  UNL     1      -6.778  10.087 -20.135  1.00  0.00    -0.233 N 
ATOM     30  H12 UNL     1      -6.028   9.886 -20.797  1.00  0.00     0.174 HD
ATOM     31  H11 UNL     1      -7.537   9.433 -20.326  1.00  0.00     0.174 HD
ENDBRANCH  24  29
ENDBRANCH   1  22
TORSDOF 9
ENDMDL
MODEL 2
REMARK VINA RESULT: -7.077146491      1.109      1.396
REMARK  9 active torsions:
REMARK  status: ('A' for Active; 'I' for Inactive)
REMARK    1  A    between atoms: N1_1  and  C1_4 
REMARK    2  A    between atoms: C2_7  and  C3_8 
REMARK    3  A    between atoms: C6_14  and  N4_15 
REMARK    4  A    between atoms: N4_15  and  C7_17 
REMARK    5  A    between atoms: C7_17  and  C8_18 
REMARK    6  A    between atoms: C8_18  and  C9_19 
REMARK    7  A    between atoms: C9_19  and  C10_20 
REMARK    8  A    between atoms: C10_20  and  C11_21 
REMARK    9  A    between atoms: C11_21  and  N5_22 
ROOT
HETATM    1  C3  UNL     1      -7.640  12.908 -16.549  1.00  0.00     0.063 A 
HETATM    2  C4  UNL     1      -8.252  12.268 -15.494  1.00  0.00     0.107 A 
HETATM    3  N3  UNL     1      -8.702  13.186 -14.622  1.00  0.00    -0.354 N 
ATOM      4  H3  UNL     1      -9.194  12.972 -13.754  1.00  0.00     0.166 HD
HETATM    5  C5  UNL     1      -8.412  14.431 -15.057  1.00  0.00     0.131 A 
HETATM    6 CL1  UNL     1      -8.830  15.946 -14.236  1.00  0.00    -0.062 Cl
HETATM    7  C6  UNL     1      -7.748  14.264 -16.258  1.00  0.00     0.083 A 
ENDROOT
BRANCH   7   8
HETATM    8  N4  UNL     1      -7.244  15.272 -17.093  1.00  0.00    -0.387 N 
ATOM      9  H4  UNL     1      -6.500  15.869 -16.732  1.00  0.00     0.159 HD
BRANCH   8  10
HETATM   10  C7  UNL     1      -7.720  15.507 -18.428  1.00  0.00     0.120 C 
BRANCH  10  11
HETATM   11  C8  UNL     1      -9.215  15.413 -18.453  1.00  0.00     0.020 C 
BRANCH  11  12
HETATM   12  C9  UNL     1      -9.725  14.909 -19.802  1.00  0.00     0.003 C 
BRANCH  12  13
HETATM   13  C10 UNL     1      -9.853  13.412 -19.700  1.00  0.00     0.022 C 
BRANCH  13  14
HETATM   14  C11 UNL     1      -9.504  12.671 -20.948  1.00  0.00     0.145 C 
BRANCH  14  15
HETATM   15  N5  UNL     1     -10.112  11.378 -20.990  1.00  0.00    -0.296 N 
HETATM   16  C12 UNL     1     -11.102  10.847 -20.064  1.00  0.00     0.280 C 
HETATM   17  N6  UNL     1     -11.800   9.917 -20.959  1.00  0.00    -0.103 NA
HETATM   18  N7  UNL     1     -10.849   9.530 -21.905  1.00  0.00    -0.231 N 
HETATM   19  N8  UNL     1      -9.887  10.367 -21.918  1.00  0.00    -0.232 N 
ATOM     20  H7  UNL     1     -10.914   8.700 -22.496  1.00  0.00     0.205 HD
ATOM     21  H8  UNL     1      -9.068  10.304 -22.523  1.00  0.00     0.209 HD
ENDBRANCH  14  15
ENDBRANCH  13  14
ENDBRANCH  12  13
ENDBRANCH  11  12
ENDBRANCH  10  11
ENDBRANCH   8  10
ENDBRANCH   7   8
BRANCH   1  22
HETATM   22  C2  UNL     1      -7.036  12.248 -17.700  1.00  0.00     0.199 A 
HETATM   23  N2  UNL     1      -7.472  11.180 -18.362  1.00  0.00    -0.166 N 
HETATM   24  C1  UNL     1      -6.603  10.919 -19.353  1.00  0.00     0.698 A 
ATOM     25  H2  UNL     1      -8.319  10.651 -18.154  1.00  0.00     0.186 HD
HETATM   26  N9  UNL     1      -5.628  11.842 -19.288  1.00  0.00    -0.089 N 
HETATM   27  O1  UNL     1      -5.918  12.611 -18.297  1.00  0.00    -0.204 OA
ATOM     28  H9  UNL     1      -4.818  11.918 -19.903  1.00  0.00     0.213 HD
BRANCH  24  29
HETATM   29  N1  UNL     1      -6.643   9.974 -20.231  1.00  0.00    -0.233 N 
ATOM     30  H12 UNL     1      -7.090   9.070 -20.076  1.00  0.00     0.174 HD
ATOM     31  H11 UNL     1      -6.259   9.966 -21.176  1.00  0.00     0.174 HD
ENDBRANCH  24  29
ENDBRANCH   1  22
TORSDOF 9
ENDMDL
MODEL 3
REMARK VINA RESULT: -7.042994330      2.150      4.388
REMARK  9 active torsions:
REMARK  status: ('A' for Active; 'I' for Inactive)
REMARK    1  A    between atoms: N1_1  and  C1_4 
REMARK    2  A    between atoms: C2_7  and  C3_8 
REMARK    3  A    between atoms: C6_14  and  N4_15 
REMARK    4  A    between atoms: N4_15  and  C7_17 
REMARK    5  A    between atoms: C7_17  and  C8_18 
REMARK    6  A    between atoms: C8_18  and  C9_19 
REMARK    7  A    between atoms: C9_19  and  C10_20 
REMARK    8  A    between atoms: C10_20  and  C11_21 
REMARK    9  A    between atoms: C11_21  and  N5_22 
ROOT
HETATM    1  C3  UNL     1      -8.078  13.021 -16.196  1.00  0.00     0.063 A 
HETATM    2  C4  UNL     1      -8.371  12.503 -14.954  1.00  0.00     0.107 A 
HETATM    3  N3  UNL     1      -8.720  13.504 -14.130  1.00  0.00    -0.354 N 
ATOM      4  H3  UNL     1      -8.985  13.387 -13.151  1.00  0.00     0.166 HD
HETATM    5  C5  UNL     1      -8.673  14.688 -14.778  1.00  0.00     0.131 A 
HETATM    6 CL1  UNL     1      -9.070  16.272 -14.088  1.00  0.00    -0.062 Cl
HETATM    7  C6  UNL     1      -8.272  14.393 -16.068  1.00  0.00     0.083 A 
ENDROOT
BRANCH   7   8
HETATM    8  N4  UNL     1      -8.077  15.298 -17.121  1.00  0.00    -0.387 N 
ATOM      9  H4  UNL     1      -7.268  15.918 -17.081  1.00  0.00     0.159 HD
BRANCH   8  10
HETATM   10  C7  UNL     1      -8.957  15.400 -18.252  1.00  0.00     0.120 C 
BRANCH  10  11
HETATM   11  C8  UNL     1      -8.167  15.261 -19.518  1.00  0.00     0.020 C 
BRANCH  11  12
HETATM   12  C9  UNL     1      -6.687  15.566 -19.296  1.00  0.00     0.003 C 
BRANCH  12  13
HETATM   13  C10 UNL     1      -5.901  14.434 -19.902  1.00  0.00     0.022 C 
BRANCH  13  14
HETATM   14  C11 UNL     1      -4.549  14.814 -20.405  1.00  0.00     0.145 C 
BRANCH  14  15
HETATM   15  N5  UNL     1      -3.554  14.733 -19.381  1.00  0.00    -0.296 N 
HETATM   16  C12 UNL     1      -3.059  15.824 -18.555  1.00  0.00     0.280 C 
HETATM   17  N6  UNL     1      -2.684  15.070 -17.353  1.00  0.00    -0.103 NA
HETATM   18  N7  UNL     1      -2.360  13.790 -17.806  1.00  0.00    -0.231 N 
HETATM   19  N8  UNL     1      -2.860  13.603 -18.965  1.00  0.00    -0.232 N 
ATOM     20  H7  UNL     1      -1.807  13.107 -17.288  1.00  0.00     0.205 HD
ATOM     21  H8  UNL     1      -2.763  12.745 -19.509  1.00  0.00     0.209 HD
ENDBRANCH  14  15
ENDBRANCH  13  14
ENDBRANCH  12  13
ENDBRANCH  11  12
ENDBRANCH  10  11
ENDBRANCH   8  10
ENDBRANCH   7   8
BRANCH   1  22
HETATM   22  C2  UNL     1      -7.669  12.243 -17.359  1.00  0.00     0.199 A 
HETATM   23  N2  UNL     1      -8.416  11.829 -18.379  1.00  0.00    -0.166 N 
HETATM   24  C1  UNL     1      -7.626  11.145 -19.225  1.00  0.00     0.698 A 
ATOM     25  H2  UNL     1      -9.414  12.001 -18.499  1.00  0.00     0.186 HD
HETATM   26  N9  UNL     1      -6.386  11.146 -18.708  1.00  0.00    -0.089 N 
HETATM   27  O1  UNL     1      -6.450  11.805 -17.604  1.00  0.00    -0.204 OA
ATOM     28  H9  UNL     1      -5.556  10.711 -19.111  1.00  0.00     0.213 HD
BRANCH  24  29
HETATM   29  N1  UNL     1      -7.943  10.572 -20.337  1.00  0.00    -0.233 N 
ATOM     30  H12 UNL     1      -7.747   9.594 -20.550  1.00  0.00     0.174 HD
ATOM     31  H11 UNL     1      -8.416  10.972 -21.146  1.00  0.00     0.174 HD
ENDBRANCH  24  29
ENDBRANCH   1  22
TORSDOF 9
ENDMDL
MODEL 4
REMARK VINA RESULT: -6.861090376      2.781      5.568
REMARK  9 active torsions:
REMARK  status: ('A' for Active; 'I' for Inactive)
REMARK    1  A    between atoms: N1_1  and  C1_4 
REMARK    2  A    between atoms: C2_7  and  C3_8 
REMARK    3  A    between atoms: C6_14  and  N4_15 
REMARK    4  A    between atoms: N4_15  and  C7_17 
REMARK    5  A    between atoms: C7_17  and  C8_18 
REMARK    6  A    between atoms: C8_18  and  C9_19 
REMARK    7  A    between atoms: C9_19  and  C10_20 
REMARK    8  A    between atoms: C10_20  and  C11_21 
REMARK    9  A    between atoms: C11_21  and  N5_22 
ROOT
HETATM    1  C3  UNL     1      -8.510  11.155 -19.612  1.00  0.00     0.063 A 
HETATM    2  C4  UNL     1      -7.238  10.698 -19.874  1.00  0.00     0.107 A 
HETATM    3  N3  UNL     1      -6.449  10.960 -18.818  1.00  0.00    -0.354 N 
ATOM      4  H3  UNL     1      -5.459  10.722 -18.758  1.00  0.00     0.166 HD
HETATM    5  C5  UNL     1      -7.152  11.583 -17.847  1.00  0.00     0.131 A 
HETATM    6 CL1  UNL     1      -6.523  12.100 -16.273  1.00  0.00    -0.062 Cl
HETATM    7  C6  UNL     1      -8.439  11.708 -18.337  1.00  0.00     0.083 A 
ENDROOT
BRANCH   7   8
HETATM    8  N4  UNL     1      -9.537  12.292 -17.690  1.00  0.00    -0.387 N 
ATOM      9  H4  UNL     1     -10.119  11.700 -17.098  1.00  0.00     0.159 HD
BRANCH   8  10
HETATM   10  C7  UNL     1      -9.885  13.681 -17.817  1.00  0.00     0.120 C 
BRANCH  10  11
HETATM   11  C8  UNL     1      -9.058  14.496 -16.871  1.00  0.00     0.020 C 
BRANCH  11  12
HETATM   12  C9  UNL     1      -8.240  15.557 -17.606  1.00  0.00     0.003 C 
BRANCH  12  13
HETATM   13  C10 UNL     1      -6.787  15.203 -17.429  1.00  0.00     0.022 C 
BRANCH  13  14
HETATM   14  C11 UNL     1      -5.990  15.200 -18.690  1.00  0.00     0.145 C 
BRANCH  14  15
HETATM   15  N5  UNL     1      -4.606  14.932 -18.448  1.00  0.00    -0.296 N 
HETATM   16  C12 UNL     1      -3.526  15.905 -18.387  1.00  0.00     0.280 C 
HETATM   17  N6  UNL     1      -2.618  15.206 -17.470  1.00  0.00    -0.103 NA
HETATM   18  N7  UNL     1      -2.874  13.847 -17.662  1.00  0.00    -0.231 N 
HETATM   19  N8  UNL     1      -4.011  13.696 -18.221  1.00  0.00    -0.232 N 
ATOM     20  H7  UNL     1      -2.246  13.088 -17.395  1.00  0.00     0.205 HD
ATOM     21  H8  UNL     1      -4.425  12.797 -18.467  1.00  0.00     0.209 HD
ENDBRANCH  14  15
ENDBRANCH  13  14
ENDBRANCH  12  13
ENDBRANCH  11  12
ENDBRANCH  10  11
ENDBRANCH   8  10
ENDBRANCH   7   8
BRANCH   1  22
HETATM   22  C2  UNL     1      -9.649  11.044 -20.516  1.00  0.00     0.199 A 
HETATM   23  N2  UNL     1     -10.198   9.941 -21.020  1.00  0.00    -0.166 N 
HETATM   24  C1  UNL     1     -11.225  10.308 -21.805  1.00  0.00     0.698 A 
ATOM     25  H2  UNL     1      -9.892   8.985 -20.842  1.00  0.00     0.186 HD
HETATM   26  N9  UNL     1     -11.298  11.649 -21.774  1.00  0.00    -0.089 N 
HETATM   27  O1  UNL     1     -10.349  12.049 -21.002  1.00  0.00    -0.204 OA
ATOM     28  H9  UNL     1     -11.972  12.236 -22.266  1.00  0.00     0.213 HD
BRANCH  24  29
HETATM   29  N1  UNL     1     -12.026   9.558 -22.485  1.00  0.00    -0.233 N 
ATOM     30  H12 UNL     1     -11.770   9.094 -23.357  1.00  0.00     0.174 HD
ATOM     31  H11 UNL     1     -12.994   9.312 -22.281  1.00  0.00     0.174 HD
ENDBRANCH  24  29
ENDBRANCH   1  22
TORSDOF 9
ENDMDL
MODEL 5
REMARK VINA RESULT: -6.815818765      2.998      6.107
REMARK  9 active torsions:
REMARK  status: ('A' for Active; 'I' for Inactive)
REMARK    1  A    between atoms: N1_1  and  C1_4 
REMARK    2  A    between atoms: C2_7  and  C3_8 
REMARK    3  A    between atoms: C6_14  and  N4_15 
REMARK    4  A    between atoms: N4_15  and  C7_17 
REMARK    5  A    between atoms: C7_17  and  C8_18 
REMARK    6  A    between atoms: C8_18  and  C9_19 
REMARK    7  A    between atoms: C9_19  and  C10_20 
REMARK    8  A    between atoms: C10_20  and  C11_21 
REMARK    9  A    between atoms: C11_21  and  N5_22 
ROOT
HETATM    1  C3  UNL     1      -9.331  14.230 -18.093  1.00  0.00     0.063 A 
HETATM    2  C4  UNL     1      -9.442  15.272 -18.987  1.00  0.00     0.107 A 
HETATM    3  N3  UNL     1      -9.538  14.777 -20.232  1.00  0.00    -0.354 N 
ATOM      4  H3  UNL     1      -9.631  15.341 -21.077  1.00  0.00     0.166 HD
HETATM    5  C5  UNL     1      -9.496  13.427 -20.208  1.00  0.00     0.131 A 
HETATM    6 CL1  UNL     1      -9.609  12.355 -21.615  1.00  0.00    -0.062 Cl
HETATM    7  C6  UNL     1      -9.367  13.079 -18.876  1.00  0.00     0.083 A 
ENDROOT
BRANCH   7   8
HETATM    8  N4  UNL     1      -9.281  11.785 -18.345  1.00  0.00    -0.387 N 
ATOM      9  H4  UNL     1      -9.962  11.506 -17.639  1.00  0.00     0.159 HD
BRANCH   8  10
HETATM   10  C7  UNL     1      -8.283  10.830 -18.743  1.00  0.00     0.120 C 
BRANCH  10  11
HETATM   11  C8  UNL     1      -6.918  11.415 -18.542  1.00  0.00     0.020 C 
BRANCH  11  12
HETATM   12  C9  UNL     1      -6.147  11.510 -19.858  1.00  0.00     0.003 C 
BRANCH  12  13
HETATM   13  C10 UNL     1      -5.766  12.955 -20.049  1.00  0.00     0.022 C 
BRANCH  13  14
HETATM   14  C11 UNL     1      -5.663  13.742 -18.785  1.00  0.00     0.145 C 
BRANCH  14  15
HETATM   15  N5  UNL     1      -4.326  14.187 -18.540  1.00  0.00    -0.296 N 
HETATM   16  C12 UNL     1      -3.921  15.463 -17.970  1.00  0.00     0.280 C 
HETATM   17  N6  UNL     1      -2.657  15.061 -17.343  1.00  0.00    -0.103 NA
HETATM   18  N7  UNL     1      -2.188  13.992 -18.109  1.00  0.00    -0.231 N 
HETATM   19  N8  UNL     1      -3.146  13.497 -18.791  1.00  0.00    -0.232 N 
ATOM     20  H7  UNL     1      -1.224  13.658 -18.122  1.00  0.00     0.205 HD
ATOM     21  H8  UNL     1      -3.058  12.707 -19.430  1.00  0.00     0.209 HD
ENDBRANCH  14  15
ENDBRANCH  13  14
ENDBRANCH  12  13
ENDBRANCH  11  12
ENDBRANCH  10  11
ENDBRANCH   8  10
ENDBRANCH   7   8
BRANCH   1  22
HETATM   22  C2  UNL     1      -9.216  14.367 -16.647  1.00  0.00     0.199 A 
HETATM   23  N2  UNL     1      -9.112  15.483 -15.929  1.00  0.00    -0.166 N 
HETATM   24  C1  UNL     1      -9.029  15.139 -14.632  1.00  0.00     0.698 A 
ATOM     25  H2  UNL     1      -9.098  16.433 -16.299  1.00  0.00     0.186 HD
HETATM   26  N9  UNL     1      -9.083  13.798 -14.566  1.00  0.00    -0.089 N 
HETATM   27  O1  UNL     1      -9.193  13.376 -15.777  1.00  0.00    -0.204 OA
ATOM     28  H9  UNL     1      -9.045  13.226 -13.722  1.00  0.00     0.213 HD
BRANCH  24  29
HETATM   29  N1  UNL     1      -8.916  15.908 -13.602  1.00  0.00    -0.233 N 
ATOM     30  H12 UNL     1      -9.394  16.804 -13.504  1.00  0.00     0.174 HD
ATOM     31  H11 UNL     1      -8.365  15.761 -12.756  1.00  0.00     0.174 HD
ENDBRANCH  24  29
ENDBRANCH   1  22
TORSDOF 9
ENDMDL
