MODEL 1
REMARK VINA RESULT: -5.523537756      0.000      0.000
REMARK  2 active torsions:
REMARK  status: ('A' for Active; 'I' for Inactive)
REMARK    1  A    between atoms: C2_2  and  O2_4 
REMARK    2  A    between atoms: O2_4  and  C3_5 
ROOT
HETATM    1  C3  UNL     1      13.028  23.186  -0.298  1.00  0.00     0.118 C 
HETATM    2  C4  UNL     1      13.732  22.832  -1.598  1.00  0.00     0.054 C 
HETATM    3  C5  UNL     1      12.395  22.026   0.292  1.00  0.00     0.081 C 
HETATM    4  S1  UNL     1      12.702  21.067   1.286  1.00  0.00    -0.074 SA
HETATM    5  S2  UNL     1      10.780  21.894  -0.564  1.00  0.00    -0.119 SA
HETATM    6  C6  UNL     1      10.810  23.580  -1.240  1.00  0.00     0.092 C 
HETATM    7  C7  UNL     1      11.954  24.227  -0.552  1.00  0.00    -0.002 C 
HETATM    8  C8  UNL     1      12.466  25.330  -1.452  1.00  0.00     0.019 C 
HETATM    9  C9  UNL     1      11.545  24.874   0.754  1.00  0.00     0.019 C 
ENDROOT
BRANCH   1  10
HETATM   10  O2  UNL     1      13.893  23.803   0.611  1.00  0.00    -0.304 OA
BRANCH  10  11
HETATM   11  C2  UNL     1      15.255  23.784   0.621  1.00  0.00     0.256 C 
HETATM   12  C1  UNL     1      16.058  24.863  -0.059  1.00  0.00     0.126 C 
HETATM   13  O1  UNL     1      15.830  22.845   1.212  1.00  0.00    -0.266 OA
ENDBRANCH  10  11
ENDBRANCH   1  10
TORSDOF 2
ENDMDL
MODEL 2
REMARK VINA RESULT: -5.140965485      2.337      3.102
REMARK  2 active torsions:
REMARK  status: ('A' for Active; 'I' for Inactive)
REMARK    1  A    between atoms: C2_2  and  O2_4 
REMARK    2  A    between atoms: O2_4  and  C3_5 
ROOT
HETATM    1  C3  UNL     1      13.470  23.498  -0.669  1.00  0.00     0.118 C 
HETATM    2  C4  UNL     1      14.361  24.150   0.376  1.00  0.00     0.054 C 
HETATM    3  C5  UNL     1      14.079  23.541  -1.981  1.00  0.00     0.081 C 
HETATM    4  S1  UNL     1      14.844  22.678  -2.800  1.00  0.00    -0.074 SA
HETATM    5  S2  UNL     1      13.657  25.201  -2.635  1.00  0.00    -0.119 SA
HETATM    6  C6  UNL     1      12.340  25.526  -1.425  1.00  0.00     0.092 C 
HETATM    7  C7  UNL     1      12.139  24.223  -0.746  1.00  0.00    -0.002 C 
HETATM    8  C8  UNL     1      11.592  24.506   0.636  1.00  0.00     0.019 C 
HETATM    9  C9  UNL     1      11.122  23.357  -1.457  1.00  0.00     0.019 C 
ENDROOT
BRANCH   1  10
HETATM   10  O2  UNL     1      13.127  22.189  -0.317  1.00  0.00    -0.304 OA
BRANCH  10  11
HETATM   11  C2  UNL     1      13.663  21.415   0.667  1.00  0.00     0.256 C 
HETATM   12  C1  UNL     1      14.959  20.675   0.462  1.00  0.00     0.126 C 
HETATM   13  O1  UNL     1      13.051  21.331   1.753  1.00  0.00    -0.266 OA
ENDBRANCH  10  11
ENDBRANCH   1  10
TORSDOF 2
ENDMDL
MODEL 3
REMARK VINA RESULT: -5.093246611      1.806      2.339
REMARK  2 active torsions:
REMARK  status: ('A' for Active; 'I' for Inactive)
REMARK    1  A    between atoms: C2_2  and  O2_4 
REMARK    2  A    between atoms: O2_4  and  C3_5 
ROOT
HETATM    1  C3  UNL     1      13.020  22.939  -0.639  1.00  0.00     0.118 C 
HETATM    2  C4  UNL     1      11.980  22.486  -1.650  1.00  0.00     0.054 C 
HETATM    3  C5  UNL     1      13.150  21.991   0.446  1.00  0.00     0.081 C 
HETATM    4  S1  UNL     1      13.997  20.910   0.788  1.00  0.00    -0.074 SA
HETATM    5  S2  UNL     1      11.803  22.431   1.610  1.00  0.00    -0.119 SA
HETATM    6  C6  UNL     1      11.493  24.072   0.894  1.00  0.00     0.092 C 
HETATM    7  C7  UNL     1      12.623  24.278  -0.045  1.00  0.00    -0.002 C 
HETATM    8  C8  UNL     1      12.156  25.234  -1.122  1.00  0.00     0.019 C 
HETATM    9  C9  UNL     1      13.818  24.918   0.627  1.00  0.00     0.019 C 
ENDROOT
BRANCH   1  10
HETATM   10  O2  UNL     1      14.259  23.186  -1.240  1.00  0.00    -0.304 OA
BRANCH  10  11
HETATM   11  C2  UNL     1      14.641  22.915  -2.519  1.00  0.00     0.256 C 
HETATM   12  C1  UNL     1      14.929  24.022  -3.500  1.00  0.00     0.126 C 
HETATM   13  O1  UNL     1      14.748  21.719  -2.864  1.00  0.00    -0.266 OA
ENDBRANCH  10  11
ENDBRANCH   1  10
TORSDOF 2
ENDMDL
MODEL 4
REMARK VINA RESULT: -4.894579312      2.003      3.444
REMARK  2 active torsions:
REMARK  status: ('A' for Active; 'I' for Inactive)
REMARK    1  A    between atoms: C2_2  and  O2_4 
REMARK    2  A    between atoms: O2_4  and  C3_5 
ROOT
HETATM    1  C3  UNL     1      13.265  22.865  -0.447  1.00  0.00     0.118 C 
HETATM    2  C4  UNL     1      14.279  23.716   0.302  1.00  0.00     0.054 C 
HETATM    3  C5  UNL     1      11.909  23.228  -0.093  1.00  0.00     0.081 C 
HETATM    4  S1  UNL     1      10.882  24.048  -0.617  1.00  0.00    -0.074 SA
HETATM    5  S2  UNL     1      11.569  22.303   1.452  1.00  0.00    -0.119 SA
HETATM    6  C6  UNL     1      12.965  21.154   1.270  1.00  0.00     0.092 C 
HETATM    7  C7  UNL     1      13.460  21.400  -0.107  1.00  0.00    -0.002 C 
HETATM    8  C8  UNL     1      14.926  21.024  -0.141  1.00  0.00     0.019 C 
HETATM    9  C9  UNL     1      12.757  20.536  -1.131  1.00  0.00     0.019 C 
ENDROOT
BRANCH   1  10
HETATM   10  O2  UNL     1      13.455  22.924  -1.830  1.00  0.00    -0.304 OA
BRANCH  10  11
HETATM   11  C2  UNL     1      14.201  23.817  -2.539  1.00  0.00     0.256 C 
HETATM   12  C1  UNL     1      13.701  25.212  -2.813  1.00  0.00     0.126 C 
HETATM   13  O1  UNL     1      15.319  23.451  -2.961  1.00  0.00    -0.266 OA
ENDBRANCH  10  11
ENDBRANCH   1  10
TORSDOF 2
ENDMDL
MODEL 5
REMARK VINA RESULT: -4.890249703      2.276      3.251
REMARK  2 active torsions:
REMARK  status: ('A' for Active; 'I' for Inactive)
REMARK    1  A    between atoms: C2_2  and  O2_4 
REMARK    2  A    between atoms: O2_4  and  C3_5 
ROOT
HETATM    1  C3  UNL     1      13.226  22.734  -0.564  1.00  0.00     0.118 C 
HETATM    2  C4  UNL     1      14.554  22.372   0.081  1.00  0.00     0.054 C 
HETATM    3  C5  UNL     1      12.536  23.759   0.188  1.00  0.00     0.081 C 
HETATM    4  S1  UNL     1      12.389  25.165   0.137  1.00  0.00    -0.074 SA
HETATM    5  S2  UNL     1      11.660  22.849   1.517  1.00  0.00    -0.119 SA
HETATM    6  C6  UNL     1      11.823  21.216   0.736  1.00  0.00     0.092 C 
HETATM    7  C7  UNL     1      12.327  21.513  -0.627  1.00  0.00    -0.002 C 
HETATM    8  C8  UNL     1      13.089  20.299  -1.110  1.00  0.00     0.019 C 
HETATM    9  C9  UNL     1      11.204  21.752  -1.613  1.00  0.00     0.019 C 
ENDROOT
BRANCH   1  10
HETATM   10  O2  UNL     1      13.383  23.112  -1.901  1.00  0.00    -0.304 OA
BRANCH  10  11
HETATM   11  C2  UNL     1      14.539  23.232  -2.611  1.00  0.00     0.256 C 
HETATM   12  C1  UNL     1      15.354  24.500  -2.571  1.00  0.00     0.126 C 
HETATM   13  O1  UNL     1      14.913  22.261  -3.301  1.00  0.00    -0.266 OA
ENDBRANCH  10  11
ENDBRANCH   1  10
TORSDOF 2
ENDMDL
