MODEL 1
REMARK VINA RESULT: -8.413348107      0.000      0.000
REMARK  5 active torsions:
REMARK  status: ('A' for Active; 'I' for Inactive)
REMARK    1  A    between atoms: C2_2  and  C5_5 
REMARK    2  A    between atoms: N1_7  and  C7_8 
REMARK    3  A    between atoms: C10_12  and  C11_13 
REMARK    4  A    between atoms: C11_13  and  O1_14 
REMARK    5  A    between atoms: O1_14  and  C12_15 
ROOT
HETATM    1  C5  UNL     1     -22.966  36.715   1.416  1.00  0.00     0.033 A 
HETATM    2  C6  UNL     1     -22.346  35.500   1.186  1.00  0.00     0.112 A 
HETATM    3  N1  UNL     1     -21.935  35.195  -0.063  1.00  0.00    -0.282 N 
HETATM    4  C13 UNL     1     -22.114  36.040  -1.094  1.00  0.00     0.331 A 
HETATM    5  O4  UNL     1     -21.717  35.728  -2.267  1.00  0.00    -0.246 OA
HETATM    6  N2  UNL     1     -22.718  37.219  -0.863  1.00  0.00    -0.275 N 
ATOM      7  H2  UNL     1     -22.854  37.862  -1.643  1.00  0.00     0.173 HD
HETATM    8  C14 UNL     1     -23.148  37.582   0.358  1.00  0.00     0.257 A 
HETATM    9  O5  UNL     1     -23.707  38.711   0.485  1.00  0.00    -0.267 OA
ENDROOT
BRANCH   3  10
HETATM   10  C7  UNL     1     -21.292  33.929  -0.284  1.00  0.00     0.233 C 
HETATM   11  C8  UNL     1     -21.259  33.108   0.990  1.00  0.00     0.073 C 
HETATM   12  C9  UNL     1     -21.168  31.713   0.414  1.00  0.00     0.093 C 
HETATM   13 BR1  UNL     1     -22.023  30.413   1.555  1.00  0.00    -0.088 Br
HETATM   14  C10 UNL     1     -21.837  31.851  -0.910  1.00  0.00     0.163 C 
HETATM   15  O3  UNL     1     -22.060  33.194  -1.175  1.00  0.00    -0.358 OA
BRANCH  14  16
HETATM   16  C11 UNL     1     -20.985  31.255  -2.005  1.00  0.00     0.213 C 
BRANCH  16  17
HETATM   17  O1  UNL     1     -20.897  32.003  -3.165  1.00  0.00    -0.306 OA
BRANCH  17  18
HETATM   18  C12 UNL     1     -21.619  31.726  -4.305  1.00  0.00     0.357 C 
HETATM   19  O2  UNL     1     -21.382  30.662  -4.923  1.00  0.00    -0.246 OA
HETATM   20 CL1  UNL     1     -22.860  32.842  -4.897  1.00  0.00    -0.012 Cl
ENDBRANCH  17  18
ENDBRANCH  16  17
ENDBRANCH  14  16
ENDBRANCH   3  10
BRANCH   1  21
HETATM   21  C2  UNL     1     -23.452  37.148   2.738  1.00  0.00    -0.017 C 
HETATM   22  C1  UNL     1     -24.664  38.048   2.637  1.00  0.00     0.019 C 
HETATM   23  C3  UNL     1     -23.876  35.921   3.518  1.00  0.00     0.019 C 
HETATM   24  C4  UNL     1     -22.374  37.847   3.536  1.00  0.00     0.019 C 
ENDBRANCH   1  21
TORSDOF 5
ENDMDL
MODEL 2
REMARK VINA RESULT: -8.318003148      3.802      7.408
REMARK  5 active torsions:
REMARK  status: ('A' for Active; 'I' for Inactive)
REMARK    1  A    between atoms: C2_2  and  C5_5 
REMARK    2  A    between atoms: N1_7  and  C7_8 
REMARK    3  A    between atoms: C10_12  and  C11_13 
REMARK    4  A    between atoms: C11_13  and  O1_14 
REMARK    5  A    between atoms: O1_14  and  C12_15 
ROOT
HETATM    1  C5  UNL     1     -21.355  33.060  -1.422  1.00  0.00     0.033 A 
HETATM    2  C6  UNL     1     -21.636  34.038  -0.485  1.00  0.00     0.112 A 
HETATM    3  N1  UNL     1     -21.591  33.727   0.827  1.00  0.00    -0.282 N 
HETATM    4  C13 UNL     1     -21.281  32.489   1.252  1.00  0.00     0.331 A 
HETATM    5  O4  UNL     1     -21.245  32.219   2.500  1.00  0.00    -0.246 OA
HETATM    6  N2  UNL     1     -21.008  31.543   0.336  1.00  0.00    -0.275 N 
ATOM      7  H2  UNL     1     -20.773  30.603   0.655  1.00  0.00     0.173 HD
HETATM    8  C14 UNL     1     -21.035  31.790  -0.985  1.00  0.00     0.257 A 
HETATM    9  O5  UNL     1     -20.766  30.840  -1.778  1.00  0.00    -0.267 OA
ENDROOT
BRANCH   3  10
HETATM   10  C7  UNL     1     -21.885  34.755   1.787  1.00  0.00     0.233 C 
HETATM   11  C8  UNL     1     -21.696  36.132   1.182  1.00  0.00     0.073 C 
HETATM   12  C9  UNL     1     -22.618  36.946   2.060  1.00  0.00     0.093 C 
HETATM   13 BR1  UNL     1     -23.378  38.441   1.104  1.00  0.00    -0.088 Br
HETATM   14  C10 UNL     1     -23.642  35.952   2.487  1.00  0.00     0.163 C 
HETATM   15  O3  UNL     1     -23.231  34.680   2.115  1.00  0.00    -0.358 OA
BRANCH  14  16
HETATM   16  C11 UNL     1     -23.844  35.999   3.982  1.00  0.00     0.213 C 
BRANCH  16  17
HETATM   17  O1  UNL     1     -23.716  37.247   4.563  1.00  0.00    -0.306 OA
BRANCH  17  18
HETATM   18  C12 UNL     1     -24.788  38.033   4.922  1.00  0.00     0.357 C 
HETATM   19  O2  UNL     1     -25.586  37.603   5.787  1.00  0.00    -0.246 OA
HETATM   20 CL1  UNL     1     -25.047  39.622   4.183  1.00  0.00    -0.012 Cl
ENDBRANCH  17  18
ENDBRANCH  16  17
ENDBRANCH  14  16
ENDBRANCH   3  10
BRANCH   1  21
HETATM   21  C2  UNL     1     -21.375  33.291  -2.876  1.00  0.00    -0.017 C 
HETATM   22  C1  UNL     1     -22.028  32.153  -3.630  1.00  0.00     0.019 C 
HETATM   23  C3  UNL     1     -22.196  34.534  -3.153  1.00  0.00     0.019 C 
HETATM   24  C4  UNL     1     -19.987  33.528  -3.432  1.00  0.00     0.019 C 
ENDBRANCH   1  21
TORSDOF 5
ENDMDL
MODEL 3
REMARK VINA RESULT: -8.302408729      1.053      1.069
REMARK  5 active torsions:
REMARK  status: ('A' for Active; 'I' for Inactive)
REMARK    1  A    between atoms: C2_2  and  C5_5 
REMARK    2  A    between atoms: N1_7  and  C7_8 
REMARK    3  A    between atoms: C10_12  and  C11_13 
REMARK    4  A    between atoms: C11_13  and  O1_14 
REMARK    5  A    between atoms: O1_14  and  C12_15 
ROOT
HETATM    1  C5  UNL     1     -22.903  36.655   2.065  1.00  0.00     0.033 A 
HETATM    2  C6  UNL     1     -22.267  35.567   1.497  1.00  0.00     0.112 A 
HETATM    3  N1  UNL     1     -22.099  35.524   0.159  1.00  0.00    -0.282 N 
HETATM    4  C13 UNL     1     -22.536  36.514  -0.641  1.00  0.00     0.331 A 
HETATM    5  O4  UNL     1     -22.365  36.451  -1.906  1.00  0.00    -0.246 OA
HETATM    6  N2  UNL     1     -23.153  37.570  -0.083  1.00  0.00    -0.275 N 
ATOM      7  H2  UNL     1     -23.485  38.321  -0.687  1.00  0.00     0.173 HD
HETATM    8  C14 UNL     1     -23.349  37.671   1.244  1.00  0.00     0.257 A 
HETATM    9  O5  UNL     1     -23.940  38.700   1.685  1.00  0.00    -0.267 OA
ENDROOT
BRANCH   3  10
HETATM   10  C7  UNL     1     -21.436  34.386  -0.415  1.00  0.00     0.233 C 
HETATM   11  C8  UNL     1     -21.199  33.314   0.630  1.00  0.00     0.073 C 
HETATM   12  C9  UNL     1     -21.123  32.087  -0.249  1.00  0.00     0.093 C 
HETATM   13 BR1  UNL     1     -21.762  30.513   0.666  1.00  0.00    -0.088 Br
HETATM   14  C10 UNL     1     -21.967  32.458  -1.420  1.00  0.00     0.163 C 
HETATM   15  O3  UNL     1     -22.282  33.807  -1.350  1.00  0.00    -0.358 OA
BRANCH  14  16
HETATM   16  C11 UNL     1     -21.242  32.177  -2.714  1.00  0.00     0.213 C 
BRANCH  16  17
HETATM   17  O1  UNL     1     -22.018  31.646  -3.729  1.00  0.00    -0.306 OA
BRANCH  17  18
HETATM   18  C12 UNL     1     -22.646  32.411  -4.685  1.00  0.00     0.357 C 
HETATM   19  O2  UNL     1     -23.201  31.833  -5.649  1.00  0.00    -0.246 OA
HETATM   20 CL1  UNL     1     -22.678  34.178  -4.570  1.00  0.00    -0.012 Cl
ENDBRANCH  17  18
ENDBRANCH  16  17
ENDBRANCH  14  16
ENDBRANCH   3  10
BRANCH   1  21
HETATM   21  C2  UNL     1     -23.137  36.802   3.512  1.00  0.00    -0.017 C 
HETATM   22  C1  UNL     1     -24.603  36.989   3.840  1.00  0.00     0.019 C 
HETATM   23  C3  UNL     1     -22.688  35.531   4.202  1.00  0.00     0.019 C 
HETATM   24  C4  UNL     1     -22.342  37.947   4.101  1.00  0.00     0.019 C 
ENDBRANCH   1  21
TORSDOF 5
ENDMDL
MODEL 4
REMARK VINA RESULT: -8.182256101      4.009      6.498
REMARK  5 active torsions:
REMARK  status: ('A' for Active; 'I' for Inactive)
REMARK    1  A    between atoms: C2_2  and  C5_5 
REMARK    2  A    between atoms: N1_7  and  C7_8 
REMARK    3  A    between atoms: C10_12  and  C11_13 
REMARK    4  A    between atoms: C11_13  and  O1_14 
REMARK    5  A    between atoms: O1_14  and  C12_15 
ROOT
HETATM    1  C5  UNL     1     -21.646  33.173  -1.803  1.00  0.00     0.033 A 
HETATM    2  C6  UNL     1     -21.572  33.384  -0.438  1.00  0.00     0.112 A 
HETATM    3  N1  UNL     1     -21.495  32.322   0.391  1.00  0.00    -0.282 N 
HETATM    4  C13 UNL     1     -21.489  31.059  -0.074  1.00  0.00     0.331 A 
HETATM    5  O4  UNL     1     -21.416  30.071   0.732  1.00  0.00    -0.246 OA
HETATM    6  N2  UNL     1     -21.561  30.861  -1.402  1.00  0.00    -0.275 N 
ATOM      7  H2  UNL     1     -21.557  29.905  -1.756  1.00  0.00     0.173 HD
HETATM    8  C14 UNL     1     -21.639  31.877  -2.279  1.00  0.00     0.257 A 
HETATM    9  O5  UNL     1     -21.704  31.599  -3.512  1.00  0.00    -0.267 OA
ENDROOT
BRANCH   3  10
HETATM   10  C7  UNL     1     -21.418  32.560   1.806  1.00  0.00     0.233 C 
HETATM   11  C8  UNL     1     -20.933  33.967   2.094  1.00  0.00     0.073 C 
HETATM   12  C9  UNL     1     -21.523  34.184   3.468  1.00  0.00     0.093 C 
HETATM   13 BR1  UNL     1     -21.951  36.041   3.775  1.00  0.00    -0.088 Br
HETATM   14  C10 UNL     1     -22.726  33.306   3.461  1.00  0.00     0.163 C 
HETATM   15  O3  UNL     1     -22.700  32.498   2.334  1.00  0.00    -0.358 OA
BRANCH  14  16
HETATM   16  C11 UNL     1     -22.768  32.443   4.699  1.00  0.00     0.213 C 
BRANCH  16  17
HETATM   17  O1  UNL     1     -23.280  31.171   4.522  1.00  0.00    -0.306 OA
BRANCH  17  18
HETATM   18  C12 UNL     1     -22.572  30.022   4.796  1.00  0.00     0.357 C 
HETATM   19  O2  UNL     1     -21.774  30.023   5.763  1.00  0.00    -0.246 OA
HETATM   20 CL1  UNL     1     -22.773  28.564   3.810  1.00  0.00    -0.012 Cl
ENDBRANCH  17  18
ENDBRANCH  16  17
ENDBRANCH  14  16
ENDBRANCH   3  10
BRANCH   1  21
HETATM   21  C2  UNL     1     -21.732  34.258  -2.795  1.00  0.00    -0.017 C 
HETATM   22  C1  UNL     1     -22.615  33.893  -3.969  1.00  0.00     0.019 C 
HETATM   23  C3  UNL     1     -22.358  35.466  -2.130  1.00  0.00     0.019 C 
HETATM   24  C4  UNL     1     -20.369  34.671  -3.304  1.00  0.00     0.019 C 
ENDBRANCH   1  21
TORSDOF 5
ENDMDL
MODEL 5
REMARK VINA RESULT: -8.158336714      1.759      2.206
REMARK  5 active torsions:
REMARK  status: ('A' for Active; 'I' for Inactive)
REMARK    1  A    between atoms: C2_2  and  C5_5 
REMARK    2  A    between atoms: N1_7  and  C7_8 
REMARK    3  A    between atoms: C10_12  and  C11_13 
REMARK    4  A    between atoms: C11_13  and  O1_14 
REMARK    5  A    between atoms: O1_14  and  C12_15 
ROOT
HETATM    1  C5  UNL     1     -23.169  37.187   2.131  1.00  0.00     0.033 A 
HETATM    2  C6  UNL     1     -22.608  36.354   1.181  1.00  0.00     0.112 A 
HETATM    3  N1  UNL     1     -22.522  36.774  -0.099  1.00  0.00    -0.282 N 
HETATM    4  C13 UNL     1     -22.969  37.985  -0.478  1.00  0.00     0.331 A 
HETATM    5  O4  UNL     1     -22.876  38.360  -1.695  1.00  0.00    -0.246 OA
HETATM    6  N2  UNL     1     -23.513  38.791   0.451  1.00  0.00    -0.275 N 
ATOM      7  H2  UNL     1     -23.853  39.709   0.166  1.00  0.00     0.173 HD
HETATM    8  C14 UNL     1     -23.627  38.430   1.741  1.00  0.00     0.257 A 
HETATM    9  O5  UNL     1     -24.153  39.251   2.549  1.00  0.00    -0.267 OA
ENDROOT
BRANCH   3  10
HETATM   10  C7  UNL     1     -21.935  35.895  -1.073  1.00  0.00     0.233 C 
HETATM   11  C8  UNL     1     -21.390  34.643  -0.415  1.00  0.00     0.073 C 
HETATM   12  C9  UNL     1     -21.440  33.679  -1.577  1.00  0.00     0.093 C 
HETATM   13 BR1  UNL     1     -21.741  31.866  -0.989  1.00  0.00    -0.088 Br
HETATM   14  C10 UNL     1     -22.555  34.211  -2.409  1.00  0.00     0.163 C 
HETATM   15  O3  UNL     1     -22.935  35.456  -1.928  1.00  0.00    -0.358 OA
BRANCH  14  16
HETATM   16  C11 UNL     1     -22.134  34.337  -3.854  1.00  0.00     0.213 C 
BRANCH  16  17
HETATM   17  O1  UNL     1     -23.041  33.861  -4.783  1.00  0.00    -0.306 OA
BRANCH  17  18
HETATM   18  C12 UNL     1     -23.064  32.557  -5.225  1.00  0.00     0.357 C 
HETATM   19  O2  UNL     1     -22.229  31.749  -4.756  1.00  0.00    -0.246 OA
HETATM   20 CL1  UNL     1     -24.243  32.019  -6.432  1.00  0.00    -0.012 Cl
ENDBRANCH  17  18
ENDBRANCH  16  17
ENDBRANCH  14  16
ENDBRANCH   3  10
BRANCH   1  21
HETATM   21  C2  UNL     1     -23.311  36.829   3.552  1.00  0.00    -0.017 C 
HETATM   22  C1  UNL     1     -24.696  37.129   4.084  1.00  0.00     0.019 C 
HETATM   23  C3  UNL     1     -23.098  35.335   3.693  1.00  0.00     0.019 C 
HETATM   24  C4  UNL     1     -22.281  37.521   4.417  1.00  0.00     0.019 C 
ENDBRANCH   1  21
TORSDOF 5
ENDMDL
