MODEL 1
REMARK VINA RESULT: -5.634990062      0.000      0.000
REMARK  5 active torsions:
REMARK  status: ('A' for Active; 'I' for Inactive)
REMARK    1  A    between atoms: C2_2  and  C3_3 
REMARK    2  A    between atoms: C3_3  and  C4_4 
REMARK    3  A    between atoms: C4_4  and  C5_5 
REMARK       I    between atoms: C5_5  and  N1_7 
REMARK       I    between atoms: C6_9  and  N3_11 
REMARK    4  A    between atoms: N3_11  and  C7_13 
REMARK    5  A    between atoms: C7_13  and  N4_15 
ROOT
HETATM    1  C5  UNL     1      22.521 -10.662   7.449  1.00  0.00     0.224 C 
HETATM    2  O1  UNL     1      22.845 -10.710   8.655  1.00  0.00    -0.273 OA
HETATM    3  N1  UNL     1      22.847 -11.692   6.527  1.00  0.00    -0.301 N 
ATOM      4  H1  UNL     1      22.296 -11.768   5.672  1.00  0.00     0.171 HD
HETATM    5  C6  UNL     1      23.797 -12.531   6.714  1.00  0.00     0.197 C 
HETATM    6  N2  UNL     1      24.572 -12.435   7.904  1.00  0.00    -0.063 NA
HETATM    7  N3  UNL     1      24.050 -13.523   5.743  1.00  0.00    -0.307 N 
ATOM      8  H3  UNL     1      24.409 -13.247   4.829  1.00  0.00     0.171 HD
ENDROOT
BRANCH   7   9
HETATM    9  C7  UNL     1      23.818 -14.892   6.011  1.00  0.00     0.176 C 
HETATM   10  S1  UNL     1      25.086 -15.896   6.180  1.00  0.00    -0.041 SA
BRANCH   9  11
HETATM   11  N4  UNL     1      22.498 -15.402   6.135  1.00  0.00    -0.358 N 
HETATM   12  C8  UNL     1      21.714 -16.025   5.099  1.00  0.00     0.125 C 
HETATM   13  C9  UNL     1      20.652 -16.848   5.799  1.00  0.00     0.021 C 
HETATM   14  C10 UNL     1      21.052 -16.785   7.259  1.00  0.00     0.021 C 
HETATM   15  C11 UNL     1      21.677 -15.396   7.330  1.00  0.00     0.125 C 
ENDBRANCH   9  11
ENDBRANCH   7   9
BRANCH   1  16
HETATM   16  C4  UNL     1      21.757  -9.457   6.990  1.00  0.00     0.107 C 
BRANCH  16  17
HETATM   17  C3  UNL     1      20.306  -9.773   6.855  1.00  0.00     0.035 C 
BRANCH  17  18
HETATM   18  C2  UNL     1      19.506  -8.532   6.716  1.00  0.00    -0.036 C 
HETATM   19  C1  UNL     1      18.205  -8.628   6.491  1.00  0.00     0.007 C 
ENDBRANCH  17  18
ENDBRANCH  16  17
ENDBRANCH   1  16
TORSDOF 5
ENDMDL
MODEL 2
REMARK VINA RESULT: -5.582023276      4.025      6.697
REMARK  5 active torsions:
REMARK  status: ('A' for Active; 'I' for Inactive)
REMARK    1  A    between atoms: C2_2  and  C3_3 
REMARK    2  A    between atoms: C3_3  and  C4_4 
REMARK    3  A    between atoms: C4_4  and  C5_5 
REMARK       I    between atoms: C5_5  and  N1_7 
REMARK       I    between atoms: C6_9  and  N3_11 
REMARK    4  A    between atoms: N3_11  and  C7_13 
REMARK    5  A    between atoms: C7_13  and  N4_15 
ROOT
HETATM    1  C5  UNL     1      23.153 -11.189   5.861  1.00  0.00     0.224 C 
HETATM    2  O1  UNL     1      22.978 -12.005   4.929  1.00  0.00    -0.273 OA
HETATM    3  N1  UNL     1      22.839  -9.809   5.738  1.00  0.00    -0.301 N 
ATOM      4  H1  UNL     1      22.688  -9.271   6.591  1.00  0.00     0.171 HD
HETATM    5  C6  UNL     1      22.736  -9.206   4.612  1.00  0.00     0.197 C 
HETATM    6  N2  UNL     1      22.945  -9.948   3.416  1.00  0.00    -0.063 NA
HETATM    7  N3  UNL     1      22.420  -7.832   4.586  1.00  0.00    -0.307 N 
ATOM      8  H3  UNL     1      23.097  -7.157   4.940  1.00  0.00     0.171 HD
ENDROOT
BRANCH   7   9
HETATM    9  C7  UNL     1      21.183  -7.370   4.077  1.00  0.00     0.176 C 
HETATM   10  S1  UNL     1      21.141  -6.652   2.619  1.00  0.00    -0.041 SA
BRANCH   9  11
HETATM   11  N4  UNL     1      19.981  -7.524   4.819  1.00  0.00    -0.358 N 
HETATM   12  C8  UNL     1      19.271  -8.753   5.063  1.00  0.00     0.125 C 
HETATM   13  C9  UNL     1      18.406  -8.516   6.283  1.00  0.00     0.021 C 
HETATM   14  C10 UNL     1      18.860  -7.161   6.787  1.00  0.00     0.021 C 
HETATM   15  C11 UNL     1      19.231  -6.473   5.478  1.00  0.00     0.125 C 
ENDBRANCH   9  11
ENDBRANCH   7   9
BRANCH   1  16
HETATM   16  C4  UNL     1      23.717 -11.720   7.143  1.00  0.00     0.107 C 
BRANCH  16  17
HETATM   17  C3  UNL     1      22.869 -11.315   8.300  1.00  0.00     0.035 C 
BRANCH  17  18
HETATM   18  C2  UNL     1      21.787 -12.302   8.533  1.00  0.00    -0.036 C 
HETATM   19  C1  UNL     1      22.071 -13.594   8.475  1.00  0.00     0.007 C 
ENDBRANCH  17  18
ENDBRANCH  16  17
ENDBRANCH   1  16
TORSDOF 5
ENDMDL
MODEL 3
REMARK VINA RESULT: -5.485164075      6.997     10.780
REMARK  5 active torsions:
REMARK  status: ('A' for Active; 'I' for Inactive)
REMARK    1  A    between atoms: C2_2  and  C3_3 
REMARK    2  A    between atoms: C3_3  and  C4_4 
REMARK    3  A    between atoms: C4_4  and  C5_5 
REMARK       I    between atoms: C5_5  and  N1_7 
REMARK       I    between atoms: C6_9  and  N3_11 
REMARK    4  A    between atoms: N3_11  and  C7_13 
REMARK    5  A    between atoms: C7_13  and  N4_15 
ROOT
HETATM    1  C5  UNL     1      18.914  -6.891   5.999  1.00  0.00     0.224 C 
HETATM    2  O1  UNL     1      18.926  -6.877   4.749  1.00  0.00    -0.273 OA
HETATM    3  N1  UNL     1      19.273  -5.760   6.780  1.00  0.00    -0.301 N 
ATOM      4  H1  UNL     1      18.939  -5.712   7.742  1.00  0.00     0.171 HD
HETATM    5  C6  UNL     1      19.995  -4.798   6.339  1.00  0.00     0.197 C 
HETATM    6  N2  UNL     1      20.466  -4.855   4.997  1.00  0.00    -0.063 NA
HETATM    7  N3  UNL     1      20.303  -3.713   7.186  1.00  0.00    -0.307 N 
ATOM      8  H3  UNL     1      20.911  -3.865   7.990  1.00  0.00     0.171 HD
ENDROOT
BRANCH   7   9
HETATM    9  C7  UNL     1      19.785  -2.420   6.944  1.00  0.00     0.176 C 
HETATM   10  S1  UNL     1      20.812  -1.172   6.764  1.00  0.00    -0.041 SA
BRANCH   9  11
HETATM   11  N4  UNL     1      18.384  -2.194   6.856  1.00  0.00    -0.358 N 
HETATM   12  C8  UNL     1      17.448  -2.155   7.950  1.00  0.00     0.125 C 
HETATM   13  C9  UNL     1      16.239  -1.389   7.455  1.00  0.00     0.021 C 
HETATM   14  C10 UNL     1      16.682  -0.850   6.110  1.00  0.00     0.021 C 
HETATM   15  C11 UNL     1      17.621  -1.958   5.647  1.00  0.00     0.125 C 
ENDBRANCH   9  11
ENDBRANCH   7   9
BRANCH   1  16
HETATM   16  C4  UNL     1      18.497  -8.165   6.669  1.00  0.00     0.107 C 
BRANCH  16  17
HETATM   17  C3  UNL     1      19.416  -9.279   6.300  1.00  0.00     0.035 C 
BRANCH  17  18
HETATM   18  C2  UNL     1      20.783  -9.031   6.818  1.00  0.00    -0.036 C 
HETATM   19  C1  UNL     1      21.531 -10.061   7.181  1.00  0.00     0.007 C 
ENDBRANCH  17  18
ENDBRANCH  16  17
ENDBRANCH   1  16
TORSDOF 5
ENDMDL
MODEL 4
REMARK VINA RESULT: -5.475762044      1.664      2.167
REMARK  5 active torsions:
REMARK  status: ('A' for Active; 'I' for Inactive)
REMARK    1  A    between atoms: C2_2  and  C3_3 
REMARK    2  A    between atoms: C3_3  and  C4_4 
REMARK    3  A    between atoms: C4_4  and  C5_5 
REMARK       I    between atoms: C5_5  and  N1_7 
REMARK       I    between atoms: C6_9  and  N3_11 
REMARK    4  A    between atoms: N3_11  and  C7_13 
REMARK    5  A    between atoms: C7_13  and  N4_15 
ROOT
HETATM    1  C5  UNL     1      21.485 -10.335   6.874  1.00  0.00     0.224 C 
HETATM    2  O1  UNL     1      21.054 -10.785   7.957  1.00  0.00    -0.273 OA
HETATM    3  N1  UNL     1      22.706 -10.773   6.295  1.00  0.00    -0.301 N 
ATOM      4  H1  UNL     1      22.844 -10.634   5.294  1.00  0.00     0.171 HD
HETATM    5  C6  UNL     1      23.644 -11.333   6.965  1.00  0.00     0.197 C 
HETATM    6  N2  UNL     1      23.462 -11.532   8.363  1.00  0.00    -0.063 NA
HETATM    7  N3  UNL     1      24.824 -11.736   6.307  1.00  0.00    -0.307 N 
ATOM      8  H3  UNL     1      25.452 -11.027   5.929  1.00  0.00     0.171 HD
ENDROOT
BRANCH   7   9
HETATM    9  C7  UNL     1      25.155 -13.103   6.160  1.00  0.00     0.176 C 
HETATM   10  S1  UNL     1      26.559 -13.510   5.448  1.00  0.00    -0.041 SA
BRANCH   9  11
HETATM   11  N4  UNL     1      24.282 -14.124   6.624  1.00  0.00    -0.358 N 
HETATM   12  C8  UNL     1      24.415 -14.883   7.842  1.00  0.00     0.125 C 
HETATM   13  C9  UNL     1      23.039 -15.433   8.158  1.00  0.00     0.021 C 
HETATM   14  C10 UNL     1      22.138 -14.747   7.151  1.00  0.00     0.021 C 
HETATM   15  C11 UNL     1      23.084 -14.603   5.964  1.00  0.00     0.125 C 
ENDBRANCH   9  11
ENDBRANCH   7   9
BRANCH   1  16
HETATM   16  C4  UNL     1      20.657  -9.295   6.183  1.00  0.00     0.107 C 
BRANCH  16  17
HETATM   17  C3  UNL     1      19.254  -9.320   6.686  1.00  0.00     0.035 C 
BRANCH  17  18
HETATM   18  C2  UNL     1      18.525  -8.094   6.278  1.00  0.00    -0.036 C 
HETATM   19  C1  UNL     1      18.955  -6.917   6.705  1.00  0.00     0.007 C 
ENDBRANCH  17  18
ENDBRANCH  16  17
ENDBRANCH   1  16
TORSDOF 5
ENDMDL
MODEL 5
REMARK VINA RESULT: -5.446857697      6.444      9.741
REMARK  5 active torsions:
REMARK  status: ('A' for Active; 'I' for Inactive)
REMARK    1  A    between atoms: C2_2  and  C3_3 
REMARK    2  A    between atoms: C3_3  and  C4_4 
REMARK    3  A    between atoms: C4_4  and  C5_5 
REMARK       I    between atoms: C5_5  and  N1_7 
REMARK       I    between atoms: C6_9  and  N3_11 
REMARK    4  A    between atoms: N3_11  and  C7_13 
REMARK    5  A    between atoms: C7_13  and  N4_15 
ROOT
HETATM    1  C5  UNL     1      19.314  -6.657   5.817  1.00  0.00     0.224 C 
HETATM    2  O1  UNL     1      18.850  -6.516   4.665  1.00  0.00    -0.273 OA
HETATM    3  N1  UNL     1      20.529  -6.049   6.231  1.00  0.00    -0.301 N 
ATOM      4  H1  UNL     1      20.689  -5.919   7.230  1.00  0.00     0.171 HD
HETATM    5  C6  UNL     1      21.436  -5.657   5.415  1.00  0.00     0.197 C 
HETATM    6  N2  UNL     1      21.224  -5.834   4.019  1.00  0.00    -0.063 NA
HETATM    7  N3  UNL     1      22.613  -5.063   5.916  1.00  0.00    -0.307 N 
ATOM      8  H3  UNL     1      23.271  -5.631   6.449  1.00  0.00     0.171 HD
ENDROOT
BRANCH   7   9
HETATM    9  C7  UNL     1      22.901  -3.696   5.694  1.00  0.00     0.176 C 
HETATM   10  S1  UNL     1      24.440  -3.237   5.440  1.00  0.00    -0.041 SA
BRANCH   9  11
HETATM   11  N4  UNL     1      21.868  -2.720   5.689  1.00  0.00    -0.358 N 
HETATM   12  C8  UNL     1      21.361  -2.008   4.544  1.00  0.00     0.125 C 
HETATM   13  C9  UNL     1      19.982  -1.510   4.923  1.00  0.00     0.021 C 
HETATM   14  C10 UNL     1      19.712  -2.179   6.255  1.00  0.00     0.021 C 
HETATM   15  C11 UNL     1      21.119  -2.248   6.837  1.00  0.00     0.125 C 
ENDBRANCH   9  11
ENDBRANCH   7   9
BRANCH   1  16
HETATM   16  C4  UNL     1      18.533  -7.503   6.775  1.00  0.00     0.107 C 
BRANCH  16  17
HETATM   17  C3  UNL     1      18.575  -8.936   6.367  1.00  0.00     0.035 C 
BRANCH  17  18
HETATM   18  C2  UNL     1      19.964  -9.360   6.070  1.00  0.00    -0.036 C 
HETATM   19  C1  UNL     1      20.737  -9.774   7.063  1.00  0.00     0.007 C 
ENDBRANCH  17  18
ENDBRANCH  16  17
ENDBRANCH   1  16
TORSDOF 5
ENDMDL
