MODEL 1
REMARK VINA RESULT: -8.818293643      0.000      0.000
REMARK  13 active torsions:
REMARK  status: ('A' for Active; 'I' for Inactive)
REMARK    1  A    between atoms: C3_3  and  C4_4 
REMARK    2  A    between atoms: C4_4  and  N1_5 
REMARK    3  A    between atoms: N1_5  and  C5_6 
REMARK    4  A    between atoms: C12_13  and  O1_14 
REMARK    5  A    between atoms: C12_13  and  C13_16 
REMARK       I    between atoms: C13_16  and  N2_18 
REMARK    6  A    between atoms: N2_18  and  C14_20 
REMARK    7  A    between atoms: C14_20  and  C15_21 
REMARK    8  A    between atoms: C15_21  and  C16_22 
REMARK    9  A    between atoms: C17_23  and  C18_24 
REMARK   10  A    between atoms: C18_24  and  C19_25 
REMARK   11  A    between atoms: C19_25  and  C20_26 
REMARK   12  A    between atoms: C20_26  and  C21_27 
REMARK   13  A    between atoms: C21_27  and  N3_28 
ROOT
HETATM    1  C1  UNL     1       2.879  23.307  14.905  1.00  0.00     0.112 C 
HETATM    2  C2  UNL     1       1.902  24.243  14.349  1.00  0.00    -0.104 C 
HETATM    3  C3  UNL     1       1.088  25.008  13.906  1.00  0.00    -0.048 C 
ENDROOT
BRANCH   3   4
HETATM    4  C4  UNL     1       0.083  25.937  13.356  1.00  0.00     0.247 C 
BRANCH   4   5
HETATM    5  N1  UNL     1      -1.002  26.124  13.736  1.00  0.00    -0.409 NA
BRANCH   5   6
HETATM    6  C5  UNL     1      -2.273  26.336  14.161  1.00  0.00     0.113 A 
HETATM    7  C6  UNL     1      -2.453  27.252  15.219  1.00  0.00     0.046 A 
HETATM    8  C7  UNL     1      -3.706  27.490  15.668  1.00  0.00     0.015 A 
HETATM    9  C8  UNL     1      -4.797  26.838  15.091  1.00  0.00    -0.025 A 
HETATM   10  C9  UNL     1      -4.635  25.939  14.061  1.00  0.00     0.005 A 
HETATM   11  C28 UNL     1      -6.066  27.286  15.669  1.00  0.00     0.026 C 
HETATM   12  C10 UNL     1      -3.386  25.684  13.590  1.00  0.00    -0.011 A 
HETATM   13  C12 UNL     1      -5.655  25.139  13.405  1.00  0.00     0.167 C 
HETATM   14  C11 UNL     1      -3.073  24.785  12.468  1.00  0.00     0.052 C 
HETATM   15  C25 UNL     1      -7.092  25.579  13.562  1.00  0.00     0.058 C 
HETATM   16  C26 UNL     1      -7.386  27.030  13.595  1.00  0.00     0.050 C 
HETATM   17  C27 UNL     1      -7.243  27.395  15.064  1.00  0.00    -0.011 C 
HETATM   18 BR1  UNL     1      -8.729  28.000  16.025  1.00  0.00    -0.056 Br
BRANCH  13  19
HETATM   19  O1  UNL     1      -5.520  24.922  12.051  1.00  0.00    -0.375 OA
ATOM     20  H1  UNL     1      -5.281  24.047  11.769  1.00  0.00     0.211 HD
ENDBRANCH  13  19
BRANCH  13  21
HETATM   21  C13 UNL     1      -5.701  23.817  14.171  1.00  0.00     0.257 C 
HETATM   22  O2  UNL     1      -5.909  22.822  13.445  1.00  0.00    -0.270 OA
HETATM   23  N2  UNL     1      -5.516  23.773  15.556  1.00  0.00    -0.358 N 
ATOM     24  H2  UNL     1      -5.348  24.639  16.066  1.00  0.00     0.162 HD
BRANCH  23  25
HETATM   25  C14 UNL     1      -5.559  22.506  16.287  1.00  0.00     0.126 C 
BRANCH  25  26
HETATM   26  C15 UNL     1      -6.704  22.404  17.240  1.00  0.00     0.046 C 
BRANCH  26  27
HETATM   27  C16 UNL     1      -7.599  23.558  17.302  1.00  0.00    -0.029 C 
HETATM   28  C17 UNL     1      -8.889  23.651  16.669  1.00  0.00    -0.031 C 
BRANCH  28  29
HETATM   29  C18 UNL     1      -9.253  23.405  15.289  1.00  0.00     0.027 C 
BRANCH  29  30
HETATM   30  C19 UNL     1      -9.059  22.067  14.687  1.00  0.00     0.005 C 
BRANCH  30  31
HETATM   31  C20 UNL     1     -10.180  21.710  13.710  1.00  0.00     0.028 C 
BRANCH  31  32
HETATM   32  C21 UNL     1     -11.399  22.479  14.119  1.00  0.00     0.236 C 
BRANCH  32  33
HETATM   33  N3  UNL     1     -12.623  21.885  13.667  1.00  0.00    -0.079 N 
HETATM   34  C22 UNL     1     -13.578  22.894  13.265  1.00  0.00     0.271 C 
HETATM   35  C23 UNL     1     -13.203  21.165  14.789  1.00  0.00     0.271 C 
HETATM   36  C24 UNL     1     -12.423  20.928  12.597  1.00  0.00     0.271 C 
ENDBRANCH  32  33
ENDBRANCH  31  32
ENDBRANCH  30  31
ENDBRANCH  29  30
ENDBRANCH  28  29
ENDBRANCH  26  27
ENDBRANCH  25  26
ENDBRANCH  23  25
ENDBRANCH  13  21
ENDBRANCH   5   6
ENDBRANCH   4   5
ENDBRANCH   3   4
TORSDOF 13
ENDMDL
MODEL 2
REMARK VINA RESULT: -8.460818534      0.813      1.080
REMARK  13 active torsions:
REMARK  status: ('A' for Active; 'I' for Inactive)
REMARK    1  A    between atoms: C3_3  and  C4_4 
REMARK    2  A    between atoms: C4_4  and  N1_5 
REMARK    3  A    between atoms: N1_5  and  C5_6 
REMARK    4  A    between atoms: C12_13  and  O1_14 
REMARK    5  A    between atoms: C12_13  and  C13_16 
REMARK       I    between atoms: C13_16  and  N2_18 
REMARK    6  A    between atoms: N2_18  and  C14_20 
REMARK    7  A    between atoms: C14_20  and  C15_21 
REMARK    8  A    between atoms: C15_21  and  C16_22 
REMARK    9  A    between atoms: C17_23  and  C18_24 
REMARK   10  A    between atoms: C18_24  and  C19_25 
REMARK   11  A    between atoms: C19_25  and  C20_26 
REMARK   12  A    between atoms: C20_26  and  C21_27 
REMARK   13  A    between atoms: C21_27  and  N3_28 
ROOT
HETATM    1  C1  UNL     1       2.930  22.331  15.637  1.00  0.00     0.112 C 
HETATM    2  C2  UNL     1       2.108  23.356  14.996  1.00  0.00    -0.104 C 
HETATM    3  C3  UNL     1       1.417  24.189  14.474  1.00  0.00    -0.048 C 
ENDROOT
BRANCH   3   4
HETATM    4  C4  UNL     1       0.570  25.205  13.821  1.00  0.00     0.247 C 
BRANCH   4   5
HETATM    5  N1  UNL     1      -0.512  25.527  14.110  1.00  0.00    -0.409 NA
BRANCH   5   6
HETATM    6  C5  UNL     1      -1.771  25.892  14.463  1.00  0.00     0.113 A 
HETATM    7  C6  UNL     1      -1.897  26.884  15.458  1.00  0.00     0.046 A 
HETATM    8  C7  UNL     1      -3.137  27.275  15.833  1.00  0.00     0.015 A 
HETATM    9  C8  UNL     1      -4.265  26.704  15.243  1.00  0.00    -0.025 A 
HETATM   10  C9  UNL     1      -4.155  25.733  14.273  1.00  0.00     0.005 A 
HETATM   11  C28 UNL     1      -5.502  27.313  15.734  1.00  0.00     0.026 C 
HETATM   12  C10 UNL     1      -2.920  25.324  13.877  1.00  0.00    -0.011 A 
HETATM   13  C12 UNL     1      -5.225  25.002  13.616  1.00  0.00     0.167 C 
HETATM   14  C11 UNL     1      -2.657  24.332  12.823  1.00  0.00     0.052 C 
HETATM   15  C25 UNL     1      -6.614  25.595  13.679  1.00  0.00     0.058 C 
HETATM   16  C26 UNL     1      -6.756  27.067  13.617  1.00  0.00     0.050 C 
HETATM   17  C27 UNL     1      -6.636  27.504  15.068  1.00  0.00    -0.011 C 
HETATM   18 BR1  UNL     1      -8.090  28.315  15.922  1.00  0.00    -0.056 Br
BRANCH  13  19
HETATM   19  O1  UNL     1      -5.057  24.691  12.283  1.00  0.00    -0.375 OA
ATOM     20  H1  UNL     1      -5.798  24.826  11.704  1.00  0.00     0.211 HD
ENDBRANCH  13  19
BRANCH  13  21
HETATM   21  C13 UNL     1      -5.440  23.740  14.451  1.00  0.00     0.257 C 
HETATM   22  O2  UNL     1      -5.511  22.693  13.773  1.00  0.00    -0.270 OA
HETATM   23  N2  UNL     1      -5.537  23.799  15.844  1.00  0.00    -0.358 N 
ATOM     24  H2  UNL     1      -5.464  24.702  16.313  1.00  0.00     0.162 HD
BRANCH  23  25
HETATM   25  C14 UNL     1      -5.741  22.591  16.642  1.00  0.00     0.126 C 
BRANCH  25  26
HETATM   26  C15 UNL     1      -7.075  22.535  17.313  1.00  0.00     0.046 C 
BRANCH  26  27
HETATM   27  C16 UNL     1      -8.090  23.460  16.812  1.00  0.00    -0.029 C 
HETATM   28  C17 UNL     1      -9.029  23.181  15.756  1.00  0.00    -0.031 C 
BRANCH  28  29
HETATM   29  C18 UNL     1      -8.783  22.679  14.421  1.00  0.00     0.027 C 
BRANCH  29  30
HETATM   30  C19 UNL     1      -9.800  21.859  13.725  1.00  0.00     0.005 C 
BRANCH  30  31
HETATM   31  C20 UNL     1     -10.936  21.441  14.658  1.00  0.00     0.028 C 
BRANCH  31  32
HETATM   32  C21 UNL     1     -12.229  21.737  13.960  1.00  0.00     0.236 C 
BRANCH  32  33
HETATM   33  N3  UNL     1     -13.178  22.422  14.787  1.00  0.00    -0.079 N 
HETATM   34  C22 UNL     1     -12.517  23.285  15.739  1.00  0.00     0.271 C 
HETATM   35  C23 UNL     1     -13.904  21.417  15.548  1.00  0.00     0.271 C 
HETATM   36  C24 UNL     1     -14.153  23.172  14.021  1.00  0.00     0.271 C 
ENDBRANCH  32  33
ENDBRANCH  31  32
ENDBRANCH  30  31
ENDBRANCH  29  30
ENDBRANCH  28  29
ENDBRANCH  26  27
ENDBRANCH  25  26
ENDBRANCH  23  25
ENDBRANCH  13  21
ENDBRANCH   5   6
ENDBRANCH   4   5
ENDBRANCH   3   4
TORSDOF 13
ENDMDL
MODEL 3
REMARK VINA RESULT: -8.266898606      3.267      6.385
REMARK  13 active torsions:
REMARK  status: ('A' for Active; 'I' for Inactive)
REMARK    1  A    between atoms: C3_3  and  C4_4 
REMARK    2  A    between atoms: C4_4  and  N1_5 
REMARK    3  A    between atoms: N1_5  and  C5_6 
REMARK    4  A    between atoms: C12_13  and  O1_14 
REMARK    5  A    between atoms: C12_13  and  C13_16 
REMARK       I    between atoms: C13_16  and  N2_18 
REMARK    6  A    between atoms: N2_18  and  C14_20 
REMARK    7  A    between atoms: C14_20  and  C15_21 
REMARK    8  A    between atoms: C15_21  and  C16_22 
REMARK    9  A    between atoms: C17_23  and  C18_24 
REMARK   10  A    between atoms: C18_24  and  C19_25 
REMARK   11  A    between atoms: C19_25  and  C20_26 
REMARK   12  A    between atoms: C20_26  and  C21_27 
REMARK   13  A    between atoms: C21_27  and  N3_28 
ROOT
HETATM    1  C1  UNL     1      -9.219  28.006  15.911  1.00  0.00     0.112 C 
HETATM    2  C2  UNL     1      -7.784  27.750  15.785  1.00  0.00    -0.104 C 
HETATM    3  C3  UNL     1      -6.604  27.541  15.700  1.00  0.00    -0.048 C 
ENDROOT
BRANCH   3   4
HETATM    4  C4  UNL     1      -5.153  27.298  15.594  1.00  0.00     0.247 C 
BRANCH   4   5
HETATM    5  N1  UNL     1      -4.562  26.877  14.682  1.00  0.00    -0.409 NA
BRANCH   5   6
HETATM    6  C5  UNL     1      -3.889  26.375  13.617  1.00  0.00     0.113 A 
HETATM    7  C6  UNL     1      -4.650  26.024  12.482  1.00  0.00     0.046 A 
HETATM    8  C7  UNL     1      -4.012  25.522  11.400  1.00  0.00     0.015 A 
HETATM    9  C8  UNL     1      -2.626  25.357  11.413  1.00  0.00    -0.025 A 
HETATM   10  C9  UNL     1      -1.872  25.691  12.515  1.00  0.00     0.005 A 
HETATM   11  C28 UNL     1      -2.124  24.871  10.126  1.00  0.00     0.026 C 
HETATM   12  C10 UNL     1      -2.490  26.200  13.615  1.00  0.00    -0.011 A 
HETATM   13  C12 UNL     1      -0.442  25.519  12.705  1.00  0.00     0.167 C 
HETATM   14  C11 UNL     1      -1.805  26.641  14.840  1.00  0.00     0.052 C 
HETATM   15  C25 UNL     1       0.405  25.322  11.470  1.00  0.00     0.058 C 
HETATM   16  C26 UNL     1       0.041  26.059  10.239  1.00  0.00     0.050 C 
HETATM   17  C27 UNL     1      -0.959  25.143   9.551  1.00  0.00    -0.011 C 
HETATM   18 BR1  UNL     1      -0.547  24.395   7.886  1.00  0.00    -0.056 Br
BRANCH  13  19
HETATM   19  O1  UNL     1       0.227  26.493  13.415  1.00  0.00    -0.375 OA
ATOM     20  H1  UNL     1       1.113  26.703  13.144  1.00  0.00     0.211 HD
ENDBRANCH  13  19
BRANCH  13  21
HETATM   21  C13 UNL     1      -0.272  24.149  13.361  1.00  0.00     0.257 C 
HETATM   22  O2  UNL     1      -0.627  23.196  12.636  1.00  0.00    -0.270 OA
HETATM   23  N2  UNL     1       0.243  24.022  14.654  1.00  0.00    -0.358 N 
ATOM     24  H2  UNL     1       0.510  24.859  15.171  1.00  0.00     0.162 HD
BRANCH  23  25
HETATM   25  C14 UNL     1       0.407  22.710  15.280  1.00  0.00     0.126 C 
BRANCH  25  26
HETATM   26  C15 UNL     1      -0.792  22.260  16.049  1.00  0.00     0.046 C 
BRANCH  26  27
HETATM   27  C16 UNL     1      -1.894  23.216  16.148  1.00  0.00    -0.029 C 
HETATM   28  C17 UNL     1      -3.206  23.042  15.583  1.00  0.00    -0.031 C 
BRANCH  28  29
HETATM   29  C18 UNL     1      -3.583  22.702  14.227  1.00  0.00     0.027 C 
BRANCH  29  30
HETATM   30  C19 UNL     1      -5.005  22.700  13.818  1.00  0.00     0.005 C 
BRANCH  30  31
HETATM   31  C20 UNL     1      -5.901  23.380  14.854  1.00  0.00     0.028 C 
BRANCH  31  32
HETATM   32  C21 UNL     1      -7.068  23.974  14.126  1.00  0.00     0.236 C 
BRANCH  32  33
HETATM   33  N3  UNL     1      -8.324  23.729  14.771  1.00  0.00    -0.079 N 
HETATM   34  C22 UNL     1      -8.772  22.373  14.549  1.00  0.00     0.271 C 
HETATM   35  C23 UNL     1      -9.308  24.613  14.166  1.00  0.00     0.271 C 
HETATM   36  C24 UNL     1      -8.294  24.023  16.190  1.00  0.00     0.271 C 
ENDBRANCH  32  33
ENDBRANCH  31  32
ENDBRANCH  30  31
ENDBRANCH  29  30
ENDBRANCH  28  29
ENDBRANCH  26  27
ENDBRANCH  25  26
ENDBRANCH  23  25
ENDBRANCH  13  21
ENDBRANCH   5   6
ENDBRANCH   4   5
ENDBRANCH   3   4
TORSDOF 13
ENDMDL
MODEL 4
REMARK VINA RESULT: -8.091114946      2.368      8.560
REMARK  13 active torsions:
REMARK  status: ('A' for Active; 'I' for Inactive)
REMARK    1  A    between atoms: C3_3  and  C4_4 
REMARK    2  A    between atoms: C4_4  and  N1_5 
REMARK    3  A    between atoms: N1_5  and  C5_6 
REMARK    4  A    between atoms: C12_13  and  O1_14 
REMARK    5  A    between atoms: C12_13  and  C13_16 
REMARK       I    between atoms: C13_16  and  N2_18 
REMARK    6  A    between atoms: N2_18  and  C14_20 
REMARK    7  A    between atoms: C14_20  and  C15_21 
REMARK    8  A    between atoms: C15_21  and  C16_22 
REMARK    9  A    between atoms: C17_23  and  C18_24 
REMARK   10  A    between atoms: C18_24  and  C19_25 
REMARK   11  A    between atoms: C19_25  and  C20_26 
REMARK   12  A    between atoms: C20_26  and  C21_27 
REMARK   13  A    between atoms: C21_27  and  N3_28 
ROOT
HETATM    1  C1  UNL     1     -13.828  22.985  12.847  1.00  0.00     0.112 C 
HETATM    2  C2  UNL     1     -12.896  23.064  13.971  1.00  0.00    -0.104 C 
HETATM    3  C3  UNL     1     -12.138  23.144  14.900  1.00  0.00    -0.048 C 
ENDROOT
BRANCH   3   4
HETATM    4  C4  UNL     1     -11.198  23.251  16.032  1.00  0.00     0.247 C 
BRANCH   4   5
HETATM    5  N1  UNL     1     -10.034  23.277  15.996  1.00  0.00    -0.409 NA
BRANCH   5   6
HETATM    6  C5  UNL     1      -8.679  23.311  15.935  1.00  0.00     0.113 A 
HETATM    7  C6  UNL     1      -7.979  23.264  17.159  1.00  0.00     0.046 A 
HETATM    8  C7  UNL     1      -6.627  23.294  17.137  1.00  0.00     0.015 A 
HETATM    9  C8  UNL     1      -5.943  23.371  15.923  1.00  0.00    -0.025 A 
HETATM   10  C9  UNL     1      -6.614  23.422  14.722  1.00  0.00     0.005 A 
HETATM   11  C28 UNL     1      -4.492  23.319  16.112  1.00  0.00     0.026 C 
HETATM   12  C10 UNL     1      -7.973  23.390  14.717  1.00  0.00    -0.011 A 
HETATM   13  C12 UNL     1      -6.052  23.566  13.390  1.00  0.00     0.167 C 
HETATM   14  C11 UNL     1      -8.814  23.391  13.509  1.00  0.00     0.052 C 
HETATM   15  C25 UNL     1      -4.586  23.245  13.215  1.00  0.00     0.058 C 
HETATM   16  C26 UNL     1      -4.009  22.130  13.999  1.00  0.00     0.050 C 
HETATM   17  C27 UNL     1      -3.584  22.786  15.303  1.00  0.00    -0.011 C 
HETATM   18 BR1  UNL     1      -1.774  22.844  15.772  1.00  0.00    -0.056 Br
BRANCH  13  19
HETATM   19  O1  UNL     1      -6.667  22.884  12.362  1.00  0.00    -0.375 OA
ATOM     20  H1  UNL     1      -6.969  23.391  11.618  1.00  0.00     0.211 HD
ENDBRANCH  13  19
BRANCH  13  21
HETATM   21  C13 UNL     1      -6.026  25.069  13.112  1.00  0.00     0.257 C 
HETATM   22  O2  UNL     1      -5.624  25.363  11.967  1.00  0.00    -0.270 OA
HETATM   23  N2  UNL     1      -6.431  25.994  14.079  1.00  0.00    -0.358 N 
ATOM     24  H2  UNL     1      -6.749  25.660  14.989  1.00  0.00     0.162 HD
BRANCH  23  25
HETATM   25  C14 UNL     1      -6.407  27.432  13.811  1.00  0.00     0.126 C 
BRANCH  25  26
HETATM   26  C15 UNL     1      -5.142  28.099  14.240  1.00  0.00     0.046 C 
BRANCH  26  27
HETATM   27  C16 UNL     1      -4.323  27.373  15.209  1.00  0.00    -0.029 C 
HETATM   28  C17 UNL     1      -2.974  26.919  14.991  1.00  0.00    -0.031 C 
BRANCH  28  29
HETATM   29  C18 UNL     1      -2.437  26.132  13.901  1.00  0.00     0.027 C 
BRANCH  29  30
HETATM   30  C19 UNL     1      -0.976  25.947  13.754  1.00  0.00     0.005 C 
BRANCH  30  31
HETATM   31  C20 UNL     1      -0.634  24.914  12.680  1.00  0.00     0.028 C 
BRANCH  31  32
HETATM   32  C21 UNL     1      -0.511  25.639  11.375  1.00  0.00     0.236 C 
BRANCH  32  33
HETATM   33  N3  UNL     1      -1.355  25.106  10.347  1.00  0.00    -0.079 N 
HETATM   34  C22 UNL     1      -0.667  25.057   9.076  1.00  0.00     0.271 C 
HETATM   35  C23 UNL     1      -2.484  26.009  10.191  1.00  0.00     0.271 C 
HETATM   36  C24 UNL     1      -1.889  23.800  10.678  1.00  0.00     0.271 C 
ENDBRANCH  32  33
ENDBRANCH  31  32
ENDBRANCH  30  31
ENDBRANCH  29  30
ENDBRANCH  28  29
ENDBRANCH  26  27
ENDBRANCH  25  26
ENDBRANCH  23  25
ENDBRANCH  13  21
ENDBRANCH   5   6
ENDBRANCH   4   5
ENDBRANCH   3   4
TORSDOF 13
ENDMDL
MODEL 5
REMARK VINA RESULT: -7.941781513      1.441      1.972
REMARK  13 active torsions:
REMARK  status: ('A' for Active; 'I' for Inactive)
REMARK    1  A    between atoms: C3_3  and  C4_4 
REMARK    2  A    between atoms: C4_4  and  N1_5 
REMARK    3  A    between atoms: N1_5  and  C5_6 
REMARK    4  A    between atoms: C12_13  and  O1_14 
REMARK    5  A    between atoms: C12_13  and  C13_16 
REMARK       I    between atoms: C13_16  and  N2_18 
REMARK    6  A    between atoms: N2_18  and  C14_20 
REMARK    7  A    between atoms: C14_20  and  C15_21 
REMARK    8  A    between atoms: C15_21  and  C16_22 
REMARK    9  A    between atoms: C17_23  and  C18_24 
REMARK   10  A    between atoms: C18_24  and  C19_25 
REMARK   11  A    between atoms: C19_25  and  C20_26 
REMARK   12  A    between atoms: C20_26  and  C21_27 
REMARK   13  A    between atoms: C21_27  and  N3_28 
ROOT
HETATM    1  C1  UNL     1       0.503  24.839   8.147  1.00  0.00     0.112 C 
HETATM    2  C2  UNL     1       0.307  24.942   9.593  1.00  0.00    -0.104 C 
HETATM    3  C3  UNL     1       0.164  25.026  10.782  1.00  0.00    -0.048 C 
ENDROOT
BRANCH   3   4
HETATM    4  C4  UNL     1      -0.011  25.115  12.244  1.00  0.00     0.247 C 
BRANCH   4   5
HETATM    5  N1  UNL     1      -0.965  25.436  12.832  1.00  0.00    -0.409 NA
BRANCH   5   6
HETATM    6  C5  UNL     1      -2.082  25.817  13.501  1.00  0.00     0.113 A 
HETATM    7  C6  UNL     1      -1.910  26.686  14.599  1.00  0.00     0.046 A 
HETATM    8  C7  UNL     1      -3.002  27.088  15.289  1.00  0.00     0.015 A 
HETATM    9  C8  UNL     1      -4.272  26.648  14.915  1.00  0.00    -0.025 A 
HETATM   10  C9  UNL     1      -4.454  25.798  13.848  1.00  0.00     0.005 A 
HETATM   11  C28 UNL     1      -5.321  27.253  15.739  1.00  0.00     0.026 C 
HETATM   12  C10 UNL     1      -3.372  25.380  13.138  1.00  0.00    -0.011 A 
HETATM   13  C12 UNL     1      -5.695  25.205  13.379  1.00  0.00     0.167 C 
HETATM   14  C11 UNL     1      -3.425  24.511  11.952  1.00  0.00     0.052 C 
HETATM   15  C25 UNL     1      -6.986  25.852  13.822  1.00  0.00     0.058 C 
HETATM   16  C26 UNL     1      -7.028  27.327  13.952  1.00  0.00     0.050 C 
HETATM   17  C27 UNL     1      -6.556  27.578  15.376  1.00  0.00    -0.011 C 
HETATM   18 BR1  UNL     1      -7.719  28.349  16.623  1.00  0.00    -0.056 Br
BRANCH  13  19
HETATM   19  O1  UNL     1      -5.851  25.049  12.019  1.00  0.00    -0.375 OA
ATOM     20  H1  UNL     1      -5.563  25.761  11.459  1.00  0.00     0.211 HD
ENDBRANCH  13  19
BRANCH  13  21
HETATM   21  C13 UNL     1      -5.813  23.863  14.102  1.00  0.00     0.257 C 
HETATM   22  O2  UNL     1      -6.002  22.894  13.337  1.00  0.00    -0.270 OA
HETATM   23  N2  UNL     1      -5.707  23.776  15.493  1.00  0.00    -0.358 N 
ATOM     24  H2  UNL     1      -5.549  24.624  16.037  1.00  0.00     0.162 HD
BRANCH  23  25
HETATM   25  C14 UNL     1      -5.818  22.491  16.183  1.00  0.00     0.126 C 
BRANCH  25  26
HETATM   26  C15 UNL     1      -6.998  22.402  17.094  1.00  0.00     0.046 C 
BRANCH  26  27
HETATM   27  C16 UNL     1      -7.923  23.533  17.069  1.00  0.00    -0.029 C 
HETATM   28  C17 UNL     1      -9.146  23.598  16.311  1.00  0.00    -0.031 C 
BRANCH  28  29
HETATM   29  C18 UNL     1      -9.365  23.347  14.902  1.00  0.00     0.027 C 
BRANCH  29  30
HETATM   30  C19 UNL     1      -9.425  21.962  14.384  1.00  0.00     0.005 C 
BRANCH  30  31
HETATM   31  C20 UNL     1     -10.862  21.512  14.115  1.00  0.00     0.028 C 
BRANCH  31  32
HETATM   32  C21 UNL     1     -11.688  22.742  13.892  1.00  0.00     0.236 C 
BRANCH  32  33
HETATM   33  N3  UNL     1     -12.944  22.715  14.580  1.00  0.00    -0.079 N 
HETATM   34  C22 UNL     1     -13.245  21.389  15.071  1.00  0.00     0.271 C 
HETATM   35  C23 UNL     1     -13.980  23.065  13.621  1.00  0.00     0.271 C 
HETATM   36  C24 UNL     1     -13.015  23.678  15.662  1.00  0.00     0.271 C 
ENDBRANCH  32  33
ENDBRANCH  31  32
ENDBRANCH  30  31
ENDBRANCH  29  30
ENDBRANCH  28  29
ENDBRANCH  26  27
ENDBRANCH  25  26
ENDBRANCH  23  25
ENDBRANCH  13  21
ENDBRANCH   5   6
ENDBRANCH   4   5
ENDBRANCH   3   4
TORSDOF 13
ENDMDL
