MODEL 1
REMARK VINA RESULT: -10.057496262      0.000      0.000
REMARK  7 active torsions:
REMARK  status: ('A' for Active; 'I' for Inactive)
REMARK    1  A    between atoms: N1_14  and  C14_15 
REMARK    2  A    between atoms: C20_21  and  C22_23 
REMARK    3  A    between atoms: C22_23  and  C23_24 
REMARK    4  A    between atoms: C23_24  and  C24_25 
REMARK    5  A    between atoms: C24_25  and  O1_26 
REMARK    6  A    between atoms: O1_26  and  C25_27 
REMARK    7  A    between atoms: C25_27  and  O2_28 
ROOT
HETATM    1  C1  UNL     1      -7.104  24.915  15.846  1.00  0.00     0.015 C 
HETATM    2  C2  UNL     1      -6.750  25.254  14.632  1.00  0.00    -0.080 C 
HETATM    3  C3  UNL     1      -5.480  24.647  14.027  1.00  0.00     0.040 C 
HETATM    4  C4  UNL     1      -5.161  25.482  12.828  1.00  0.00     0.007 C 
HETATM    5  C5  UNL     1      -5.899  26.754  13.125  1.00  0.00     0.007 C 
HETATM    6  C6  UNL     1      -5.284  27.525  14.235  1.00  0.00     0.033 C 
HETATM    7  C7  UNL     1      -3.815  27.411  14.352  1.00  0.00    -0.022 C 
HETATM    8  C8  UNL     1      -3.071  26.615  13.625  1.00  0.00    -0.064 C 
HETATM    9  C9  UNL     1      -3.703  25.760  12.612  1.00  0.00    -0.016 C 
HETATM   10  C10 UNL     1      -3.594  26.361  11.212  1.00  0.00     0.020 C 
HETATM   11  C11 UNL     1      -2.919  24.463  12.556  1.00  0.00     0.016 C 
HETATM   12  C12 UNL     1      -1.525  24.846  12.078  1.00  0.00     0.038 C 
HETATM   13  C13 UNL     1      -0.842  25.548  13.197  1.00  0.00     0.235 C 
HETATM   14  N1  UNL     1      -0.458  24.556  14.177  1.00  0.00     0.093 N 
HETATM   15  C16 UNL     1      -0.911  24.986  15.456  1.00  0.00     0.274 C 
HETATM   16  C17 UNL     1      -1.265  26.432  15.324  1.00  0.00     0.046 C 
HETATM   17  C18 UNL     1      -1.596  26.626  13.875  1.00  0.00     0.013 C 
HETATM   18  C19 UNL     1      -1.078  28.010  13.474  1.00  0.00     0.022 C 
HETATM   19  C20 UNL     1      -7.289  26.129  13.594  1.00  0.00    -0.017 C 
HETATM   20  C21 UNL     1      -7.735  25.310  12.419  1.00  0.00     0.020 C 
ENDROOT
BRANCH  19  21
HETATM   21  C22 UNL     1      -8.089  27.293  13.954  1.00  0.00     0.016 C 
BRANCH  21  22
HETATM   22  C23 UNL     1      -9.564  27.292  13.970  1.00  0.00     0.027 C 
BRANCH  22  23
HETATM   23  C24 UNL     1     -10.234  26.775  15.211  1.00  0.00     0.171 C 
BRANCH  23  24
HETATM   24  O1  UNL     1     -10.452  25.475  15.348  1.00  0.00    -0.355 OA
BRANCH  24  25
HETATM   25  C25 UNL     1     -11.250  24.661  14.707  1.00  0.00     0.163 C 
HETATM   26  C27 UNL     1     -10.662  23.716  13.681  1.00  0.00     0.068 C 
HETATM   27  C28 UNL     1     -11.658  22.671  13.368  1.00  0.00     0.005 C 
HETATM   28  C29 UNL     1     -13.075  22.884  13.703  1.00  0.00     0.000 C 
HETATM   29  C30 UNL     1     -13.551  24.284  13.870  1.00  0.00     0.005 C 
HETATM   30  C31 UNL     1     -12.423  25.292  13.965  1.00  0.00     0.068 C 
BRANCH  25  31
HETATM   31  O2  UNL     1     -11.890  23.852  15.724  1.00  0.00    -0.360 OA
HETATM   32  C26 UNL     1     -10.968  23.493  16.701  1.00  0.00     0.205 C 
ENDBRANCH  25  31
ENDBRANCH  24  25
ENDBRANCH  23  24
ENDBRANCH  22  23
ENDBRANCH  21  22
ENDBRANCH  19  21
BRANCH  14  33
HETATM   33  C14 UNL     1       0.933  24.217  14.114  1.00  0.00     0.268 C 
HETATM   34  C15 UNL     1       1.574  23.976  15.446  1.00  0.00     0.037 C 
ENDBRANCH  14  33
TORSDOF 7
ENDMDL
MODEL 2
REMARK VINA RESULT: -9.981216439      1.660      3.403
REMARK  7 active torsions:
REMARK  status: ('A' for Active; 'I' for Inactive)
REMARK    1  A    between atoms: N1_14  and  C14_15 
REMARK    2  A    between atoms: C20_21  and  C22_23 
REMARK    3  A    between atoms: C22_23  and  C23_24 
REMARK    4  A    between atoms: C23_24  and  C24_25 
REMARK    5  A    between atoms: C24_25  and  O1_26 
REMARK    6  A    between atoms: O1_26  and  C25_27 
REMARK    7  A    between atoms: C25_27  and  O2_28 
ROOT
HETATM    1  C1  UNL     1      -7.827  25.517  12.088  1.00  0.00     0.015 C 
HETATM    2  C2  UNL     1      -7.001  25.695  13.086  1.00  0.00    -0.080 C 
HETATM    3  C3  UNL     1      -5.767  26.582  12.887  1.00  0.00     0.040 C 
HETATM    4  C4  UNL     1      -4.867  26.293  14.046  1.00  0.00     0.007 C 
HETATM    5  C5  UNL     1      -5.360  24.952  14.501  1.00  0.00     0.007 C 
HETATM    6  C6  UNL     1      -5.023  23.867  13.545  1.00  0.00     0.033 C 
HETATM    7  C7  UNL     1      -3.755  24.041  12.805  1.00  0.00    -0.022 C 
HETATM    8  C8  UNL     1      -2.999  25.108  12.866  1.00  0.00    -0.064 C 
HETATM    9  C9  UNL     1      -3.404  26.232  13.719  1.00  0.00    -0.016 C 
HETATM   10  C10 UNL     1      -2.675  26.220  15.061  1.00  0.00     0.020 C 
HETATM   11  C11 UNL     1      -2.962  27.510  13.032  1.00  0.00     0.016 C 
HETATM   12  C12 UNL     1      -1.440  27.447  12.989  1.00  0.00     0.038 C 
HETATM   13  C13 UNL     1      -1.061  26.427  11.975  1.00  0.00     0.235 C 
HETATM   14  N1  UNL     1      -1.281  26.998  10.664  1.00  0.00     0.093 N 
HETATM   15  C16 UNL     1      -2.049  26.080   9.895  1.00  0.00     0.274 C 
HETATM   16  C17 UNL     1      -2.002  24.770  10.614  1.00  0.00     0.046 C 
HETATM   17  C18 UNL     1      -1.746  25.117  12.049  1.00  0.00     0.013 C 
HETATM   18  C19 UNL     1      -0.825  24.034  12.619  1.00  0.00     0.022 C 
HETATM   19  C20 UNL     1      -6.927  25.242  14.473  1.00  0.00    -0.017 C 
HETATM   20  C21 UNL     1      -7.098  26.409  15.400  1.00  0.00     0.020 C 
ENDROOT
BRANCH  19  21
HETATM   21  C22 UNL     1      -7.522  23.970  14.865  1.00  0.00     0.016 C 
BRANCH  21  22
HETATM   22  C23 UNL     1      -7.852  23.623  16.260  1.00  0.00     0.027 C 
BRANCH  22  23
HETATM   23  C24 UNL     1      -9.308  23.548  16.621  1.00  0.00     0.171 C 
BRANCH  23  24
HETATM   24  O1  UNL     1     -10.192  24.260  15.938  1.00  0.00    -0.355 OA
BRANCH  24  25
HETATM   25  C25 UNL     1     -11.160  23.896  15.137  1.00  0.00     0.163 C 
HETATM   26  C27 UNL     1     -12.580  23.889  15.660  1.00  0.00     0.068 C 
HETATM   27  C28 UNL     1     -13.511  23.810  14.516  1.00  0.00     0.005 C 
HETATM   28  C29 UNL     1     -13.022  23.360  13.203  1.00  0.00     0.000 C 
HETATM   29  C30 UNL     1     -11.784  22.537  13.162  1.00  0.00     0.005 C 
HETATM   30  C31 UNL     1     -11.027  22.530  14.475  1.00  0.00     0.068 C 
BRANCH  25  31
HETATM   31  O2  UNL     1     -11.116  24.818  14.020  1.00  0.00    -0.360 OA
HETATM   32  C26 UNL     1     -10.709  26.075  14.452  1.00  0.00     0.205 C 
ENDBRANCH  25  31
ENDBRANCH  24  25
ENDBRANCH  23  24
ENDBRANCH  22  23
ENDBRANCH  21  22
ENDBRANCH  19  21
BRANCH  14  33
HETATM   33  C14 UNL     1      -0.070  27.442  10.038  1.00  0.00     0.268 C 
HETATM   34  C15 UNL     1       0.045  27.085   8.588  1.00  0.00     0.037 C 
ENDBRANCH  14  33
TORSDOF 7
ENDMDL
MODEL 3
REMARK VINA RESULT: -9.932068683      1.597      2.920
REMARK  7 active torsions:
REMARK  status: ('A' for Active; 'I' for Inactive)
REMARK    1  A    between atoms: N1_14  and  C14_15 
REMARK    2  A    between atoms: C20_21  and  C22_23 
REMARK    3  A    between atoms: C22_23  and  C23_24 
REMARK    4  A    between atoms: C23_24  and  C24_25 
REMARK    5  A    between atoms: C24_25  and  O1_26 
REMARK    6  A    between atoms: O1_26  and  C25_27 
REMARK    7  A    between atoms: C25_27  and  O2_28 
ROOT
HETATM    1  C1  UNL     1      -7.612  25.874  12.022  1.00  0.00     0.015 C 
HETATM    2  C2  UNL     1      -6.721  26.469  12.773  1.00  0.00    -0.080 C 
HETATM    3  C3  UNL     1      -5.423  26.976  12.134  1.00  0.00     0.040 C 
HETATM    4  C4  UNL     1      -4.494  27.259  13.272  1.00  0.00     0.007 C 
HETATM    5  C5  UNL     1      -5.084  26.431  14.374  1.00  0.00     0.007 C 
HETATM    6  C6  UNL     1      -4.899  24.974  14.154  1.00  0.00     0.033 C 
HETATM    7  C7  UNL     1      -3.662  24.589  13.444  1.00  0.00    -0.022 C 
HETATM    8  C8  UNL     1      -2.808  25.436  12.925  1.00  0.00    -0.064 C 
HETATM    9  C9  UNL     1      -3.062  26.878  13.037  1.00  0.00    -0.016 C 
HETATM   10  C10 UNL     1      -2.268  27.509  14.179  1.00  0.00     0.020 C 
HETATM   11  C11 UNL     1      -2.540  27.533  11.773  1.00  0.00     0.016 C 
HETATM   12  C12 UNL     1      -1.035  27.295  11.779  1.00  0.00     0.038 C 
HETATM   13  C13 UNL     1      -0.805  25.858  11.476  1.00  0.00     0.235 C 
HETATM   14  N1  UNL     1      -1.040  25.657  10.062  1.00  0.00     0.093 N 
HETATM   15  C16 UNL     1      -1.929  24.557   9.903  1.00  0.00     0.274 C 
HETATM   16  C17 UNL     1      -1.965  23.840  11.215  1.00  0.00     0.046 C 
HETATM   17  C18 UNL     1      -1.604  24.873  12.239  1.00  0.00     0.013 C 
HETATM   18  C19 UNL     1      -0.759  24.173  13.307  1.00  0.00     0.022 C 
HETATM   19  C20 UNL     1      -6.617  26.825  14.186  1.00  0.00    -0.017 C 
HETATM   20  C21 UNL     1      -6.631  28.317  14.338  1.00  0.00     0.020 C 
ENDROOT
BRANCH  19  21
HETATM   21  C22 UNL     1      -7.305  26.033  15.197  1.00  0.00     0.016 C 
BRANCH  21  22
HETATM   22  C23 UNL     1      -8.477  26.518  15.951  1.00  0.00     0.027 C 
BRANCH  22  23
HETATM   23  C24 UNL     1      -9.820  26.371  15.296  1.00  0.00     0.171 C 
BRANCH  23  24
HETATM   24  O1  UNL     1     -10.577  25.320  15.575  1.00  0.00    -0.355 OA
BRANCH  24  25
HETATM   25  C25 UNL     1     -11.295  24.544  14.805  1.00  0.00     0.163 C 
HETATM   26  C27 UNL     1     -10.592  23.626  13.828  1.00  0.00     0.068 C 
HETATM   27  C28 UNL     1     -11.553  22.612  13.349  1.00  0.00     0.005 C 
HETATM   28  C29 UNL     1     -12.998  22.839  13.506  1.00  0.00     0.000 C 
HETATM   29  C30 UNL     1     -13.473  24.240  13.664  1.00  0.00     0.005 C 
HETATM   30  C31 UNL     1     -12.354  25.223  13.943  1.00  0.00     0.068 C 
BRANCH  25  31
HETATM   31  O2  UNL     1     -12.073  23.710  15.699  1.00  0.00    -0.360 OA
HETATM   32  C26 UNL     1     -11.393  23.532  16.899  1.00  0.00     0.205 C 
ENDBRANCH  25  31
ENDBRANCH  24  25
ENDBRANCH  23  24
ENDBRANCH  22  23
ENDBRANCH  21  22
ENDBRANCH  19  21
BRANCH  14  33
HETATM   33  C14 UNL     1       0.172  25.565   9.302  1.00  0.00     0.268 C 
HETATM   34  C15 UNL     1       0.512  26.800   8.525  1.00  0.00     0.037 C 
ENDBRANCH  14  33
TORSDOF 7
ENDMDL
MODEL 4
REMARK VINA RESULT: -9.785892763      0.860      1.382
REMARK  7 active torsions:
REMARK  status: ('A' for Active; 'I' for Inactive)
REMARK    1  A    between atoms: N1_14  and  C14_15 
REMARK    2  A    between atoms: C20_21  and  C22_23 
REMARK    3  A    between atoms: C22_23  and  C23_24 
REMARK    4  A    between atoms: C23_24  and  C24_25 
REMARK    5  A    between atoms: C24_25  and  O1_26 
REMARK    6  A    between atoms: O1_26  and  C25_27 
REMARK    7  A    between atoms: C25_27  and  O2_28 
ROOT
HETATM    1  C1  UNL     1      -6.864  25.433  15.594  1.00  0.00     0.015 C 
HETATM    2  C2  UNL     1      -6.444  25.650  14.373  1.00  0.00    -0.080 C 
HETATM    3  C3  UNL     1      -5.193  24.920  13.872  1.00  0.00     0.040 C 
HETATM    4  C4  UNL     1      -4.777  25.635  12.626  1.00  0.00     0.007 C 
HETATM    5  C5  UNL     1      -5.443  26.968  12.790  1.00  0.00     0.007 C 
HETATM    6  C6  UNL     1      -4.822  27.788  13.861  1.00  0.00     0.033 C 
HETATM    7  C7  UNL     1      -3.369  27.595  14.049  1.00  0.00    -0.022 C 
HETATM    8  C8  UNL     1      -2.650  26.699  13.420  1.00  0.00    -0.064 C 
HETATM    9  C9  UNL     1      -3.297  25.805  12.451  1.00  0.00    -0.016 C 
HETATM   10  C10 UNL     1      -3.097  26.282  11.014  1.00  0.00     0.020 C 
HETATM   11  C11 UNL     1      -2.596  24.462  12.531  1.00  0.00     0.016 C 
HETATM   12  C12 UNL     1      -1.163  24.720  12.083  1.00  0.00     0.038 C 
HETATM   13  C13 UNL     1      -0.480  25.467  13.172  1.00  0.00     0.235 C 
HETATM   14  N1  UNL     1      -0.197  24.537  14.243  1.00  0.00     0.093 N 
HETATM   15  C16 UNL     1      -0.669  25.095  15.464  1.00  0.00     0.274 C 
HETATM   16  C17 UNL     1      -0.924  26.545  15.203  1.00  0.00     0.046 C 
HETATM   17  C18 UNL     1      -1.188  26.640  13.730  1.00  0.00     0.013 C 
HETATM   18  C19 UNL     1      -0.568  27.954  13.244  1.00  0.00     0.022 C 
HETATM   19  C20 UNL     1      -6.886  26.469  13.247  1.00  0.00    -0.017 C 
HETATM   20  C21 UNL     1      -7.340  25.586  12.122  1.00  0.00     0.020 C 
ENDROOT
BRANCH  19  21
HETATM   21  C22 UNL     1      -7.623  27.705  13.480  1.00  0.00     0.016 C 
BRANCH  21  22
HETATM   22  C23 UNL     1      -9.095  27.792  13.446  1.00  0.00     0.027 C 
BRANCH  22  23
HETATM   23  C24 UNL     1      -9.838  27.306  14.657  1.00  0.00     0.171 C 
BRANCH  23  24
HETATM   24  O1  UNL     1     -10.747  26.351  14.532  1.00  0.00    -0.355 OA
BRANCH  24  25
HETATM   25  C25 UNL     1     -10.679  25.061  14.735  1.00  0.00     0.163 C 
HETATM   26  C27 UNL     1     -10.191  24.554  16.075  1.00  0.00     0.068 C 
HETATM   27  C28 UNL     1     -10.541  23.125  16.202  1.00  0.00     0.005 C 
HETATM   28  C29 UNL     1     -10.881  22.344  15.003  1.00  0.00     0.000 C 
HETATM   29  C30 UNL     1     -10.392  22.834  13.686  1.00  0.00     0.005 C 
HETATM   30  C31 UNL     1      -9.858  24.251  13.737  1.00  0.00     0.068 C 
BRANCH  25  31
HETATM   31  O2  UNL     1     -12.025  24.559  14.547  1.00  0.00    -0.360 OA
HETATM   32  C26 UNL     1     -12.952  25.513  14.953  1.00  0.00     0.205 C 
ENDBRANCH  25  31
ENDBRANCH  24  25
ENDBRANCH  23  24
ENDBRANCH  22  23
ENDBRANCH  21  22
ENDBRANCH  19  21
BRANCH  14  33
HETATM   33  C14 UNL     1       1.171  24.109  14.266  1.00  0.00     0.268 C 
HETATM   34  C15 UNL     1       1.818  24.171  15.615  1.00  0.00     0.037 C 
ENDBRANCH  14  33
TORSDOF 7
ENDMDL
MODEL 5
REMARK VINA RESULT: -9.782886566      1.698      3.413
REMARK  7 active torsions:
REMARK  status: ('A' for Active; 'I' for Inactive)
REMARK    1  A    between atoms: N1_14  and  C14_15 
REMARK    2  A    between atoms: C20_21  and  C22_23 
REMARK    3  A    between atoms: C22_23  and  C23_24 
REMARK    4  A    between atoms: C23_24  and  C24_25 
REMARK    5  A    between atoms: C24_25  and  O1_26 
REMARK    6  A    between atoms: O1_26  and  C25_27 
REMARK    7  A    between atoms: C25_27  and  O2_28 
ROOT
HETATM    1  C1  UNL     1      -7.906  25.525  12.088  1.00  0.00     0.015 C 
HETATM    2  C2  UNL     1      -7.091  25.652  13.104  1.00  0.00    -0.080 C 
HETATM    3  C3  UNL     1      -5.856  26.549  12.964  1.00  0.00     0.040 C 
HETATM    4  C4  UNL     1      -4.968  26.202  14.117  1.00  0.00     0.007 C 
HETATM    5  C5  UNL     1      -5.465  24.840  14.498  1.00  0.00     0.007 C 
HETATM    6  C6  UNL     1      -5.117  23.804  13.493  1.00  0.00     0.033 C 
HETATM    7  C7  UNL     1      -3.842  24.015  12.777  1.00  0.00    -0.022 C 
HETATM    8  C8  UNL     1      -3.087  25.078  12.900  1.00  0.00    -0.064 C 
HETATM    9  C9  UNL     1      -3.502  26.158  13.804  1.00  0.00    -0.016 C 
HETATM   10  C10 UNL     1      -2.788  26.078  15.152  1.00  0.00     0.020 C 
HETATM   11  C11 UNL     1      -3.052  27.468  13.186  1.00  0.00     0.016 C 
HETATM   12  C12 UNL     1      -1.530  27.406  13.157  1.00  0.00     0.038 C 
HETATM   13  C13 UNL     1      -1.139  26.439  12.098  1.00  0.00     0.235 C 
HETATM   14  N1  UNL     1      -1.344  27.074  10.815  1.00  0.00     0.093 N 
HETATM   15  C16 UNL     1      -2.104  26.196   9.992  1.00  0.00     0.274 C 
HETATM   16  C17 UNL     1      -2.064  24.852  10.645  1.00  0.00     0.046 C 
HETATM   17  C18 UNL     1      -1.825  25.127  12.099  1.00  0.00     0.013 C 
HETATM   18  C19 UNL     1      -0.910  24.017  12.624  1.00  0.00     0.022 C 
HETATM   19  C20 UNL     1      -7.032  25.131  14.467  1.00  0.00    -0.017 C 
HETATM   20  C21 UNL     1      -7.215  26.250  15.449  1.00  0.00     0.020 C 
ENDROOT
BRANCH  19  21
HETATM   21  C22 UNL     1      -7.631  23.842  14.788  1.00  0.00     0.016 C 
BRANCH  21  22
HETATM   22  C23 UNL     1      -7.998  23.434  16.157  1.00  0.00     0.027 C 
BRANCH  22  23
HETATM   23  C24 UNL     1      -9.430  23.047  16.395  1.00  0.00     0.171 C 
BRANCH  23  24
HETATM   24  O1  UNL     1     -10.270  22.971  15.374  1.00  0.00    -0.355 OA
BRANCH  24  25
HETATM   25  C25 UNL     1     -11.239  23.762  14.991  1.00  0.00     0.163 C 
HETATM   26  C27 UNL     1     -10.993  25.254  14.947  1.00  0.00     0.068 C 
HETATM   27  C28 UNL     1     -12.066  25.892  14.157  1.00  0.00     0.005 C 
HETATM   28  C29 UNL     1     -13.323  25.169  13.909  1.00  0.00     0.000 C 
HETATM   29  C30 UNL     1     -13.692  24.069  14.840  1.00  0.00     0.005 C 
HETATM   30  C31 UNL     1     -12.556  23.649  15.750  1.00  0.00     0.068 C 
BRANCH  25  31
HETATM   31  O2  UNL     1     -11.587  23.340  13.650  1.00  0.00    -0.360 OA
HETATM   32  C26 UNL     1     -11.040  22.090  13.383  1.00  0.00     0.205 C 
ENDBRANCH  25  31
ENDBRANCH  24  25
ENDBRANCH  23  24
ENDBRANCH  22  23
ENDBRANCH  21  22
ENDBRANCH  19  21
BRANCH  14  33
HETATM   33  C14 UNL     1      -0.127  27.549  10.225  1.00  0.00     0.268 C 
HETATM   34  C15 UNL     1       0.098  27.094   8.816  1.00  0.00     0.037 C 
ENDBRANCH  14  33
TORSDOF 7
ENDMDL
