MODEL 1
REMARK VINA RESULT: -8.490513092      0.000      0.000
REMARK  11 active torsions:
REMARK  status: ('A' for Active; 'I' for Inactive)
REMARK    1  A    between atoms: C5_6  and  C6_7 
REMARK    2  A    between atoms: C7_8  and  C8_9 
REMARK    3  A    between atoms: C8_9  and  O1_10 
REMARK    4  A    between atoms: C8_9  and  C9_12 
REMARK    5  A    between atoms: C9_12  and  O2_13 
REMARK    6  A    between atoms: C11_16  and  O3_17 
REMARK    7  A    between atoms: O3_17  and  C12_18 
REMARK    8  A    between atoms: C12_18  and  C13_20 
REMARK    9  A    between atoms: C13_20  and  C14_21 
REMARK   10  A    between atoms: C18_25  and  C19_26 
REMARK   11  A    between atoms: C19_26  and  O5_27 
ROOT
HETATM    1  C1  UNL     1      14.955  17.397   4.788  1.00  0.00     0.017 C 
HETATM    2  C2  UNL     1      15.405  17.327   6.020  1.00  0.00    -0.052 C 
HETATM    3  C3  UNL     1      16.406  18.354   6.337  1.00  0.00     0.112 C 
HETATM    4 CL1  UNL     1      16.684  19.548   5.081  1.00  0.00    -0.120 Cl
HETATM    5  C4  UNL     1      17.733  17.772   6.814  1.00  0.00     0.033 C 
HETATM    6  C5  UNL     1      18.117  16.595   6.019  1.00  0.00     0.017 C 
HETATM    7  C10 UNL     1      18.074  15.271   6.661  1.00  0.00     0.039 C 
HETATM    8  C11 UNL     1      18.648  15.144   8.035  1.00  0.00     0.160 C 
HETATM    9  C17 UNL     1      18.162  13.767   8.382  1.00  0.00     0.011 C 
HETATM   10  C18 UNL     1      17.107  13.455   7.685  1.00  0.00    -0.049 C 
HETATM   11  C20 UNL     1      16.758  14.608   6.805  1.00  0.00    -0.010 C 
HETATM   12  C21 UNL     1      16.292  13.974   5.507  1.00  0.00     0.021 C 
HETATM   13  C22 UNL     1      15.701  15.334   7.530  1.00  0.00     0.039 C 
HETATM   14  C23 UNL     1      14.802  16.255   6.802  1.00  0.00     0.113 C 
HETATM   15 CL2  UNL     1      13.505  15.375   5.925  1.00  0.00    -0.120 Cl
ENDROOT
BRANCH   6  16
HETATM   16  C6  UNL     1      19.461  16.793   5.424  1.00  0.00    -0.023 C 
HETATM   17  C7  UNL     1      20.000  17.975   5.161  1.00  0.00     0.003 C 
BRANCH  17  18
HETATM   18  C8  UNL     1      21.349  18.118   4.566  1.00  0.00     0.164 C 
BRANCH  18  19
HETATM   19  O1  UNL     1      22.067  19.188   5.134  1.00  0.00    -0.390 OA
ATOM     20  H1  UNL     1      23.006  19.055   5.082  1.00  0.00     0.210 HD
ENDBRANCH  18  19
BRANCH  18  21
HETATM   21  C9  UNL     1      22.205  16.890   4.773  1.00  0.00     0.199 C 
BRANCH  21  22
HETATM   22  O2  UNL     1      23.551  17.165   4.768  1.00  0.00    -0.398 OA
ATOM     23  H2  UNL     1      24.028  16.702   5.446  1.00  0.00     0.209 HD
ENDBRANCH  21  22
ENDBRANCH  18  21
ENDBRANCH  17  18
ENDBRANCH   6  16
BRANCH   8  24
HETATM   24  O3  UNL     1      20.008  15.290   8.190  1.00  0.00    -0.312 OA
BRANCH  24  25
HETATM   25  C12 UNL     1      20.551  16.277   8.978  1.00  0.00     0.259 C 
HETATM   26  O4  UNL     1      20.451  16.092  10.212  1.00  0.00    -0.265 OA
BRANCH  25  27
HETATM   27  C13 UNL     1      21.219  17.491   8.505  1.00  0.00     0.115 C 
BRANCH  27  28
HETATM   28  C14 UNL     1      20.728  18.739   9.207  1.00  0.00    -0.013 C 
HETATM   29  C15 UNL     1      21.651  19.917   8.974  1.00  0.00     0.010 C 
HETATM   30  C16 UNL     1      19.369  19.149   8.666  1.00  0.00     0.010 C 
ENDBRANCH  27  28
ENDBRANCH  25  27
ENDBRANCH  24  25
ENDBRANCH   8  24
BRANCH  10  31
HETATM   31  C19 UNL     1      16.373  12.148   7.785  1.00  0.00     0.199 C 
BRANCH  31  32
HETATM   32  O5  UNL     1      15.897  11.981   9.077  1.00  0.00    -0.397 OA
ATOM     33  H5  UNL     1      15.120  11.435   9.061  1.00  0.00     0.209 HD
ENDBRANCH  31  32
ENDBRANCH  10  31
TORSDOF 11
ENDMDL
MODEL 2
REMARK VINA RESULT: -8.450081447      1.899      4.673
REMARK  11 active torsions:
REMARK  status: ('A' for Active; 'I' for Inactive)
REMARK    1  A    between atoms: C5_6  and  C6_7 
REMARK    2  A    between atoms: C7_8  and  C8_9 
REMARK    3  A    between atoms: C8_9  and  O1_10 
REMARK    4  A    between atoms: C8_9  and  C9_12 
REMARK    5  A    between atoms: C9_12  and  O2_13 
REMARK    6  A    between atoms: C11_16  and  O3_17 
REMARK    7  A    between atoms: O3_17  and  C12_18 
REMARK    8  A    between atoms: C12_18  and  C13_20 
REMARK    9  A    between atoms: C13_20  and  C14_21 
REMARK   10  A    between atoms: C18_25  and  C19_26 
REMARK   11  A    between atoms: C19_26  and  O5_27 
ROOT
HETATM    1  C1  UNL     1      14.702  14.716   7.652  1.00  0.00     0.017 C 
HETATM    2  C2  UNL     1      15.509  14.720   6.616  1.00  0.00    -0.052 C 
HETATM    3  C3  UNL     1      16.603  13.745   6.722  1.00  0.00     0.112 C 
HETATM    4 CL1  UNL     1      16.529  12.679   8.115  1.00  0.00    -0.120 Cl
HETATM    5  C4  UNL     1      17.986  14.382   6.619  1.00  0.00     0.033 C 
HETATM    6  C5  UNL     1      18.052  15.643   7.372  1.00  0.00     0.017 C 
HETATM    7  C10 UNL     1      18.153  16.905   6.620  1.00  0.00     0.039 C 
HETATM    8  C11 UNL     1      19.119  16.962   5.481  1.00  0.00     0.160 C 
HETATM    9  C17 UNL     1      18.705  18.268   4.869  1.00  0.00     0.011 C 
HETATM   10  C18 UNL     1      17.473  18.558   5.176  1.00  0.00    -0.049 C 
HETATM   11  C20 UNL     1      16.919  17.457   6.017  1.00  0.00    -0.010 C 
HETATM   12  C21 UNL     1      16.045  18.158   7.041  1.00  0.00     0.021 C 
HETATM   13  C22 UNL     1      16.172  16.600   5.079  1.00  0.00     0.039 C 
HETATM   14  C23 UNL     1      15.133  15.678   5.585  1.00  0.00     0.113 C 
HETATM   15 CL2  UNL     1      13.590  16.530   5.933  1.00  0.00    -0.120 Cl
ENDROOT
BRANCH   6  16
HETATM   16  C6  UNL     1      19.152  15.591   8.366  1.00  0.00    -0.023 C 
HETATM   17  C7  UNL     1      19.577  14.485   8.959  1.00  0.00     0.003 C 
BRANCH  17  18
HETATM   18  C8  UNL     1      20.682  14.489   9.946  1.00  0.00     0.164 C 
BRANCH  18  19
HETATM   19  O1  UNL     1      21.850  13.891   9.433  1.00  0.00    -0.390 OA
ATOM     20  H1  UNL     1      22.126  13.145   9.952  1.00  0.00     0.210 HD
ENDBRANCH  18  19
BRANCH  18  21
HETATM   21  C9  UNL     1      21.081  15.886  10.363  1.00  0.00     0.199 C 
BRANCH  21  22
HETATM   22  O2  UNL     1      22.315  16.257   9.887  1.00  0.00    -0.398 OA
ATOM     23  H2  UNL     1      22.444  17.198   9.880  1.00  0.00     0.209 HD
ENDBRANCH  21  22
ENDBRANCH  18  21
ENDBRANCH  17  18
ENDBRANCH   6  16
BRANCH   8  24
HETATM   24  O3  UNL     1      20.464  16.903   5.764  1.00  0.00    -0.312 OA
BRANCH  24  25
HETATM   25  C12 UNL     1      21.262  18.023   5.756  1.00  0.00     0.259 C 
HETATM   26  O4  UNL     1      22.244  17.974   4.982  1.00  0.00    -0.265 OA
BRANCH  25  27
HETATM   27  C13 UNL     1      21.063  19.233   6.556  1.00  0.00     0.115 C 
BRANCH  27  28
HETATM   28  C14 UNL     1      20.995  18.948   8.041  1.00  0.00    -0.013 C 
HETATM   29  C15 UNL     1      21.801  19.948   8.844  1.00  0.00     0.010 C 
HETATM   30  C16 UNL     1      19.563  19.060   8.534  1.00  0.00     0.010 C 
ENDBRANCH  27  28
ENDBRANCH  25  27
ENDBRANCH  24  25
ENDBRANCH   8  24
BRANCH  10  31
HETATM   31  C19 UNL     1      16.749  19.796   4.728  1.00  0.00     0.199 C 
BRANCH  31  32
HETATM   32  O5  UNL     1      17.634  20.863   4.690  1.00  0.00    -0.397 OA
ATOM     33  H5  UNL     1      17.855  21.124   5.576  1.00  0.00     0.209 HD
ENDBRANCH  31  32
ENDBRANCH  10  31
TORSDOF 11
ENDMDL
MODEL 3
REMARK VINA RESULT: -8.148858890      1.930      5.417
REMARK  11 active torsions:
REMARK  status: ('A' for Active; 'I' for Inactive)
REMARK    1  A    between atoms: C5_6  and  C6_7 
REMARK    2  A    between atoms: C7_8  and  C8_9 
REMARK    3  A    between atoms: C8_9  and  O1_10 
REMARK    4  A    between atoms: C8_9  and  C9_12 
REMARK    5  A    between atoms: C9_12  and  O2_13 
REMARK    6  A    between atoms: C11_16  and  O3_17 
REMARK    7  A    between atoms: O3_17  and  C12_18 
REMARK    8  A    between atoms: C12_18  and  C13_20 
REMARK    9  A    between atoms: C13_20  and  C14_21 
REMARK   10  A    between atoms: C18_25  and  C19_26 
REMARK   11  A    between atoms: C19_26  and  O5_27 
ROOT
HETATM    1  C1  UNL     1      12.987  16.894   5.910  1.00  0.00     0.017 C 
HETATM    2  C2  UNL     1      14.048  16.578   5.203  1.00  0.00    -0.052 C 
HETATM    3  C3  UNL     1      14.208  15.132   5.000  1.00  0.00     0.112 C 
HETATM    4 CL1  UNL     1      12.891  14.137   5.599  1.00  0.00    -0.120 Cl
HETATM    5  C4  UNL     1      15.544  14.599   5.509  1.00  0.00     0.033 C 
HETATM    6  C5  UNL     1      15.903  15.202   6.802  1.00  0.00     0.017 C 
HETATM    7  C10 UNL     1      17.029  16.150   6.844  1.00  0.00     0.039 C 
HETATM    8  C11 UNL     1      18.277  15.782   6.110  1.00  0.00     0.160 C 
HETATM    9  C17 UNL     1      19.009  17.090   6.192  1.00  0.00     0.011 C 
HETATM   10  C18 UNL     1      18.179  18.080   6.360  1.00  0.00    -0.049 C 
HETATM   11  C20 UNL     1      16.789  17.538   6.387  1.00  0.00    -0.010 C 
HETATM   12  C21 UNL     1      16.073  18.370   7.435  1.00  0.00     0.021 C 
HETATM   13  C22 UNL     1      16.279  17.730   5.018  1.00  0.00     0.039 C 
HETATM   14  C23 UNL     1      14.822  17.732   4.765  1.00  0.00     0.113 C 
HETATM   15 CL2  UNL     1      14.067  19.303   5.196  1.00  0.00    -0.120 Cl
ENDROOT
BRANCH   6  16
HETATM   16  C6  UNL     1      16.132  14.145   7.816  1.00  0.00    -0.023 C 
HETATM   17  C7  UNL     1      16.298  12.860   7.538  1.00  0.00     0.003 C 
BRANCH  17  18
HETATM   18  C8  UNL     1      16.524  11.843   8.591  1.00  0.00     0.164 C 
BRANCH  18  19
HETATM   19  O1  UNL     1      15.920  12.203   9.812  1.00  0.00    -0.390 OA
ATOM     20  H1  UNL     1      15.939  11.493  10.443  1.00  0.00     0.210 HD
ENDBRANCH  18  19
BRANCH  18  21
HETATM   21  C9  UNL     1      15.945  10.495   8.227  1.00  0.00     0.199 C 
BRANCH  21  22
HETATM   22  O2  UNL     1      14.808  10.588   7.460  1.00  0.00    -0.398 OA
ATOM     23  H2  UNL     1      14.175   9.904   7.647  1.00  0.00     0.209 HD
ENDBRANCH  21  22
ENDBRANCH  18  21
ENDBRANCH  17  18
ENDBRANCH   6  16
BRANCH   8  24
HETATM   24  O3  UNL     1      19.019  14.720   6.575  1.00  0.00    -0.312 OA
BRANCH  24  25
HETATM   25  C12 UNL     1      19.682  14.765   7.779  1.00  0.00     0.259 C 
HETATM   26  O4  UNL     1      19.345  13.889   8.608  1.00  0.00    -0.265 OA
BRANCH  25  27
HETATM   27  C13 UNL     1      20.720  15.724   8.160  1.00  0.00     0.115 C 
BRANCH  27  28
HETATM   28  C14 UNL     1      20.368  16.502   9.409  1.00  0.00    -0.013 C 
HETATM   29  C15 UNL     1      21.105  15.979  10.625  1.00  0.00     0.010 C 
HETATM   30  C16 UNL     1      20.776  17.957   9.257  1.00  0.00     0.010 C 
ENDBRANCH  27  28
ENDBRANCH  25  27
ENDBRANCH  24  25
ENDBRANCH   8  24
BRANCH  10  31
HETATM   31  C19 UNL     1      18.582  19.521   6.485  1.00  0.00     0.199 C 
BRANCH  31  32
HETATM   32  O5  UNL     1      18.983  20.000   5.246  1.00  0.00    -0.397 OA
ATOM     33  H5  UNL     1      18.266  20.473   4.841  1.00  0.00     0.209 HD
ENDBRANCH  31  32
ENDBRANCH  10  31
TORSDOF 11
ENDMDL
MODEL 4
REMARK VINA RESULT: -8.079477370      2.926      4.611
REMARK  11 active torsions:
REMARK  status: ('A' for Active; 'I' for Inactive)
REMARK    1  A    between atoms: C5_6  and  C6_7 
REMARK    2  A    between atoms: C7_8  and  C8_9 
REMARK    3  A    between atoms: C8_9  and  O1_10 
REMARK    4  A    between atoms: C8_9  and  C9_12 
REMARK    5  A    between atoms: C9_12  and  O2_13 
REMARK    6  A    between atoms: C11_16  and  O3_17 
REMARK    7  A    between atoms: O3_17  and  C12_18 
REMARK    8  A    between atoms: C12_18  and  C13_20 
REMARK    9  A    between atoms: C13_20  and  C14_21 
REMARK   10  A    between atoms: C18_25  and  C19_26 
REMARK   11  A    between atoms: C19_26  and  O5_27 
ROOT
HETATM    1  C1  UNL     1      12.015  16.167   5.788  1.00  0.00     0.017 C 
HETATM    2  C2  UNL     1      12.828  16.750   6.638  1.00  0.00    -0.052 C 
HETATM    3  C3  UNL     1      12.738  18.216   6.623  1.00  0.00     0.112 C 
HETATM    4 CL1  UNL     1      11.474  18.882   5.602  1.00  0.00    -0.120 Cl
HETATM    5  C4  UNL     1      14.070  18.897   6.323  1.00  0.00     0.033 C 
HETATM    6  C5  UNL     1      14.800  18.196   5.255  1.00  0.00     0.017 C 
HETATM    7  C10 UNL     1      16.024  17.457   5.611  1.00  0.00     0.039 C 
HETATM    8  C11 UNL     1      17.003  18.127   6.518  1.00  0.00     0.160 C 
HETATM    9  C17 UNL     1      17.905  16.965   6.813  1.00  0.00     0.011 C 
HETATM   10  C18 UNL     1      17.280  15.834   6.644  1.00  0.00    -0.049 C 
HETATM   11  C20 UNL     1      15.875  16.123   6.235  1.00  0.00    -0.010 C 
HETATM   12  C21 UNL     1      15.543  15.048   5.216  1.00  0.00     0.021 C 
HETATM   13  C22 UNL     1      15.090  16.031   7.479  1.00  0.00     0.039 C 
HETATM   14  C23 UNL     1      13.628  15.815   7.417  1.00  0.00     0.113 C 
HETATM   15 CL2  UNL     1      13.216  14.095   7.108  1.00  0.00    -0.120 Cl
ENDROOT
BRANCH   6  16
HETATM   16  C6  UNL     1      15.113  19.131   4.148  1.00  0.00    -0.023 C 
HETATM   17  C7  UNL     1      14.894  20.438   4.183  1.00  0.00     0.003 C 
BRANCH  17  18
HETATM   18  C8  UNL     1      15.226  21.329   3.047  1.00  0.00     0.164 C 
BRANCH  18  19
HETATM   19  O1  UNL     1      14.143  22.159   2.693  1.00  0.00    -0.390 OA
ATOM     20  H1  UNL     1      13.411  21.662   2.349  1.00  0.00     0.210 HD
ENDBRANCH  18  19
BRANCH  18  21
HETATM   21  C9  UNL     1      16.375  22.259   3.359  1.00  0.00     0.199 C 
BRANCH  21  22
HETATM   22  O2  UNL     1      17.319  21.692   4.181  1.00  0.00    -0.398 OA
ATOM     23  H2  UNL     1      18.148  22.155   4.172  1.00  0.00     0.209 HD
ENDBRANCH  21  22
ENDBRANCH  18  21
ENDBRANCH  17  18
ENDBRANCH   6  16
BRANCH   8  24
HETATM   24  O3  UNL     1      17.681  19.228   6.046  1.00  0.00    -0.312 OA
BRANCH  24  25
HETATM   25  C12 UNL     1      19.053  19.259   5.959  1.00  0.00     0.259 C 
HETATM   26  O4  UNL     1      19.637  19.833   6.905  1.00  0.00    -0.265 OA
BRANCH  25  27
HETATM   27  C13 UNL     1      19.864  18.690   4.880  1.00  0.00     0.115 C 
BRANCH  27  28
HETATM   28  C14 UNL     1      21.289  18.409   5.306  1.00  0.00    -0.013 C 
HETATM   29  C15 UNL     1      21.762  17.051   4.830  1.00  0.00     0.010 C 
HETATM   30  C16 UNL     1      22.234  19.428   4.693  1.00  0.00     0.010 C 
ENDBRANCH  27  28
ENDBRANCH  25  27
ENDBRANCH  24  25
ENDBRANCH   8  24
BRANCH  10  31
HETATM   31  C19 UNL     1      17.894  14.479   6.852  1.00  0.00     0.199 C 
BRANCH  31  32
HETATM   32  O5  UNL     1      19.225  14.623   7.214  1.00  0.00    -0.397 OA
ATOM     33  H5  UNL     1      19.779  14.222   6.556  1.00  0.00     0.209 HD
ENDBRANCH  31  32
ENDBRANCH  10  31
TORSDOF 11
ENDMDL
MODEL 5
REMARK VINA RESULT: -8.059339869      2.783      4.224
REMARK  11 active torsions:
REMARK  status: ('A' for Active; 'I' for Inactive)
REMARK    1  A    between atoms: C5_6  and  C6_7 
REMARK    2  A    between atoms: C7_8  and  C8_9 
REMARK    3  A    between atoms: C8_9  and  O1_10 
REMARK    4  A    between atoms: C8_9  and  C9_12 
REMARK    5  A    between atoms: C9_12  and  O2_13 
REMARK    6  A    between atoms: C11_16  and  O3_17 
REMARK    7  A    between atoms: O3_17  and  C12_18 
REMARK    8  A    between atoms: C12_18  and  C13_20 
REMARK    9  A    between atoms: C13_20  and  C14_21 
REMARK   10  A    between atoms: C18_25  and  C19_26 
REMARK   11  A    between atoms: C19_26  and  O5_27 
ROOT
HETATM    1  C1  UNL     1      12.038  15.721   6.190  1.00  0.00     0.017 C 
HETATM    2  C2  UNL     1      12.910  16.303   6.980  1.00  0.00    -0.052 C 
HETATM    3  C3  UNL     1      12.829  17.769   6.963  1.00  0.00     0.112 C 
HETATM    4 CL1  UNL     1      11.504  18.440   6.027  1.00  0.00    -0.120 Cl
HETATM    5  C4  UNL     1      14.143  18.438   6.571  1.00  0.00     0.033 C 
HETATM    6  C5  UNL     1      14.794  17.727   5.460  1.00  0.00     0.017 C 
HETATM    7  C10 UNL     1      16.034  16.981   5.736  1.00  0.00     0.039 C 
HETATM    8  C11 UNL     1      17.077  17.648   6.571  1.00  0.00     0.160 C 
HETATM    9  C17 UNL     1      17.989  16.480   6.810  1.00  0.00     0.011 C 
HETATM   10  C18 UNL     1      17.346  15.354   6.690  1.00  0.00    -0.049 C 
HETATM   11  C20 UNL     1      15.918  15.650   6.375  1.00  0.00    -0.010 C 
HETATM   12  C21 UNL     1      15.510  14.573   5.387  1.00  0.00     0.021 C 
HETATM   13  C22 UNL     1      15.218  15.571   7.670  1.00  0.00     0.039 C 
HETATM   14  C23 UNL     1      13.755  15.365   7.708  1.00  0.00     0.113 C 
HETATM   15 CL2  UNL     1      13.310  13.647   7.437  1.00  0.00    -0.120 Cl
ENDROOT
BRANCH   6  16
HETATM   16  C6  UNL     1      15.039  18.655   4.328  1.00  0.00    -0.023 C 
HETATM   17  C7  UNL     1      14.885  19.970   4.389  1.00  0.00     0.003 C 
BRANCH  17  18
HETATM   18  C8  UNL     1      15.143  20.853   3.227  1.00  0.00     0.164 C 
BRANCH  18  19
HETATM   19  O1  UNL     1      14.055  21.709   2.963  1.00  0.00    -0.390 OA
ATOM     20  H1  UNL     1      14.163  22.558   3.375  1.00  0.00     0.210 HD
ENDBRANCH  18  19
BRANCH  18  21
HETATM   21  C9  UNL     1      16.337  21.754   3.440  1.00  0.00     0.199 C 
BRANCH  21  22
HETATM   22  O2  UNL     1      17.253  21.234   4.322  1.00  0.00    -0.398 OA
ATOM     23  H2  UNL     1      18.142  21.521   4.149  1.00  0.00     0.209 HD
ENDBRANCH  21  22
ENDBRANCH  18  21
ENDBRANCH  17  18
ENDBRANCH   6  16
BRANCH   8  24
HETATM   24  O3  UNL     1      17.730  18.741   6.048  1.00  0.00    -0.312 OA
BRANCH  24  25
HETATM   25  C12 UNL     1      18.845  19.280   6.645  1.00  0.00     0.259 C 
HETATM   26  O4  UNL     1      19.586  19.948   5.888  1.00  0.00    -0.265 OA
BRANCH  25  27
HETATM   27  C13 UNL     1      19.226  19.142   8.052  1.00  0.00     0.115 C 
BRANCH  27  28
HETATM   28  C14 UNL     1      20.659  18.688   8.228  1.00  0.00    -0.013 C 
HETATM   29  C15 UNL     1      21.525  19.775   8.830  1.00  0.00     0.010 C 
HETATM   30  C16 UNL     1      20.725  17.511   9.186  1.00  0.00     0.010 C 
ENDBRANCH  27  28
ENDBRANCH  25  27
ENDBRANCH  24  25
ENDBRANCH   8  24
BRANCH  10  31
HETATM   31  C19 UNL     1      17.963  13.995   6.863  1.00  0.00     0.199 C 
BRANCH  31  32
HETATM   32  O5  UNL     1      18.771  13.992   7.990  1.00  0.00    -0.397 OA
ATOM     33  H5  UNL     1      19.046  13.104   8.182  1.00  0.00     0.209 HD
ENDBRANCH  31  32
ENDBRANCH  10  31
TORSDOF 11
ENDMDL
