MODEL 1
REMARK VINA RESULT: -9.363971985      0.000      0.000
REMARK  9 active torsions:
REMARK  status: ('A' for Active; 'I' for Inactive)
REMARK    1  A    between atoms: C2_2  and  C4_4 
REMARK    2  A    between atoms: C4_4  and  C5_5 
REMARK    3  A    between atoms: C5_5  and  O2_7 
REMARK    4  A    between atoms: O2_7  and  C6_8 
REMARK    5  A    between atoms: C8_10  and  C9_11 
REMARK    6  A    between atoms: C9_11  and  C10_12 
REMARK    7  A    between atoms: C10_12  and  O3_13 
REMARK    8  A    between atoms: O3_13  and  C11_14 
REMARK       I    between atoms: C11_14  and  N1_16 
REMARK    9  A    between atoms: C15_26  and  O8_27 
ROOT
HETATM    1  C6  UNL     1     -19.711   2.819   3.443  1.00  0.00     0.146 C 
HETATM    2  C7  UNL     1     -18.324   2.448   2.996  1.00  0.00     0.065 C 
HETATM    3  C8  UNL     1     -17.383   3.626   3.217  1.00  0.00     0.129 C 
HETATM    4  O5  UNL     1     -18.040   4.770   3.141  1.00  0.00    -0.351 OA
HETATM    5  C13 UNL     1     -18.663   5.209   2.033  1.00  0.00     0.301 C 
HETATM    6  O6  UNL     1     -19.098   6.521   2.389  1.00  0.00    -0.283 OA
HETATM    7  C14 UNL     1     -19.351   7.716   1.741  1.00  0.00     0.291 C 
HETATM    8  O7  UNL     1     -19.347   8.766   2.419  1.00  0.00    -0.262 OA
HETATM    9  C15 UNL     1     -19.638   7.930   0.301  1.00  0.00     0.229 C 
HETATM   10  C16 UNL     1     -21.033   7.362   0.095  1.00  0.00     0.005 C 
HETATM   11  C17 UNL     1     -21.961   7.824   1.228  1.00  0.00     0.022 C 
HETATM   12  C18 UNL     1     -21.566   8.120  -1.136  1.00  0.00     0.022 C 
HETATM   13  C19 UNL     1     -21.100   5.941  -0.161  1.00  0.00    -0.014 C 
HETATM   14  C20 UNL     1     -20.558   4.859   0.391  1.00  0.00     0.005 C 
HETATM   15  C21 UNL     1     -19.685   4.342   1.427  1.00  0.00    -0.015 C 
HETATM   16  C22 UNL     1     -20.510   3.522   2.393  1.00  0.00     0.007 C 
HETATM   17  C23 UNL     1     -21.375   2.571   1.582  1.00  0.00     0.022 C 
HETATM   18  C24 UNL     1     -21.471   4.450   3.106  1.00  0.00     0.022 C 
ENDROOT
BRANCH   3  19
HETATM   19  C9  UNL     1     -16.171   3.442   2.343  1.00  0.00     0.059 C 
BRANCH  19  20
HETATM   20  C10 UNL     1     -15.168   4.532   2.502  1.00  0.00     0.183 C 
BRANCH  20  21
HETATM   21  O3  UNL     1     -14.866   5.245   1.329  1.00  0.00    -0.304 OA
BRANCH  21  22
HETATM   22  C11 UNL     1     -14.135   6.412   1.260  1.00  0.00     0.366 C 
HETATM   23  O4  UNL     1     -12.885   6.357   1.376  1.00  0.00    -0.238 OA
HETATM   24  N1  UNL     1     -14.719   7.694   1.063  1.00  0.00    -0.279 N 
HETATM   25  C12 UNL     1     -15.730   7.747   0.248  1.00  0.00     0.205 C 
ATOM     26  H1  UNL     1     -14.364   8.525   1.535  1.00  0.00     0.173 HD
HETATM   27  N2  UNL     1     -16.324   9.009   0.040  1.00  0.00    -0.066 NA
HETATM   28  N3  UNL     1     -16.254   6.624  -0.424  1.00  0.00    -0.066 NA
ENDBRANCH  21  22
ENDBRANCH  20  21
ENDBRANCH  19  20
ENDBRANCH   3  19
BRANCH   1  29
HETATM   29  O2  UNL     1     -20.448   1.758   3.971  1.00  0.00    -0.315 OA
BRANCH  29  30
HETATM   30  C5  UNL     1     -19.994   0.512   4.275  1.00  0.00     0.259 C 
HETATM   31  O1  UNL     1     -19.347   0.407   5.358  1.00  0.00    -0.265 OA
BRANCH  30  32
HETATM   32  C4  UNL     1     -20.209  -0.693   3.435  1.00  0.00     0.115 C 
BRANCH  32  33
HETATM   33  C2  UNL     1     -19.647  -0.560   2.060  1.00  0.00    -0.013 C 
HETATM   34  C1  UNL     1     -20.521  -1.361   1.118  1.00  0.00     0.010 C 
HETATM   35  C3  UNL     1     -18.260  -1.165   1.997  1.00  0.00     0.010 C 
ENDBRANCH  32  33
ENDBRANCH  30  32
ENDBRANCH  29  30
ENDBRANCH   1  29
BRANCH   9  36
HETATM   36  O8  UNL     1     -19.555   9.266   0.003  1.00  0.00    -0.385 OA
ATOM     37  H8  UNL     1     -20.427   9.626  -0.112  1.00  0.00     0.210 HD
ENDBRANCH   9  36
TORSDOF 9
ENDMDL
MODEL 2
REMARK VINA RESULT: -9.356220000      2.484      3.035
REMARK  9 active torsions:
REMARK  status: ('A' for Active; 'I' for Inactive)
REMARK    1  A    between atoms: C2_2  and  C4_4 
REMARK    2  A    between atoms: C4_4  and  C5_5 
REMARK    3  A    between atoms: C5_5  and  O2_7 
REMARK    4  A    between atoms: O2_7  and  C6_8 
REMARK    5  A    between atoms: C8_10  and  C9_11 
REMARK    6  A    between atoms: C9_11  and  C10_12 
REMARK    7  A    between atoms: C10_12  and  O3_13 
REMARK    8  A    between atoms: O3_13  and  C11_14 
REMARK       I    between atoms: C11_14  and  N1_16 
REMARK    9  A    between atoms: C15_26  and  O8_27 
ROOT
HETATM    1  C6  UNL     1     -19.502   3.367   2.893  1.00  0.00     0.146 C 
HETATM    2  C7  UNL     1     -18.040   3.091   2.672  1.00  0.00     0.065 C 
HETATM    3  C8  UNL     1     -17.210   4.211   3.287  1.00  0.00     0.129 C 
HETATM    4  O5  UNL     1     -17.886   5.346   3.290  1.00  0.00    -0.351 OA
HETATM    5  C13 UNL     1     -18.298   5.981   2.178  1.00  0.00     0.301 C 
HETATM    6  O6  UNL     1     -18.848   7.202   2.672  1.00  0.00    -0.283 OA
HETATM    7  C14 UNL     1     -19.019   8.496   2.215  1.00  0.00     0.291 C 
HETATM    8  O7  UNL     1     -19.191   9.401   3.059  1.00  0.00    -0.262 OA
HETATM    9  C15 UNL     1     -19.027   8.973   0.810  1.00  0.00     0.229 C 
HETATM   10  C16 UNL     1     -20.330   8.447   0.230  1.00  0.00     0.005 C 
HETATM   11  C17 UNL     1     -21.480   8.686   1.219  1.00  0.00     0.022 C 
HETATM   12  C18 UNL     1     -20.644   9.419  -0.924  1.00  0.00     0.022 C 
HETATM   13  C19 UNL     1     -20.287   7.098  -0.288  1.00  0.00    -0.014 C 
HETATM   14  C20 UNL     1     -19.819   5.934   0.155  1.00  0.00     0.005 C 
HETATM   15  C21 UNL     1     -19.145   5.238   1.233  1.00  0.00    -0.015 C 
HETATM   16  C22 UNL     1     -20.108   4.248   1.850  1.00  0.00     0.007 C 
HETATM   17  C23 UNL     1     -20.759   3.461   0.724  1.00  0.00     0.022 C 
HETATM   18  C24 UNL     1     -21.228   5.024   2.513  1.00  0.00     0.022 C 
ENDROOT
BRANCH   3  19
HETATM   19  C9  UNL     1     -15.844   4.198   2.654  1.00  0.00     0.059 C 
BRANCH  19  20
HETATM   20  C10 UNL     1     -15.365   2.825   2.332  1.00  0.00     0.183 C 
BRANCH  20  21
HETATM   21  O3  UNL     1     -14.016   2.574   2.636  1.00  0.00    -0.304 OA
BRANCH  21  22
HETATM   22  C11 UNL     1     -13.283   1.484   2.214  1.00  0.00     0.366 C 
HETATM   23  O4  UNL     1     -13.888   0.478   1.766  1.00  0.00    -0.238 OA
HETATM   24  N1  UNL     1     -11.863   1.429   2.257  1.00  0.00    -0.279 N 
HETATM   25  C12 UNL     1     -11.235   2.531   1.973  1.00  0.00     0.205 C 
ATOM     26  H1  UNL     1     -11.365   0.572   2.497  1.00  0.00     0.173 HD
HETATM   27  N2  UNL     1      -9.825   2.497   2.010  1.00  0.00    -0.066 NA
HETATM   28  N3  UNL     1     -11.883   3.738   1.638  1.00  0.00    -0.066 NA
ENDBRANCH  21  22
ENDBRANCH  20  21
ENDBRANCH  19  20
ENDBRANCH   3  19
BRANCH   1  29
HETATM   29  O2  UNL     1     -20.283   2.223   3.062  1.00  0.00    -0.315 OA
BRANCH  29  30
HETATM   30  C5  UNL     1     -20.095   1.223   3.966  1.00  0.00     0.259 C 
HETATM   31  O1  UNL     1     -20.398   1.497   5.165  1.00  0.00    -0.265 OA
BRANCH  30  32
HETATM   32  C4  UNL     1     -19.572  -0.126   3.637  1.00  0.00     0.115 C 
BRANCH  32  33
HETATM   33  C2  UNL     1     -19.300  -0.314   2.183  1.00  0.00    -0.013 C 
HETATM   34  C1  UNL     1     -20.439  -1.119   1.594  1.00  0.00     0.010 C 
HETATM   35  C3  UNL     1     -18.037  -1.125   1.983  1.00  0.00     0.010 C 
ENDBRANCH  32  33
ENDBRANCH  30  32
ENDBRANCH  29  30
ENDBRANCH   1  29
BRANCH   9  36
HETATM   36  O8  UNL     1     -18.943  10.341   0.781  1.00  0.00    -0.385 OA
ATOM     37  H8  UNL     1     -19.712  10.703   0.357  1.00  0.00     0.210 HD
ENDBRANCH   9  36
TORSDOF 9
ENDMDL
MODEL 3
REMARK VINA RESULT: -9.323102469      1.793      2.102
REMARK  9 active torsions:
REMARK  status: ('A' for Active; 'I' for Inactive)
REMARK    1  A    between atoms: C2_2  and  C4_4 
REMARK    2  A    between atoms: C4_4  and  C5_5 
REMARK    3  A    between atoms: C5_5  and  O2_7 
REMARK    4  A    between atoms: O2_7  and  C6_8 
REMARK    5  A    between atoms: C8_10  and  C9_11 
REMARK    6  A    between atoms: C9_11  and  C10_12 
REMARK    7  A    between atoms: C10_12  and  O3_13 
REMARK    8  A    between atoms: O3_13  and  C11_14 
REMARK       I    between atoms: C11_14  and  N1_16 
REMARK    9  A    between atoms: C15_26  and  O8_27 
ROOT
HETATM    1  C6  UNL     1     -19.404   3.389   2.936  1.00  0.00     0.146 C 
HETATM    2  C7  UNL     1     -17.942   3.144   2.680  1.00  0.00     0.065 C 
HETATM    3  C8  UNL     1     -17.123   4.292   3.258  1.00  0.00     0.129 C 
HETATM    4  O5  UNL     1     -17.825   5.411   3.263  1.00  0.00    -0.351 OA
HETATM    5  C13 UNL     1     -18.280   6.020   2.155  1.00  0.00     0.301 C 
HETATM    6  O6  UNL     1     -18.845   7.236   2.646  1.00  0.00    -0.283 OA
HETATM    7  C14 UNL     1     -19.058   8.518   2.176  1.00  0.00     0.291 C 
HETATM    8  O7  UNL     1     -19.229   9.431   3.013  1.00  0.00    -0.262 OA
HETATM    9  C15 UNL     1     -19.115   8.975   0.766  1.00  0.00     0.229 C 
HETATM   10  C16 UNL     1     -20.421   8.412   0.228  1.00  0.00     0.005 C 
HETATM   11  C17 UNL     1     -21.549   8.638   1.244  1.00  0.00     0.022 C 
HETATM   12  C18 UNL     1     -20.787   9.359  -0.931  1.00  0.00     0.022 C 
HETATM   13  C19 UNL     1     -20.360   7.057  -0.273  1.00  0.00    -0.014 C 
HETATM   14  C20 UNL     1     -19.853   5.910   0.173  1.00  0.00     0.005 C 
HETATM   15  C21 UNL     1     -19.134   5.244   1.243  1.00  0.00    -0.015 C 
HETATM   16  C22 UNL     1     -20.058   4.242   1.898  1.00  0.00     0.007 C 
HETATM   17  C23 UNL     1     -20.719   3.424   0.801  1.00  0.00     0.022 C 
HETATM   18  C24 UNL     1     -21.177   5.001   2.580  1.00  0.00     0.022 C 
ENDROOT
BRANCH   3  19
HETATM   19  C9  UNL     1     -15.774   4.301   2.588  1.00  0.00     0.059 C 
BRANCH  19  20
HETATM   20  C10 UNL     1     -15.158   2.948   2.500  1.00  0.00     0.183 C 
BRANCH  20  21
HETATM   21  O3  UNL     1     -14.120   2.821   1.562  1.00  0.00    -0.304 OA
BRANCH  21  22
HETATM   22  C11 UNL     1     -12.771   2.904   1.836  1.00  0.00     0.366 C 
HETATM   23  O4  UNL     1     -12.118   1.845   2.016  1.00  0.00    -0.238 OA
HETATM   24  N1  UNL     1     -12.062   4.134   1.931  1.00  0.00    -0.279 N 
HETATM   25  C12 UNL     1     -12.409   5.063   1.091  1.00  0.00     0.205 C 
ATOM     26  H1  UNL     1     -11.323   4.277   2.618  1.00  0.00     0.173 HD
HETATM   27  N2  UNL     1     -11.718   6.290   1.168  1.00  0.00    -0.066 NA
HETATM   28  N3  UNL     1     -13.425   4.908   0.125  1.00  0.00    -0.066 NA
ENDBRANCH  21  22
ENDBRANCH  20  21
ENDBRANCH  19  20
ENDBRANCH   3  19
BRANCH   1  29
HETATM   29  O2  UNL     1     -20.153   2.231   3.142  1.00  0.00    -0.315 OA
BRANCH  29  30
HETATM   30  C5  UNL     1     -19.893   1.227   4.024  1.00  0.00     0.259 C 
HETATM   31  O1  UNL     1     -20.371   1.376   5.187  1.00  0.00    -0.265 OA
BRANCH  30  32
HETATM   32  C4  UNL     1     -19.108   0.008   3.709  1.00  0.00     0.115 C 
BRANCH  32  33
HETATM   33  C2  UNL     1     -19.109  -0.335   2.258  1.00  0.00    -0.013 C 
HETATM   34  C1  UNL     1     -20.332  -1.184   1.980  1.00  0.00     0.010 C 
HETATM   35  C3  UNL     1     -17.899  -1.178   1.916  1.00  0.00     0.010 C 
ENDBRANCH  32  33
ENDBRANCH  30  32
ENDBRANCH  29  30
ENDBRANCH   1  29
BRANCH   9  36
HETATM   36  O8  UNL     1     -19.063  10.344   0.716  1.00  0.00    -0.385 OA
ATOM     37  H8  UNL     1     -19.655  10.666   0.046  1.00  0.00     0.210 HD
ENDBRANCH   9  36
TORSDOF 9
ENDMDL
MODEL 4
REMARK VINA RESULT: -9.240289446      2.518      3.081
REMARK  9 active torsions:
REMARK  status: ('A' for Active; 'I' for Inactive)
REMARK    1  A    between atoms: C2_2  and  C4_4 
REMARK    2  A    between atoms: C4_4  and  C5_5 
REMARK    3  A    between atoms: C5_5  and  O2_7 
REMARK    4  A    between atoms: O2_7  and  C6_8 
REMARK    5  A    between atoms: C8_10  and  C9_11 
REMARK    6  A    between atoms: C9_11  and  C10_12 
REMARK    7  A    between atoms: C10_12  and  O3_13 
REMARK    8  A    between atoms: O3_13  and  C11_14 
REMARK       I    between atoms: C11_14  and  N1_16 
REMARK    9  A    between atoms: C15_26  and  O8_27 
ROOT
HETATM    1  C6  UNL     1     -19.676   3.749   2.579  1.00  0.00     0.146 C 
HETATM    2  C7  UNL     1     -18.179   3.769   2.436  1.00  0.00     0.065 C 
HETATM    3  C8  UNL     1     -17.624   5.047   3.052  1.00  0.00     0.129 C 
HETATM    4  O5  UNL     1     -18.513   6.022   2.986  1.00  0.00    -0.351 OA
HETATM    5  C13 UNL     1     -18.984   6.536   1.836  1.00  0.00     0.301 C 
HETATM    6  O6  UNL     1     -19.793   7.632   2.262  1.00  0.00    -0.283 OA
HETATM    7  C14 UNL     1     -20.195   8.854   1.755  1.00  0.00     0.291 C 
HETATM    8  O7  UNL     1     -20.589   9.725   2.560  1.00  0.00    -0.262 OA
HETATM    9  C15 UNL     1     -20.224   9.287   0.336  1.00  0.00     0.229 C 
HETATM   10  C16 UNL     1     -21.363   8.496  -0.287  1.00  0.00     0.005 C 
HETATM   11  C17 UNL     1     -22.588   8.521   0.639  1.00  0.00     0.022 C 
HETATM   12  C18 UNL     1     -21.803   9.358  -1.486  1.00  0.00     0.022 C 
HETATM   13  C19 UNL     1     -21.024   7.172  -0.758  1.00  0.00    -0.014 C 
HETATM   14  C20 UNL     1     -20.356   6.137  -0.255  1.00  0.00     0.005 C 
HETATM   15  C21 UNL     1     -19.614   5.615   0.877  1.00  0.00    -0.015 C 
HETATM   16  C22 UNL     1     -20.391   4.467   1.480  1.00  0.00     0.007 C 
HETATM   17  C23 UNL     1     -20.810   3.539   0.351  1.00  0.00     0.022 C 
HETATM   18  C24 UNL     1     -21.676   5.016   2.063  1.00  0.00     0.022 C 
ENDROOT
BRANCH   3  19
HETATM   19  C9  UNL     1     -16.252   5.296   2.485  1.00  0.00     0.059 C 
BRANCH  19  20
HETATM   20  C10 UNL     1     -15.668   4.094   1.826  1.00  0.00     0.183 C 
BRANCH  20  21
HETATM   21  O3  UNL     1     -14.776   3.350   2.616  1.00  0.00    -0.304 OA
BRANCH  21  22
HETATM   22  C11 UNL     1     -13.685   2.644   2.154  1.00  0.00     0.366 C 
HETATM   23  O4  UNL     1     -12.551   3.185   2.184  1.00  0.00    -0.238 OA
HETATM   24  N1  UNL     1     -13.766   1.322   1.636  1.00  0.00    -0.279 N 
HETATM   25  C12 UNL     1     -14.602   0.522   2.229  1.00  0.00     0.205 C 
ATOM     26  H1  UNL     1     -13.201   1.019   0.843  1.00  0.00     0.173 HD
HETATM   27  N2  UNL     1     -14.698  -0.793   1.730  1.00  0.00    -0.066 NA
HETATM   28  N3  UNL     1     -15.404   0.900   3.326  1.00  0.00    -0.066 NA
ENDBRANCH  21  22
ENDBRANCH  20  21
ENDBRANCH  19  20
ENDBRANCH   3  19
BRANCH   1  29
HETATM   29  O2  UNL     1     -20.221   2.476   2.748  1.00  0.00    -0.315 OA
BRANCH  29  30
HETATM   30  C5  UNL     1     -19.927   1.579   3.728  1.00  0.00     0.259 C 
HETATM   31  O1  UNL     1     -20.449   1.805   4.860  1.00  0.00    -0.265 OA
BRANCH  30  32
HETATM   32  C4  UNL     1     -19.058   0.389   3.552  1.00  0.00     0.115 C 
BRANCH  32  33
HETATM   33  C2  UNL     1     -19.262  -0.301   2.246  1.00  0.00    -0.013 C 
HETATM   34  C1  UNL     1     -20.473  -1.200   2.376  1.00  0.00     0.010 C 
HETATM   35  C3  UNL     1     -18.080  -1.195   1.932  1.00  0.00     0.010 C 
ENDBRANCH  32  33
ENDBRANCH  30  32
ENDBRANCH  29  30
ENDBRANCH   1  29
BRANCH   9  36
HETATM   36  O8  UNL     1     -20.414  10.643   0.266  1.00  0.00    -0.385 OA
ATOM     37  H8  UNL     1     -20.251  10.947  -0.619  1.00  0.00     0.210 HD
ENDBRANCH   9  36
TORSDOF 9
ENDMDL
MODEL 5
REMARK VINA RESULT: -9.239140597      1.108      1.208
REMARK  9 active torsions:
REMARK  status: ('A' for Active; 'I' for Inactive)
REMARK    1  A    between atoms: C2_2  and  C4_4 
REMARK    2  A    between atoms: C4_4  and  C5_5 
REMARK    3  A    between atoms: C5_5  and  O2_7 
REMARK    4  A    between atoms: O2_7  and  C6_8 
REMARK    5  A    between atoms: C8_10  and  C9_11 
REMARK    6  A    between atoms: C9_11  and  C10_12 
REMARK    7  A    between atoms: C10_12  and  O3_13 
REMARK    8  A    between atoms: O3_13  and  C11_14 
REMARK       I    between atoms: C11_14  and  N1_16 
REMARK    9  A    between atoms: C15_26  and  O8_27 
ROOT
HETATM    1  C6  UNL     1     -19.272   3.503   2.894  1.00  0.00     0.146 C 
HETATM    2  C7  UNL     1     -17.799   3.258   2.717  1.00  0.00     0.065 C 
HETATM    3  C8  UNL     1     -17.012   4.390   3.366  1.00  0.00     0.129 C 
HETATM    4  O5  UNL     1     -17.710   5.511   3.356  1.00  0.00    -0.351 OA
HETATM    5  C13 UNL     1     -18.099   6.146   2.236  1.00  0.00     0.301 C 
HETATM    6  O6  UNL     1     -18.689   7.353   2.721  1.00  0.00    -0.283 OA
HETATM    7  C14 UNL     1     -18.871   8.646   2.268  1.00  0.00     0.291 C 
HETATM    8  O7  UNL     1     -19.088   9.541   3.113  1.00  0.00    -0.262 OA
HETATM    9  C15 UNL     1     -18.845   9.134   0.867  1.00  0.00     0.229 C 
HETATM   10  C16 UNL     1     -20.119   8.587   0.242  1.00  0.00     0.005 C 
HETATM   11  C17 UNL     1     -21.304   8.795   1.197  1.00  0.00     0.022 C 
HETATM   12  C18 UNL     1     -20.416   9.561  -0.914  1.00  0.00     0.022 C 
HETATM   13  C19 UNL     1     -20.032   7.243  -0.284  1.00  0.00    -0.014 C 
HETATM   14  C20 UNL     1     -19.555   6.085   0.166  1.00  0.00     0.005 C 
HETATM   15  C21 UNL     1     -18.901   5.394   1.260  1.00  0.00    -0.015 C 
HETATM   16  C22 UNL     1     -19.863   4.381   1.839  1.00  0.00     0.007 C 
HETATM   17  C23 UNL     1     -20.462   3.590   0.687  1.00  0.00     0.022 C 
HETATM   18  C24 UNL     1     -21.018   5.129   2.471  1.00  0.00     0.022 C 
ENDROOT
BRANCH   3  19
HETATM   19  C9  UNL     1     -15.626   4.409   2.776  1.00  0.00     0.059 C 
BRANCH  19  20
HETATM   20  C10 UNL     1     -15.597   3.993   1.346  1.00  0.00     0.183 C 
BRANCH  20  21
HETATM   21  O3  UNL     1     -15.013   4.918   0.464  1.00  0.00    -0.304 OA
BRANCH  21  22
HETATM   22  C11 UNL     1     -13.973   5.773   0.764  1.00  0.00     0.366 C 
HETATM   23  O4  UNL     1     -12.794   5.344   0.704  1.00  0.00    -0.238 OA
HETATM   24  N1  UNL     1     -14.157   7.131   1.144  1.00  0.00    -0.279 N 
HETATM   25  C12 UNL     1     -15.108   7.775   0.536  1.00  0.00     0.205 C 
ATOM     26  H1  UNL     1     -13.575   7.575   1.854  1.00  0.00     0.173 HD
HETATM   27  N2  UNL     1     -15.306   9.124   0.899  1.00  0.00    -0.066 NA
HETATM   28  N3  UNL     1     -15.937   7.202  -0.451  1.00  0.00    -0.066 NA
ENDBRANCH  21  22
ENDBRANCH  20  21
ENDBRANCH  19  20
ENDBRANCH   3  19
BRANCH   1  29
HETATM   29  O2  UNL     1     -20.035   2.343   3.030  1.00  0.00    -0.315 OA
BRANCH  29  30
HETATM   30  C5  UNL     1     -19.845   1.331   3.920  1.00  0.00     0.259 C 
HETATM   31  O1  UNL     1     -20.448   1.447   5.027  1.00  0.00    -0.265 OA
BRANCH  30  32
HETATM   32  C4  UNL     1     -18.996   0.139   3.674  1.00  0.00     0.115 C 
BRANCH  32  33
HETATM   33  C2  UNL     1     -19.003  -0.307   2.252  1.00  0.00    -0.013 C 
HETATM   34  C1  UNL     1     -20.223  -1.179   2.040  1.00  0.00     0.010 C 
HETATM   35  C3  UNL     1     -17.790  -1.165   1.962  1.00  0.00     0.010 C 
ENDBRANCH  32  33
ENDBRANCH  30  32
ENDBRANCH  29  30
ENDBRANCH   1  29
BRANCH   9  36
HETATM   36  O8  UNL     1     -18.788  10.503   0.851  1.00  0.00    -0.385 OA
ATOM     37  H8  UNL     1     -17.885  10.790   0.932  1.00  0.00     0.210 HD
ENDBRANCH   9  36
TORSDOF 9
ENDMDL
