MODEL 1
REMARK VINA RESULT: -9.519985608      0.000      0.000
REMARK  7 active torsions:
REMARK  status: ('A' for Active; 'I' for Inactive)
REMARK    1  A    between atoms: C2_2  and  O1_3 
REMARK    2  A    between atoms: C5_7  and  N1_9 
REMARK    3  A    between atoms: N1_9  and  C7_11 
REMARK    4  A    between atoms: C8_14  and  N3_15 
REMARK    5  A    between atoms: N3_15  and  C9_17 
REMARK    6  A    between atoms: C14_25  and  S1_26 
REMARK    7  A    between atoms: S1_26  and  C15_29 
ROOT
HETATM    1  C7  UNL     1       4.725  -2.562  -2.255  1.00  0.00     0.140 A 
HETATM    2  N2  UNL     1       5.942  -2.938  -2.599  1.00  0.00    -0.175 N 
ATOM      3  H2  UNL     1       6.059  -3.839  -3.062  1.00  0.00     0.186 HD
HETATM    4  C8  UNL     1       7.032  -2.193  -2.371  1.00  0.00     0.679 A 
HETATM    5  N4  UNL     1       6.882  -1.007  -1.762  1.00  0.00    -0.200 N 
ATOM      6  H4  UNL     1       7.703  -0.430  -1.582  1.00  0.00     0.183 HD
HETATM    7  C13 UNL     1       5.651  -0.558  -1.380  1.00  0.00     0.133 A 
HETATM    8  C14 UNL     1       4.551  -1.343  -1.625  1.00  0.00     0.119 A 
ENDROOT
BRANCH   1   9
HETATM    9  N1  UNL     1       3.657  -3.242  -2.452  1.00  0.00    -0.366 N 
ATOM     10  H1  UNL     1       2.876  -2.716  -2.845  1.00  0.00     0.162 HD
BRANCH   9  11
HETATM   11  C5  UNL     1       3.396  -4.607  -2.211  1.00  0.00     0.028 C 
HETATM   12  C4  UNL     1       3.380  -4.802  -0.687  1.00  0.00     0.033 C 
HETATM   13  C3  UNL     1       3.369  -6.275  -0.390  1.00  0.00     0.040 C 
HETATM   14  C2  UNL     1       4.796  -6.777  -0.603  1.00  0.00     0.054 C 
HETATM   15  C1  UNL     1       4.736  -8.228  -1.019  1.00  0.00     0.045 C 
HETATM   16  C21 UNL     1       5.467  -5.899  -1.605  1.00  0.00     0.040 C 
HETATM   17  C20 UNL     1       4.549  -5.439  -2.721  1.00  0.00     0.033 C 
HETATM   18  C6  UNL     1       2.057  -5.101  -2.700  1.00  0.00     0.038 C 
BRANCH  14  19
HETATM   19  O1  UNL     1       5.462  -6.631   0.630  1.00  0.00    -0.390 OA
ATOM     20  H1  UNL     1       6.256  -7.151   0.652  1.00  0.00     0.210 HD
ENDBRANCH  14  19
ENDBRANCH   9  11
ENDBRANCH   1   9
BRANCH   8  21
HETATM   21  S1  UNL     1       2.935  -0.819  -1.162  1.00  0.00     0.184 S 
HETATM   22  O3  UNL     1       3.126   0.381  -0.265  1.00  0.00    -0.222 OA
HETATM   23  O4  UNL     1       2.257  -1.926  -0.421  1.00  0.00    -0.222 OA
BRANCH  21  24
HETATM   24  C15 UNL     1       1.976  -0.371  -2.553  1.00  0.00     0.117 C 
HETATM   25  C16 UNL     1       0.908   0.616  -2.038  1.00  0.00     0.046 C 
HETATM   26  C17 UNL     1       0.307   1.362  -3.213  1.00  0.00     0.168 C 
HETATM   27  O5  UNL     1       0.429   0.579  -4.346  1.00  0.00    -0.391 OA
HETATM   28  C18 UNL     1       1.741   0.489  -4.808  1.00  0.00     0.168 C 
HETATM   29  C19 UNL     1       2.710   0.372  -3.625  1.00  0.00     0.046 C 
ENDBRANCH  21  24
ENDBRANCH   8  21
BRANCH   4  30
HETATM   30  N3  UNL     1       8.217  -2.613  -2.734  1.00  0.00    -0.219 N 
ATOM     31  H3  UNL     1       8.427  -2.694  -3.729  1.00  0.00     0.178 HD
BRANCH  30  32
HETATM   32  C9  UNL     1       9.231  -2.963  -1.783  1.00  0.00     0.125 C 
HETATM   33  C10 UNL     1      10.580  -2.324  -2.110  1.00  0.00     0.054 C 
HETATM   34  C11 UNL     1      11.537  -3.388  -1.660  1.00  0.00     0.169 C 
HETATM   35  O2  UNL     1      10.888  -4.584  -1.598  1.00  0.00    -0.389 OA
HETATM   36  C12 UNL     1       9.577  -4.427  -1.952  1.00  0.00     0.193 C 
ENDBRANCH  30  32
ENDBRANCH   4  30
TORSDOF 7
ENDMDL
MODEL 2
REMARK VINA RESULT: -9.437930811      2.528      6.868
REMARK  7 active torsions:
REMARK  status: ('A' for Active; 'I' for Inactive)
REMARK    1  A    between atoms: C2_2  and  O1_3 
REMARK    2  A    between atoms: C5_7  and  N1_9 
REMARK    3  A    between atoms: N1_9  and  C7_11 
REMARK    4  A    between atoms: C8_14  and  N3_15 
REMARK    5  A    between atoms: N3_15  and  C9_17 
REMARK    6  A    between atoms: C14_25  and  S1_26 
REMARK    7  A    between atoms: S1_26  and  C15_29 
ROOT
HETATM    1  C7  UNL     1       5.095  -4.634  -1.936  1.00  0.00     0.140 A 
HETATM    2  N2  UNL     1       5.785  -3.588  -2.349  1.00  0.00    -0.175 N 
ATOM      3  H2  UNL     1       5.286  -2.718  -2.533  1.00  0.00     0.186 HD
HETATM    4  C8  UNL     1       7.111  -3.614  -2.539  1.00  0.00     0.679 A 
HETATM    5  N4  UNL     1       7.772  -4.757  -2.299  1.00  0.00    -0.200 N 
ATOM      6  H4  UNL     1       8.781  -4.790  -2.441  1.00  0.00     0.183 HD
HETATM    7  C13 UNL     1       7.118  -5.875  -1.870  1.00  0.00     0.133 A 
HETATM    8  C14 UNL     1       5.758  -5.821  -1.685  1.00  0.00     0.119 A 
ENDROOT
BRANCH   1   9
HETATM    9  N1  UNL     1       3.828  -4.654  -1.742  1.00  0.00    -0.366 N 
ATOM     10  H1  UNL     1       3.491  -5.424  -1.164  1.00  0.00     0.162 HD
BRANCH   9  11
HETATM   11  C5  UNL     1       2.828  -3.774  -2.206  1.00  0.00     0.028 C 
HETATM   12  C4  UNL     1       3.512  -2.762  -3.137  1.00  0.00     0.033 C 
HETATM   13  C3  UNL     1       2.541  -1.656  -3.442  1.00  0.00     0.040 C 
HETATM   14  C2  UNL     1       2.509  -0.749  -2.214  1.00  0.00     0.054 C 
HETATM   15  C1  UNL     1       1.147  -0.100  -2.133  1.00  0.00     0.045 C 
HETATM   16  C21 UNL     1       2.851  -1.561  -1.010  1.00  0.00     0.040 C 
HETATM   17  C20 UNL     1       2.288  -2.969  -1.047  1.00  0.00     0.033 C 
HETATM   18  C6  UNL     1       1.739  -4.416  -3.029  1.00  0.00     0.038 C 
BRANCH  14  19
HETATM   19  O1  UNL     1       3.519   0.216  -2.398  1.00  0.00    -0.390 OA
ATOM     20  H1  UNL     1       4.161  -0.079  -3.032  1.00  0.00     0.210 HD
ENDBRANCH  14  19
ENDBRANCH   9  11
ENDBRANCH   1   9
BRANCH   8  21
HETATM   21  S1  UNL     1       4.857  -7.227  -1.127  1.00  0.00     0.184 S 
HETATM   22  O3  UNL     1       4.046  -7.700  -2.310  1.00  0.00    -0.222 OA
HETATM   23  O4  UNL     1       3.958  -6.816  -0.004  1.00  0.00    -0.222 OA
BRANCH  21  24
HETATM   24  C15 UNL     1       5.920  -8.506  -0.588  1.00  0.00     0.117 C 
HETATM   25  C16 UNL     1       6.235  -8.207   0.892  1.00  0.00     0.046 C 
HETATM   26  C17 UNL     1       6.798  -9.453   1.547  1.00  0.00     0.168 C 
HETATM   27  O5  UNL     1       7.392 -10.236   0.573  1.00  0.00    -0.391 OA
HETATM   28  C18 UNL     1       6.468 -10.847  -0.274  1.00  0.00     0.168 C 
HETATM   29  C19 UNL     1       5.322  -9.879  -0.591  1.00  0.00     0.046 C 
ENDBRANCH  21  24
ENDBRANCH   8  21
BRANCH   4  30
HETATM   30  N3  UNL     1       7.748  -2.547  -2.950  1.00  0.00    -0.219 N 
ATOM     31  H3  UNL     1       8.068  -2.507  -3.917  1.00  0.00     0.178 HD
BRANCH  30  32
HETATM   32  C9  UNL     1       8.014  -1.432  -2.089  1.00  0.00     0.125 C 
HETATM   33  C10 UNL     1       6.740  -0.678  -1.706  1.00  0.00     0.054 C 
HETATM   34  C11 UNL     1       7.236   0.736  -1.633  1.00  0.00     0.169 C 
HETATM   35  O2  UNL     1       8.393   0.848  -2.342  1.00  0.00    -0.389 OA
HETATM   36  C12 UNL     1       8.735  -0.362  -2.879  1.00  0.00     0.193 C 
ENDBRANCH  30  32
ENDBRANCH   4  30
TORSDOF 7
ENDMDL
MODEL 3
REMARK VINA RESULT: -9.413635975      2.280      7.601
REMARK  7 active torsions:
REMARK  status: ('A' for Active; 'I' for Inactive)
REMARK    1  A    between atoms: C2_2  and  O1_3 
REMARK    2  A    between atoms: C5_7  and  N1_9 
REMARK    3  A    between atoms: N1_9  and  C7_11 
REMARK    4  A    between atoms: C8_14  and  N3_15 
REMARK    5  A    between atoms: N3_15  and  C9_17 
REMARK    6  A    between atoms: C14_25  and  S1_26 
REMARK    7  A    between atoms: S1_26  and  C15_29 
ROOT
HETATM    1  C7  UNL     1       5.869  -2.884  -2.728  1.00  0.00     0.140 A 
HETATM    2  N2  UNL     1       4.827  -3.691  -2.790  1.00  0.00    -0.175 N 
ATOM      3  H2  UNL     1       3.915  -3.289  -3.005  1.00  0.00     0.186 HD
HETATM    4  C8  UNL     1       4.910  -5.012  -2.584  1.00  0.00     0.679 A 
HETATM    5  N4  UNL     1       6.108  -5.544  -2.299  1.00  0.00    -0.200 N 
ATOM      6  H4  UNL     1       6.185  -6.548  -2.139  1.00  0.00     0.183 HD
HETATM    7  C13 UNL     1       7.226  -4.765  -2.220  1.00  0.00     0.133 A 
HETATM    8  C14 UNL     1       7.113  -3.414  -2.435  1.00  0.00     0.119 A 
ENDROOT
BRANCH   1   9
HETATM    9  N1  UNL     1       5.836  -1.616  -2.917  1.00  0.00    -0.366 N 
ATOM     10  H1  UNL     1       6.593  -1.245  -3.492  1.00  0.00     0.162 HD
BRANCH   9  11
HETATM   11  C5  UNL     1       4.913  -0.657  -2.453  1.00  0.00     0.028 C 
HETATM   12  C4  UNL     1       4.009  -1.357  -1.427  1.00  0.00     0.033 C 
HETATM   13  C3  UNL     1       2.854  -0.451  -1.105  1.00  0.00     0.040 C 
HETATM   14  C2  UNL     1       1.878  -0.551  -2.276  1.00  0.00     0.054 C 
HETATM   15  C1  UNL     1       1.128   0.755  -2.386  1.00  0.00     0.045 C 
HETATM   16  C21 UNL     1       2.643  -0.903  -3.508  1.00  0.00     0.040 C 
HETATM   17  C20 UNL     1       4.005  -0.241  -3.586  1.00  0.00     0.033 C 
HETATM   18  C6  UNL     1       5.520   0.519  -1.728  1.00  0.00     0.038 C 
BRANCH  14  19
HETATM   19  O1  UNL     1       1.002  -1.615  -1.980  1.00  0.00    -0.390 OA
ATOM     20  H1  UNL     1       1.154  -2.353  -2.558  1.00  0.00     0.210 HD
ENDBRANCH  14  19
ENDBRANCH   9  11
ENDBRANCH   1   9
BRANCH   8  21
HETATM   21  S1  UNL     1       8.519  -2.356  -2.354  1.00  0.00     0.184 S 
HETATM   22  O3  UNL     1       8.334  -1.510  -1.116  1.00  0.00    -0.222 OA
HETATM   23  O4  UNL     1       8.553  -1.496  -3.578  1.00  0.00    -0.222 OA
BRANCH  21  24
HETATM   24  C15 UNL     1      10.007  -3.264  -2.234  1.00  0.00     0.117 C 
HETATM   25  C16 UNL     1      11.148  -2.225  -2.265  1.00  0.00     0.046 C 
HETATM   26  C17 UNL     1      12.424  -2.867  -1.759  1.00  0.00     0.168 C 
HETATM   27  O5  UNL     1      12.355  -4.229  -1.984  1.00  0.00    -0.391 OA
HETATM   28  C18 UNL     1      11.452  -4.876  -1.143  1.00  0.00     0.168 C 
HETATM   29  C19 UNL     1      10.197  -4.015  -0.954  1.00  0.00     0.046 C 
ENDBRANCH  21  24
ENDBRANCH   8  21
BRANCH   4  30
HETATM   30  N3  UNL     1       3.844  -5.768  -2.657  1.00  0.00    -0.219 N 
ATOM     31  H3  UNL     1       3.903  -6.656  -3.155  1.00  0.00     0.178 HD
BRANCH  30  32
HETATM   32  C9  UNL     1       2.594  -5.392  -2.062  1.00  0.00     0.125 C 
HETATM   33  C10 UNL     1       1.747  -6.604  -1.677  1.00  0.00     0.054 C 
HETATM   34  C11 UNL     1       0.359  -6.097  -1.935  1.00  0.00     0.169 C 
HETATM   35  O2  UNL     1       0.414  -5.038  -2.789  1.00  0.00    -0.389 OA
HETATM   36  C12 UNL     1       1.712  -4.772  -3.125  1.00  0.00     0.193 C 
ENDBRANCH  30  32
ENDBRANCH   4  30
TORSDOF 7
ENDMDL
MODEL 4
REMARK VINA RESULT: -9.392317985      1.063      1.409
REMARK  7 active torsions:
REMARK  status: ('A' for Active; 'I' for Inactive)
REMARK    1  A    between atoms: C2_2  and  O1_3 
REMARK    2  A    between atoms: C5_7  and  N1_9 
REMARK    3  A    between atoms: N1_9  and  C7_11 
REMARK    4  A    between atoms: C8_14  and  N3_15 
REMARK    5  A    between atoms: N3_15  and  C9_17 
REMARK    6  A    between atoms: C14_25  and  S1_26 
REMARK    7  A    between atoms: S1_26  and  C15_29 
ROOT
HETATM    1  C7  UNL     1       4.943  -2.798  -2.222  1.00  0.00     0.140 A 
HETATM    2  N2  UNL     1       6.198  -3.049  -2.542  1.00  0.00    -0.175 N 
ATOM      3  H2  UNL     1       6.425  -3.963  -2.933  1.00  0.00     0.186 HD
HETATM    4  C8  UNL     1       7.189  -2.162  -2.376  1.00  0.00     0.679 A 
HETATM    5  N4  UNL     1       6.893  -0.959  -1.861  1.00  0.00    -0.200 N 
ATOM      6  H4  UNL     1       7.638  -0.275  -1.729  1.00  0.00     0.183 HD
HETATM    7  C13 UNL     1       5.615  -0.635  -1.509  1.00  0.00     0.133 A 
HETATM    8  C14 UNL     1       4.619  -1.563  -1.689  1.00  0.00     0.119 A 
ENDROOT
BRANCH   1   9
HETATM    9  N1  UNL     1       3.965  -3.615  -2.363  1.00  0.00    -0.366 N 
ATOM     10  H1  UNL     1       3.088  -3.192  -2.667  1.00  0.00     0.162 HD
BRANCH   9  11
HETATM   11  C5  UNL     1       3.917  -5.010  -2.162  1.00  0.00     0.028 C 
HETATM   12  C4  UNL     1       2.449  -5.438  -2.304  1.00  0.00     0.033 C 
HETATM   13  C3  UNL     1       2.314  -6.861  -1.840  1.00  0.00     0.040 C 
HETATM   14  C2  UNL     1       2.327  -6.829  -0.314  1.00  0.00     0.054 C 
HETATM   15  C1  UNL     1       2.897  -8.135   0.188  1.00  0.00     0.045 C 
HETATM   16  C21 UNL     1       3.099  -5.633   0.134  1.00  0.00     0.040 C 
HETATM   17  C20 UNL     1       4.303  -5.328  -0.737  1.00  0.00     0.033 C 
HETATM   18  C6  UNL     1       4.681  -5.831  -3.171  1.00  0.00     0.038 C 
BRANCH  14  19
HETATM   19  O1  UNL     1       0.988  -6.670   0.097  1.00  0.00    -0.390 OA
ATOM     20  H1  UNL     1       0.907  -5.970   0.733  1.00  0.00     0.210 HD
ENDBRANCH  14  19
ENDBRANCH   9  11
ENDBRANCH   1   9
BRANCH   8  21
HETATM   21  S1  UNL     1       2.949  -1.204  -1.262  1.00  0.00     0.184 S 
HETATM   22  O3  UNL     1       3.011  -0.131  -0.200  1.00  0.00    -0.222 OA
HETATM   23  O4  UNL     1       2.307  -2.442  -0.721  1.00  0.00    -0.222 OA
BRANCH  21  24
HETATM   24  C15 UNL     1       2.039  -0.625  -2.637  1.00  0.00     0.117 C 
HETATM   25  C16 UNL     1       0.978   0.343  -2.072  1.00  0.00     0.046 C 
HETATM   26  C17 UNL     1       0.426   1.194  -3.198  1.00  0.00     0.168 C 
HETATM   27  O5  UNL     1       0.563   0.501  -4.387  1.00  0.00    -0.391 OA
HETATM   28  C18 UNL     1       1.886   0.418  -4.820  1.00  0.00     0.168 C 
HETATM   29  C19 UNL     1       2.818   0.185  -3.626  1.00  0.00     0.046 C 
ENDBRANCH  21  24
ENDBRANCH   8  21
BRANCH   4  30
HETATM   30  N3  UNL     1       8.418  -2.463  -2.710  1.00  0.00    -0.219 N 
ATOM     31  H3  UNL     1       8.696  -2.382  -3.688  1.00  0.00     0.178 HD
BRANCH  30  32
HETATM   32  C9  UNL     1       9.388  -2.902  -1.750  1.00  0.00     0.125 C 
HETATM   33  C10 UNL     1      10.812  -2.507  -2.140  1.00  0.00     0.054 C 
HETATM   34  C11 UNL     1      11.601  -3.675  -1.628  1.00  0.00     0.169 C 
HETATM   35  O2  UNL     1      10.776  -4.747  -1.471  1.00  0.00    -0.389 OA
HETATM   36  C12 UNL     1       9.497  -4.411  -1.817  1.00  0.00     0.193 C 
ENDBRANCH  30  32
ENDBRANCH   4  30
TORSDOF 7
ENDMDL
MODEL 5
REMARK VINA RESULT: -9.361050082      1.576      2.149
REMARK  7 active torsions:
REMARK  status: ('A' for Active; 'I' for Inactive)
REMARK    1  A    between atoms: C2_2  and  O1_3 
REMARK    2  A    between atoms: C5_7  and  N1_9 
REMARK    3  A    between atoms: N1_9  and  C7_11 
REMARK    4  A    between atoms: C8_14  and  N3_15 
REMARK    5  A    between atoms: N3_15  and  C9_17 
REMARK    6  A    between atoms: C14_25  and  S1_26 
REMARK    7  A    between atoms: S1_26  and  C15_29 
ROOT
HETATM    1  C7  UNL     1       4.852  -4.495  -2.511  1.00  0.00     0.140 A 
HETATM    2  N2  UNL     1       6.153  -4.515  -2.733  1.00  0.00    -0.175 N 
ATOM      3  H2  UNL     1       6.596  -5.409  -2.941  1.00  0.00     0.186 HD
HETATM    4  C8  UNL     1       6.919  -3.417  -2.697  1.00  0.00     0.679 A 
HETATM    5  N4  UNL     1       6.339  -2.238  -2.422  1.00  0.00    -0.200 N 
ATOM      6  H4  UNL     1       6.911  -1.395  -2.391  1.00  0.00     0.183 HD
HETATM    7  C13 UNL     1       4.999  -2.148  -2.184  1.00  0.00     0.133 A 
HETATM    8  C14 UNL     1       4.237  -3.290  -2.226  1.00  0.00     0.119 A 
ENDROOT
BRANCH   1   9
HETATM    9  N1  UNL     1       4.082  -5.520  -2.535  1.00  0.00    -0.366 N 
ATOM     10  H1  UNL     1       3.331  -5.481  -3.224  1.00  0.00     0.162 HD
BRANCH   9  11
HETATM   11  C5  UNL     1       4.115  -6.694  -1.754  1.00  0.00     0.028 C 
HETATM   12  C4  UNL     1       4.720  -6.316  -0.393  1.00  0.00     0.033 C 
HETATM   13  C3  UNL     1       5.015  -7.576   0.370  1.00  0.00     0.040 C 
HETATM   14  C2  UNL     1       6.298  -8.157  -0.222  1.00  0.00     0.054 C 
HETATM   15  C1  UNL     1       6.269  -9.657  -0.048  1.00  0.00     0.045 C 
HETATM   16  C21 UNL     1       6.406  -7.726  -1.645  1.00  0.00     0.040 C 
HETATM   17  C20 UNL     1       5.075  -7.684  -2.370  1.00  0.00     0.033 C 
HETATM   18  C6  UNL     1       2.767  -7.299  -1.448  1.00  0.00     0.038 C 
BRANCH  14  19
HETATM   19  O1  UNL     1       7.368  -7.585   0.497  1.00  0.00    -0.390 OA
ATOM     20  H1  UNL     1       7.842  -6.961  -0.038  1.00  0.00     0.210 HD
ENDBRANCH  14  19
ENDBRANCH   9  11
ENDBRANCH   1   9
BRANCH   8  21
HETATM   21  S1  UNL     1       2.501  -3.240  -1.933  1.00  0.00     0.184 S 
HETATM   22  O3  UNL     1       2.280  -3.939  -0.612  1.00  0.00    -0.222 OA
HETATM   23  O4  UNL     1       1.799  -3.968  -3.036  1.00  0.00    -0.222 OA
BRANCH  21  24
HETATM   24  C15 UNL     1       1.906  -1.599  -1.842  1.00  0.00     0.117 C 
HETATM   25  C16 UNL     1       2.755  -0.894  -0.763  1.00  0.00     0.046 C 
HETATM   26  C17 UNL     1       2.597   0.607  -0.904  1.00  0.00     0.168 C 
HETATM   27  O5  UNL     1       1.375   0.872  -1.494  1.00  0.00    -0.391 OA
HETATM   28  C18 UNL     1       1.338   0.533  -2.846  1.00  0.00     0.168 C 
HETATM   29  C19 UNL     1       2.091  -0.781  -3.082  1.00  0.00     0.046 C 
ENDBRANCH  21  24
ENDBRANCH   8  21
BRANCH   4  30
HETATM   30  N3  UNL     1       8.205  -3.492  -2.925  1.00  0.00    -0.219 N 
ATOM     31  H3  UNL     1       8.533  -3.533  -3.889  1.00  0.00     0.178 HD
BRANCH  30  32
HETATM   32  C9  UNL     1       9.172  -3.518  -1.866  1.00  0.00     0.125 C 
HETATM   33  C10 UNL     1      10.347  -2.577  -2.129  1.00  0.00     0.054 C 
HETATM   34  C11 UNL     1      11.486  -3.336  -1.514  1.00  0.00     0.169 C 
HETATM   35  O2  UNL     1      11.150  -4.651  -1.409  1.00  0.00    -0.389 OA
HETATM   36  C12 UNL     1       9.884  -4.853  -1.884  1.00  0.00     0.193 C 
ENDBRANCH  30  32
ENDBRANCH   4  30
TORSDOF 7
ENDMDL
