MODEL 1
REMARK VINA RESULT: -9.945871581      0.000      0.000
REMARK  9 active torsions:
REMARK  status: ('A' for Active; 'I' for Inactive)
REMARK    1  A    between atoms: O1_2  and  C2_3 
REMARK    2  A    between atoms: C7_8  and  N1_9 
REMARK    3  A    between atoms: N1_9  and  C8_11 
REMARK    4  A    between atoms: C9_14  and  N3_15 
REMARK    5  A    between atoms: N3_15  and  C11_17 
REMARK    6  A    between atoms: C11_17  and  C12_18 
REMARK    7  A    between atoms: C12_18  and  O2_19 
REMARK    8  A    between atoms: C14_23  and  N4_24 
REMARK    9  A    between atoms: N4_24  and  C15_26 
ROOT
HETATM    1  C8  UNL     1      -2.992   4.190   8.710  1.00  0.00     0.686 A 
HETATM    2  N2  UNL     1      -3.733   5.288   8.901  1.00  0.00    -0.175 N 
ATOM      3  H2  UNL     1      -3.692   6.026   8.198  1.00  0.00     0.186 HD
HETATM    4  C9  UNL     1      -4.539   5.474   9.983  1.00  0.00     0.144 A 
HETATM    5  C13 UNL     1      -4.555   4.451  10.899  1.00  0.00     0.122 A 
HETATM    6 CL1  UNL     1      -5.533   4.549  12.346  1.00  0.00    -0.076 Cl
HETATM    7  C14 UNL     1      -3.799   3.297  10.733  1.00  0.00     0.147 A 
HETATM    8  N5  UNL     1      -3.036   3.204   9.632  1.00  0.00    -0.174 N 
ATOM      9  H5  UNL     1      -2.472   2.365   9.488  1.00  0.00     0.186 HD
ENDROOT
BRANCH   1  10
HETATM   10  N1  UNL     1      -2.252   4.072   7.680  1.00  0.00    -0.189 N 
ATOM     11  H1  UNL     1      -2.724   3.836   6.808  1.00  0.00     0.184 HD
BRANCH  10  12
HETATM   12  C7  UNL     1      -0.864   4.230   7.614  1.00  0.00     0.082 A 
HETATM   13  C2  UNL     1      -0.070   3.103   7.920  1.00  0.00     0.095 A 
HETATM   14  C3  UNL     1       1.300   3.198   7.875  1.00  0.00     0.039 A 
HETATM   15  C4  UNL     1       1.934   4.396   7.528  1.00  0.00     0.003 A 
HETATM   16  C5  UNL     1       1.155   5.488   7.231  1.00  0.00     0.002 A 
HETATM   17  C6  UNL     1      -0.215   5.383   7.280  1.00  0.00     0.033 A 
BRANCH  13  18
HETATM   18  O1  UNL     1      -0.670   1.922   8.260  1.00  0.00    -0.354 OA
HETATM   19  C1  UNL     1      -0.018   0.767   8.613  1.00  0.00     0.210 C 
ENDBRANCH  13  18
ENDBRANCH  10  12
ENDBRANCH   1  10
BRANCH   4  20
HETATM   20  N3  UNL     1      -5.293   6.667  10.111  1.00  0.00    -0.368 N 
HETATM   21  C10 UNL     1      -5.124   7.708   9.122  1.00  0.00     0.151 C 
BRANCH  20  22
HETATM   22  C11 UNL     1      -6.254   6.914  11.165  1.00  0.00     0.150 C 
BRANCH  22  23
HETATM   23  C12 UNL     1      -7.208   8.002  10.742  1.00  0.00     0.183 C 
BRANCH  23  24
HETATM   24  O2  UNL     1      -7.757   8.644  11.819  1.00  0.00    -0.399 OA
ATOM     25  H2  UNL     1      -7.841   9.578  11.668  1.00  0.00     0.209 HD
ENDBRANCH  23  24
ENDBRANCH  22  23
ENDBRANCH  20  22
ENDBRANCH   4  20
BRANCH   7  26
HETATM   26  N4  UNL     1      -3.855   2.397  11.603  1.00  0.00    -0.339 N 
ATOM     27  H4  UNL     1      -4.796   2.207  11.949  1.00  0.00     0.167 HD
BRANCH  26  28
HETATM   28  C15 UNL     1      -2.863   1.613  12.181  1.00  0.00     0.057 A 
HETATM   29  C16 UNL     1      -2.336   0.511  11.547  1.00  0.00     0.055 A 
HETATM   30  C17 UNL     1      -1.351  -0.283  12.097  1.00  0.00     0.036 A 
HETATM   31 CL2  UNL     1      -0.697  -1.676  11.274  1.00  0.00    -0.084 Cl
HETATM   32  C18 UNL     1      -0.849   0.034  13.364  1.00  0.00     0.026 A 
HETATM   33  C19 UNL     1      -1.389   1.137  13.977  1.00  0.00     0.028 A 
HETATM   34  C20 UNL     1      -2.374   1.931  13.427  1.00  0.00     0.060 A 
HETATM   35 CL3  UNL     1      -2.983   3.328  14.327  1.00  0.00    -0.082 Cl
ENDBRANCH  26  28
ENDBRANCH   7  26
TORSDOF 9
ENDMDL
MODEL 2
REMARK VINA RESULT: -9.798536556      0.962      1.738
REMARK  9 active torsions:
REMARK  status: ('A' for Active; 'I' for Inactive)
REMARK    1  A    between atoms: O1_2  and  C2_3 
REMARK    2  A    between atoms: C7_8  and  N1_9 
REMARK    3  A    between atoms: N1_9  and  C8_11 
REMARK    4  A    between atoms: C9_14  and  N3_15 
REMARK    5  A    between atoms: N3_15  and  C11_17 
REMARK    6  A    between atoms: C11_17  and  C12_18 
REMARK    7  A    between atoms: C12_18  and  O2_19 
REMARK    8  A    between atoms: C14_23  and  N4_24 
REMARK    9  A    between atoms: N4_24  and  C15_26 
ROOT
HETATM    1  C8  UNL     1      -3.084   4.362   8.750  1.00  0.00     0.686 A 
HETATM    2  N2  UNL     1      -3.839   5.450   8.942  1.00  0.00    -0.175 N 
ATOM      3  H2  UNL     1      -3.798   6.194   8.245  1.00  0.00     0.186 HD
HETATM    4  C9  UNL     1      -4.658   5.617  10.017  1.00  0.00     0.144 A 
HETATM    5  C13 UNL     1      -4.672   4.587  10.925  1.00  0.00     0.122 A 
HETATM    6 CL1  UNL     1      -5.665   4.662  12.362  1.00  0.00    -0.076 Cl
HETATM    7  C14 UNL     1      -3.901   3.443  10.757  1.00  0.00     0.147 A 
HETATM    8  N5  UNL     1      -3.125   3.368   9.664  1.00  0.00    -0.174 N 
ATOM      9  H5  UNL     1      -2.551   2.537   9.519  1.00  0.00     0.186 HD
ENDROOT
BRANCH   1  10
HETATM   10  N1  UNL     1      -2.332   4.260   7.727  1.00  0.00    -0.189 N 
ATOM     11  H1  UNL     1      -2.782   4.380   6.820  1.00  0.00     0.184 HD
BRANCH  10  12
HETATM   12  C7  UNL     1      -0.957   4.003   7.710  1.00  0.00     0.082 A 
HETATM   13  C2  UNL     1      -0.108   5.052   7.296  1.00  0.00     0.095 A 
HETATM   14  C3  UNL     1       1.252   4.858   7.257  1.00  0.00     0.039 A 
HETATM   15  C4  UNL     1       1.821   3.634   7.623  1.00  0.00     0.003 A 
HETATM   16  C5  UNL     1       0.989   2.618   8.025  1.00  0.00     0.002 A 
HETATM   17  C6  UNL     1      -0.370   2.821   8.061  1.00  0.00     0.033 A 
BRANCH  13  18
HETATM   18  O1  UNL     1      -0.644   6.258   6.935  1.00  0.00    -0.354 OA
HETATM   19  C1  UNL     1      -0.606   7.406   7.685  1.00  0.00     0.210 C 
ENDBRANCH  13  18
ENDBRANCH  10  12
ENDBRANCH   1  10
BRANCH   4  20
HETATM   20  N3  UNL     1      -5.426   6.801  10.147  1.00  0.00    -0.368 N 
HETATM   21  C10 UNL     1      -5.204   7.883   9.214  1.00  0.00     0.151 C 
BRANCH  20  22
HETATM   22  C11 UNL     1      -6.452   7.001  11.149  1.00  0.00     0.150 C 
BRANCH  22  23
HETATM   23  C12 UNL     1      -7.326   8.165  10.761  1.00  0.00     0.183 C 
BRANCH  23  24
HETATM   24  O2  UNL     1      -7.814   8.824  11.857  1.00  0.00    -0.399 OA
ATOM     25  H2  UNL     1      -8.677   9.186  11.696  1.00  0.00     0.209 HD
ENDBRANCH  23  24
ENDBRANCH  22  23
ENDBRANCH  20  22
ENDBRANCH   4  20
BRANCH   7  26
HETATM   26  N4  UNL     1      -3.956   2.535  11.620  1.00  0.00    -0.339 N 
ATOM     27  H4  UNL     1      -4.892   2.358  11.983  1.00  0.00     0.167 HD
BRANCH  26  28
HETATM   28  C15 UNL     1      -2.966   1.727  12.169  1.00  0.00     0.057 A 
HETATM   29  C16 UNL     1      -2.446   0.645  11.497  1.00  0.00     0.055 A 
HETATM   30  C17 UNL     1      -1.464  -0.172  12.018  1.00  0.00     0.036 A 
HETATM   31 CL2  UNL     1      -0.818  -1.539  11.148  1.00  0.00    -0.084 Cl
HETATM   32  C18 UNL     1      -0.959   0.100  13.294  1.00  0.00     0.026 A 
HETATM   33  C19 UNL     1      -1.492   1.184  13.945  1.00  0.00     0.028 A 
HETATM   34  C20 UNL     1      -2.474   2.000  13.424  1.00  0.00     0.060 A 
HETATM   35 CL3  UNL     1      -3.075   3.370  14.371  1.00  0.00    -0.082 Cl
ENDBRANCH  26  28
ENDBRANCH   7  26
TORSDOF 9
ENDMDL
MODEL 3
REMARK VINA RESULT: -9.456692459      0.948      1.124
REMARK  9 active torsions:
REMARK  status: ('A' for Active; 'I' for Inactive)
REMARK    1  A    between atoms: O1_2  and  C2_3 
REMARK    2  A    between atoms: C7_8  and  N1_9 
REMARK    3  A    between atoms: N1_9  and  C8_11 
REMARK    4  A    between atoms: C9_14  and  N3_15 
REMARK    5  A    between atoms: N3_15  and  C11_17 
REMARK    6  A    between atoms: C11_17  and  C12_18 
REMARK    7  A    between atoms: C12_18  and  O2_19 
REMARK    8  A    between atoms: C14_23  and  N4_24 
REMARK    9  A    between atoms: N4_24  and  C15_26 
ROOT
HETATM    1  C8  UNL     1      -3.615   4.647   8.480  1.00  0.00     0.686 A 
HETATM    2  N2  UNL     1      -4.368   5.747   8.586  1.00  0.00    -0.175 N 
ATOM      3  H2  UNL     1      -4.399   6.388   7.793  1.00  0.00     0.186 HD
HETATM    4  C9  UNL     1      -5.096   6.058   9.695  1.00  0.00     0.144 A 
HETATM    5  C13 UNL     1      -5.016   5.163  10.733  1.00  0.00     0.122 A 
HETATM    6 CL1  UNL     1      -5.885   5.431  12.227  1.00  0.00    -0.076 Cl
HETATM    7  C14 UNL     1      -4.244   4.010  10.657  1.00  0.00     0.147 A 
HETATM    8  N5  UNL     1      -3.563   3.788   9.522  1.00  0.00    -0.174 N 
ATOM      9  H5  UNL     1      -2.990   2.947   9.443  1.00  0.00     0.186 HD
ENDROOT
BRANCH   1  10
HETATM   10  N1  UNL     1      -2.951   4.408   7.420  1.00  0.00    -0.189 N 
ATOM     11  H1  UNL     1      -3.383   3.775   6.747  1.00  0.00     0.184 HD
BRANCH  10  12
HETATM   12  C7  UNL     1      -1.695   4.918   7.076  1.00  0.00     0.082 A 
HETATM   13  C2  UNL     1      -0.567   4.315   7.672  1.00  0.00     0.095 A 
HETATM   14  C3  UNL     1       0.694   4.775   7.375  1.00  0.00     0.039 A 
HETATM   15  C4  UNL     1       0.888   5.836   6.485  1.00  0.00     0.003 A 
HETATM   16  C5  UNL     1      -0.214   6.419   5.909  1.00  0.00     0.002 A 
HETATM   17  C6  UNL     1      -1.472   5.952   6.213  1.00  0.00     0.033 A 
BRANCH  13  18
HETATM   18  O1  UNL     1      -0.734   3.273   8.543  1.00  0.00    -0.354 OA
HETATM   19  C1  UNL     1      -0.219   2.011   8.389  1.00  0.00     0.210 C 
ENDBRANCH  13  18
ENDBRANCH  10  12
ENDBRANCH   1  10
BRANCH   4  20
HETATM   20  N3  UNL     1      -5.869   7.245   9.727  1.00  0.00    -0.368 N 
HETATM   21  C10 UNL     1      -5.339   8.440   9.109  1.00  0.00     0.151 C 
BRANCH  20  22
HETATM   22  C11 UNL     1      -7.185   7.344  10.323  1.00  0.00     0.150 C 
BRANCH  22  23
HETATM   23  C12 UNL     1      -7.486   8.782  10.661  1.00  0.00     0.183 C 
BRANCH  23  24
HETATM   24  O2  UNL     1      -7.910   8.922  11.955  1.00  0.00    -0.399 OA
ATOM     25  H2  UNL     1      -8.735   9.389  12.007  1.00  0.00     0.209 HD
ENDBRANCH  23  24
ENDBRANCH  22  23
ENDBRANCH  20  22
ENDBRANCH   4  20
BRANCH   7  26
HETATM   26  N4  UNL     1      -4.210   3.230  11.638  1.00  0.00    -0.339 N 
ATOM     27  H4  UNL     1      -5.045   3.258  12.224  1.00  0.00     0.167 HD
BRANCH  26  28
HETATM   28  C15 UNL     1      -3.238   2.333  12.067  1.00  0.00     0.057 A 
HETATM   29  C16 UNL     1      -2.715   1.366  11.240  1.00  0.00     0.055 A 
HETATM   30  C17 UNL     1      -1.750   0.465  11.640  1.00  0.00     0.036 A 
HETATM   31 CL2  UNL     1      -1.100  -0.753  10.573  1.00  0.00    -0.084 Cl
HETATM   32  C18 UNL     1      -1.266   0.524  12.951  1.00  0.00     0.026 A 
HETATM   33  C19 UNL     1      -1.802   1.497  13.758  1.00  0.00     0.028 A 
HETATM   34  C20 UNL     1      -2.767   2.396  13.358  1.00  0.00     0.060 A 
HETATM   35 CL3  UNL     1      -3.373   3.604  14.502  1.00  0.00    -0.082 Cl
ENDBRANCH  26  28
ENDBRANCH   7  26
TORSDOF 9
ENDMDL
MODEL 4
REMARK VINA RESULT: -9.322826391      2.489      6.122
REMARK  9 active torsions:
REMARK  status: ('A' for Active; 'I' for Inactive)
REMARK    1  A    between atoms: O1_2  and  C2_3 
REMARK    2  A    between atoms: C7_8  and  N1_9 
REMARK    3  A    between atoms: N1_9  and  C8_11 
REMARK    4  A    between atoms: C9_14  and  N3_15 
REMARK    5  A    between atoms: N3_15  and  C11_17 
REMARK    6  A    between atoms: C11_17  and  C12_18 
REMARK    7  A    between atoms: C12_18  and  O2_19 
REMARK    8  A    between atoms: C14_23  and  N4_24 
REMARK    9  A    between atoms: N4_24  and  C15_26 
ROOT
HETATM    1  C8  UNL     1      -1.195   1.356   9.589  1.00  0.00     0.686 A 
HETATM    2  N2  UNL     1      -0.711   0.561  10.550  1.00  0.00    -0.175 N 
ATOM      3  H2  UNL     1       0.145   0.040  10.360  1.00  0.00     0.186 HD
HETATM    4  C9  UNL     1      -1.300   0.409  11.769  1.00  0.00     0.144 A 
HETATM    5  C13 UNL     1      -2.451   1.130  11.971  1.00  0.00     0.122 A 
HETATM    6 CL1  UNL     1      -3.327   1.030  13.481  1.00  0.00    -0.076 Cl
HETATM    7  C14 UNL     1      -2.981   1.965  10.995  1.00  0.00     0.147 A 
HETATM    8  N5  UNL     1      -2.329   2.052   9.825  1.00  0.00    -0.174 N 
ATOM      9  H5  UNL     1      -2.699   2.660   9.094  1.00  0.00     0.186 HD
ENDROOT
BRANCH   1  10
HETATM   10  N1  UNL     1      -0.604   1.456   8.465  1.00  0.00    -0.189 N 
ATOM     11  H1  UNL     1      -0.857   0.768   7.757  1.00  0.00     0.184 HD
BRANCH  10  12
HETATM   12  C7  UNL     1       0.353   2.407   8.094  1.00  0.00     0.082 A 
HETATM   13  C2  UNL     1      -0.115   3.694   7.751  1.00  0.00     0.095 A 
HETATM   14  C3  UNL     1       0.778   4.669   7.377  1.00  0.00     0.039 A 
HETATM   15  C4  UNL     1       2.153   4.415   7.328  1.00  0.00     0.003 A 
HETATM   16  C5  UNL     1       2.600   3.161   7.663  1.00  0.00     0.002 A 
HETATM   17  C6  UNL     1       1.699   2.191   8.036  1.00  0.00     0.033 A 
BRANCH  13  18
HETATM   18  O1  UNL     1      -1.455   3.964   7.795  1.00  0.00    -0.354 OA
HETATM   19  C1  UNL     1      -2.133   4.786   6.931  1.00  0.00     0.210 C 
ENDBRANCH  13  18
ENDBRANCH  10  12
ENDBRANCH   1  10
BRANCH   4  20
HETATM   20  N3  UNL     1      -0.723  -0.454  12.734  1.00  0.00    -0.368 N 
HETATM   21  C10 UNL     1      -0.311  -1.779  12.328  1.00  0.00     0.151 C 
BRANCH  20  22
HETATM   22  C11 UNL     1      -0.491  -0.091  14.116  1.00  0.00     0.150 C 
BRANCH  22  23
HETATM   23  C12 UNL     1       0.217  -1.215  14.828  1.00  0.00     0.183 C 
BRANCH  23  24
HETATM   24  O2  UNL     1      -0.395  -1.535  16.009  1.00  0.00    -0.399 OA
ATOM     25  H2  UNL     1       0.233  -1.643  16.714  1.00  0.00     0.209 HD
ENDBRANCH  23  24
ENDBRANCH  22  23
ENDBRANCH  20  22
ENDBRANCH   4  20
BRANCH   7  26
HETATM   26  N4  UNL     1      -4.035   2.599  11.238  1.00  0.00    -0.339 N 
ATOM     27  H4  UNL     1      -4.825   2.012  11.507  1.00  0.00     0.167 HD
BRANCH  26  28
HETATM   28  C15 UNL     1      -4.318   3.960  11.205  1.00  0.00     0.057 A 
HETATM   29  C16 UNL     1      -4.150   4.718  10.069  1.00  0.00     0.055 A 
HETATM   30  C17 UNL     1      -4.423   6.068  10.009  1.00  0.00     0.036 A 
HETATM   31 CL2  UNL     1      -4.203   7.010   8.557  1.00  0.00    -0.084 Cl
HETATM   32  C18 UNL     1      -4.898   6.718  11.154  1.00  0.00     0.026 A 
HETATM   33  C19 UNL     1      -5.059   5.942  12.275  1.00  0.00     0.028 A 
HETATM   34  C20 UNL     1      -4.785   4.592  12.334  1.00  0.00     0.060 A 
HETATM   35 CL3  UNL     1      -5.038   3.708  13.847  1.00  0.00    -0.082 Cl
ENDBRANCH  26  28
ENDBRANCH   7  26
TORSDOF 9
ENDMDL
MODEL 5
REMARK VINA RESULT: -9.290950397      3.024      6.074
REMARK  9 active torsions:
REMARK  status: ('A' for Active; 'I' for Inactive)
REMARK    1  A    between atoms: O1_2  and  C2_3 
REMARK    2  A    between atoms: C7_8  and  N1_9 
REMARK    3  A    between atoms: N1_9  and  C8_11 
REMARK    4  A    between atoms: C9_14  and  N3_15 
REMARK    5  A    between atoms: N3_15  and  C11_17 
REMARK    6  A    between atoms: C11_17  and  C12_18 
REMARK    7  A    between atoms: C12_18  and  O2_19 
REMARK    8  A    between atoms: C14_23  and  N4_24 
REMARK    9  A    between atoms: N4_24  and  C15_26 
ROOT
HETATM    1  C8  UNL     1      -1.074   1.458   9.576  1.00  0.00     0.686 A 
HETATM    2  N2  UNL     1      -0.659   0.631  10.542  1.00  0.00    -0.175 N 
ATOM      3  H2  UNL     1       0.195   0.096  10.384  1.00  0.00     0.186 HD
HETATM    4  C9  UNL     1      -1.314   0.466  11.724  1.00  0.00     0.144 A 
HETATM    5  C13 UNL     1      -2.458   1.209  11.883  1.00  0.00     0.122 A 
HETATM    6 CL1  UNL     1      -3.414   1.095  13.343  1.00  0.00    -0.076 Cl
HETATM    7  C14 UNL     1      -2.918   2.077  10.901  1.00  0.00     0.147 A 
HETATM    8  N5  UNL     1      -2.203   2.175   9.769  1.00  0.00    -0.174 N 
ATOM      9  H5  UNL     1      -2.521   2.807   9.034  1.00  0.00     0.186 HD
ENDROOT
BRANCH   1  10
HETATM   10  N1  UNL     1      -0.423   1.570   8.486  1.00  0.00    -0.189 N 
ATOM     11  H1  UNL     1      -0.453   0.769   7.856  1.00  0.00     0.184 HD
BRANCH  10  12
HETATM   12  C7  UNL     1       0.327   2.670   8.059  1.00  0.00     0.082 A 
HETATM   13  C2  UNL     1       1.707   2.466   7.843  1.00  0.00     0.095 A 
HETATM   14  C3  UNL     1       2.497   3.510   7.424  1.00  0.00     0.039 A 
HETATM   15  C4  UNL     1       1.961   4.783   7.204  1.00  0.00     0.003 A 
HETATM   16  C5  UNL     1       0.617   4.974   7.417  1.00  0.00     0.002 A 
HETATM   17  C6  UNL     1      -0.165   3.924   7.835  1.00  0.00     0.033 A 
BRANCH  13  18
HETATM   18  O1  UNL     1       2.252   1.229   8.050  1.00  0.00    -0.354 OA
HETATM   19  C1  UNL     1       3.541   0.863   7.755  1.00  0.00     0.210 C 
ENDBRANCH  13  18
ENDBRANCH  10  12
ENDBRANCH   1  10
BRANCH   4  20
HETATM   20  N3  UNL     1      -0.807  -0.432  12.698  1.00  0.00    -0.368 N 
HETATM   21  C10 UNL     1      -0.390  -1.751  12.280  1.00  0.00     0.151 C 
BRANCH  20  22
HETATM   22  C11 UNL     1      -0.653  -0.109  14.100  1.00  0.00     0.150 C 
BRANCH  22  23
HETATM   23  C12 UNL     1       0.158  -1.179  14.785  1.00  0.00     0.183 C 
BRANCH  23  24
HETATM   24  O2  UNL     1      -0.380  -1.532  15.992  1.00  0.00    -0.399 OA
ATOM     25  H2  UNL     1      -0.305  -2.465  16.153  1.00  0.00     0.209 HD
ENDBRANCH  23  24
ENDBRANCH  22  23
ENDBRANCH  20  22
ENDBRANCH   4  20
BRANCH   7  26
HETATM   26  N4  UNL     1      -3.969   2.729  11.103  1.00  0.00    -0.339 N 
ATOM     27  H4  UNL     1      -4.743   2.174  11.468  1.00  0.00     0.167 HD
BRANCH  26  28
HETATM   28  C15 UNL     1      -4.267   4.075  10.918  1.00  0.00     0.057 A 
HETATM   29  C16 UNL     1      -3.895   4.759   9.784  1.00  0.00     0.055 A 
HETATM   30  C17 UNL     1      -4.177   6.093   9.575  1.00  0.00     0.036 A 
HETATM   31 CL2  UNL     1      -3.695   6.941   8.129  1.00  0.00    -0.084 Cl
HETATM   32  C18 UNL     1      -4.880   6.802  10.555  1.00  0.00     0.026 A 
HETATM   33  C19 UNL     1      -5.242   6.098  11.677  1.00  0.00     0.028 A 
HETATM   34  C20 UNL     1      -4.958   4.765  11.886  1.00  0.00     0.060 A 
HETATM   35 CL3  UNL     1      -5.485   3.977  13.381  1.00  0.00    -0.082 Cl
ENDBRANCH  26  28
ENDBRANCH   7  26
TORSDOF 9
ENDMDL
