MODEL 1
REMARK VINA RESULT: -6.599541506      0.000      0.000
REMARK  6 active torsions:
REMARK  status: ('A' for Active; 'I' for Inactive)
REMARK    1  A    between atoms: C2_2  and  C3_3 
REMARK    2  A    between atoms: C3_3  and  O2_5 
REMARK    3  A    between atoms: O2_5  and  C4_6 
REMARK    4  A    between atoms: C4_6  and  C5_7 
REMARK    5  A    between atoms: C6_8  and  C7_9 
REMARK    6  A    between atoms: N1_12  and  O3_14 
ROOT
HETATM    1  C7  UNL     1     -26.093  -9.985  56.085  1.00  0.00     0.201 C 
HETATM    2  C8  UNL     1     -27.458 -10.177  56.709  1.00  0.00     0.104 C 
HETATM    3  C9  UNL     1     -27.712  -8.925  57.447  1.00  0.00     0.041 C 
HETATM    4  N1  UNL     1     -28.836  -8.421  57.838  1.00  0.00    -0.276 N 
ATOM      5  H1  UNL     1     -29.702  -8.920  57.632  1.00  0.00     0.193 HD
HETATM    6  C10 UNL     1     -26.385  -8.309  57.678  1.00  0.00     0.328 C 
HETATM    7  N2  UNL     1     -25.488  -8.845  56.689  1.00  0.00     0.114 N 
HETATM    8  C11 UNL     1     -24.267  -9.229  57.320  1.00  0.00     0.327 C 
HETATM    9  C12 UNL     1     -24.471 -10.678  57.603  1.00  0.00     0.026 C 
HETATM   10  N3  UNL     1     -24.100 -11.331  58.634  1.00  0.00    -0.403 N 
ATOM     11  H31 UNL     1     -24.240 -12.322  58.828  1.00  0.00     0.155 HD
ATOM     12  H32 UNL     1     -23.599 -10.985  59.452  1.00  0.00     0.155 HD
HETATM   13  C13 UNL     1     -25.214 -11.189  56.392  1.00  0.00     0.147 C 
HETATM   14 BR1  UNL     1     -23.925 -11.424  54.963  1.00  0.00    -0.082 Br
ENDROOT
BRANCH   1  15
HETATM   15  C6  UNL     1     -26.205  -9.894  54.615  1.00  0.00     0.014 C 
HETATM   16  C5  UNL     1     -27.394  -9.816  54.052  1.00  0.00    -0.002 C 
BRANCH  16  17
HETATM   17  C4  UNL     1     -27.588  -9.721  52.575  1.00  0.00     0.206 C 
BRANCH  17  18
HETATM   18  O2  UNL     1     -27.053  -8.491  52.128  1.00  0.00    -0.318 OA
BRANCH  18  19
HETATM   19  C3  UNL     1     -26.414  -8.458  50.876  1.00  0.00     0.258 C 
HETATM   20  O1  UNL     1     -26.853  -7.667  50.000  1.00  0.00    -0.265 OA
BRANCH  19  21
HETATM   21  C2  UNL     1     -25.258  -9.344  50.630  1.00  0.00     0.106 C 
HETATM   22  C1  UNL     1     -24.077  -8.807  51.396  1.00  0.00     0.015 C 
ENDBRANCH  19  21
ENDBRANCH  18  19
ENDBRANCH  17  18
ENDBRANCH  16  17
ENDBRANCH   1  15
BRANCH   4  23
HETATM   23  O3  UNL     1     -28.894  -7.248  58.513  1.00  0.00    -0.290 OA
ATOM     24  H3  UNL     1     -28.190  -6.967  59.086  1.00  0.00     0.244 HD
ENDBRANCH   4  23
TORSDOF 6
ENDMDL
MODEL 2
REMARK VINA RESULT: -6.597702265      1.152      1.230
REMARK  6 active torsions:
REMARK  status: ('A' for Active; 'I' for Inactive)
REMARK    1  A    between atoms: C2_2  and  C3_3 
REMARK    2  A    between atoms: C3_3  and  O2_5 
REMARK    3  A    between atoms: O2_5  and  C4_6 
REMARK    4  A    between atoms: C4_6  and  C5_7 
REMARK    5  A    between atoms: C6_8  and  C7_9 
REMARK    6  A    between atoms: N1_12  and  O3_14 
ROOT
HETATM    1  C7  UNL     1     -26.388 -10.310  55.397  1.00  0.00     0.201 C 
HETATM    2  C8  UNL     1     -27.559 -11.181  55.794  1.00  0.00     0.104 C 
HETATM    3  C9  UNL     1     -28.367 -10.336  56.695  1.00  0.00     0.041 C 
HETATM    4  N1  UNL     1     -29.614 -10.443  57.014  1.00  0.00    -0.276 N 
ATOM      5  H1  UNL     1     -30.167 -11.201  56.615  1.00  0.00     0.193 HD
HETATM    6  C10 UNL     1     -27.452  -9.287  57.200  1.00  0.00     0.328 C 
HETATM    7  N2  UNL     1     -26.367  -9.177  56.262  1.00  0.00     0.114 N 
HETATM    8  C11 UNL     1     -25.130  -9.141  56.972  1.00  0.00     0.327 C 
HETATM    9  C12 UNL     1     -24.696 -10.566  56.974  1.00  0.00     0.026 C 
HETATM   10  N3  UNL     1     -24.125 -11.207  57.918  1.00  0.00    -0.403 N 
ATOM     11  H31 UNL     1     -23.828 -12.182  57.919  1.00  0.00     0.155 HD
ATOM     12  H32 UNL     1     -23.861 -10.864  58.842  1.00  0.00     0.155 HD
HETATM   13  C13 UNL     1     -25.087 -11.073  55.606  1.00  0.00     0.147 C 
HETATM   14 BR1  UNL     1     -23.762 -10.441  54.340  1.00  0.00    -0.082 Br
ENDROOT
BRANCH   1  15
HETATM   15  C6  UNL     1     -26.462  -9.966  53.963  1.00  0.00     0.014 C 
HETATM   16  C5  UNL     1     -27.636  -9.853  53.375  1.00  0.00    -0.002 C 
BRANCH  16  17
HETATM   17  C4  UNL     1     -27.792  -9.509  51.932  1.00  0.00     0.206 C 
BRANCH  17  18
HETATM   18  O2  UNL     1     -26.934  -8.427  51.631  1.00  0.00    -0.318 OA
BRANCH  18  19
HETATM   19  C3  UNL     1     -26.619  -8.181  50.283  1.00  0.00     0.258 C 
HETATM   20  O1  UNL     1     -27.501  -7.666  49.546  1.00  0.00    -0.265 OA
BRANCH  19  21
HETATM   21  C2  UNL     1     -25.276  -8.531  49.778  1.00  0.00     0.106 C 
HETATM   22  C1  UNL     1     -24.339  -8.636  50.953  1.00  0.00     0.015 C 
ENDBRANCH  19  21
ENDBRANCH  18  19
ENDBRANCH  17  18
ENDBRANCH  16  17
ENDBRANCH   1  15
BRANCH   4  23
HETATM   23  O3  UNL     1     -30.207  -9.572  57.867  1.00  0.00    -0.290 OA
ATOM     24  H3  UNL     1     -30.988  -9.806  58.354  1.00  0.00     0.244 HD
ENDBRANCH   4  23
TORSDOF 6
ENDMDL
MODEL 3
REMARK VINA RESULT: -6.499439503      2.329      3.098
REMARK  6 active torsions:
REMARK  status: ('A' for Active; 'I' for Inactive)
REMARK    1  A    between atoms: C2_2  and  C3_3 
REMARK    2  A    between atoms: C3_3  and  O2_5 
REMARK    3  A    between atoms: O2_5  and  C4_6 
REMARK    4  A    between atoms: C4_6  and  C5_7 
REMARK    5  A    between atoms: C6_8  and  C7_9 
REMARK    6  A    between atoms: N1_12  and  O3_14 
ROOT
HETATM    1  C7  UNL     1     -27.524 -10.193  55.914  1.00  0.00     0.201 C 
HETATM    2  C8  UNL     1     -27.542  -8.784  56.462  1.00  0.00     0.104 C 
HETATM    3  C9  UNL     1     -26.379  -8.719  57.368  1.00  0.00     0.041 C 
HETATM    4  N1  UNL     1     -25.733  -7.684  57.795  1.00  0.00    -0.276 N 
ATOM      5  H1  UNL     1     -26.026  -6.755  57.492  1.00  0.00     0.193 HD
HETATM    6  C10 UNL     1     -26.061 -10.120  57.727  1.00  0.00     0.328 C 
HETATM    7  N2  UNL     1     -26.613 -10.960  56.698  1.00  0.00     0.114 N 
HETATM    8  C11 UNL     1     -27.303 -12.054  57.301  1.00  0.00     0.327 C 
HETATM    9  C12 UNL     1     -28.713 -11.574  57.361  1.00  0.00     0.026 C 
HETATM   10  N3  UNL     1     -29.561 -11.761  58.296  1.00  0.00    -0.403 N 
ATOM     11  H31 UNL     1     -30.526 -11.433  58.338  1.00  0.00     0.155 HD
ATOM     12  H32 UNL     1     -29.433 -12.270  59.171  1.00  0.00     0.155 HD
HETATM   13  C13 UNL     1     -28.903 -10.821  56.066  1.00  0.00     0.147 C 
HETATM   14 BR1  UNL     1     -29.174 -12.125  54.658  1.00  0.00    -0.082 Br
ENDROOT
BRANCH   1  15
HETATM   15  C6  UNL     1     -27.210 -10.184  54.471  1.00  0.00     0.014 C 
HETATM   16  C5  UNL     1     -25.958 -10.283  54.072  1.00  0.00    -0.002 C 
BRANCH  16  17
HETATM   17  C4  UNL     1     -25.562 -10.281  52.633  1.00  0.00     0.206 C 
BRANCH  17  18
HETATM   18  O2  UNL     1     -25.330  -8.946  52.231  1.00  0.00    -0.318 OA
BRANCH  18  19
HETATM   19  C3  UNL     1     -24.421  -8.715  51.184  1.00  0.00     0.258 C 
HETATM   20  O1  UNL     1     -23.214  -8.499  51.475  1.00  0.00    -0.265 OA
BRANCH  19  21
HETATM   21  C2  UNL     1     -24.904  -8.731  49.788  1.00  0.00     0.106 C 
HETATM   22  C1  UNL     1     -26.231  -8.020  49.737  1.00  0.00     0.015 C 
ENDBRANCH  19  21
ENDBRANCH  18  19
ENDBRANCH  17  18
ENDBRANCH  16  17
ENDBRANCH   1  15
BRANCH   4  23
HETATM   23  O3  UNL     1     -24.675  -7.802  58.633  1.00  0.00    -0.290 OA
ATOM     24  H3  UNL     1     -24.496  -7.154  59.305  1.00  0.00     0.244 HD
ENDBRANCH   4  23
TORSDOF 6
ENDMDL
MODEL 4
REMARK VINA RESULT: -6.479880314      2.116      2.832
REMARK  6 active torsions:
REMARK  status: ('A' for Active; 'I' for Inactive)
REMARK    1  A    between atoms: C2_2  and  C3_3 
REMARK    2  A    between atoms: C3_3  and  O2_5 
REMARK    3  A    between atoms: O2_5  and  C4_6 
REMARK    4  A    between atoms: C4_6  and  C5_7 
REMARK    5  A    between atoms: C6_8  and  C7_9 
REMARK    6  A    between atoms: N1_12  and  O3_14 
ROOT
HETATM    1  C7  UNL     1     -27.639 -10.434  56.022  1.00  0.00     0.201 C 
HETATM    2  C8  UNL     1     -27.650  -8.970  56.399  1.00  0.00     0.104 C 
HETATM    3  C9  UNL     1     -26.478  -8.801  57.281  1.00  0.00     0.041 C 
HETATM    4  N1  UNL     1     -25.826  -7.725  57.575  1.00  0.00    -0.276 N 
ATOM      5  H1  UNL     1     -26.122  -6.837  57.168  1.00  0.00     0.193 HD
HETATM    6  C10 UNL     1     -26.158 -10.151  57.799  1.00  0.00     0.328 C 
HETATM    7  N2  UNL     1     -26.721 -11.105  56.881  1.00  0.00     0.114 N 
HETATM    8  C11 UNL     1     -27.407 -12.118  57.616  1.00  0.00     0.327 C 
HETATM    9  C12 UNL     1     -28.815 -11.632  57.633  1.00  0.00     0.026 C 
HETATM   10  N3  UNL     1     -29.654 -11.705  58.592  1.00  0.00    -0.403 N 
ATOM     11  H31 UNL     1     -30.618 -11.373  58.604  1.00  0.00     0.155 HD
ATOM     12  H32 UNL     1     -29.518 -12.108  59.519  1.00  0.00     0.155 HD
HETATM   13  C13 UNL     1     -29.017 -11.036  56.260  1.00  0.00     0.147 C 
HETATM   14 BR1  UNL     1     -29.304 -12.497  55.018  1.00  0.00    -0.082 Br
ENDROOT
BRANCH   1  15
HETATM   15  C6  UNL     1     -27.340 -10.596  54.585  1.00  0.00     0.014 C 
HETATM   16  C5  UNL     1     -27.440  -9.562  53.774  1.00  0.00    -0.002 C 
BRANCH  16  17
HETATM   17  C4  UNL     1     -27.155  -9.645  52.312  1.00  0.00     0.206 C 
BRANCH  17  18
HETATM   18  O2  UNL     1     -26.663  -8.394  51.876  1.00  0.00    -0.318 OA
BRANCH  18  19
HETATM   19  C3  UNL     1     -26.390  -8.226  50.507  1.00  0.00     0.258 C 
HETATM   20  O1  UNL     1     -27.215  -7.582  49.807  1.00  0.00    -0.265 OA
BRANCH  19  21
HETATM   21  C2  UNL     1     -25.155  -8.803  49.939  1.00  0.00     0.106 C 
HETATM   22  C1  UNL     1     -24.015  -8.499  50.875  1.00  0.00     0.015 C 
ENDBRANCH  19  21
ENDBRANCH  18  19
ENDBRANCH  17  18
ENDBRANCH  16  17
ENDBRANCH   1  15
BRANCH   4  23
HETATM   23  O3  UNL     1     -24.761  -7.745  58.411  1.00  0.00    -0.290 OA
ATOM     24  H3  UNL     1     -24.748  -7.241  59.217  1.00  0.00     0.244 HD
ENDBRANCH   4  23
TORSDOF 6
ENDMDL
MODEL 5
REMARK VINA RESULT: -6.469286707      2.292      3.128
REMARK  6 active torsions:
REMARK  status: ('A' for Active; 'I' for Inactive)
REMARK    1  A    between atoms: C2_2  and  C3_3 
REMARK    2  A    between atoms: C3_3  and  O2_5 
REMARK    3  A    between atoms: O2_5  and  C4_6 
REMARK    4  A    between atoms: C4_6  and  C5_7 
REMARK    5  A    between atoms: C6_8  and  C7_9 
REMARK    6  A    between atoms: N1_12  and  O3_14 
ROOT
HETATM    1  C7  UNL     1     -27.531 -10.123  55.796  1.00  0.00     0.201 C 
HETATM    2  C8  UNL     1     -27.540  -8.747  56.424  1.00  0.00     0.104 C 
HETATM    3  C9  UNL     1     -26.317  -8.703  57.249  1.00  0.00     0.041 C 
HETATM    4  N1  UNL     1     -25.665  -7.678  57.688  1.00  0.00    -0.276 N 
ATOM      5  H1  UNL     1     -25.999  -6.741  57.461  1.00  0.00     0.193 HD
HETATM    6  C10 UNL     1     -25.945 -10.113  57.503  1.00  0.00     0.328 C 
HETATM    7  N2  UNL     1     -26.550 -10.908  56.468  1.00  0.00     0.114 N 
HETATM    8  C11 UNL     1     -27.172 -12.051  57.054  1.00  0.00     0.327 C 
HETATM    9  C12 UNL     1     -28.584 -11.612  57.241  1.00  0.00     0.026 C 
HETATM   10  N3  UNL     1     -29.359 -11.873  58.220  1.00  0.00    -0.403 N 
ATOM     11  H31 UNL     1     -30.325 -11.573  58.349  1.00  0.00     0.155 HD
ATOM     12  H32 UNL     1     -29.157 -12.427  59.054  1.00  0.00     0.155 HD
HETATM   13  C13 UNL     1     -28.882 -10.793  56.008  1.00  0.00     0.147 C 
HETATM   14 BR1  UNL     1     -29.225 -12.022  54.549  1.00  0.00    -0.082 Br
ENDROOT
BRANCH   1  15
HETATM   15  C6  UNL     1     -27.322 -10.024  54.338  1.00  0.00     0.014 C 
HETATM   16  C5  UNL     1     -26.101 -10.096  53.845  1.00  0.00    -0.002 C 
BRANCH  16  17
HETATM   17  C4  UNL     1     -25.809 -10.006  52.384  1.00  0.00     0.206 C 
BRANCH  17  18
HETATM   18  O2  UNL     1     -26.332  -8.787  51.894  1.00  0.00    -0.318 OA
BRANCH  18  19
HETATM   19  C3  UNL     1     -27.267  -8.837  50.846  1.00  0.00     0.258 C 
HETATM   20  O1  UNL     1     -28.286  -9.564  50.986  1.00  0.00    -0.265 OA
BRANCH  19  21
HETATM   21  C2  UNL     1     -27.029  -8.042  49.624  1.00  0.00     0.106 C 
HETATM   22  C1  UNL     1     -28.345  -7.853  48.917  1.00  0.00     0.015 C 
ENDBRANCH  19  21
ENDBRANCH  18  19
ENDBRANCH  17  18
ENDBRANCH  16  17
ENDBRANCH   1  15
BRANCH   4  23
HETATM   23  O3  UNL     1     -24.548  -7.815  58.442  1.00  0.00    -0.290 OA
ATOM     24  H3  UNL     1     -23.849  -7.172  58.421  1.00  0.00     0.244 HD
ENDBRANCH   4  23
TORSDOF 6
ENDMDL
