MODEL 1
REMARK VINA RESULT: -5.636481460      0.000      0.000
REMARK  2 active torsions:
REMARK  status: ('A' for Active; 'I' for Inactive)
REMARK    1  A    between atoms: C1_2  and  C2_3 
REMARK    2  A    between atoms: C12_16  and  C13_17 
ROOT
HETATM    1  C2  UNL     1     -47.010  25.411   2.653  1.00  0.00    -0.047 C 
HETATM    2  C3  UNL     1     -47.747  26.392   1.863  1.00  0.00    -0.021 C 
HETATM    3  C4  UNL     1     -47.406  27.835   1.881  1.00  0.00     0.027 C 
HETATM    4  C5  UNL     1     -48.277  28.479   0.806  1.00  0.00     0.004 C 
HETATM    5  C6  UNL     1     -48.119  27.904  -0.550  1.00  0.00     0.000 C 
HETATM    6  C7  UNL     1     -49.285  27.111  -1.018  1.00  0.00     0.002 C 
HETATM    7  C8  UNL     1     -49.099  26.227  -2.172  1.00  0.00     0.027 C 
HETATM    8  C9  UNL     1     -47.940  25.325  -2.233  1.00  0.00     0.232 C 
HETATM    9  N1  UNL     1     -48.035  24.108  -1.450  1.00  0.00    -0.075 N 
ATOM     10  H11 UNL     1     -48.163  23.288  -2.043  1.00  0.00     0.277 HD
ATOM     11  H12 UNL     1     -48.912  24.063  -0.931  1.00  0.00     0.277 HD
HETATM   12  C10 UNL     1     -46.864  23.958  -0.556  1.00  0.00     0.233 C 
HETATM   13  C11 UNL     1     -47.252  23.740   0.848  1.00  0.00     0.041 C 
HETATM   14  C12 UNL     1     -46.355  24.259   1.938  1.00  0.00     0.051 C 
ENDROOT
BRANCH  14  15
HETATM   15  C13 UNL     1     -44.983  24.366   1.544  1.00  0.00    -0.044 A 
HETATM   16  C14 UNL     1     -44.332  25.495   1.104  1.00  0.00     0.050 A 
HETATM   17  C15 UNL     1     -43.004  25.538   0.728  1.00  0.00     0.119 A 
HETATM   18  F2  UNL     1     -42.408  26.683   0.300  1.00  0.00    -0.206 F 
HETATM   19  C16 UNL     1     -42.259  24.369   0.792  1.00  0.00     0.084 A 
HETATM   20  C17 UNL     1     -42.876  23.230   1.225  1.00  0.00     0.119 A 
HETATM   21  F3  UNL     1     -42.111  22.096   1.276  1.00  0.00    -0.206 F 
HETATM   22  C18 UNL     1     -44.202  23.231   1.590  1.00  0.00     0.050 A 
ENDBRANCH  14  15
BRANCH   1  23
HETATM   23  C1  UNL     1     -46.241  25.899   3.842  1.00  0.00     0.257 C 
HETATM   24  F1  UNL     1     -46.213  25.061   4.912  1.00  0.00    -0.251 F 
ENDBRANCH   1  23
TORSDOF 2
ENDMDL
MODEL 2
REMARK VINA RESULT: -5.310629338      1.066      1.292
REMARK  2 active torsions:
REMARK  status: ('A' for Active; 'I' for Inactive)
REMARK    1  A    between atoms: C1_2  and  C2_3 
REMARK    2  A    between atoms: C12_16  and  C13_17 
ROOT
HETATM    1  C2  UNL     1     -46.939  24.132   2.912  1.00  0.00    -0.047 C 
HETATM    2  C3  UNL     1     -47.779  25.307   2.706  1.00  0.00    -0.021 C 
HETATM    3  C4  UNL     1     -47.584  26.560   3.474  1.00  0.00     0.027 C 
HETATM    4  C5  UNL     1     -48.526  27.582   2.846  1.00  0.00     0.004 C 
HETATM    5  C6  UNL     1     -48.327  27.803   1.394  1.00  0.00     0.000 C 
HETATM    6  C7  UNL     1     -49.413  27.259   0.537  1.00  0.00     0.002 C 
HETATM    7  C8  UNL     1     -49.152  27.116  -0.898  1.00  0.00     0.027 C 
HETATM    8  C9  UNL     1     -47.909  26.483  -1.363  1.00  0.00     0.232 C 
HETATM    9  N1  UNL     1     -47.874  25.033  -1.318  1.00  0.00    -0.075 N 
ATOM     10  H11 UNL     1     -47.926  24.627  -2.253  1.00  0.00     0.277 HD
ATOM     11  H12 UNL     1     -48.736  24.649  -0.933  1.00  0.00     0.277 HD
HETATM   12  C10 UNL     1     -46.684  24.553  -0.580  1.00  0.00     0.233 C 
HETATM   13  C11 UNL     1     -47.033  23.611   0.497  1.00  0.00     0.041 C 
HETATM   14  C12 UNL     1     -46.180  23.576   1.736  1.00  0.00     0.051 C 
ENDROOT
BRANCH  14  15
HETATM   15  C13 UNL     1     -44.830  23.995   1.510  1.00  0.00    -0.044 A 
HETATM   16  C14 UNL     1     -44.382  25.281   1.318  1.00  0.00     0.050 A 
HETATM   17  C15 UNL     1     -43.064  25.627   1.095  1.00  0.00     0.119 A 
HETATM   18  F2  UNL     1     -42.673  26.917   0.911  1.00  0.00    -0.206 F 
HETATM   19  C16 UNL     1     -42.111  24.619   1.060  1.00  0.00     0.084 A 
HETATM   20  C17 UNL     1     -42.524  23.330   1.247  1.00  0.00     0.119 A 
HETATM   21  F3  UNL     1     -41.557  22.362   1.206  1.00  0.00    -0.206 F 
HETATM   22  C18 UNL     1     -43.847  23.029   1.466  1.00  0.00     0.050 A 
ENDBRANCH  14  15
BRANCH   1  23
HETATM   23  C1  UNL     1     -46.209  24.007   4.214  1.00  0.00     0.257 C 
HETATM   24  F1  UNL     1     -45.809  22.752   4.550  1.00  0.00    -0.251 F 
ENDBRANCH   1  23
TORSDOF 2
ENDMDL
MODEL 3
REMARK VINA RESULT: -5.256819509      0.354      1.761
REMARK  2 active torsions:
REMARK  status: ('A' for Active; 'I' for Inactive)
REMARK    1  A    between atoms: C1_2  and  C2_3 
REMARK    2  A    between atoms: C12_16  and  C13_17 
ROOT
HETATM    1  C2  UNL     1     -47.134  25.011   2.660  1.00  0.00    -0.047 C 
HETATM    2  C3  UNL     1     -47.803  26.100   1.957  1.00  0.00    -0.021 C 
HETATM    3  C4  UNL     1     -47.427  27.519   2.162  1.00  0.00     0.027 C 
HETATM    4  C5  UNL     1     -48.223  28.311   1.129  1.00  0.00     0.004 C 
HETATM    5  C6  UNL     1     -48.009  27.894  -0.276  1.00  0.00     0.000 C 
HETATM    6  C7  UNL     1     -49.169  27.197  -0.892  1.00  0.00     0.002 C 
HETATM    7  C8  UNL     1     -48.945  26.449  -2.132  1.00  0.00     0.027 C 
HETATM    8  C9  UNL     1     -47.807  25.524  -2.241  1.00  0.00     0.232 C 
HETATM    9  N1  UNL     1     -47.975  24.227  -1.613  1.00  0.00    -0.075 N 
ATOM     10  H11 UNL     1     -48.092  23.487  -2.304  1.00  0.00     0.277 HD
ATOM     11  H12 UNL     1     -48.879  24.150  -1.147  1.00  0.00     0.277 HD
HETATM   12  C10 UNL     1     -46.857  23.937  -0.687  1.00  0.00     0.233 C 
HETATM   13  C11 UNL     1     -47.323  23.570   0.661  1.00  0.00     0.041 C 
HETATM   14  C12 UNL     1     -46.472  23.929   1.848  1.00  0.00     0.051 C 
ENDROOT
BRANCH  14  15
HETATM   15  C13 UNL     1     -45.079  24.038   1.537  1.00  0.00    -0.044 A 
HETATM   16  C14 UNL     1     -44.150  23.024   1.526  1.00  0.00     0.050 A 
HETATM   17  C15 UNL     1     -42.812  23.189   1.226  1.00  0.00     0.119 A 
HETATM   18  F2  UNL     1     -41.934  22.150   1.229  1.00  0.00    -0.206 F 
HETATM   19  C16 UNL     1     -42.356  24.461   0.910  1.00  0.00     0.084 A 
HETATM   20  C17 UNL     1     -43.254  25.490   0.912  1.00  0.00     0.119 A 
HETATM   21  F3  UNL     1     -42.768  26.731   0.596  1.00  0.00    -0.206 F 
HETATM   22  C18 UNL     1     -44.578  25.282   1.217  1.00  0.00     0.050 A 
ENDBRANCH  14  15
BRANCH   1  23
HETATM   23  C1  UNL     1     -46.416  25.331   3.935  1.00  0.00     0.257 C 
HETATM   24  F1  UNL     1     -46.230  24.289   4.788  1.00  0.00    -0.251 F 
ENDBRANCH   1  23
TORSDOF 2
ENDMDL
MODEL 4
REMARK VINA RESULT: -5.180324407     16.995     19.277
REMARK  2 active torsions:
REMARK  status: ('A' for Active; 'I' for Inactive)
REMARK    1  A    between atoms: C1_2  and  C2_3 
REMARK    2  A    between atoms: C12_16  and  C13_17 
ROOT
HETATM    1  C2  UNL     1     -26.504  28.529   1.646  1.00  0.00    -0.047 C 
HETATM    2  C3  UNL     1     -26.997  28.298   2.999  1.00  0.00    -0.021 C 
HETATM    3  C4  UNL     1     -28.287  28.853   3.474  1.00  0.00     0.027 C 
HETATM    4  C5  UNL     1     -28.517  28.244   4.854  1.00  0.00     0.004 C 
HETATM    5  C6  UNL     1     -28.522  26.763   4.887  1.00  0.00     0.000 C 
HETATM    6  C7  UNL     1     -27.335  26.161   5.549  1.00  0.00     0.002 C 
HETATM    7  C8  UNL     1     -27.073  24.736   5.333  1.00  0.00     0.027 C 
HETATM    8  C9  UNL     1     -27.110  24.176   3.974  1.00  0.00     0.232 C 
HETATM    9  N1  UNL     1     -25.936  24.408   3.154  1.00  0.00    -0.075 N 
ATOM     10  H11 UNL     1     -25.390  23.556   3.028  1.00  0.00     0.277 HD
ATOM     11  H12 UNL     1     -25.240  24.968   3.646  1.00  0.00     0.277 HD
HETATM   12  C10 UNL     1     -26.307  25.015   1.856  1.00  0.00     0.233 C 
HETATM   13  C11 UNL     1     -25.553  26.249   1.576  1.00  0.00     0.041 C 
HETATM   14  C12 UNL     1     -26.212  27.337   0.773  1.00  0.00     0.051 C 
ENDROOT
BRANCH  14  15
HETATM   15  C13 UNL     1     -27.224  26.855  -0.117  1.00  0.00    -0.044 A 
HETATM   16  C14 UNL     1     -28.569  26.732   0.144  1.00  0.00     0.050 A 
HETATM   17  C15 UNL     1     -29.501  26.251  -0.754  1.00  0.00     0.119 A 
HETATM   18  F2  UNL     1     -30.822  26.150  -0.445  1.00  0.00    -0.206 F 
HETATM   19  C16 UNL     1     -29.068  25.859  -2.013  1.00  0.00     0.084 A 
HETATM   20  C17 UNL     1     -27.738  25.969  -2.304  1.00  0.00     0.119 A 
HETATM   21  F3  UNL     1     -27.347  25.574  -3.555  1.00  0.00    -0.206 F 
HETATM   22  C18 UNL     1     -26.842  26.453  -1.380  1.00  0.00     0.050 A 
ENDBRANCH  14  15
BRANCH   1  23
HETATM   23  C1  UNL     1     -27.037  29.711   0.894  1.00  0.00     0.257 C 
HETATM   24  F1  UNL     1     -26.342  30.066  -0.219  1.00  0.00    -0.251 F 
ENDBRANCH   1  23
TORSDOF 2
ENDMDL
MODEL 5
REMARK VINA RESULT: -5.176975782      2.572      4.702
REMARK  2 active torsions:
REMARK  status: ('A' for Active; 'I' for Inactive)
REMARK    1  A    between atoms: C1_2  and  C2_3 
REMARK    2  A    between atoms: C12_16  and  C13_17 
ROOT
HETATM    1  C2  UNL     1     -47.305  25.453   0.571  1.00  0.00    -0.047 C 
HETATM    2  C3  UNL     1     -48.282  24.877   1.488  1.00  0.00    -0.021 C 
HETATM    3  C4  UNL     1     -48.767  23.482   1.349  1.00  0.00     0.027 C 
HETATM    4  C5  UNL     1     -49.622  23.216   2.584  1.00  0.00     0.004 C 
HETATM    5  C6  UNL     1     -48.929  23.420   3.877  1.00  0.00     0.000 C 
HETATM    6  C7  UNL     1     -49.384  24.615   4.634  1.00  0.00     0.002 C 
HETATM    7  C8  UNL     1     -48.543  25.097   5.733  1.00  0.00     0.027 C 
HETATM    8  C9  UNL     1     -47.095  25.265   5.537  1.00  0.00     0.232 C 
HETATM    9  N1  UNL     1     -46.680  26.463   4.833  1.00  0.00    -0.075 N 
ATOM     10  H11 UNL     1     -46.239  27.134   5.462  1.00  0.00     0.277 HD
ATOM     11  H12 UNL     1     -47.481  27.024   4.544  1.00  0.00     0.277 HD
HETATM   12  C10 UNL     1     -45.803  26.130   3.688  1.00  0.00     0.233 C 
HETATM   13  C11 UNL     1     -46.277  26.722   2.426  1.00  0.00     0.041 C 
HETATM   14  C12 UNL     1     -46.018  25.991   1.137  1.00  0.00     0.051 C 
ENDROOT
BRANCH  14  15
HETATM   15  C13 UNL     1     -44.864  25.145   1.185  1.00  0.00    -0.044 A 
HETATM   16  C14 UNL     1     -44.845  23.776   1.325  1.00  0.00     0.050 A 
HETATM   17  C15 UNL     1     -43.698  23.009   1.373  1.00  0.00     0.119 A 
HETATM   18  F2  UNL     1     -43.734  21.657   1.513  1.00  0.00    -0.206 F 
HETATM   19  C16 UNL     1     -42.469  23.647   1.276  1.00  0.00     0.084 A 
HETATM   20  C17 UNL     1     -42.454  25.006   1.136  1.00  0.00     0.119 A 
HETATM   21  F3  UNL     1     -41.225  25.602   1.042  1.00  0.00    -0.206 F 
HETATM   22  C18 UNL     1     -43.620  25.733   1.093  1.00  0.00     0.050 A 
ENDBRANCH  14  15
BRANCH   1  23
HETATM   23  C1  UNL     1     -47.153  24.828  -0.782  1.00  0.00     0.257 C 
HETATM   24  F1  UNL     1     -47.679  25.530  -1.821  1.00  0.00    -0.251 F 
ENDBRANCH   1  23
TORSDOF 2
ENDMDL
