MODEL 1
REMARK VINA RESULT: -8.005399937      0.000      0.000
REMARK  3 active torsions:
REMARK  status: ('A' for Active; 'I' for Inactive)
REMARK    1  A    between atoms: C8_9  and  N1_10 
REMARK    2  A    between atoms: N2_18  and  C14_19 
REMARK    3  A    between atoms: C14_19  and  C15_20 
ROOT
HETATM    1  C1  UNL     1       8.963  17.600  -6.116  1.00  0.00     0.017 C 
HETATM    2  C2  UNL     1       9.193  18.865  -6.889  1.00  0.00    -0.025 C 
HETATM    3  C3  UNL     1      10.657  19.245  -6.526  1.00  0.00     0.017 C 
HETATM    4  C4  UNL     1       8.352  19.964  -6.300  1.00  0.00     0.040 C 
HETATM    5  C5  UNL     1       7.096  20.283  -7.069  1.00  0.00     0.128 C 
HETATM    6  C6  UNL     1       7.337  20.227  -8.521  1.00  0.00     0.149 C 
HETATM    7  O1  UNL     1       7.249  21.057  -9.353  1.00  0.00    -0.296 OA
HETATM    8  C7  UNL     1       7.771  18.840  -8.954  1.00  0.00     0.105 C 
HETATM    9  C8  UNL     1       9.204  18.768  -8.358  1.00  0.00     0.094 C 
HETATM   10  C13 UNL     1       5.879  19.537  -6.745  1.00  0.00     0.243 C 
HETATM   11  O3  UNL     1       5.506  18.374  -6.421  1.00  0.00    -0.272 OA
HETATM   12  N2  UNL     1       5.147  20.783  -6.957  1.00  0.00    -0.319 N 
HETATM   13  C20 UNL     1       6.317  21.432  -6.505  1.00  0.00     0.062 C 
HETATM   14  C21 UNL     1       6.658  22.777  -6.956  1.00  0.00     0.033 C 
HETATM   15  C22 UNL     1       6.698  23.913  -6.011  1.00  0.00     0.002 C 
HETATM   16  C23 UNL     1       6.484  23.638  -4.568  1.00  0.00     0.000 C 
HETATM   17  C24 UNL     1       7.161  22.289  -4.276  1.00  0.00     0.002 C 
HETATM   18  C25 UNL     1       6.285  21.298  -4.971  1.00  0.00     0.033 C 
ENDROOT
BRANCH  12  19
HETATM   19  C14 UNL     1       3.806  20.978  -7.354  1.00  0.00     0.072 C 
BRANCH  19  20
HETATM   20  C15 UNL     1       3.413  21.594  -8.614  1.00  0.00     0.024 C 
HETATM   21  C16 UNL     1       3.892  22.917  -9.029  1.00  0.00     0.010 C 
HETATM   22  C17 UNL     1       2.722  23.638  -9.696  1.00  0.00     0.001 C 
HETATM   23  C18 UNL     1       1.617  23.240  -8.706  1.00  0.00     0.001 C 
HETATM   24  C19 UNL     1       1.879  21.759  -8.603  1.00  0.00     0.010 C 
ENDBRANCH  19  20
ENDBRANCH  12  19
BRANCH   9  25
HETATM   25  N1  UNL     1       9.973  17.800  -8.959  1.00  0.00    -0.403 N 
HETATM   26  C9  UNL     1       9.484  16.659  -9.607  1.00  0.00     0.143 C 
HETATM   27  C10 UNL     1      10.433  15.495  -9.238  1.00  0.00     0.187 C 
HETATM   28  O2  UNL     1      11.718  15.960  -9.087  1.00  0.00    -0.388 OA
HETATM   29  C11 UNL     1      12.044  17.034  -9.912  1.00  0.00     0.187 C 
HETATM   30  C12 UNL     1      11.185  18.251  -9.592  1.00  0.00     0.143 C 
ENDBRANCH   9  25
TORSDOF 3
ENDMDL
MODEL 2
REMARK VINA RESULT: -7.993939970      1.060      1.477
REMARK  3 active torsions:
REMARK  status: ('A' for Active; 'I' for Inactive)
REMARK    1  A    between atoms: C8_9  and  N1_10 
REMARK    2  A    between atoms: N2_18  and  C14_19 
REMARK    3  A    between atoms: C14_19  and  C15_20 
ROOT
HETATM    1  C1  UNL     1       8.885  17.634  -6.244  1.00  0.00     0.017 C 
HETATM    2  C2  UNL     1       9.152  18.871  -7.050  1.00  0.00    -0.025 C 
HETATM    3  C3  UNL     1      10.598  19.265  -6.633  1.00  0.00     0.017 C 
HETATM    4  C4  UNL     1       8.285  19.989  -6.543  1.00  0.00     0.040 C 
HETATM    5  C5  UNL     1       7.067  20.280  -7.381  1.00  0.00     0.128 C 
HETATM    6  C6  UNL     1       7.377  20.170  -8.817  1.00  0.00     0.149 C 
HETATM    7  O1  UNL     1       7.329  20.969  -9.682  1.00  0.00    -0.296 OA
HETATM    8  C7  UNL     1       7.829  18.769  -9.178  1.00  0.00     0.105 C 
HETATM    9  C8  UNL     1       9.232  18.720  -8.513  1.00  0.00     0.094 C 
HETATM   10  C13 UNL     1       5.836  19.545  -7.088  1.00  0.00     0.243 C 
HETATM   11  O3  UNL     1       5.447  18.394  -6.740  1.00  0.00    -0.272 OA
HETATM   12  N2  UNL     1       5.115  20.781  -7.380  1.00  0.00    -0.319 N 
HETATM   13  C20 UNL     1       6.264  21.448  -6.897  1.00  0.00     0.062 C 
HETATM   14  C21 UNL     1       6.627  22.775  -7.381  1.00  0.00     0.033 C 
HETATM   15  C22 UNL     1       6.623  23.945  -6.477  1.00  0.00     0.002 C 
HETATM   16  C23 UNL     1       6.341  23.723  -5.037  1.00  0.00     0.000 C 
HETATM   17  C24 UNL     1       7.002  22.386  -4.664  1.00  0.00     0.002 C 
HETATM   18  C25 UNL     1       6.159  21.370  -5.363  1.00  0.00     0.033 C 
ENDROOT
BRANCH  12  19
HETATM   19  C14 UNL     1       3.795  20.960  -7.847  1.00  0.00     0.072 C 
BRANCH  19  20
HETATM   20  C15 UNL     1       2.733  21.577  -7.065  1.00  0.00     0.024 C 
HETATM   21  C16 UNL     1       2.878  22.893  -6.436  1.00  0.00     0.010 C 
HETATM   22  C17 UNL     1       2.202  22.823  -5.067  1.00  0.00     0.001 C 
HETATM   23  C18 UNL     1       2.719  21.445  -4.631  1.00  0.00     0.001 C 
HETATM   24  C19 UNL     1       2.420  20.647  -5.873  1.00  0.00     0.010 C 
ENDBRANCH  19  20
ENDBRANCH  12  19
BRANCH   9  25
HETATM   25  N1  UNL     1      10.028  17.731  -9.041  1.00  0.00    -0.403 N 
HETATM   26  C9  UNL     1       9.571  16.596  -9.722  1.00  0.00     0.143 C 
HETATM   27  C10 UNL     1      10.458  15.414  -9.268  1.00  0.00     0.187 C 
HETATM   28  O2  UNL     1      11.736  15.853  -9.009  1.00  0.00    -0.388 OA
HETATM   29  C11 UNL     1      12.155  16.913  -9.810  1.00  0.00     0.187 C 
HETATM   30  C12 UNL     1      11.299  18.151  -9.570  1.00  0.00     0.143 C 
ENDBRANCH   9  25
TORSDOF 3
ENDMDL
MODEL 3
REMARK VINA RESULT: -7.634400800      5.089      8.427
REMARK  3 active torsions:
REMARK  status: ('A' for Active; 'I' for Inactive)
REMARK    1  A    between atoms: C8_9  and  N1_10 
REMARK    2  A    between atoms: N2_18  and  C14_19 
REMARK    3  A    between atoms: C14_19  and  C15_20 
ROOT
HETATM    1  C1  UNL     1      16.567  20.953  -6.712  1.00  0.00     0.017 C 
HETATM    2  C2  UNL     1      16.397  19.464  -6.640  1.00  0.00    -0.025 C 
HETATM    3  C3  UNL     1      17.709  18.923  -7.279  1.00  0.00     0.017 C 
HETATM    4  C4  UNL     1      15.306  19.044  -7.586  1.00  0.00     0.040 C 
HETATM    5  C5  UNL     1      13.980  18.750  -6.935  1.00  0.00     0.128 C 
HETATM    6  C6  UNL     1      14.165  18.048  -5.653  1.00  0.00     0.149 C 
HETATM    7  O1  UNL     1      13.812  16.983  -5.296  1.00  0.00    -0.296 OA
HETATM    8  C7  UNL     1      14.954  18.893  -4.671  1.00  0.00     0.105 C 
HETATM    9  C8  UNL     1      16.373  18.850  -5.303  1.00  0.00     0.094 C 
HETATM   10  C13 UNL     1      13.038  19.856  -6.756  1.00  0.00     0.243 C 
HETATM   11  O3  UNL     1      13.023  21.086  -6.465  1.00  0.00    -0.272 OA
HETATM   12  N2  UNL     1      11.976  18.906  -7.075  1.00  0.00    -0.319 N 
HETATM   13  C20 UNL     1      12.933  18.259  -7.887  1.00  0.00     0.062 C 
HETATM   14  C21 UNL     1      12.861  16.826  -8.146  1.00  0.00     0.033 C 
HETATM   15  C22 UNL     1      12.619  16.306  -9.509  1.00  0.00     0.002 C 
HETATM   16  C23 UNL     1      12.553  17.274 -10.631  1.00  0.00     0.000 C 
HETATM   17  C24 UNL     1      13.594  18.364 -10.330  1.00  0.00     0.002 C 
HETATM   18  C25 UNL     1      13.005  19.104  -9.173  1.00  0.00     0.033 C 
ENDROOT
BRANCH  12  19
HETATM   19  C14 UNL     1      10.619  18.914  -6.684  1.00  0.00     0.072 C 
BRANCH  19  20
HETATM   20  C15 UNL     1       9.542  18.332  -7.473  1.00  0.00     0.024 C 
HETATM   21  C16 UNL     1       9.470  18.468  -8.932  1.00  0.00     0.010 C 
HETATM   22  C17 UNL     1       8.002  18.683  -9.298  1.00  0.00     0.001 C 
HETATM   23  C18 UNL     1       7.633  19.671  -8.183  1.00  0.00     0.001 C 
HETATM   24  C19 UNL     1       8.213  18.952  -6.992  1.00  0.00     0.010 C 
ENDBRANCH  19  20
ENDBRANCH  12  19
BRANCH   9  25
HETATM   25  N1  UNL     1      17.358  19.174  -4.400  1.00  0.00    -0.403 N 
HETATM   26  C9  UNL     1      17.287  20.203  -3.453  1.00  0.00     0.143 C 
HETATM   27  C10 UNL     1      18.685  20.861  -3.403  1.00  0.00     0.187 C 
HETATM   28  O2  UNL     1      19.661  19.921  -3.636  1.00  0.00    -0.388 OA
HETATM   29  C11 UNL     1      19.356  18.645  -3.169  1.00  0.00     0.187 C 
HETATM   30  C12 UNL     1      18.137  18.077  -3.885  1.00  0.00     0.143 C 
ENDBRANCH   9  25
TORSDOF 3
ENDMDL
MODEL 4
REMARK VINA RESULT: -7.494214188      5.746      9.174
REMARK  3 active torsions:
REMARK  status: ('A' for Active; 'I' for Inactive)
REMARK    1  A    between atoms: C8_9  and  N1_10 
REMARK    2  A    between atoms: N2_18  and  C14_19 
REMARK    3  A    between atoms: C14_19  and  C15_20 
ROOT
HETATM    1  C1  UNL     1      16.871  21.007  -6.927  1.00  0.00     0.017 C 
HETATM    2  C2  UNL     1      16.666  19.527  -6.796  1.00  0.00    -0.025 C 
HETATM    3  C3  UNL     1      17.920  18.929  -7.495  1.00  0.00     0.017 C 
HETATM    4  C4  UNL     1      15.507  19.110  -7.659  1.00  0.00     0.040 C 
HETATM    5  C5  UNL     1      14.216  18.875  -6.918  1.00  0.00     0.128 C 
HETATM    6  C6  UNL     1      14.462  18.208  -5.627  1.00  0.00     0.149 C 
HETATM    7  O1  UNL     1      14.103  17.165  -5.214  1.00  0.00    -0.296 OA
HETATM    8  C7  UNL     1      15.332  19.060  -4.724  1.00  0.00     0.105 C 
HETATM    9  C8  UNL     1      16.708  18.956  -5.440  1.00  0.00     0.094 C 
HETATM   10  C13 UNL     1      13.317  20.012  -6.719  1.00  0.00     0.243 C 
HETATM   11  O3  UNL     1      13.353  21.251  -6.468  1.00  0.00    -0.272 OA
HETATM   12  N2  UNL     1      12.212  19.083  -6.940  1.00  0.00    -0.319 N 
HETATM   13  C20 UNL     1      13.100  18.385  -7.788  1.00  0.00     0.062 C 
HETATM   14  C21 UNL     1      12.973  16.947  -7.995  1.00  0.00     0.033 C 
HETATM   15  C22 UNL     1      12.633  16.392  -9.322  1.00  0.00     0.002 C 
HETATM   16  C23 UNL     1      12.524  17.326 -10.470  1.00  0.00     0.000 C 
HETATM   17  C24 UNL     1      13.611  18.394 -10.269  1.00  0.00     0.002 C 
HETATM   18  C25 UNL     1      13.115  19.186  -9.103  1.00  0.00     0.033 C 
ENDROOT
BRANCH  12  19
HETATM   19  C14 UNL     1      10.883  19.143  -6.468  1.00  0.00     0.072 C 
BRANCH  19  20
HETATM   20  C15 UNL     1      10.456  18.629  -5.174  1.00  0.00     0.024 C 
HETATM   21  C16 UNL     1      11.321  18.657  -3.990  1.00  0.00     0.010 C 
HETATM   22  C17 UNL     1      11.102  17.347  -3.234  1.00  0.00     0.001 C 
HETATM   23  C18 UNL     1      11.084  16.393  -4.436  1.00  0.00     0.001 C 
HETATM   24  C19 UNL     1      10.133  17.130  -5.343  1.00  0.00     0.010 C 
ENDBRANCH  19  20
ENDBRANCH  12  19
BRANCH   9  25
HETATM   25  N1  UNL     1      17.755  19.279  -4.610  1.00  0.00    -0.403 N 
HETATM   26  C9  UNL     1      17.780  20.353  -3.711  1.00  0.00     0.143 C 
HETATM   27  C10 UNL     1      19.203  20.954  -3.771  1.00  0.00     0.187 C 
HETATM   28  O2  UNL     1      20.126  19.964  -4.012  1.00  0.00    -0.388 OA
HETATM   29  C11 UNL     1      19.798  18.725  -3.468  1.00  0.00     0.187 C 
HETATM   30  C12 UNL     1      18.519  18.176  -4.088  1.00  0.00     0.143 C 
ENDBRANCH   9  25
TORSDOF 3
ENDMDL
MODEL 5
REMARK VINA RESULT: -7.112977257      5.389      8.269
REMARK  3 active torsions:
REMARK  status: ('A' for Active; 'I' for Inactive)
REMARK    1  A    between atoms: C8_9  and  N1_10 
REMARK    2  A    between atoms: N2_18  and  C14_19 
REMARK    3  A    between atoms: C14_19  and  C15_20 
ROOT
HETATM    1  C1  UNL     1      16.274  17.056  -5.404  1.00  0.00     0.017 C 
HETATM    2  C2  UNL     1      15.511  18.293  -5.030  1.00  0.00    -0.025 C 
HETATM    3  C3  UNL     1      15.777  18.429  -3.503  1.00  0.00     0.017 C 
HETATM    4  C4  UNL     1      14.037  18.018  -5.142  1.00  0.00     0.040 C 
HETATM    5  C5  UNL     1      13.382  18.564  -6.384  1.00  0.00     0.128 C 
HETATM    6  C6  UNL     1      13.921  19.893  -6.724  1.00  0.00     0.149 C 
HETATM    7  O1  UNL     1      13.395  20.944  -6.802  1.00  0.00    -0.296 OA
HETATM    8  C7  UNL     1      15.408  19.828  -7.010  1.00  0.00     0.105 C 
HETATM    9  C8  UNL     1      15.981  19.571  -5.588  1.00  0.00     0.094 C 
HETATM   10  C13 UNL     1      13.363  17.723  -7.581  1.00  0.00     0.243 C 
HETATM   11  O3  UNL     1      14.089  16.897  -8.205  1.00  0.00    -0.272 OA
HETATM   12  N2  UNL     1      12.023  18.246  -7.837  1.00  0.00    -0.319 N 
HETATM   13  C20 UNL     1      11.902  18.345  -6.434  1.00  0.00     0.062 C 
HETATM   14  C21 UNL     1      11.040  19.349  -5.819  1.00  0.00     0.033 C 
HETATM   15  C22 UNL     1       9.852  18.958  -5.032  1.00  0.00     0.002 C 
HETATM   16  C23 UNL     1       9.609  17.514  -4.791  1.00  0.00     0.000 C 
HETATM   17  C24 UNL     1      10.989  16.867  -4.592  1.00  0.00     0.002 C 
HETATM   18  C25 UNL     1      11.601  16.913  -5.954  1.00  0.00     0.033 C 
ENDROOT
BRANCH  12  19
HETATM   19  C14 UNL     1      11.338  18.393  -9.063  1.00  0.00     0.072 C 
BRANCH  19  20
HETATM   20  C15 UNL     1      10.623  17.313  -9.729  1.00  0.00     0.024 C 
HETATM   21  C16 UNL     1       9.894  16.276  -8.991  1.00  0.00     0.010 C 
HETATM   22  C17 UNL     1      10.128  14.951  -9.714  1.00  0.00     0.001 C 
HETATM   23  C18 UNL     1      11.629  15.109  -9.994  1.00  0.00     0.001 C 
HETATM   24  C19 UNL     1      11.645  16.506 -10.557  1.00  0.00     0.010 C 
ENDBRANCH  19  20
ENDBRANCH  12  19
BRANCH   9  25
HETATM   25  N1  UNL     1      17.315  19.893  -5.495  1.00  0.00    -0.403 N 
HETATM   26  C9  UNL     1      18.284  19.633  -6.472  1.00  0.00     0.143 C 
HETATM   27  C10 UNL     1      19.564  19.193  -5.725  1.00  0.00     0.187 C 
HETATM   28  O2  UNL     1      19.658  19.845  -4.518  1.00  0.00    -0.388 OA
HETATM   29  C11 UNL     1      19.128  21.133  -4.516  1.00  0.00     0.187 C 
HETATM   30  C12 UNL     1      17.629  21.109  -4.792  1.00  0.00     0.143 C 
ENDBRANCH   9  25
TORSDOF 3
ENDMDL
