MODEL 1
REMARK VINA RESULT: -7.304681545      0.000      0.000
REMARK  17 active torsions:
REMARK  status: ('A' for Active; 'I' for Inactive)
REMARK    1  A    between atoms: O1_2  and  C2_3 
REMARK    2  A    between atoms: C3_4  and  C4_5 
REMARK    3  A    between atoms: C4_5  and  O2_6 
REMARK    4  A    between atoms: C4_5  and  O3_8 
REMARK    5  A    between atoms: O3_8  and  C5_9 
REMARK    6  A    between atoms: C6_10  and  O4_11 
REMARK    7  A    between atoms: C7_13  and  C8_14 
REMARK    8  A    between atoms: C8_14  and  O5_15 
REMARK    9  A    between atoms: O5_15  and  C9_16 
REMARK   10  A    between atoms: C10_22  and  C11_23 
REMARK   11  A    between atoms: C11_23  and  O7_24 
REMARK   12  A    between atoms: C12_26  and  O8_27 
REMARK   13  A    between atoms: C13_29  and  C14_30 
REMARK   14  A    between atoms: C14_30  and  O9_31 
REMARK   15  A    between atoms: C14_30  and  C15_33 
REMARK   16  A    between atoms: C15_33  and  O10_34 
REMARK   17  A    between atoms: C18_42  and  O13_43 
ROOT
HETATM    1  C5  UNL     1      17.076 -10.438  26.240  1.00  0.00     0.199 C 
HETATM    2  C6  UNL     1      16.609 -11.842  25.790  1.00  0.00     0.215 C 
HETATM    3  C7  UNL     1      15.080 -11.705  25.688  1.00  0.00     0.216 C 
HETATM    4  O6  UNL     1      14.621 -11.725  26.975  1.00  0.00    -0.340 OA
HETATM    5  C10 UNL     1      15.171 -10.800  27.808  1.00  0.00     0.188 C 
HETATM    6  C12 UNL     1      15.923  -9.778  26.926  1.00  0.00     0.143 C 
HETATM    7  C13 UNL     1      14.872  -9.409  25.885  1.00  0.00     0.196 C 
HETATM    8  O11 UNL     1      14.847 -10.507  25.022  1.00  0.00    -0.340 OA
ENDROOT
BRANCH   1   9
HETATM    9  O3  UNL     1      18.233 -10.570  27.003  1.00  0.00    -0.344 OA
BRANCH   9  10
HETATM   10  C4  UNL     1      19.261  -9.751  26.610  1.00  0.00     0.311 C 
BRANCH  10  11
HETATM   11  C3  UNL     1      20.453 -10.383  26.065  1.00  0.00     0.103 A 
HETATM   12  C2  UNL     1      20.532 -10.864  24.793  1.00  0.00     0.125 A 
HETATM   13  C20 UNL     1      21.689 -11.474  24.297  1.00  0.00     0.103 A 
HETATM   14  C17 UNL     1      22.779 -11.594  25.109  1.00  0.00     0.115 A 
HETATM   15  N5  UNL     1      22.028 -12.019  23.114  1.00  0.00    -0.293 N 
HETATM   16  C16 UNL     1      22.688 -11.110  26.379  1.00  0.00     0.262 A 
HETATM   17  C18 UNL     1      23.764 -12.230  24.356  1.00  0.00     0.175 A 
HETATM   18  N3  UNL     1      21.567 -10.526  26.842  1.00  0.00    -0.320 N 
HETATM   19  O12 UNL     1      23.721 -11.237  27.114  1.00  0.00    -0.267 OA
ATOM     20  H3  UNL     1      21.550 -10.181  27.802  1.00  0.00     0.169 HD
HETATM   21  N4  UNL     1      23.271 -12.475  23.143  1.00  0.00    -0.274 N 
HETATM   22  C19 UNL     1      23.916 -13.119  22.007  1.00  0.00     0.180 C 
ATOM     23  H5  UNL     1      21.411 -12.074  22.304  1.00  0.00     0.187 HD
BRANCH  12  24
HETATM   24  O1  UNL     1      19.489 -10.789  23.910  1.00  0.00    -0.352 OA
HETATM   25  C1  UNL     1      19.402  -9.893  22.842  1.00  0.00     0.210 C 
ENDBRANCH  12  24
BRANCH  17  26
HETATM   26  O13 UNL     1      25.018 -12.536  24.816  1.00  0.00    -0.344 OA
ATOM     27  H13 UNL     1      25.471 -13.353  24.643  1.00  0.00     0.219 HD
ENDBRANCH  17  26
ENDBRANCH  10  11
BRANCH  10  28
HETATM   28  O2  UNL     1      18.804  -8.676  25.825  1.00  0.00    -0.366 OA
ATOM     29  H2  UNL     1      17.989  -8.867  25.375  1.00  0.00     0.213 HD
ENDBRANCH  10  28
ENDBRANCH   9  10
ENDBRANCH   1   9
BRANCH   2  30
HETATM   30  O4  UNL     1      17.146 -12.182  24.554  1.00  0.00    -0.387 OA
ATOM     31  H4  UNL     1      16.544 -12.717  24.050  1.00  0.00     0.210 HD
ENDBRANCH   2  30
BRANCH   6  32
HETATM   32  O8  UNL     1      16.235  -8.682  27.691  1.00  0.00    -0.382 OA
ATOM     33  H8  UNL     1      15.892  -8.687  28.577  1.00  0.00     0.211 HD
ENDBRANCH   6  32
BRANCH   3  34
HETATM   34  C8  UNL     1      14.519 -12.800  24.858  1.00  0.00     0.249 C 
BRANCH  34  35
HETATM   35  O5  UNL     1      15.091 -14.036  25.166  1.00  0.00    -0.319 OA
BRANCH  35  36
HETATM   36  C9  UNL     1      15.203 -15.061  24.253  1.00  0.00     0.225 C 
HETATM   37  N1  UNL     1      16.307 -15.744  24.287  1.00  0.00    -0.368 N 
ATOM     38  H12 UNL     1      17.035 -15.512  24.963  1.00  0.00     0.159 HD
ATOM     39  H11 UNL     1      16.390 -16.503  23.611  1.00  0.00     0.159 HD
HETATM   40  N2  UNL     1      14.175 -15.389  23.297  1.00  0.00    -0.057 NA
ENDBRANCH  35  36
ENDBRANCH  34  35
ENDBRANCH   3  34
BRANCH   5  41
HETATM   41  C11 UNL     1      15.948 -11.272  28.962  1.00  0.00     0.199 C 
BRANCH  41  42
HETATM   42  O7  UNL     1      15.709 -12.656  29.110  1.00  0.00    -0.398 OA
ATOM     43  H7  UNL     1      14.847 -12.764  29.496  1.00  0.00     0.209 HD
ENDBRANCH  41  42
ENDBRANCH   5  41
BRANCH   7  44
HETATM   44  C14 UNL     1      15.069  -8.125  25.192  1.00  0.00     0.173 C 
BRANCH  44  45
HETATM   45  O9  UNL     1      16.306  -7.546  25.241  1.00  0.00    -0.391 OA
ATOM     46  H9  UNL     1      16.363  -6.626  25.470  1.00  0.00     0.210 HD
ENDBRANCH  44  45
BRANCH  44  47
HETATM   47  C15 UNL     1      14.021  -7.086  25.499  1.00  0.00     0.198 C 
BRANCH  47  48
HETATM   48  O10 UNL     1      13.082  -7.021  24.429  1.00  0.00    -0.398 OA
ATOM     49  H10 UNL     1      12.521  -6.262  24.541  1.00  0.00     0.209 HD
ENDBRANCH  47  48
ENDBRANCH  44  47
ENDBRANCH   7  44
TORSDOF 17
ENDMDL
MODEL 2
REMARK VINA RESULT: -7.295311108      1.872      2.244
REMARK  17 active torsions:
REMARK  status: ('A' for Active; 'I' for Inactive)
REMARK    1  A    between atoms: O1_2  and  C2_3 
REMARK    2  A    between atoms: C3_4  and  C4_5 
REMARK    3  A    between atoms: C4_5  and  O2_6 
REMARK    4  A    between atoms: C4_5  and  O3_8 
REMARK    5  A    between atoms: O3_8  and  C5_9 
REMARK    6  A    between atoms: C6_10  and  O4_11 
REMARK    7  A    between atoms: C7_13  and  C8_14 
REMARK    8  A    between atoms: C8_14  and  O5_15 
REMARK    9  A    between atoms: O5_15  and  C9_16 
REMARK   10  A    between atoms: C10_22  and  C11_23 
REMARK   11  A    between atoms: C11_23  and  O7_24 
REMARK   12  A    between atoms: C12_26  and  O8_27 
REMARK   13  A    between atoms: C13_29  and  C14_30 
REMARK   14  A    between atoms: C14_30  and  O9_31 
REMARK   15  A    between atoms: C14_30  and  C15_33 
REMARK   16  A    between atoms: C15_33  and  O10_34 
REMARK   17  A    between atoms: C18_42  and  O13_43 
ROOT
HETATM    1  C5  UNL     1      16.422 -10.303  25.674  1.00  0.00     0.199 C 
HETATM    2  C6  UNL     1      15.398 -11.383  26.097  1.00  0.00     0.215 C 
HETATM    3  C7  UNL     1      14.235 -10.572  26.693  1.00  0.00     0.216 C 
HETATM    4  O6  UNL     1      14.657 -10.175  27.931  1.00  0.00    -0.340 OA
HETATM    5  C10 UNL     1      15.833  -9.493  27.958  1.00  0.00     0.188 C 
HETATM    6  C12 UNL     1      16.163  -9.086  26.503  1.00  0.00     0.143 C 
HETATM    7  C13 UNL     1      14.860  -8.441  26.043  1.00  0.00     0.196 C 
HETATM    8  O11 UNL     1      14.007  -9.523  25.809  1.00  0.00    -0.340 OA
ENDROOT
BRANCH   1   9
HETATM    9  O3  UNL     1      17.705 -10.835  25.772  1.00  0.00    -0.344 OA
BRANCH   9  10
HETATM   10  C4  UNL     1      18.683 -10.048  25.217  1.00  0.00     0.311 C 
BRANCH  10  11
HETATM   11  C3  UNL     1      20.017 -10.616  25.105  1.00  0.00     0.103 A 
HETATM   12  C2  UNL     1      20.456 -11.292  24.005  1.00  0.00     0.125 A 
HETATM   13  C20 UNL     1      21.743 -11.833  23.927  1.00  0.00     0.103 A 
HETATM   14  C17 UNL     1      22.593 -11.683  24.983  1.00  0.00     0.115 A 
HETATM   15  N5  UNL     1      22.413 -12.525  22.986  1.00  0.00    -0.293 N 
HETATM   16  C16 UNL     1      22.144 -11.007  26.076  1.00  0.00     0.262 A 
HETATM   17  C18 UNL     1      23.783 -12.314  24.623  1.00  0.00     0.175 A 
HETATM   18  N3  UNL     1      20.902 -10.492  26.137  1.00  0.00    -0.320 N 
HETATM   19  O12 UNL     1      22.961 -10.884  27.047  1.00  0.00    -0.267 OA
ATOM     20  H3  UNL     1      20.614  -9.995  26.980  1.00  0.00     0.169 HD
HETATM   21  N4  UNL     1      23.637 -12.817  23.399  1.00  0.00    -0.274 N 
HETATM   22  C19 UNL     1      24.598 -13.562  22.595  1.00  0.00     0.180 C 
ATOM     23  H5  UNL     1      22.030 -12.788  22.079  1.00  0.00     0.187 HD
BRANCH  12  24
HETATM   24  O1  UNL     1      19.671 -11.491  22.901  1.00  0.00    -0.352 OA
HETATM   25  C1  UNL     1      18.986 -12.673  22.605  1.00  0.00     0.210 C 
ENDBRANCH  12  24
BRANCH  17  26
HETATM   26  O13 UNL     1      24.896 -12.386  25.420  1.00  0.00    -0.344 OA
ATOM     27  H13 UNL     1      25.732 -12.748  25.147  1.00  0.00     0.219 HD
ENDBRANCH  17  26
ENDBRANCH  10  11
BRANCH  10  28
HETATM   28  O2  UNL     1      18.248  -9.432  24.028  1.00  0.00    -0.366 OA
ATOM     29  H2  UNL     1      17.351  -9.653  23.804  1.00  0.00     0.213 HD
ENDBRANCH  10  28
ENDBRANCH   9  10
ENDBRANCH   1   9
BRANCH   2  30
HETATM   30  O4  UNL     1      14.960 -12.121  25.004  1.00  0.00    -0.387 OA
ATOM     31  H4  UNL     1      14.280 -11.662  24.526  1.00  0.00     0.210 HD
ENDBRANCH   2  30
BRANCH   6  32
HETATM   32  O8  UNL     1      17.170  -8.155  26.523  1.00  0.00    -0.382 OA
ATOM     33  H8  UNL     1      16.930  -7.283  26.233  1.00  0.00     0.211 HD
ENDBRANCH   6  32
BRANCH   3  34
HETATM   34  C8  UNL     1      13.002 -11.398  26.740  1.00  0.00     0.249 C 
BRANCH  34  35
HETATM   35  O5  UNL     1      12.799 -11.962  28.001  1.00  0.00    -0.319 OA
BRANCH  35  36
HETATM   36  C9  UNL     1      13.715 -12.791  28.609  1.00  0.00     0.225 C 
HETATM   37  N1  UNL     1      13.846 -12.661  29.895  1.00  0.00    -0.368 N 
ATOM     38  H12 UNL     1      13.287 -11.974  30.401  1.00  0.00     0.159 HD
ATOM     39  H11 UNL     1      14.524 -13.275  30.345  1.00  0.00     0.159 HD
HETATM   40  N2  UNL     1      14.505 -13.762  27.894  1.00  0.00    -0.057 NA
ENDBRANCH  35  36
ENDBRANCH  34  35
ENDBRANCH   3  34
BRANCH   5  41
HETATM   41  C11 UNL     1      16.969 -10.084  28.679  1.00  0.00     0.199 C 
BRANCH  41  42
HETATM   42  O7  UNL     1      17.684  -9.035  29.297  1.00  0.00    -0.398 OA
ATOM     43  H7  UNL     1      18.537  -9.371  29.548  1.00  0.00     0.209 HD
ENDBRANCH  41  42
ENDBRANCH   5  41
BRANCH   7  44
HETATM   44  C14 UNL     1      14.962  -7.520  24.899  1.00  0.00     0.173 C 
BRANCH  44  45
HETATM   45  O9  UNL     1      16.203  -7.076  24.534  1.00  0.00    -0.391 OA
ATOM     46  H9  UNL     1      16.260  -6.303  23.985  1.00  0.00     0.210 HD
ENDBRANCH  44  45
BRANCH  44  47
HETATM   47  C15 UNL     1      14.012  -6.351  24.955  1.00  0.00     0.198 C 
BRANCH  47  48
HETATM   48  O10 UNL     1      12.720  -6.762  24.517  1.00  0.00    -0.398 OA
ATOM     49  H10 UNL     1      12.319  -6.068  24.006  1.00  0.00     0.209 HD
ENDBRANCH  47  48
ENDBRANCH  44  47
ENDBRANCH   7  44
TORSDOF 17
ENDMDL
MODEL 3
REMARK VINA RESULT: -6.973904217      2.337      4.370
REMARK  17 active torsions:
REMARK  status: ('A' for Active; 'I' for Inactive)
REMARK    1  A    between atoms: O1_2  and  C2_3 
REMARK    2  A    between atoms: C3_4  and  C4_5 
REMARK    3  A    between atoms: C4_5  and  O2_6 
REMARK    4  A    between atoms: C4_5  and  O3_8 
REMARK    5  A    between atoms: O3_8  and  C5_9 
REMARK    6  A    between atoms: C6_10  and  O4_11 
REMARK    7  A    between atoms: C7_13  and  C8_14 
REMARK    8  A    between atoms: C8_14  and  O5_15 
REMARK    9  A    between atoms: O5_15  and  C9_16 
REMARK   10  A    between atoms: C10_22  and  C11_23 
REMARK   11  A    between atoms: C11_23  and  O7_24 
REMARK   12  A    between atoms: C12_26  and  O8_27 
REMARK   13  A    between atoms: C13_29  and  C14_30 
REMARK   14  A    between atoms: C14_30  and  O9_31 
REMARK   15  A    between atoms: C14_30  and  C15_33 
REMARK   16  A    between atoms: C15_33  and  O10_34 
REMARK   17  A    between atoms: C18_42  and  O13_43 
ROOT
HETATM    1  C5  UNL     1      16.987  -9.890  26.840  1.00  0.00     0.199 C 
HETATM    2  C6  UNL     1      16.286  -9.562  28.179  1.00  0.00     0.215 C 
HETATM    3  C7  UNL     1      14.902 -10.220  28.040  1.00  0.00     0.216 C 
HETATM    4  O6  UNL     1      14.186  -9.401  27.213  1.00  0.00    -0.340 OA
HETATM    5  C10 UNL     1      14.759  -9.139  26.007  1.00  0.00     0.188 C 
HETATM    6  C12 UNL     1      15.920 -10.142  25.823  1.00  0.00     0.143 C 
HETATM    7  C13 UNL     1      15.249 -11.477  26.129  1.00  0.00     0.196 C 
HETATM    8  O11 UNL     1      15.133 -11.488  27.521  1.00  0.00    -0.340 OA
ENDROOT
BRANCH   1   9
HETATM    9  O3  UNL     1      17.878  -8.866  26.533  1.00  0.00    -0.344 OA
BRANCH   9  10
HETATM   10  C4  UNL     1      19.193  -9.258  26.494  1.00  0.00     0.311 C 
BRANCH  10  11
HETATM   11  C3  UNL     1      19.654  -9.938  25.293  1.00  0.00     0.103 A 
HETATM   12  C2  UNL     1      20.636 -10.883  25.296  1.00  0.00     0.125 A 
HETATM   13  C20 UNL     1      21.063 -11.517  24.125  1.00  0.00     0.103 A 
HETATM   14  C17 UNL     1      20.483 -11.183  22.937  1.00  0.00     0.115 A 
HETATM   15  N5  UNL     1      21.986 -12.458  23.853  1.00  0.00    -0.293 N 
HETATM   16  C16 UNL     1      19.503 -10.237  22.946  1.00  0.00     0.262 A 
HETATM   17  C18 UNL     1      21.101 -11.965  21.962  1.00  0.00     0.175 A 
HETATM   18  N3  UNL     1      19.102  -9.636  24.081  1.00  0.00    -0.320 N 
HETATM   19  O12 UNL     1      18.980  -9.946  21.821  1.00  0.00    -0.267 OA
ATOM     20  H3  UNL     1      18.364  -8.932  24.034  1.00  0.00     0.169 HD
HETATM   21  N4  UNL     1      22.014 -12.730  22.556  1.00  0.00    -0.274 N 
HETATM   22  C19 UNL     1      22.914 -13.710  21.962  1.00  0.00     0.180 C 
ATOM     23  H5  UNL     1      22.583 -12.903  24.550  1.00  0.00     0.187 HD
BRANCH  12  24
HETATM   24  O1  UNL     1      21.275 -11.278  26.440  1.00  0.00    -0.352 OA
HETATM   25  C1  UNL     1      22.607 -10.997  26.755  1.00  0.00     0.210 C 
ENDBRANCH  12  24
BRANCH  17  26
HETATM   26  O13 UNL     1      20.797 -11.925  20.626  1.00  0.00    -0.344 OA
ATOM     27  H13 UNL     1      20.922 -11.167  20.067  1.00  0.00     0.219 HD
ENDBRANCH  17  26
ENDBRANCH  10  11
BRANCH  10  28
HETATM   28  O2  UNL     1      20.059  -8.229  26.907  1.00  0.00    -0.366 OA
ATOM     29  H2  UNL     1      20.059  -8.100  27.849  1.00  0.00     0.213 HD
ENDBRANCH  10  28
ENDBRANCH   9  10
ENDBRANCH   1   9
BRANCH   2  30
HETATM   30  O4  UNL     1      16.973 -10.107  29.257  1.00  0.00    -0.387 OA
ATOM     31  H4  UNL     1      16.429 -10.716  29.742  1.00  0.00     0.210 HD
ENDBRANCH   2  30
BRANCH   6  32
HETATM   32  O8  UNL     1      16.328 -10.108  24.513  1.00  0.00    -0.382 OA
ATOM     33  H8  UNL     1      15.658  -9.878  23.879  1.00  0.00     0.211 HD
ENDBRANCH   6  32
BRANCH   3  34
HETATM   34  C8  UNL     1      14.274 -10.385  29.375  1.00  0.00     0.249 C 
BRANCH  34  35
HETATM   35  O5  UNL     1      13.995 -11.723  29.659  1.00  0.00    -0.319 OA
BRANCH  35  36
HETATM   36  C9  UNL     1      14.831 -12.522  30.406  1.00  0.00     0.225 C 
HETATM   37  N1  UNL     1      15.949 -12.870  29.844  1.00  0.00    -0.368 N 
ATOM     38  H12 UNL     1      16.170 -12.553  28.900  1.00  0.00     0.159 HD
ATOM     39  H11 UNL     1      16.569 -13.462  30.397  1.00  0.00     0.159 HD
HETATM   40  N2  UNL     1      14.519 -12.970  31.740  1.00  0.00    -0.057 NA
ENDBRANCH  35  36
ENDBRANCH  34  35
ENDBRANCH   3  34
BRANCH   5  41
HETATM   41  C11 UNL     1      15.121  -7.750  25.692  1.00  0.00     0.199 C 
BRANCH  41  42
HETATM   42  O7  UNL     1      14.780  -7.508  24.344  1.00  0.00    -0.398 OA
ATOM     43  H7  UNL     1      14.778  -6.568  24.207  1.00  0.00     0.209 HD
ENDBRANCH  41  42
ENDBRANCH   5  41
BRANCH   7  44
HETATM   44  C14 UNL     1      15.912 -12.675  25.588  1.00  0.00     0.173 C 
BRANCH  44  45
HETATM   45  O9  UNL     1      16.344 -12.646  24.291  1.00  0.00    -0.391 OA
ATOM     46  H9  UNL     1      17.267 -12.493  24.128  1.00  0.00     0.210 HD
ENDBRANCH  44  45
BRANCH  44  47
HETATM   47  C15 UNL     1      15.168 -13.963  25.836  1.00  0.00     0.198 C 
BRANCH  47  48
HETATM   48  O10 UNL     1      14.804 -14.049  27.211  1.00  0.00    -0.398 OA
ATOM     49  H10 UNL     1      13.857 -14.048  27.291  1.00  0.00     0.209 HD
ENDBRANCH  47  48
ENDBRANCH  44  47
ENDBRANCH   7  44
TORSDOF 17
ENDMDL
MODEL 4
REMARK VINA RESULT: -6.914494313      1.403      2.321
REMARK  17 active torsions:
REMARK  status: ('A' for Active; 'I' for Inactive)
REMARK    1  A    between atoms: O1_2  and  C2_3 
REMARK    2  A    between atoms: C3_4  and  C4_5 
REMARK    3  A    between atoms: C4_5  and  O2_6 
REMARK    4  A    between atoms: C4_5  and  O3_8 
REMARK    5  A    between atoms: O3_8  and  C5_9 
REMARK    6  A    between atoms: C6_10  and  O4_11 
REMARK    7  A    between atoms: C7_13  and  C8_14 
REMARK    8  A    between atoms: C8_14  and  O5_15 
REMARK    9  A    between atoms: O5_15  and  C9_16 
REMARK   10  A    between atoms: C10_22  and  C11_23 
REMARK   11  A    between atoms: C11_23  and  O7_24 
REMARK   12  A    between atoms: C12_26  and  O8_27 
REMARK   13  A    between atoms: C13_29  and  C14_30 
REMARK   14  A    between atoms: C14_30  and  O9_31 
REMARK   15  A    between atoms: C14_30  and  C15_33 
REMARK   16  A    between atoms: C15_33  and  O10_34 
REMARK   17  A    between atoms: C18_42  and  O13_43 
ROOT
HETATM    1  C5  UNL     1      16.990 -10.119  26.224  1.00  0.00     0.199 C 
HETATM    2  C6  UNL     1      16.603 -11.598  25.990  1.00  0.00     0.215 C 
HETATM    3  C7  UNL     1      15.065 -11.575  25.967  1.00  0.00     0.216 C 
HETATM    4  O6  UNL     1      14.678 -11.453  27.272  1.00  0.00    -0.340 OA
HETATM    5  C10 UNL     1      15.203 -10.392  27.941  1.00  0.00     0.188 C 
HETATM    6  C12 UNL     1      15.831  -9.449  26.890  1.00  0.00     0.143 C 
HETATM    7  C13 UNL     1      14.701  -9.292  25.877  1.00  0.00     0.196 C 
HETATM    8  O11 UNL     1      14.711 -10.495  25.167  1.00  0.00    -0.340 OA
ENDROOT
BRANCH   1   9
HETATM    9  O3  UNL     1      18.193 -10.073  26.924  1.00  0.00    -0.344 OA
BRANCH   9  10
HETATM   10  C4  UNL     1      19.218  -9.469  26.240  1.00  0.00     0.311 C 
BRANCH  10  11
HETATM   11  C3  UNL     1      19.736 -10.154  25.065  1.00  0.00     0.103 A 
HETATM   12  C2  UNL     1      20.748 -11.065  25.113  1.00  0.00     0.125 A 
HETATM   13  C20 UNL     1      21.230 -11.704  23.966  1.00  0.00     0.103 A 
HETATM   14  C17 UNL     1      20.673 -11.410  22.756  1.00  0.00     0.115 A 
HETATM   15  N5  UNL     1      22.190 -12.619  23.736  1.00  0.00    -0.293 N 
HETATM   16  C16 UNL     1      19.663 -10.497  22.720  1.00  0.00     0.262 A 
HETATM   17  C18 UNL     1      21.345 -12.187  21.813  1.00  0.00     0.175 A 
HETATM   18  N3  UNL     1      19.210  -9.890  23.832  1.00  0.00    -0.320 N 
HETATM   19  O12 UNL     1      19.164 -10.242  21.576  1.00  0.00    -0.267 OA
ATOM     20  H3  UNL     1      18.451  -9.212  23.752  1.00  0.00     0.169 HD
HETATM   21  N4  UNL     1      22.264 -12.911  22.446  1.00  0.00    -0.274 N 
HETATM   22  C19 UNL     1      23.213 -13.871  21.895  1.00  0.00     0.180 C 
ATOM     23  H5  UNL     1      22.781 -13.032  24.458  1.00  0.00     0.187 HD
BRANCH  12  24
HETATM   24  O1  UNL     1      21.366 -11.420  26.281  1.00  0.00    -0.352 OA
HETATM   25  C1  UNL     1      22.639 -11.002  26.676  1.00  0.00     0.210 C 
ENDBRANCH  12  24
BRANCH  17  26
HETATM   26  O13 UNL     1      21.078 -12.180  20.469  1.00  0.00    -0.344 OA
ATOM     27  H13 UNL     1      21.183 -12.930  19.895  1.00  0.00     0.219 HD
ENDBRANCH  17  26
ENDBRANCH  10  11
BRANCH  10  28
HETATM   28  O2  UNL     1      18.962  -8.104  26.010  1.00  0.00    -0.366 OA
ATOM     29  H2  UNL     1      19.021  -7.866  25.092  1.00  0.00     0.213 HD
ENDBRANCH  10  28
ENDBRANCH   9  10
ENDBRANCH   1   9
BRANCH   2  30
HETATM   30  O4  UNL     1      17.096 -12.065  24.777  1.00  0.00    -0.387 OA
ATOM     31  H4  UNL     1      17.096 -13.014  24.746  1.00  0.00     0.210 HD
ENDBRANCH   2  30
BRANCH   6  32
HETATM   32  O8  UNL     1      16.103  -8.243  27.485  1.00  0.00    -0.382 OA
ATOM     33  H8  UNL     1      16.590  -8.286  28.299  1.00  0.00     0.211 HD
ENDBRANCH   6  32
BRANCH   3  34
HETATM   34  C8  UNL     1      14.541 -12.806  25.322  1.00  0.00     0.249 C 
BRANCH  34  35
HETATM   35  O5  UNL     1      14.619 -12.740  23.929  1.00  0.00    -0.319 OA
BRANCH  35  36
HETATM   36  C9  UNL     1      14.767 -13.853  23.132  1.00  0.00     0.225 C 
HETATM   37  N1  UNL     1      15.984 -14.263  22.936  1.00  0.00    -0.368 N 
ATOM     38  H12 UNL     1      16.768 -13.769  23.362  1.00  0.00     0.159 HD
ATOM     39  H11 UNL     1      16.093 -15.087  22.345  1.00  0.00     0.159 HD
HETATM   40  N2  UNL     1      13.660 -14.551  22.529  1.00  0.00    -0.057 NA
ENDBRANCH  35  36
ENDBRANCH  34  35
ENDBRANCH   3  34
BRANCH   5  41
HETATM   41  C11 UNL     1      16.072 -10.654  29.096  1.00  0.00     0.199 C 
BRANCH  41  42
HETATM   42  O7  UNL     1      15.910 -12.007  29.464  1.00  0.00    -0.398 OA
ATOM     43  H7  UNL     1      15.139 -12.070  30.016  1.00  0.00     0.209 HD
ENDBRANCH  41  42
ENDBRANCH   5  41
BRANCH   7  44
HETATM   44  C14 UNL     1      14.768  -8.102  25.012  1.00  0.00     0.173 C 
BRANCH  44  45
HETATM   45  O9  UNL     1      15.987  -7.518  24.807  1.00  0.00    -0.391 OA
ATOM     46  H9  UNL     1      16.409  -7.088  25.542  1.00  0.00     0.210 HD
ENDBRANCH  44  45
BRANCH  44  47
HETATM   47  C15 UNL     1      13.756  -7.036  25.344  1.00  0.00     0.198 C 
BRANCH  47  48
HETATM   48  O10 UNL     1      12.818  -6.916  24.277  1.00  0.00    -0.398 OA
ATOM     49  H10 UNL     1      12.884  -7.674  23.707  1.00  0.00     0.209 HD
ENDBRANCH  47  48
ENDBRANCH  44  47
ENDBRANCH   7  44
TORSDOF 17
ENDMDL
MODEL 5
REMARK VINA RESULT: -6.798825665      2.400      3.234
REMARK  17 active torsions:
REMARK  status: ('A' for Active; 'I' for Inactive)
REMARK    1  A    between atoms: O1_2  and  C2_3 
REMARK    2  A    between atoms: C3_4  and  C4_5 
REMARK    3  A    between atoms: C4_5  and  O2_6 
REMARK    4  A    between atoms: C4_5  and  O3_8 
REMARK    5  A    between atoms: O3_8  and  C5_9 
REMARK    6  A    between atoms: C6_10  and  O4_11 
REMARK    7  A    between atoms: C7_13  and  C8_14 
REMARK    8  A    between atoms: C8_14  and  O5_15 
REMARK    9  A    between atoms: O5_15  and  C9_16 
REMARK   10  A    between atoms: C10_22  and  C11_23 
REMARK   11  A    between atoms: C11_23  and  O7_24 
REMARK   12  A    between atoms: C12_26  and  O8_27 
REMARK   13  A    between atoms: C13_29  and  C14_30 
REMARK   14  A    between atoms: C14_30  and  O9_31 
REMARK   15  A    between atoms: C14_30  and  C15_33 
REMARK   16  A    between atoms: C15_33  and  O10_34 
REMARK   17  A    between atoms: C18_42  and  O13_43 
ROOT
HETATM    1  C5  UNL     1      16.870 -10.132  25.717  1.00  0.00     0.199 C 
HETATM    2  C6  UNL     1      16.156 -11.384  26.278  1.00  0.00     0.215 C 
HETATM    3  C7  UNL     1      14.876 -10.819  26.920  1.00  0.00     0.216 C 
HETATM    4  O6  UNL     1      15.274 -10.250  28.097  1.00  0.00    -0.340 OA
HETATM    5  C10 UNL     1      16.257  -9.317  27.993  1.00  0.00     0.188 C 
HETATM    6  C12 UNL     1      16.388  -8.950  26.497  1.00  0.00     0.143 C 
HETATM    7  C13 UNL     1      14.944  -8.654  26.107  1.00  0.00     0.196 C 
HETATM    8  O11 UNL     1      14.355  -9.916  26.001  1.00  0.00    -0.340 OA
ENDROOT
BRANCH   1   9
HETATM    9  O3  UNL     1      18.245 -10.347  25.743  1.00  0.00    -0.344 OA
BRANCH   9  10
HETATM   10  C4  UNL     1      18.921  -9.787  24.688  1.00  0.00     0.311 C 
BRANCH  10  11
HETATM   11  C3  UNL     1      19.790 -10.656  23.910  1.00  0.00     0.103 A 
HETATM   12  C2  UNL     1      20.826 -11.359  24.448  1.00  0.00     0.125 A 
HETATM   13  C20 UNL     1      21.649 -12.183  23.674  1.00  0.00     0.103 A 
HETATM   14  C17 UNL     1      21.412 -12.292  22.335  1.00  0.00     0.115 A 
HETATM   15  N5  UNL     1      22.710 -12.967  23.943  1.00  0.00    -0.293 N 
HETATM   16  C16 UNL     1      20.374 -11.585  21.808  1.00  0.00     0.262 A 
HETATM   17  C18 UNL     1      22.375 -13.168  21.834  1.00  0.00     0.175 A 
HETATM   18  N3  UNL     1      19.591 -10.795  22.565  1.00  0.00    -0.320 N 
HETATM   19  O12 UNL     1      20.179 -11.706  20.554  1.00  0.00    -0.267 OA
ATOM     20  H3  UNL     1      18.827 -10.285  22.122  1.00  0.00     0.169 HD
HETATM   21  N4  UNL     1      23.150 -13.559  22.843  1.00  0.00    -0.274 N 
HETATM   22  C19 UNL     1      24.289 -14.468  22.823  1.00  0.00     0.180 C 
ATOM     23  H5  UNL     1      23.120 -13.088  24.869  1.00  0.00     0.187 HD
BRANCH  12  24
HETATM   24  O1  UNL     1      21.138 -11.308  25.780  1.00  0.00    -0.352 OA
HETATM   25  C1  UNL     1      22.184 -10.564  26.333  1.00  0.00     0.210 C 
ENDBRANCH  12  24
BRANCH  17  26
HETATM   26  O13 UNL     1      22.477 -13.541  20.519  1.00  0.00    -0.344 OA
ATOM     27  H13 UNL     1      22.015 -13.121  19.803  1.00  0.00     0.219 HD
ENDBRANCH  17  26
ENDBRANCH  10  11
BRANCH  10  28
HETATM   28  O2  UNL     1      18.078  -8.995  23.886  1.00  0.00    -0.366 OA
ATOM     29  H2  UNL     1      18.518  -8.233  23.526  1.00  0.00     0.213 HD
ENDBRANCH  10  28
ENDBRANCH   9  10
ENDBRANCH   1   9
BRANCH   2  30
HETATM   30  O4  UNL     1      15.833 -12.278  25.265  1.00  0.00    -0.387 OA
ATOM     31  H4  UNL     1      16.502 -12.295  24.591  1.00  0.00     0.210 HD
ENDBRANCH   2  30
BRANCH   6  32
HETATM   32  O8  UNL     1      17.150  -7.814  26.387  1.00  0.00    -0.382 OA
ATOM     33  H8  UNL     1      16.891  -7.089  26.943  1.00  0.00     0.211 HD
ENDBRANCH   6  32
BRANCH   3  34
HETATM   34  C8  UNL     1      13.876 -11.900  27.109  1.00  0.00     0.249 C 
BRANCH  34  35
HETATM   35  O5  UNL     1      14.357 -12.919  27.933  1.00  0.00    -0.319 OA
BRANCH  35  36
HETATM   36  C9  UNL     1      14.625 -12.739  29.272  1.00  0.00     0.225 C 
HETATM   37  N1  UNL     1      13.629 -12.355  30.011  1.00  0.00    -0.368 N 
ATOM     38  H12 UNL     1      12.709 -12.203  29.597  1.00  0.00     0.159 HD
ATOM     39  H11 UNL     1      13.827 -12.222  31.003  1.00  0.00     0.159 HD
HETATM   40  N2  UNL     1      15.924 -12.954  29.858  1.00  0.00    -0.057 NA
ENDBRANCH  35  36
ENDBRANCH  34  35
ENDBRANCH   3  34
BRANCH   5  41
HETATM   41  C11 UNL     1      17.543  -9.580  28.653  1.00  0.00     0.199 C 
BRANCH  41  42
HETATM   42  O7  UNL     1      17.661  -8.692  29.745  1.00  0.00    -0.398 OA
ATOM     43  H7  UNL     1      17.674  -7.806  29.401  1.00  0.00     0.209 HD
ENDBRANCH  41  42
ENDBRANCH   5  41
BRANCH   7  44
HETATM   44  C14 UNL     1      14.755  -7.818  24.910  1.00  0.00     0.173 C 
BRANCH  44  45
HETATM   45  O9  UNL     1      15.808  -7.060  24.477  1.00  0.00    -0.391 OA
ATOM     46  H9  UNL     1      15.770  -6.697  23.600  1.00  0.00     0.210 HD
ENDBRANCH  44  45
BRANCH  44  47
HETATM   47  C15 UNL     1      13.509  -6.970  24.934  1.00  0.00     0.198 C 
BRANCH  47  48
HETATM   48  O10 UNL     1      12.386  -7.779  25.276  1.00  0.00    -0.398 OA
ATOM     49  H10 UNL     1      11.719  -7.700  24.603  1.00  0.00     0.209 HD
ENDBRANCH  47  48
ENDBRANCH  44  47
ENDBRANCH   7  44
TORSDOF 17
ENDMDL
