MODEL 1
REMARK VINA RESULT: -8.545495156      0.000      0.000
REMARK  8 active torsions:
REMARK  status: ('A' for Active; 'I' for Inactive)
REMARK       I    between atoms: C1_2  and  N1_3 
REMARK    1  A    between atoms: C1_2  and  C12_21 
REMARK    2  A    between atoms: N1_3  and  C2_5 
REMARK    3  A    between atoms: C3_10  and  S1_11 
REMARK    4  A    between atoms: S1_11  and  C4_12 
REMARK    5  A    between atoms: C4_12  and  C5_13 
REMARK    6  A    between atoms: C5_13  and  C6_14 
REMARK       I    between atoms: C12_21  and  N4_23 
REMARK    7  A    between atoms: N4_23  and  C13_25 
REMARK    8  A    between atoms: C13_25  and  C14_26 
ROOT
HETATM    1  C2  UNL     1      19.340 -18.702  -1.618  1.00  0.00     0.168 A 
HETATM    2  N2  UNL     1      18.818 -17.792  -2.444  1.00  0.00    -0.278 N 
ATOM      3  H2  UNL     1      18.437 -18.070  -3.347  1.00  0.00     0.189 HD
HETATM    4  N3  UNL     1      18.805 -16.577  -2.086  1.00  0.00    -0.286 N 
ATOM      5  H3  UNL     1      18.410 -15.869  -2.705  1.00  0.00     0.188 HD
HETATM    6  C3  UNL     1      19.303 -16.221  -0.912  1.00  0.00     0.130 A 
HETATM    7  S2  UNL     1      19.817 -17.724  -0.290  1.00  0.00    -0.026 SA
ENDROOT
BRANCH   1   8
HETATM    8  N1  UNL     1      19.438 -19.999  -1.813  1.00  0.00    -0.298 N 
HETATM    9  C1  UNL     1      18.243 -20.700  -2.172  1.00  0.00     0.315 C 
HETATM   10  O1  UNL     1      18.143 -21.260  -3.306  1.00  0.00    -0.262 OA
ATOM     11  H1  UNL     1      20.329 -20.485  -1.712  1.00  0.00     0.171 HD
BRANCH   9  12
HETATM   12  C12 UNL     1      17.114 -20.793  -1.261  1.00  0.00     0.310 C 
HETATM   13  O2  UNL     1      16.804 -21.926  -0.794  1.00  0.00    -0.262 OA
HETATM   14  N4  UNL     1      16.384 -19.639  -0.909  1.00  0.00    -0.349 N 
ATOM     15  H4  UNL     1      16.662 -18.742  -1.306  1.00  0.00     0.163 HD
BRANCH  14  16
HETATM   16  C13 UNL     1      15.265 -19.681  -0.014  1.00  0.00     0.161 C 
BRANCH  16  17
HETATM   17  C14 UNL     1      14.697 -18.354   0.309  1.00  0.00    -0.038 A 
HETATM   18  C15 UNL     1      15.550 -17.402   0.819  1.00  0.00     0.025 A 
HETATM   19  C16 UNL     1      15.024 -16.166   1.122  1.00  0.00     0.088 A 
HETATM   20  N5  UNL     1      13.717 -15.901   0.923  1.00  0.00    -0.375 N 
HETATM   21  C17 UNL     1      12.873 -16.830   0.423  1.00  0.00     0.088 A 
ATOM     22  H5  UNL     1      13.355 -14.976   1.156  1.00  0.00     0.164 HD
HETATM   23  C18 UNL     1      13.366 -18.077   0.109  1.00  0.00     0.025 A 
ENDBRANCH  16  17
ENDBRANCH  14  16
ENDBRANCH   9  12
ENDBRANCH   1   8
BRANCH   6  24
HETATM   24  S1  UNL     1      19.398 -14.571  -0.181  1.00  0.00    -0.103 SA
BRANCH  24  25
HETATM   25  C4  UNL     1      20.042 -13.484  -1.509  1.00  0.00     0.086 C 
BRANCH  25  26
HETATM   26  C5  UNL     1      21.410 -14.015  -1.904  1.00  0.00     0.049 C 
BRANCH  26  27
HETATM   27  C6  UNL     1      21.871 -13.407  -3.174  1.00  0.00    -0.057 A 
HETATM   28  C7  UNL     1      21.899 -14.154  -4.324  1.00  0.00     0.007 A 
HETATM   29  C8  UNL     1      22.323 -13.629  -5.534  1.00  0.00     0.001 A 
HETATM   30  C9  UNL     1      22.736 -12.309  -5.598  1.00  0.00     0.000 A 
HETATM   31  C10 UNL     1      22.699 -11.578  -4.429  1.00  0.00     0.001 A 
HETATM   32  C11 UNL     1      22.277 -12.100  -3.229  1.00  0.00     0.007 A 
ENDBRANCH  26  27
ENDBRANCH  25  26
ENDBRANCH  24  25
ENDBRANCH   6  24
TORSDOF 8
ENDMDL
MODEL 2
REMARK VINA RESULT: -7.924444939      4.977      9.899
REMARK  8 active torsions:
REMARK  status: ('A' for Active; 'I' for Inactive)
REMARK       I    between atoms: C1_2  and  N1_3 
REMARK    1  A    between atoms: C1_2  and  C12_21 
REMARK    2  A    between atoms: N1_3  and  C2_5 
REMARK    3  A    between atoms: C3_10  and  S1_11 
REMARK    4  A    between atoms: S1_11  and  C4_12 
REMARK    5  A    between atoms: C4_12  and  C5_13 
REMARK    6  A    between atoms: C5_13  and  C6_14 
REMARK       I    between atoms: C12_21  and  N4_23 
REMARK    7  A    between atoms: N4_23  and  C13_25 
REMARK    8  A    between atoms: C13_25  and  C14_26 
ROOT
HETATM    1  C2  UNL     1      22.133 -13.926  -4.329  1.00  0.00     0.168 A 
HETATM    2  N2  UNL     1      21.134 -14.811  -4.279  1.00  0.00    -0.278 N 
ATOM      3  H2  UNL     1      20.843 -15.312  -5.117  1.00  0.00     0.189 HD
HETATM    4  N3  UNL     1      20.555 -15.017  -3.171  1.00  0.00    -0.286 N 
ATOM      5  H3  UNL     1      19.791 -15.690  -3.115  1.00  0.00     0.188 HD
HETATM    6  C3  UNL     1      20.938 -14.362  -2.086  1.00  0.00     0.130 A 
HETATM    7  S2  UNL     1      22.204 -13.397  -2.698  1.00  0.00    -0.026 SA
ENDROOT
BRANCH   1   8
HETATM    8  N1  UNL     1      22.849 -13.584  -5.378  1.00  0.00    -0.298 N 
HETATM    9  C1  UNL     1      22.922 -14.523  -6.456  1.00  0.00     0.315 C 
HETATM   10  O1  UNL     1      22.432 -14.238  -7.591  1.00  0.00    -0.262 OA
ATOM     11  H1  UNL     1      23.332 -12.687  -5.422  1.00  0.00     0.171 HD
BRANCH   9  12
HETATM   12  C12 UNL     1      23.552 -15.823  -6.289  1.00  0.00     0.310 C 
HETATM   13  O2  UNL     1      24.476 -15.943  -5.435  1.00  0.00    -0.262 OA
HETATM   14  N4  UNL     1      23.137 -16.922  -7.068  1.00  0.00    -0.349 N 
ATOM     15  H4  UNL     1      22.390 -16.787  -7.749  1.00  0.00     0.163 HD
BRANCH  14  16
HETATM   16  C13 UNL     1      23.727 -18.222  -6.938  1.00  0.00     0.161 C 
BRANCH  16  17
HETATM   17  C14 UNL     1      24.957 -18.413  -7.738  1.00  0.00    -0.038 A 
HETATM   18  C15 UNL     1      25.671 -19.573  -7.544  1.00  0.00     0.025 A 
HETATM   19  C16 UNL     1      26.816 -19.753  -8.287  1.00  0.00     0.088 A 
HETATM   20  N5  UNL     1      27.221 -18.821  -9.173  1.00  0.00    -0.375 N 
HETATM   21  C17 UNL     1      26.526 -17.679  -9.369  1.00  0.00     0.088 A 
ATOM     22  H5  UNL     1      28.074 -18.982  -9.710  1.00  0.00     0.164 HD
HETATM   23  C18 UNL     1      25.376 -17.467  -8.644  1.00  0.00     0.025 A 
ENDBRANCH  16  17
ENDBRANCH  14  16
ENDBRANCH   9  12
ENDBRANCH   1   8
BRANCH   6  24
HETATM   24  S1  UNL     1      20.278 -14.481  -0.407  1.00  0.00    -0.103 SA
BRANCH  24  25
HETATM   25  C4  UNL     1      18.784 -15.533  -0.542  1.00  0.00     0.086 C 
BRANCH  25  26
HETATM   26  C5  UNL     1      19.248 -16.980  -0.538  1.00  0.00     0.049 C 
BRANCH  26  27
HETATM   27  C6  UNL     1      18.094 -17.909  -0.518  1.00  0.00    -0.057 A 
HETATM   28  C7  UNL     1      18.053 -18.973  -1.383  1.00  0.00     0.007 A 
HETATM   29  C8  UNL     1      16.995 -19.868  -1.402  1.00  0.00     0.001 A 
HETATM   30  C9  UNL     1      15.938 -19.692  -0.525  1.00  0.00     0.000 A 
HETATM   31  C10 UNL     1      16.002 -18.616   0.335  1.00  0.00     0.001 A 
HETATM   32  C11 UNL     1      17.053 -17.730   0.352  1.00  0.00     0.007 A 
ENDBRANCH  26  27
ENDBRANCH  25  26
ENDBRANCH  24  25
ENDBRANCH   6  24
TORSDOF 8
ENDMDL
MODEL 3
REMARK VINA RESULT: -7.909862510      4.183      9.810
REMARK  8 active torsions:
REMARK  status: ('A' for Active; 'I' for Inactive)
REMARK       I    between atoms: C1_2  and  N1_3 
REMARK    1  A    between atoms: C1_2  and  C12_21 
REMARK    2  A    between atoms: N1_3  and  C2_5 
REMARK    3  A    between atoms: C3_10  and  S1_11 
REMARK    4  A    between atoms: S1_11  and  C4_12 
REMARK    5  A    between atoms: C4_12  and  C5_13 
REMARK    6  A    between atoms: C5_13  and  C6_14 
REMARK       I    between atoms: C12_21  and  N4_23 
REMARK    7  A    between atoms: N4_23  and  C13_25 
REMARK    8  A    between atoms: C13_25  and  C14_26 
ROOT
HETATM    1  C2  UNL     1      20.812 -14.010  -1.973  1.00  0.00     0.168 A 
HETATM    2  N2  UNL     1      20.452 -14.862  -2.935  1.00  0.00    -0.278 N 
ATOM      3  H2  UNL     1      20.585 -14.621  -3.917  1.00  0.00     0.189 HD
HETATM    4  N3  UNL     1      19.943 -15.975  -2.609  1.00  0.00    -0.286 N 
ATOM      5  H3  UNL     1      19.663 -16.637  -3.332  1.00  0.00     0.188 HD
HETATM    6  C3  UNL     1      19.772 -16.282  -1.333  1.00  0.00     0.130 A 
HETATM    7  S2  UNL     1      20.380 -14.887  -0.561  1.00  0.00    -0.026 SA
ENDROOT
BRANCH   1   8
HETATM    8  N1  UNL     1      21.354 -12.820  -2.116  1.00  0.00    -0.298 N 
HETATM    9  C1  UNL     1      22.116 -12.586  -3.305  1.00  0.00     0.315 C 
HETATM   10  O1  UNL     1      21.732 -11.726  -4.155  1.00  0.00    -0.262 OA
ATOM     11  H1  UNL     1      21.236 -12.094  -1.409  1.00  0.00     0.171 HD
BRANCH   9  12
HETATM   12  C12 UNL     1      23.341 -13.319  -3.578  1.00  0.00     0.310 C 
HETATM   13  O2  UNL     1      24.262 -13.304  -2.711  1.00  0.00    -0.262 OA
HETATM   14  N4  UNL     1      23.494 -14.029  -4.786  1.00  0.00    -0.349 N 
ATOM     15  H4  UNL     1      22.731 -14.017  -5.463  1.00  0.00     0.163 HD
BRANCH  14  16
HETATM   16  C13 UNL     1      24.682 -14.767  -5.099  1.00  0.00     0.161 C 
BRANCH  16  17
HETATM   17  C14 UNL     1      24.530 -15.710  -6.229  1.00  0.00    -0.038 A 
HETATM   18  C15 UNL     1      25.473 -15.664  -7.230  1.00  0.00     0.025 A 
HETATM   19  C16 UNL     1      25.334 -16.541  -8.283  1.00  0.00     0.088 A 
HETATM   20  N5  UNL     1      24.307 -17.414  -8.327  1.00  0.00    -0.375 N 
HETATM   21  C17 UNL     1      23.377 -17.465  -7.348  1.00  0.00     0.088 A 
ATOM     22  H5  UNL     1      24.230 -18.052  -9.119  1.00  0.00     0.164 HD
HETATM   23  C18 UNL     1      23.486 -16.603  -6.281  1.00  0.00     0.025 A 
ENDBRANCH  16  17
ENDBRANCH  14  16
ENDBRANCH   9  12
ENDBRANCH   1   8
BRANCH   6  24
HETATM   24  S1  UNL     1      19.076 -17.790  -0.619  1.00  0.00    -0.103 SA
BRANCH  24  25
HETATM   25  C4  UNL     1      18.524 -18.797  -2.048  1.00  0.00     0.086 C 
BRANCH  25  26
HETATM   26  C5  UNL     1      17.344 -19.633  -1.582  1.00  0.00     0.049 C 
BRANCH  26  27
HETATM   27  C6  UNL     1      17.624 -21.080  -1.732  1.00  0.00    -0.057 A 
HETATM   28  C7  UNL     1      18.416 -21.525  -2.760  1.00  0.00     0.007 A 
HETATM   29  C8  UNL     1      18.705 -22.868  -2.940  1.00  0.00     0.001 A 
HETATM   30  C9  UNL     1      18.182 -23.801  -2.061  1.00  0.00     0.000 A 
HETATM   31  C10 UNL     1      17.389 -23.330  -1.036  1.00  0.00     0.001 A 
HETATM   32  C11 UNL     1      17.104 -21.997  -0.859  1.00  0.00     0.007 A 
ENDBRANCH  26  27
ENDBRANCH  25  26
ENDBRANCH  24  25
ENDBRANCH   6  24
TORSDOF 8
ENDMDL
MODEL 4
REMARK VINA RESULT: -7.745381725      4.568     10.059
REMARK  8 active torsions:
REMARK  status: ('A' for Active; 'I' for Inactive)
REMARK       I    between atoms: C1_2  and  N1_3 
REMARK    1  A    between atoms: C1_2  and  C12_21 
REMARK    2  A    between atoms: N1_3  and  C2_5 
REMARK    3  A    between atoms: C3_10  and  S1_11 
REMARK    4  A    between atoms: S1_11  and  C4_12 
REMARK    5  A    between atoms: C4_12  and  C5_13 
REMARK    6  A    between atoms: C5_13  and  C6_14 
REMARK       I    between atoms: C12_21  and  N4_23 
REMARK    7  A    between atoms: N4_23  and  C13_25 
REMARK    8  A    between atoms: C13_25  and  C14_26 
ROOT
HETATM    1  C2  UNL     1      20.751 -13.940  -1.841  1.00  0.00     0.168 A 
HETATM    2  N2  UNL     1      20.529 -14.818  -2.822  1.00  0.00    -0.278 N 
ATOM      3  H2  UNL     1      20.699 -14.562  -3.794  1.00  0.00     0.189 HD
HETATM    4  N3  UNL     1      20.104 -15.974  -2.525  1.00  0.00    -0.286 N 
ATOM      5  H3  UNL     1      19.930 -16.657  -3.263  1.00  0.00     0.188 HD
HETATM    6  C3  UNL     1      19.884 -16.300  -1.261  1.00  0.00     0.130 A 
HETATM    7  S2  UNL     1      20.316 -14.858  -0.457  1.00  0.00    -0.026 SA
ENDROOT
BRANCH   1   8
HETATM    8  N1  UNL     1      21.191 -12.706  -1.953  1.00  0.00    -0.298 N 
HETATM    9  C1  UNL     1      21.992 -12.398  -3.098  1.00  0.00     0.315 C 
HETATM   10  O1  UNL     1      21.579 -11.571  -3.968  1.00  0.00    -0.262 OA
ATOM     11  H1  UNL     1      20.970 -11.997  -1.254  1.00  0.00     0.171 HD
BRANCH   9  12
HETATM   12  C12 UNL     1      23.292 -13.016  -3.304  1.00  0.00     0.310 C 
HETATM   13  O2  UNL     1      23.356 -14.078  -3.989  1.00  0.00    -0.262 OA
HETATM   14  N4  UNL     1      24.452 -12.440  -2.750  1.00  0.00    -0.349 N 
ATOM     15  H4  UNL     1      24.362 -11.585  -2.202  1.00  0.00     0.163 HD
BRANCH  14  16
HETATM   16  C13 UNL     1      25.755 -13.012  -2.927  1.00  0.00     0.161 C 
BRANCH  16  17
HETATM   17  C14 UNL     1      26.500 -13.225  -1.667  1.00  0.00    -0.038 A 
HETATM   18  C15 UNL     1      26.533 -14.501  -1.153  1.00  0.00     0.025 A 
HETATM   19  C16 UNL     1      27.226 -14.702   0.020  1.00  0.00     0.088 A 
HETATM   20  N5  UNL     1      27.850 -13.680   0.641  1.00  0.00    -0.375 N 
HETATM   21  C17 UNL     1      27.821 -12.425   0.143  1.00  0.00     0.088 A 
ATOM     22  H5  UNL     1      28.356 -13.860   1.508  1.00  0.00     0.164 HD
HETATM   23  C18 UNL     1      27.138 -12.188  -1.029  1.00  0.00     0.025 A 
ENDBRANCH  16  17
ENDBRANCH  14  16
ENDBRANCH   9  12
ENDBRANCH   1   8
BRANCH   6  24
HETATM   24  S1  UNL     1      19.287 -17.868  -0.588  1.00  0.00    -0.103 SA
BRANCH  24  25
HETATM   25  C4  UNL     1      18.559 -18.764  -2.011  1.00  0.00     0.086 C 
BRANCH  25  26
HETATM   26  C5  UNL     1      17.417 -19.611  -1.475  1.00  0.00     0.049 C 
BRANCH  26  27
HETATM   27  C6  UNL     1      17.675 -21.053  -1.693  1.00  0.00    -0.057 A 
HETATM   28  C7  UNL     1      18.416 -21.464  -2.772  1.00  0.00     0.007 A 
HETATM   29  C8  UNL     1      18.682 -22.801  -3.018  1.00  0.00     0.001 A 
HETATM   30  C9  UNL     1      18.189 -23.764  -2.155  1.00  0.00     0.000 A 
HETATM   31  C10 UNL     1      17.446 -23.328  -1.078  1.00  0.00     0.001 A 
HETATM   32  C11 UNL     1      17.183 -22.000  -0.835  1.00  0.00     0.007 A 
ENDBRANCH  26  27
ENDBRANCH  25  26
ENDBRANCH  24  25
ENDBRANCH   6  24
TORSDOF 8
ENDMDL
MODEL 5
REMARK VINA RESULT: -7.720854248      3.945      9.707
REMARK  8 active torsions:
REMARK  status: ('A' for Active; 'I' for Inactive)
REMARK       I    between atoms: C1_2  and  N1_3 
REMARK    1  A    between atoms: C1_2  and  C12_21 
REMARK    2  A    between atoms: N1_3  and  C2_5 
REMARK    3  A    between atoms: C3_10  and  S1_11 
REMARK    4  A    between atoms: S1_11  and  C4_12 
REMARK    5  A    between atoms: C4_12  and  C5_13 
REMARK    6  A    between atoms: C5_13  and  C6_14 
REMARK       I    between atoms: C12_21  and  N4_23 
REMARK    7  A    between atoms: N4_23  and  C13_25 
REMARK    8  A    between atoms: C13_25  and  C14_26 
ROOT
HETATM    1  C2  UNL     1      21.299 -14.305  -2.344  1.00  0.00     0.168 A 
HETATM    2  N2  UNL     1      20.680 -15.117  -3.204  1.00  0.00    -0.278 N 
ATOM      3  H2  UNL     1      20.837 -15.026  -4.207  1.00  0.00     0.189 HD
HETATM    4  N3  UNL     1      19.893 -16.002  -2.752  1.00  0.00    -0.286 N 
ATOM      5  H3  UNL     1      19.413 -16.630  -3.395  1.00  0.00     0.188 HD
HETATM    6  C3  UNL     1      19.693 -16.113  -1.448  1.00  0.00     0.130 A 
HETATM    7  S2  UNL     1      20.696 -14.873  -0.841  1.00  0.00    -0.026 SA
ENDROOT
BRANCH   1   8
HETATM    8  N1  UNL     1      22.146 -13.337  -2.623  1.00  0.00    -0.298 N 
HETATM    9  C1  UNL     1      21.934 -12.612  -3.839  1.00  0.00     0.315 C 
HETATM   10  O1  UNL     1      21.640 -11.377  -3.807  1.00  0.00    -0.262 OA
ATOM     11  H1  UNL     1      22.920 -13.113  -1.999  1.00  0.00     0.171 HD
BRANCH   9  12
HETATM   12  C12 UNL     1      22.044 -13.256  -5.137  1.00  0.00     0.310 C 
HETATM   13  O2  UNL     1      21.014 -13.795  -5.635  1.00  0.00    -0.262 OA
HETATM   14  N4  UNL     1      23.276 -13.278  -5.821  1.00  0.00    -0.349 N 
ATOM     15  H4  UNL     1      24.086 -12.835  -5.387  1.00  0.00     0.163 HD
BRANCH  14  16
HETATM   16  C13 UNL     1      23.433 -13.899  -7.103  1.00  0.00     0.161 C 
BRANCH  16  17
HETATM   17  C14 UNL     1      23.858 -15.315  -7.043  1.00  0.00    -0.038 A 
HETATM   18  C15 UNL     1      25.157 -15.576  -6.672  1.00  0.00     0.025 A 
HETATM   19  C16 UNL     1      25.555 -16.894  -6.616  1.00  0.00     0.088 A 
HETATM   20  N5  UNL     1      24.697 -17.891  -6.915  1.00  0.00    -0.375 N 
HETATM   21  C17 UNL     1      23.421 -17.642  -7.280  1.00  0.00     0.088 A 
ATOM     22  H5  UNL     1      25.020 -18.857  -6.864  1.00  0.00     0.164 HD
HETATM   23  C18 UNL     1      22.989 -16.336  -7.346  1.00  0.00     0.025 A 
ENDBRANCH  16  17
ENDBRANCH  14  16
ENDBRANCH   9  12
ENDBRANCH   1   8
BRANCH   6  24
HETATM   24  S1  UNL     1      18.633 -17.282  -0.566  1.00  0.00    -0.103 SA
BRANCH  24  25
HETATM   25  C4  UNL     1      18.974 -18.917  -1.322  1.00  0.00     0.086 C 
BRANCH  25  26
HETATM   26  C5  UNL     1      17.634 -19.550  -1.655  1.00  0.00     0.049 C 
BRANCH  26  27
HETATM   27  C6  UNL     1      17.751 -21.023  -1.757  1.00  0.00    -0.057 A 
HETATM   28  C7  UNL     1      18.433 -21.588  -2.806  1.00  0.00     0.007 A 
HETATM   29  C8  UNL     1      18.568 -22.960  -2.944  1.00  0.00     0.001 A 
HETATM   30  C9  UNL     1      18.000 -23.799  -2.001  1.00  0.00     0.000 A 
HETATM   31  C10 UNL     1      17.320 -23.209  -0.957  1.00  0.00     0.001 A 
HETATM   32  C11 UNL     1      17.187 -21.847  -0.821  1.00  0.00     0.007 A 
ENDBRANCH  26  27
ENDBRANCH  25  26
ENDBRANCH  24  25
ENDBRANCH   6  24
TORSDOF 8
ENDMDL
