MODEL 1
REMARK VINA RESULT: -6.421065885      0.000      0.000
REMARK  7 active torsions:
REMARK  status: ('A' for Active; 'I' for Inactive)
REMARK    1  A    between atoms: C5_6  and  N2_7 
REMARK       I    between atoms: N2_7  and  C6_9 
REMARK    2  A    between atoms: C6_9  and  C7_11 
REMARK    3  A    between atoms: C7_11  and  N3_12 
REMARK    4  A    between atoms: C10_15  and  C11_16 
REMARK    5  A    between atoms: C11_16  and  C12_17 
REMARK    6  A    between atoms: C17_23  and  S2_24 
REMARK    7  A    between atoms: S2_24  and  N4_25 
ROOT
HETATM    1  N1  UNL     1      26.506 -21.433  -8.376  1.00  0.00    -0.191 NA
HETATM    2  C1  UNL     1      26.435 -20.341  -8.001  1.00  0.00     0.099 C 
HETATM    3  C2  UNL     1      26.352 -18.980  -7.513  1.00  0.00     0.046 A 
HETATM    4  C3  UNL     1      27.445 -18.302  -7.097  1.00  0.00     0.025 A 
HETATM    5  C4  UNL     1      27.323 -16.990  -6.633  1.00  0.00     0.032 A 
HETATM    6  C5  UNL     1      26.100 -16.361  -6.590  1.00  0.00     0.058 A 
HETATM    7  C17 UNL     1      24.996 -17.082  -7.024  1.00  0.00     0.107 A 
HETATM    8  C18 UNL     1      25.119 -18.380  -7.482  1.00  0.00     0.050 A 
ENDROOT
BRANCH   7   9
HETATM    9  S2  UNL     1      23.417 -16.336  -6.985  1.00  0.00     0.259 S 
HETATM   10  O2  UNL     1      23.389 -15.121  -7.847  1.00  0.00    -0.201 OA
HETATM   11  O3  UNL     1      23.052 -16.030  -5.562  1.00  0.00    -0.201 OA
BRANCH   9  12
HETATM   12  N4  UNL     1      22.227 -17.421  -7.645  1.00  0.00    -0.324 N 
ATOM     13  H42 UNL     1      22.111 -17.607  -8.641  1.00  0.00     0.169 HD
ATOM     14  H41 UNL     1      21.675 -17.835  -6.894  1.00  0.00     0.169 HD
ENDBRANCH   9  12
ENDBRANCH   7   9
BRANCH   6  15
HETATM   15  N2  UNL     1      25.964 -15.036  -6.130  1.00  0.00    -0.324 N 
HETATM   16  C6  UNL     1      26.114 -14.531  -4.829  1.00  0.00     0.240 C 
HETATM   17  O1  UNL     1      26.403 -15.197  -3.830  1.00  0.00    -0.271 OA
ATOM     18  H2  UNL     1      25.724 -14.348  -6.843  1.00  0.00     0.169 HD
BRANCH  16  19
HETATM   19  C7  UNL     1      25.909 -13.049  -4.611  1.00  0.00     0.230 C 
BRANCH  19  20
HETATM   20  N3  UNL     1      24.505 -12.804  -4.362  1.00  0.00    -0.357 N 
HETATM   21  C8  UNL     1      23.590 -12.624  -5.334  1.00  0.00     0.091 A 
HETATM   22  C9  UNL     1      22.353 -12.414  -4.760  1.00  0.00     0.026 A 
HETATM   23  C10 UNL     1      22.519 -12.468  -3.398  1.00  0.00    -0.037 A 
HETATM   24  C16 UNL     1      23.857 -12.709  -3.186  1.00  0.00     0.098 A 
BRANCH  23  25
HETATM   25  C11 UNL     1      21.496 -12.304  -2.377  1.00  0.00     0.086 C 
BRANCH  25  26
HETATM   26  C12 UNL     1      20.976 -13.664  -1.969  1.00  0.00    -0.013 A 
HETATM   27  C13 UNL     1      20.678 -14.094  -0.705  1.00  0.00     0.015 A 
HETATM   28  C14 UNL     1      20.226 -15.354  -0.572  1.00  0.00     0.008 A 
HETATM   29  C15 UNL     1      20.104 -16.097  -1.712  1.00  0.00     0.050 A 
HETATM   30  S1  UNL     1      20.619 -15.025  -2.931  1.00  0.00    -0.106 SA
ENDBRANCH  25  26
ENDBRANCH  23  25
ENDBRANCH  19  20
ENDBRANCH  16  19
ENDBRANCH   6  15
TORSDOF 7
ENDMDL
MODEL 2
REMARK VINA RESULT: -6.285683756      1.806      3.049
REMARK  7 active torsions:
REMARK  status: ('A' for Active; 'I' for Inactive)
REMARK    1  A    between atoms: C5_6  and  N2_7 
REMARK       I    between atoms: N2_7  and  C6_9 
REMARK    2  A    between atoms: C6_9  and  C7_11 
REMARK    3  A    between atoms: C7_11  and  N3_12 
REMARK    4  A    between atoms: C10_15  and  C11_16 
REMARK    5  A    between atoms: C11_16  and  C12_17 
REMARK    6  A    between atoms: C17_23  and  S2_24 
REMARK    7  A    between atoms: S2_24  and  N4_25 
ROOT
HETATM    1  N1  UNL     1      26.499 -20.801  -8.573  1.00  0.00    -0.191 NA
HETATM    2  C1  UNL     1      26.047 -19.860  -8.074  1.00  0.00     0.099 C 
HETATM    3  C2  UNL     1      25.475 -18.676  -7.467  1.00  0.00     0.046 A 
HETATM    4  C3  UNL     1      24.141 -18.458  -7.444  1.00  0.00     0.025 A 
HETATM    5  C4  UNL     1      23.629 -17.303  -6.849  1.00  0.00     0.032 A 
HETATM    6  C5  UNL     1      24.460 -16.368  -6.277  1.00  0.00     0.058 A 
HETATM    7  C17 UNL     1      25.825 -16.619  -6.315  1.00  0.00     0.107 A 
HETATM    8  C18 UNL     1      26.329 -17.762  -6.905  1.00  0.00     0.050 A 
ENDROOT
BRANCH   7   9
HETATM    9  S2  UNL     1      26.929 -15.463  -5.609  1.00  0.00     0.259 S 
HETATM   10  O2  UNL     1      26.566 -15.190  -4.190  1.00  0.00    -0.201 OA
HETATM   11  O3  UNL     1      26.934 -14.216  -6.444  1.00  0.00    -0.201 OA
BRANCH   9  12
HETATM   12  N4  UNL     1      28.541 -16.120  -5.576  1.00  0.00    -0.324 N 
ATOM     13  H42 UNL     1      28.998 -16.555  -6.376  1.00  0.00     0.169 HD
ATOM     14  H41 UNL     1      28.947 -16.003  -4.648  1.00  0.00     0.169 HD
ENDBRANCH   9  12
ENDBRANCH   7   9
BRANCH   6  15
HETATM   15  N2  UNL     1      23.956 -15.201  -5.668  1.00  0.00    -0.324 N 
HETATM   16  C6  UNL     1      23.535 -14.002  -6.265  1.00  0.00     0.240 C 
HETATM   17  O1  UNL     1      23.538 -13.766  -7.477  1.00  0.00    -0.271 OA
ATOM     18  H2  UNL     1      23.887 -15.233  -4.651  1.00  0.00     0.169 HD
BRANCH  16  19
HETATM   19  C7  UNL     1      23.031 -12.896  -5.366  1.00  0.00     0.230 C 
BRANCH  19  20
HETATM   20  N3  UNL     1      22.183 -13.473  -4.347  1.00  0.00    -0.357 N 
HETATM   21  C8  UNL     1      21.171 -14.324  -4.605  1.00  0.00     0.091 A 
HETATM   22  C9  UNL     1      20.566 -14.685  -3.418  1.00  0.00     0.026 A 
HETATM   23  C10 UNL     1      21.229 -14.033  -2.407  1.00  0.00    -0.037 A 
HETATM   24  C16 UNL     1      22.219 -13.294  -3.013  1.00  0.00     0.098 A 
BRANCH  23  25
HETATM   25  C11 UNL     1      20.949 -14.102  -0.981  1.00  0.00     0.086 C 
BRANCH  25  26
HETATM   26  C12 UNL     1      19.942 -15.200  -0.723  1.00  0.00    -0.013 A 
HETATM   27  C13 UNL     1      18.652 -15.059  -0.291  1.00  0.00     0.015 A 
HETATM   28  C14 UNL     1      17.929 -16.182  -0.127  1.00  0.00     0.008 A 
HETATM   29  C15 UNL     1      18.546 -17.368  -0.408  1.00  0.00     0.050 A 
HETATM   30  S1  UNL     1      20.108 -16.888  -0.889  1.00  0.00    -0.106 SA
ENDBRANCH  25  26
ENDBRANCH  23  25
ENDBRANCH  19  20
ENDBRANCH  16  19
ENDBRANCH   6  15
TORSDOF 7
ENDMDL
MODEL 3
REMARK VINA RESULT: -6.196191416      2.805      8.274
REMARK  7 active torsions:
REMARK  status: ('A' for Active; 'I' for Inactive)
REMARK    1  A    between atoms: C5_6  and  N2_7 
REMARK       I    between atoms: N2_7  and  C6_9 
REMARK    2  A    between atoms: C6_9  and  C7_11 
REMARK    3  A    between atoms: C7_11  and  N3_12 
REMARK    4  A    between atoms: C10_15  and  C11_16 
REMARK    5  A    between atoms: C11_16  and  C12_17 
REMARK    6  A    between atoms: C17_23  and  S2_24 
REMARK    7  A    between atoms: S2_24  and  N4_25 
ROOT
HETATM    1  N1  UNL     1      19.756 -13.478   1.513  1.00  0.00    -0.191 NA
HETATM    2  C1  UNL     1      20.056 -13.660   0.411  1.00  0.00     0.099 C 
HETATM    3  C2  UNL     1      20.445 -13.902  -0.963  1.00  0.00     0.046 A 
HETATM    4  C3  UNL     1      20.155 -15.062  -1.594  1.00  0.00     0.025 A 
HETATM    5  C4  UNL     1      20.548 -15.257  -2.920  1.00  0.00     0.032 A 
HETATM    6  C5  UNL     1      21.231 -14.283  -3.611  1.00  0.00     0.058 A 
HETATM    7  C17 UNL     1      21.514 -13.103  -2.938  1.00  0.00     0.107 A 
HETATM    8  C18 UNL     1      21.125 -12.912  -1.626  1.00  0.00     0.050 A 
ENDROOT
BRANCH   7   9
HETATM    9  S2  UNL     1      22.384 -11.833  -3.763  1.00  0.00     0.259 S 
HETATM   10  O2  UNL     1      21.846 -11.636  -5.139  1.00  0.00    -0.201 OA
HETATM   11  O3  UNL     1      23.848 -12.165  -3.769  1.00  0.00    -0.201 OA
BRANCH   9  12
HETATM   12  N4  UNL     1      22.158 -10.318  -2.937  1.00  0.00    -0.324 N 
ATOM     13  H42 UNL     1      21.743 -10.228  -2.010  1.00  0.00     0.169 HD
ATOM     14  H41 UNL     1      22.500  -9.550  -3.513  1.00  0.00     0.169 HD
ENDBRANCH   9  12
ENDBRANCH   7   9
BRANCH   6  15
HETATM   15  N2  UNL     1      21.627 -14.465  -4.951  1.00  0.00    -0.324 N 
HETATM   16  C6  UNL     1      22.849 -14.936  -5.456  1.00  0.00     0.240 C 
HETATM   17  O1  UNL     1      23.819 -15.285  -4.776  1.00  0.00    -0.271 OA
ATOM     18  H2  UNL     1      20.928 -14.220  -5.651  1.00  0.00     0.169 HD
BRANCH  16  19
HETATM   19  C7  UNL     1      23.011 -15.034  -6.956  1.00  0.00     0.230 C 
BRANCH  19  20
HETATM   20  N3  UNL     1      23.701 -16.264  -7.272  1.00  0.00    -0.357 N 
HETATM   21  C8  UNL     1      23.289 -17.482  -6.869  1.00  0.00     0.091 A 
HETATM   22  C9  UNL     1      24.166 -18.438  -7.339  1.00  0.00     0.026 A 
HETATM   23  C10 UNL     1      25.143 -17.783  -8.049  1.00  0.00    -0.037 A 
HETATM   24  C16 UNL     1      24.827 -16.445  -7.988  1.00  0.00     0.098 A 
BRANCH  23  25
HETATM   25  C11 UNL     1      26.284 -18.374  -8.731  1.00  0.00     0.086 C 
BRANCH  25  26
HETATM   26  C12 UNL     1      26.657 -19.669  -8.046  1.00  0.00    -0.013 A 
HETATM   27  C13 UNL     1      26.103 -20.904  -8.246  1.00  0.00     0.015 A 
HETATM   28  C14 UNL     1      26.594 -21.926  -7.521  1.00  0.00     0.008 A 
HETATM   29  C15 UNL     1      27.605 -21.642  -6.648  1.00  0.00     0.050 A 
HETATM   30  S1  UNL     1      27.842 -19.969  -6.858  1.00  0.00    -0.106 SA
ENDBRANCH  25  26
ENDBRANCH  23  25
ENDBRANCH  19  20
ENDBRANCH  16  19
ENDBRANCH   6  15
TORSDOF 7
ENDMDL
MODEL 4
REMARK VINA RESULT: -6.131639596      2.988      8.471
REMARK  7 active torsions:
REMARK  status: ('A' for Active; 'I' for Inactive)
REMARK    1  A    between atoms: C5_6  and  N2_7 
REMARK       I    between atoms: N2_7  and  C6_9 
REMARK    2  A    between atoms: C6_9  and  C7_11 
REMARK    3  A    between atoms: C7_11  and  N3_12 
REMARK    4  A    between atoms: C10_15  and  C11_16 
REMARK    5  A    between atoms: C11_16  and  C12_17 
REMARK    6  A    between atoms: C17_23  and  S2_24 
REMARK    7  A    between atoms: S2_24  and  N4_25 
ROOT
HETATM    1  N1  UNL     1      19.773 -13.288   1.602  1.00  0.00    -0.191 NA
HETATM    2  C1  UNL     1      20.069 -13.532   0.510  1.00  0.00     0.099 C 
HETATM    3  C2  UNL     1      20.452 -13.850  -0.850  1.00  0.00     0.046 A 
HETATM    4  C3  UNL     1      20.175 -15.050  -1.407  1.00  0.00     0.025 A 
HETATM    5  C4  UNL     1      20.562 -15.319  -2.722  1.00  0.00     0.032 A 
HETATM    6  C5  UNL     1      21.227 -14.379  -3.475  1.00  0.00     0.058 A 
HETATM    7  C17 UNL     1      21.497 -13.156  -2.876  1.00  0.00     0.107 A 
HETATM    8  C18 UNL     1      21.114 -12.893  -1.575  1.00  0.00     0.050 A 
ENDROOT
BRANCH   7   9
HETATM    9  S2  UNL     1      22.344 -11.927  -3.783  1.00  0.00     0.259 S 
HETATM   10  O2  UNL     1      21.784 -11.809  -5.158  1.00  0.00    -0.201 OA
HETATM   11  O3  UNL     1      23.811 -12.247  -3.793  1.00  0.00    -0.201 OA
BRANCH   9  12
HETATM   12  N4  UNL     1      22.117 -10.371  -3.036  1.00  0.00    -0.324 N 
ATOM     13  H42 UNL     1      21.745  -9.553  -3.518  1.00  0.00     0.169 HD
ATOM     14  H41 UNL     1      22.410 -10.405  -2.060  1.00  0.00     0.169 HD
ENDBRANCH   9  12
ENDBRANCH   7   9
BRANCH   6  15
HETATM   15  N2  UNL     1      21.617 -14.635  -4.805  1.00  0.00    -0.324 N 
HETATM   16  C6  UNL     1      22.834 -15.143  -5.288  1.00  0.00     0.240 C 
HETATM   17  O1  UNL     1      23.803 -15.462  -4.593  1.00  0.00    -0.271 OA
ATOM     18  H2  UNL     1      20.917 -14.422  -5.515  1.00  0.00     0.169 HD
BRANCH  16  19
HETATM   19  C7  UNL     1      22.989 -15.321  -6.781  1.00  0.00     0.230 C 
BRANCH  19  20
HETATM   20  N3  UNL     1      23.782 -16.505  -7.029  1.00  0.00    -0.357 N 
HETATM   21  C8  UNL     1      23.273 -17.750  -7.093  1.00  0.00     0.091 A 
HETATM   22  C9  UNL     1      24.293 -18.646  -7.343  1.00  0.00     0.026 A 
HETATM   23  C10 UNL     1      25.458 -17.924  -7.435  1.00  0.00    -0.037 A 
HETATM   24  C16 UNL     1      25.109 -16.608  -7.236  1.00  0.00     0.098 A 
BRANCH  23  25
HETATM   25  C11 UNL     1      26.795 -18.437  -7.689  1.00  0.00     0.086 C 
BRANCH  25  26
HETATM   26  C12 UNL     1      27.477 -17.562  -8.716  1.00  0.00    -0.013 A 
HETATM   27  C13 UNL     1      27.269 -17.552 -10.068  1.00  0.00     0.015 A 
HETATM   28  C14 UNL     1      27.992 -16.685 -10.799  1.00  0.00     0.008 A 
HETATM   29  C15 UNL     1      28.875 -15.887 -10.126  1.00  0.00     0.050 A 
HETATM   30  S1  UNL     1      28.673 -16.367  -8.504  1.00  0.00    -0.106 SA
ENDBRANCH  25  26
ENDBRANCH  23  25
ENDBRANCH  19  20
ENDBRANCH  16  19
ENDBRANCH   6  15
TORSDOF 7
ENDMDL
MODEL 5
REMARK VINA RESULT: -6.031253220      1.867      2.889
REMARK  7 active torsions:
REMARK  status: ('A' for Active; 'I' for Inactive)
REMARK    1  A    between atoms: C5_6  and  N2_7 
REMARK       I    between atoms: N2_7  and  C6_9 
REMARK    2  A    between atoms: C6_9  and  C7_11 
REMARK    3  A    between atoms: C7_11  and  N3_12 
REMARK    4  A    between atoms: C10_15  and  C11_16 
REMARK    5  A    between atoms: C11_16  and  C12_17 
REMARK    6  A    between atoms: C17_23  and  S2_24 
REMARK    7  A    between atoms: S2_24  and  N4_25 
ROOT
HETATM    1  N1  UNL     1      26.342 -21.547  -8.413  1.00  0.00    -0.191 NA
HETATM    2  C1  UNL     1      26.036 -20.465  -8.139  1.00  0.00     0.099 C 
HETATM    3  C2  UNL     1      25.638 -19.112  -7.808  1.00  0.00     0.046 A 
HETATM    4  C3  UNL     1      24.492 -18.849  -7.140  1.00  0.00     0.025 A 
HETATM    5  C4  UNL     1      24.143 -17.530  -6.840  1.00  0.00     0.032 A 
HETATM    6  C5  UNL     1      24.947 -16.478  -7.211  1.00  0.00     0.058 A 
HETATM    7  C17 UNL     1      26.117 -16.779  -7.895  1.00  0.00     0.107 A 
HETATM    8  C18 UNL     1      26.460 -18.085  -8.191  1.00  0.00     0.050 A 
ENDROOT
BRANCH   7   9
HETATM    9  S2  UNL     1      27.175 -15.483  -8.397  1.00  0.00     0.259 S 
HETATM   10  O2  UNL     1      27.670 -14.722  -7.215  1.00  0.00    -0.201 OA
HETATM   11  O3  UNL     1      26.448 -14.605  -9.373  1.00  0.00    -0.201 OA
BRANCH   9  12
HETATM   12  N4  UNL     1      28.589 -16.133  -9.176  1.00  0.00    -0.324 N 
ATOM     13  H42 UNL     1      28.563 -16.768  -9.974  1.00  0.00     0.169 HD
ATOM     14  H41 UNL     1      29.432 -15.787  -8.719  1.00  0.00     0.169 HD
ENDBRANCH   9  12
ENDBRANCH   7   9
BRANCH   6  15
HETATM   15  N2  UNL     1      24.609 -15.144  -6.909  1.00  0.00    -0.324 N 
HETATM   16  C6  UNL     1      23.489 -14.401  -7.314  1.00  0.00     0.240 C 
HETATM   17  O1  UNL     1      22.576 -14.817  -8.033  1.00  0.00    -0.271 OA
ATOM     18  H2  UNL     1      25.272 -14.649  -6.312  1.00  0.00     0.169 HD
BRANCH  16  19
HETATM   19  C7  UNL     1      23.372 -12.971  -6.840  1.00  0.00     0.230 C 
BRANCH  19  20
HETATM   20  N3  UNL     1      23.118 -12.970  -5.416  1.00  0.00    -0.357 N 
HETATM   21  C8  UNL     1      24.048 -13.265  -4.487  1.00  0.00     0.091 A 
HETATM   22  C9  UNL     1      23.482 -13.172  -3.232  1.00  0.00     0.026 A 
HETATM   23  C10 UNL     1      22.169 -12.810  -3.401  1.00  0.00    -0.037 A 
HETATM   24  C16 UNL     1      21.976 -12.694  -4.758  1.00  0.00     0.098 A 
BRANCH  23  25
HETATM   25  C11 UNL     1      21.173 -12.592  -2.363  1.00  0.00     0.086 C 
BRANCH  25  26
HETATM   26  C12 UNL     1      20.688 -13.928  -1.849  1.00  0.00    -0.013 A 
HETATM   27  C13 UNL     1      20.346 -15.028  -2.587  1.00  0.00     0.015 A 
HETATM   28  C14 UNL     1      19.936 -16.119  -1.916  1.00  0.00     0.008 A 
HETATM   29  C15 UNL     1      19.897 -16.036  -0.553  1.00  0.00     0.050 A 
HETATM   30  S1  UNL     1      20.429 -14.447  -0.247  1.00  0.00    -0.106 SA
ENDBRANCH  25  26
ENDBRANCH  23  25
ENDBRANCH  19  20
ENDBRANCH  16  19
ENDBRANCH   6  15
TORSDOF 7
ENDMDL
