MODEL 1
REMARK VINA RESULT: -4.297950282      0.000      0.000
REMARK  1 active torsions:
REMARK  status: ('A' for Active; 'I' for Inactive)
REMARK    1  A    between atoms: S1_2  and  C2_3 
ROOT
HETATM    1  C2  UNL     1       0.589  72.472  24.349  1.00  0.00     0.142 C 
HETATM    2  C3  UNL     1      -0.076  72.303  23.048  1.00  0.00     0.036 C 
HETATM    3  C4  UNL     1      -1.110  71.256  22.896  1.00  0.00     0.008 C 
HETATM    4  C5  UNL     1      -1.477  70.506  24.133  1.00  0.00     0.044 C 
HETATM    5  C6  UNL     1      -1.228  71.249  25.408  1.00  0.00     0.056 C 
HETATM    6  N1  UNL     1       0.009  71.913  25.501  1.00  0.00    -0.389 N 
ATOM      7  H1  UNL     1       0.483  71.988  26.401  1.00  0.00     0.159 HD
ENDROOT
BRANCH   1   8
HETATM    8  S1  UNL     1       2.322  71.887  24.273  1.00  0.00    -0.148 SA
HETATM    9  C1  UNL     1       2.519  70.492  23.158  1.00  0.00     0.092 C 
ENDBRANCH   1   8
TORSDOF 1
ENDMDL
MODEL 2
REMARK VINA RESULT: -4.279870828      1.936      3.102
REMARK  1 active torsions:
REMARK  status: ('A' for Active; 'I' for Inactive)
REMARK    1  A    between atoms: S1_2  and  C2_3 
ROOT
HETATM    1  C2  UNL     1      -0.083  70.644  23.802  1.00  0.00     0.142 C 
HETATM    2  C3  UNL     1       1.190  70.157  23.249  1.00  0.00     0.036 C 
HETATM    3  C4  UNL     1       2.430  70.918  23.513  1.00  0.00     0.008 C 
HETATM    4  C5  UNL     1       2.302  72.093  24.426  1.00  0.00     0.044 C 
HETATM    5  C6  UNL     1       1.157  72.012  25.386  1.00  0.00     0.056 C 
HETATM    6  N1  UNL     1      -0.070  71.587  24.844  1.00  0.00    -0.389 N 
ATOM      7  H1  UNL     1      -0.947  71.962  25.206  1.00  0.00     0.159 HD
ENDROOT
BRANCH   1   8
HETATM    8  S1  UNL     1      -1.153  71.312  22.475  1.00  0.00    -0.148 SA
HETATM    9  C1  UNL     1      -0.399  71.158  20.853  1.00  0.00     0.092 C 
ENDBRANCH   1   8
TORSDOF 1
ENDMDL
MODEL 3
REMARK VINA RESULT: -4.188816541      1.807      2.818
REMARK  1 active torsions:
REMARK  status: ('A' for Active; 'I' for Inactive)
REMARK    1  A    between atoms: S1_2  and  C2_3 
ROOT
HETATM    1  C2  UNL     1       0.663  70.307  24.005  1.00  0.00     0.142 C 
HETATM    2  C3  UNL     1      -0.790  70.525  24.068  1.00  0.00     0.036 C 
HETATM    3  C4  UNL     1      -1.458  71.261  22.972  1.00  0.00     0.008 C 
HETATM    4  C5  UNL     1      -0.598  71.643  21.812  1.00  0.00     0.044 C 
HETATM    5  C6  UNL     1       0.604  70.774  21.618  1.00  0.00     0.056 C 
HETATM    6  N1  UNL     1       1.335  70.466  22.780  1.00  0.00    -0.389 N 
ATOM      7  H1  UNL     1       2.348  70.358  22.734  1.00  0.00     0.159 HD
ENDROOT
BRANCH   1   8
HETATM    8  S1  UNL     1       1.528  71.345  25.239  1.00  0.00    -0.148 SA
HETATM    9  C1  UNL     1       0.597  72.823  25.657  1.00  0.00     0.092 C 
ENDBRANCH   1   8
TORSDOF 1
ENDMDL
MODEL 4
REMARK VINA RESULT: -4.105308713      1.897      3.339
REMARK  1 active torsions:
REMARK  status: ('A' for Active; 'I' for Inactive)
REMARK    1  A    between atoms: S1_2  and  C2_3 
ROOT
HETATM    1  C2  UNL     1       0.166  72.357  23.594  1.00  0.00     0.142 C 
HETATM    2  C3  UNL     1       1.502  72.393  24.209  1.00  0.00     0.036 C 
HETATM    3  C4  UNL     1       2.440  71.277  23.962  1.00  0.00     0.008 C 
HETATM    4  C5  UNL     1       1.981  70.226  23.005  1.00  0.00     0.044 C 
HETATM    5  C6  UNL     1       0.968  70.694  22.009  1.00  0.00     0.056 C 
HETATM    6  N1  UNL     1      -0.079  71.482  22.522  1.00  0.00    -0.389 N 
ATOM      7  H1  UNL     1      -1.014  71.419  22.117  1.00  0.00     0.159 HD
ENDROOT
BRANCH   1   8
HETATM    8  S1  UNL     1      -1.120  72.043  24.859  1.00  0.00    -0.148 SA
HETATM    9  C1  UNL     1      -1.474  70.292  25.048  1.00  0.00     0.092 C 
ENDBRANCH   1   8
TORSDOF 1
ENDMDL
MODEL 5
REMARK VINA RESULT: -4.080814212      2.381      3.205
REMARK  1 active torsions:
REMARK  status: ('A' for Active; 'I' for Inactive)
REMARK    1  A    between atoms: S1_2  and  C2_3 
ROOT
HETATM    1  C2  UNL     1       0.911  71.649  22.985  1.00  0.00     0.142 C 
HETATM    2  C3  UNL     1       0.776  72.505  24.173  1.00  0.00     0.036 C 
HETATM    3  C4  UNL     1       0.983  71.917  25.514  1.00  0.00     0.008 C 
HETATM    4  C5  UNL     1       1.423  70.491  25.550  1.00  0.00     0.044 C 
HETATM    5  C6  UNL     1       2.144  70.032  24.321  1.00  0.00     0.056 C 
HETATM    6  N1  UNL     1       1.570  70.412  23.094  1.00  0.00    -0.389 N 
ATOM      7  H1  UNL     1       1.632  69.792  22.286  1.00  0.00     0.159 HD
ENDROOT
BRANCH   1   8
HETATM    8  S1  UNL     1      -0.725  71.329  22.227  1.00  0.00    -0.148 SA
HETATM    9  C1  UNL     1      -0.600  70.938  20.479  1.00  0.00     0.092 C 
ENDBRANCH   1   8
TORSDOF 1
ENDMDL
