MODEL 1
REMARK VINA RESULT: -5.498050224      0.000      0.000
REMARK  2 active torsions:
REMARK  status: ('A' for Active; 'I' for Inactive)
REMARK    1  A    between atoms: C2_2  and  N1_3 
REMARK    2  A    between atoms: C6_7  and  N2_8 
ROOT
HETATM    1  N1  UNL     1       0.048  70.864  22.744  1.00  0.00    -0.391 N 
HETATM    2  C3  UNL     1       1.448  70.530  22.718  1.00  0.00     0.122 C 
HETATM    3  C4  UNL     1       2.181  70.986  23.961  1.00  0.00     0.022 C 
HETATM    4  C5  UNL     1       1.246  70.879  25.138  1.00  0.00     0.034 C 
HETATM    5  C6  UNL     1       0.361  72.083  25.138  1.00  0.00     0.185 C 
HETATM    6  C7  UNL     1      -1.032  71.653  24.815  1.00  0.00     0.052 C 
HETATM    7  C8  UNL     1      -1.015  70.676  23.689  1.00  0.00     0.124 C 
ENDROOT
BRANCH   5   8
HETATM    8  N2  UNL     1       0.445  72.763  26.426  1.00  0.00    -0.075 N 
ATOM      9  H23 UNL     1       1.308  72.538  26.921  1.00  0.00     0.274 HD
ATOM     10  H22 UNL     1       0.591  73.767  26.321  1.00  0.00     0.274 HD
ATOM     11  H21 UNL     1      -0.382  72.553  26.985  1.00  0.00     0.274 HD
ENDBRANCH   5   8
BRANCH   1  12
HETATM   12  C2  UNL     1      -0.376  71.531  21.567  1.00  0.00     0.075 C 
HETATM   13  C1  UNL     1      -0.489  70.928  20.421  1.00  0.00     0.029 C 
ENDBRANCH   1  12
TORSDOF 2
ENDMDL
MODEL 2
REMARK VINA RESULT: -4.856148378      1.475      3.294
REMARK  2 active torsions:
REMARK  status: ('A' for Active; 'I' for Inactive)
REMARK    1  A    between atoms: C2_2  and  N1_3 
REMARK    2  A    between atoms: C6_7  and  N2_8 
ROOT
HETATM    1  N1  UNL     1      -0.508  71.456  24.100  1.00  0.00    -0.391 N 
HETATM    2  C3  UNL     1       0.111  71.945  25.304  1.00  0.00     0.122 C 
HETATM    3  C4  UNL     1       1.614  71.767  25.301  1.00  0.00     0.022 C 
HETATM    4  C5  UNL     1       2.117  71.936  23.890  1.00  0.00     0.034 C 
HETATM    5  C6  UNL     1       1.896  70.650  23.162  1.00  0.00     0.185 C 
HETATM    6  C7  UNL     1       0.842  70.860  22.126  1.00  0.00     0.052 C 
HETATM    7  C8  UNL     1      -0.282  71.656  22.698  1.00  0.00     0.124 C 
ENDROOT
BRANCH   5   8
HETATM    8  N2  UNL     1       3.153  70.183  22.586  1.00  0.00    -0.075 N 
ATOM      9  H23 UNL     1       3.900  70.143  23.280  1.00  0.00     0.274 HD
ATOM     10  H22 UNL     1       3.120  69.192  22.346  1.00  0.00     0.274 HD
ATOM     11  H21 UNL     1       3.405  70.762  21.785  1.00  0.00     0.274 HD
ENDBRANCH   5   8
BRANCH   1  12
HETATM   12  C2  UNL     1      -1.590  70.577  24.362  1.00  0.00     0.075 C 
HETATM   13  C1  UNL     1      -1.732  69.959  25.497  1.00  0.00     0.029 C 
ENDBRANCH   1  12
TORSDOF 2
ENDMDL
MODEL 3
REMARK VINA RESULT: -4.711832895      1.251      2.249
REMARK  2 active torsions:
REMARK  status: ('A' for Active; 'I' for Inactive)
REMARK    1  A    between atoms: C2_2  and  N1_3 
REMARK    2  A    between atoms: C6_7  and  N2_8 
ROOT
HETATM    1  N1  UNL     1      -0.160  71.653  22.706  1.00  0.00    -0.391 N 
HETATM    2  C3  UNL     1      -1.459  71.215  23.146  1.00  0.00     0.122 C 
HETATM    3  C4  UNL     1      -1.441  70.652  24.550  1.00  0.00     0.022 C 
HETATM    4  C5  UNL     1      -0.416  71.406  25.359  1.00  0.00     0.034 C 
HETATM    5  C6  UNL     1       0.930  70.841  25.043  1.00  0.00     0.185 C 
HETATM    6  C7  UNL     1       1.716  71.865  24.291  1.00  0.00     0.052 C 
HETATM    7  C8  UNL     1       0.856  72.504  23.254  1.00  0.00     0.124 C 
ENDROOT
BRANCH   5   8
HETATM    8  N2  UNL     1       1.597  70.427  26.273  1.00  0.00    -0.075 N 
ATOM      9  H23 UNL     1       1.338  71.016  27.065  1.00  0.00     0.274 HD
ATOM     10  H22 UNL     1       1.238  69.540  26.624  1.00  0.00     0.274 HD
ATOM     11  H21 UNL     1       2.607  70.401  26.130  1.00  0.00     0.274 HD
ENDBRANCH   5   8
BRANCH   1  12
HETATM   12  C2  UNL     1       0.195  71.120  21.440  1.00  0.00     0.075 C 
HETATM   13  C1  UNL     1      -0.666  70.967  20.477  1.00  0.00     0.029 C 
ENDBRANCH   1  12
TORSDOF 2
ENDMDL
MODEL 4
REMARK VINA RESULT: -4.492271388      1.492      3.426
REMARK  2 active torsions:
REMARK  status: ('A' for Active; 'I' for Inactive)
REMARK    1  A    between atoms: C2_2  and  N1_3 
REMARK    2  A    between atoms: C6_7  and  N2_8 
ROOT
HETATM    1  N1  UNL     1      -0.004  71.388  24.874  1.00  0.00    -0.391 N 
HETATM    2  C3  UNL     1       1.131  70.607  25.292  1.00  0.00     0.122 C 
HETATM    3  C4  UNL     1       1.886  70.004  24.128  1.00  0.00     0.022 C 
HETATM    4  C5  UNL     1       1.823  70.960  22.965  1.00  0.00     0.034 C 
HETATM    5  C6  UNL     1       0.503  70.781  22.288  1.00  0.00     0.185 C 
HETATM    6  C7  UNL     1      -0.320  72.007  22.508  1.00  0.00     0.052 C 
HETATM    7  C8  UNL     1      -0.205  72.448  23.928  1.00  0.00     0.124 C 
ENDROOT
BRANCH   5   8
HETATM    8  N2  UNL     1       0.705  70.498  20.870  1.00  0.00    -0.075 N 
ATOM      9  H23 UNL     1       1.691  70.536  20.610  1.00  0.00     0.274 HD
ATOM     10  H22 UNL     1       0.529  69.519  20.646  1.00  0.00     0.274 HD
ATOM     11  H21 UNL     1       0.136  71.128  20.306  1.00  0.00     0.274 HD
ENDBRANCH   5   8
BRANCH   1  12
HETATM   12  C2  UNL     1      -1.196  71.024  25.552  1.00  0.00     0.075 C 
HETATM   13  C1  UNL     1      -1.793  69.885  25.359  1.00  0.00     0.029 C 
ENDBRANCH   1  12
TORSDOF 2
ENDMDL
MODEL 5
REMARK VINA RESULT: -4.468073445      1.351      2.238
REMARK  2 active torsions:
REMARK  status: ('A' for Active; 'I' for Inactive)
REMARK    1  A    between atoms: C2_2  and  N1_3 
REMARK    2  A    between atoms: C6_7  and  N2_8 
ROOT
HETATM    1  N1  UNL     1       0.329  71.491  22.652  1.00  0.00    -0.391 N 
HETATM    2  C3  UNL     1      -0.196  72.674  23.281  1.00  0.00     0.122 C 
HETATM    3  C4  UNL     1       0.025  72.687  24.778  1.00  0.00     0.022 C 
HETATM    4  C5  UNL     1       1.336  72.007  25.078  1.00  0.00     0.034 C 
HETATM    5  C6  UNL     1       1.108  70.531  25.057  1.00  0.00     0.185 C 
HETATM    6  C7  UNL     1       1.817  69.953  23.877  1.00  0.00     0.052 C 
HETATM    7  C8  UNL     1       1.592  70.811  22.678  1.00  0.00     0.124 C 
ENDROOT
BRANCH   5   8
HETATM    8  N2  UNL     1       1.556  69.940  26.314  1.00  0.00    -0.075 N 
ATOM      9  H23 UNL     1       0.785  69.804  26.968  1.00  0.00     0.274 HD
ATOM     10  H22 UNL     1       1.831  68.965  26.203  1.00  0.00     0.274 HD
ATOM     11  H21 UNL     1       2.304  70.505  26.717  1.00  0.00     0.274 HD
ENDBRANCH   5   8
BRANCH   1  12
HETATM   12  C2  UNL     1      -0.621  70.851  21.815  1.00  0.00     0.075 C 
HETATM   13  C1  UNL     1      -0.546  70.882  20.518  1.00  0.00     0.029 C 
ENDBRANCH   1  12
TORSDOF 2
ENDMDL
