MODEL 1
REMARK VINA RESULT: -6.421618227      0.000      0.000
REMARK  7 active torsions:
REMARK  status: ('A' for Active; 'I' for Inactive)
REMARK    1  A    between atoms: C2_2  and  C3_3 
REMARK    2  A    between atoms: C2_2  and  C4_5 
REMARK    3  A    between atoms: C4_5  and  C5_6 
REMARK    4  A    between atoms: N1_8  and  N2_10 
REMARK    5  A    between atoms: N2_10  and  C7_12 
REMARK    6  A    between atoms: C14_25  and  N6_26 
REMARK    7  A    between atoms: C18_31  and  C19_32 
ROOT
HETATM    1  C4  UNL     1     -12.789  84.495  19.514  1.00  0.00     0.067 C 
HETATM    2  C8  UNL     1     -14.307  84.555  19.801  1.00  0.00     0.029 C 
HETATM    3  C9  UNL     1     -15.165  85.387  18.984  1.00  0.00     0.032 C 
HETATM    4  C10 UNL     1     -14.622  86.203  17.886  1.00  0.00     0.089 C 
HETATM    5  C11 UNL     1     -15.253  85.897  16.515  1.00  0.00     0.038 C 
HETATM    6  C12 UNL     1     -14.919  87.610  18.121  1.00  0.00     0.075 C 
HETATM    7  N4  UNL     1     -15.139  88.737  18.319  1.00  0.00    -0.196 NA
HETATM    8  C13 UNL     1     -13.141  85.958  17.674  1.00  0.00     0.049 C 
HETATM    9  N5  UNL     1     -12.526  86.947  17.206  1.00  0.00    -0.399 N 
ATOM     10  H51 UNL     1     -11.529  86.783  17.064  1.00  0.00     0.156 HD
ATOM     11  H52 UNL     1     -12.841  87.881  16.944  1.00  0.00     0.156 HD
HETATM   12  C14 UNL     1     -12.683  84.605  18.055  1.00  0.00     0.050 C 
ENDROOT
BRANCH  12  13
HETATM   13  N6  UNL     1     -11.701  84.029  17.267  1.00  0.00    -0.375 N 
HETATM   14  C15 UNL     1     -11.988  83.270  16.142  1.00  0.00     0.125 C 
HETATM   15  C16 UNL     1     -11.796  84.273  14.971  1.00  0.00     0.042 C 
HETATM   16  C17 UNL     1     -10.424  84.717  15.360  1.00  0.00     0.106 C 
HETATM   17 CL1  UNL     1      -9.927  86.212  14.595  1.00  0.00    -0.123 Cl
HETATM   18  C18 UNL     1     -10.621  84.870  16.897  1.00  0.00     0.102 C 
BRANCH  18  19
HETATM   19  C19 UNL     1      -9.312  84.350  17.457  1.00  0.00     0.022 C 
HETATM   20  C20 UNL     1      -8.276  85.445  17.436  1.00  0.00     0.007 C 
ENDBRANCH  18  19
ENDBRANCH  12  13
BRANCH   1  21
HETATM   21  C2  UNL     1     -12.064  85.530  20.330  1.00  0.00    -0.059 C 
HETATM   22  C1  UNL     1     -12.778  86.213  21.249  1.00  0.00     0.016 C 
BRANCH  21  23
HETATM   23  C3  UNL     1     -10.686  86.004  20.166  1.00  0.00     0.120 C 
HETATM   24 BR1  UNL     1      -9.407  85.428  21.474  1.00  0.00    -0.092 Br
ENDBRANCH  21  23
ENDBRANCH   1  21
BRANCH   1  25
HETATM   25  C5  UNL     1     -12.437  83.164  20.152  1.00  0.00     0.019 C 
HETATM   26  C6  UNL     1     -13.471  82.460  21.000  1.00  0.00     0.066 C 
HETATM   27  N1  UNL     1     -11.315  82.568  20.024  1.00  0.00    -0.306 N 
ATOM     28  H1  UNL     1     -10.593  83.008  19.452  1.00  0.00     0.186 HD
BRANCH  27  29
HETATM   29  N2  UNL     1     -11.030  81.346  20.625  1.00  0.00    -0.279 N 
ATOM     30  H2  UNL     1     -11.696  80.961  21.294  1.00  0.00     0.189 HD
BRANCH  29  31
HETATM   31  C7  UNL     1      -9.835  80.610  20.338  1.00  0.00     0.199 C 
HETATM   32  N3  UNL     1      -9.856  79.429  19.567  1.00  0.00    -0.068 NA
HETATM   33  S1  UNL     1      -8.389  81.121  20.904  1.00  0.00    -0.043 SA
ENDBRANCH  29  31
ENDBRANCH  27  29
ENDBRANCH   1  25
TORSDOF 7
ENDMDL
MODEL 2
REMARK VINA RESULT: -6.354519817      8.287     10.836
REMARK  7 active torsions:
REMARK  status: ('A' for Active; 'I' for Inactive)
REMARK    1  A    between atoms: C2_2  and  C3_3 
REMARK    2  A    between atoms: C2_2  and  C4_5 
REMARK    3  A    between atoms: C4_5  and  C5_6 
REMARK    4  A    between atoms: N1_8  and  N2_10 
REMARK    5  A    between atoms: N2_10  and  C7_12 
REMARK    6  A    between atoms: C14_25  and  N6_26 
REMARK    7  A    between atoms: C18_31  and  C19_32 
ROOT
HETATM    1  C4  UNL     1      -8.033  81.539  11.149  1.00  0.00     0.067 C 
HETATM    2  C8  UNL     1      -9.566  81.330  11.154  1.00  0.00     0.029 C 
HETATM    3  C9  UNL     1     -10.112  79.991  11.213  1.00  0.00     0.032 C 
HETATM    4  C10 UNL     1      -9.237  78.807  11.250  1.00  0.00     0.089 C 
HETATM    5  C11 UNL     1      -9.467  77.904  12.477  1.00  0.00     0.038 C 
HETATM    6  C12 UNL     1      -9.518  77.949  10.106  1.00  0.00     0.075 C 
HETATM    7  N4  UNL     1      -9.728  77.273   9.180  1.00  0.00    -0.196 NA
HETATM    8  C13 UNL     1      -7.773  79.185  11.337  1.00  0.00     0.049 C 
HETATM    9  N5  UNL     1      -7.000  78.341  10.820  1.00  0.00    -0.399 N 
ATOM     10  H51 UNL     1      -6.014  78.594  10.879  1.00  0.00     0.156 HD
ATOM     11  H52 UNL     1      -7.180  77.451  10.355  1.00  0.00     0.156 HD
HETATM   12  C14 UNL     1      -7.511  80.474  12.012  1.00  0.00     0.050 C 
ENDROOT
BRANCH  12  13
HETATM   13  N6  UNL     1      -6.376  80.552  12.800  1.00  0.00    -0.375 N 
HETATM   14  C15 UNL     1      -6.417  80.511  14.185  1.00  0.00     0.125 C 
HETATM   15  C16 UNL     1      -6.072  79.032  14.513  1.00  0.00     0.042 C 
HETATM   16  C17 UNL     1      -4.818  78.974  13.706  1.00  0.00     0.106 C 
HETATM   17 CL1  UNL     1      -4.271  77.344  13.373  1.00  0.00    -0.123 Cl
HETATM   18  C18 UNL     1      -5.292  79.718  12.423  1.00  0.00     0.102 C 
BRANCH  18  19
HETATM   19  C19 UNL     1      -4.079  80.543  12.044  1.00  0.00     0.022 C 
HETATM   20  C20 UNL     1      -3.283  79.823  10.985  1.00  0.00     0.007 C 
ENDBRANCH  18  19
ENDBRANCH  12  13
BRANCH   1  21
HETATM   21  C2  UNL     1      -7.520  81.586   9.736  1.00  0.00    -0.059 C 
HETATM   22  C1  UNL     1      -8.429  81.675   8.743  1.00  0.00     0.016 C 
BRANCH  21  23
HETATM   23  C3  UNL     1      -6.140  81.408   9.272  1.00  0.00     0.120 C 
HETATM   24 BR1  UNL     1      -5.815  81.646   7.398  1.00  0.00    -0.092 Br
ENDBRANCH  21  23
ENDBRANCH   1  21
BRANCH   1  25
HETATM   25  C5  UNL     1      -7.945  82.967  11.654  1.00  0.00     0.019 C 
HETATM   26  C6  UNL     1      -8.852  83.404  12.781  1.00  0.00     0.066 C 
HETATM   27  N1  UNL     1      -7.144  83.853  11.202  1.00  0.00    -0.306 N 
ATOM     28  H1  UNL     1      -6.511  83.595  10.445  1.00  0.00     0.186 HD
BRANCH  27  29
HETATM   29  N2  UNL     1      -7.094  85.154  11.692  1.00  0.00    -0.279 N 
ATOM     30  H2  UNL     1      -7.961  85.601  11.991  1.00  0.00     0.189 HD
BRANCH  29  31
HETATM   31  C7  UNL     1      -5.868  85.888  11.793  1.00  0.00     0.199 C 
HETATM   32  N3  UNL     1      -4.739  85.562  11.013  1.00  0.00    -0.068 NA
HETATM   33  S1  UNL     1      -5.736  87.146  12.830  1.00  0.00    -0.043 SA
ENDBRANCH  29  31
ENDBRANCH  27  29
ENDBRANCH   1  25
TORSDOF 7
ENDMDL
MODEL 3
REMARK VINA RESULT: -6.345065276      5.827      8.666
REMARK  7 active torsions:
REMARK  status: ('A' for Active; 'I' for Inactive)
REMARK    1  A    between atoms: C2_2  and  C3_3 
REMARK    2  A    between atoms: C2_2  and  C4_5 
REMARK    3  A    between atoms: C4_5  and  C5_6 
REMARK    4  A    between atoms: N1_8  and  N2_10 
REMARK    5  A    between atoms: N2_10  and  C7_12 
REMARK    6  A    between atoms: C14_25  and  N6_26 
REMARK    7  A    between atoms: C18_31  and  C19_32 
ROOT
HETATM    1  C4  UNL     1      -8.825  80.161  12.829  1.00  0.00     0.067 C 
HETATM    2  C8  UNL     1      -7.679  79.180  12.485  1.00  0.00     0.029 C 
HETATM    3  C9  UNL     1      -6.576  79.620  11.656  1.00  0.00     0.032 C 
HETATM    4  C10 UNL     1      -6.524  80.986  11.110  1.00  0.00     0.089 C 
HETATM    5  C11 UNL     1      -5.258  81.767  11.512  1.00  0.00     0.038 C 
HETATM    6  C12 UNL     1      -6.478  80.936   9.655  1.00  0.00     0.075 C 
HETATM    7  N4  UNL     1      -6.463  80.897   8.491  1.00  0.00    -0.196 NA
HETATM    8  C13 UNL     1      -7.665  81.845  11.618  1.00  0.00     0.049 C 
HETATM    9  N5  UNL     1      -8.010  82.751  10.822  1.00  0.00    -0.399 N 
ATOM     10  H51 UNL     1      -8.778  83.330  11.163  1.00  0.00     0.156 HD
ATOM     11  H52 UNL     1      -7.663  83.013   9.899  1.00  0.00     0.156 HD
HETATM   12  C14 UNL     1      -8.169  81.466  12.956  1.00  0.00     0.050 C 
ENDROOT
BRANCH  12  13
HETATM   13  N6  UNL     1      -8.566  82.496  13.792  1.00  0.00    -0.375 N 
HETATM   14  C15 UNL     1      -7.717  83.082  14.719  1.00  0.00     0.125 C 
HETATM   15  C16 UNL     1      -7.233  84.372  14.000  1.00  0.00     0.042 C 
HETATM   16  C17 UNL     1      -8.592  84.887  13.658  1.00  0.00     0.106 C 
HETATM   17 CL1  UNL     1      -8.583  86.124  12.418  1.00  0.00    -0.123 Cl
HETATM   18  C18 UNL     1      -9.264  83.567  13.180  1.00  0.00     0.102 C 
BRANCH  18  19
HETATM   19  C19 UNL     1     -10.670  83.685  13.735  1.00  0.00     0.022 C 
HETATM   20  C20 UNL     1     -10.745  84.847  14.693  1.00  0.00     0.007 C 
ENDBRANCH  18  19
ENDBRANCH  12  13
BRANCH   1  21
HETATM   21  C2  UNL     1      -9.929  80.047  11.814  1.00  0.00    -0.059 C 
HETATM   22  C1  UNL     1     -11.159  80.461  12.180  1.00  0.00     0.016 C 
BRANCH  21  23
HETATM   23  C3  UNL     1      -9.878  79.407  10.495  1.00  0.00     0.120 C 
HETATM   24 BR1  UNL     1     -10.210  77.520  10.431  1.00  0.00    -0.092 Br
ENDBRANCH  21  23
ENDBRANCH   1  21
BRANCH   1  25
HETATM   25  C5  UNL     1      -9.372  79.517  14.090  1.00  0.00     0.019 C 
HETATM   26  C6  UNL     1      -9.413  78.009  14.186  1.00  0.00     0.066 C 
HETATM   27  N1  UNL     1      -9.805  80.157  15.106  1.00  0.00    -0.306 N 
ATOM     28  H1  UNL     1      -9.788  81.177  15.082  1.00  0.00     0.186 HD
BRANCH  27  29
HETATM   29  N2  UNL     1     -10.300  79.530  16.245  1.00  0.00    -0.279 N 
ATOM     30  H2  UNL     1     -11.097  78.901  16.153  1.00  0.00     0.189 HD
BRANCH  29  31
HETATM   31  C7  UNL     1      -9.731  79.737  17.543  1.00  0.00     0.199 C 
HETATM   32  N3  UNL     1      -9.928  78.821  18.597  1.00  0.00    -0.068 NA
HETATM   33  S1  UNL     1      -8.822  81.062  17.850  1.00  0.00    -0.043 SA
ENDBRANCH  29  31
ENDBRANCH  27  29
ENDBRANCH   1  25
TORSDOF 7
ENDMDL
MODEL 4
REMARK VINA RESULT: -6.312191154      8.084     10.707
REMARK  7 active torsions:
REMARK  status: ('A' for Active; 'I' for Inactive)
REMARK    1  A    between atoms: C2_2  and  C3_3 
REMARK    2  A    between atoms: C2_2  and  C4_5 
REMARK    3  A    between atoms: C4_5  and  C5_6 
REMARK    4  A    between atoms: N1_8  and  N2_10 
REMARK    5  A    between atoms: N2_10  and  C7_12 
REMARK    6  A    between atoms: C14_25  and  N6_26 
REMARK    7  A    between atoms: C18_31  and  C19_32 
ROOT
HETATM    1  C4  UNL     1      -8.342  80.695  11.706  1.00  0.00     0.067 C 
HETATM    2  C8  UNL     1      -9.089  81.786  12.508  1.00  0.00     0.029 C 
HETATM    3  C9  UNL     1      -9.207  81.672  13.946  1.00  0.00     0.032 C 
HETATM    4  C10 UNL     1      -8.646  80.522  14.673  1.00  0.00     0.089 C 
HETATM    5  C11 UNL     1      -7.632  80.913  15.765  1.00  0.00     0.038 C 
HETATM    6  C12 UNL     1      -9.705  79.823  15.389  1.00  0.00     0.075 C 
HETATM    7  N4  UNL     1     -10.555  79.252  15.944  1.00  0.00    -0.196 NA
HETATM    8  C13 UNL     1      -7.866  79.598  13.759  1.00  0.00     0.049 C 
HETATM    9  N5  UNL     1      -7.858  78.401  14.136  1.00  0.00    -0.399 N 
ATOM     10  H51 UNL     1      -7.333  77.779  13.522  1.00  0.00     0.156 HD
ATOM     11  H52 UNL     1      -8.280  77.940  14.943  1.00  0.00     0.156 HD
HETATM   12  C14 UNL     1      -7.254  80.265  12.590  1.00  0.00     0.050 C 
ENDROOT
BRANCH  12  13
HETATM   13  N6  UNL     1      -6.012  79.808  12.185  1.00  0.00    -0.375 N 
HETATM   14  C15 UNL     1      -4.832  80.473  12.482  1.00  0.00     0.125 C 
HETATM   15  C16 UNL     1      -4.282  79.702  13.714  1.00  0.00     0.042 C 
HETATM   16  C17 UNL     1      -4.352  78.343  13.099  1.00  0.00     0.106 C 
HETATM   17 CL1  UNL     1      -4.264  77.040  14.266  1.00  0.00    -0.123 Cl
HETATM   18  C18 UNL     1      -5.745  78.434  12.410  1.00  0.00     0.102 C 
BRANCH  18  19
HETATM   19  C19 UNL     1      -5.521  77.703  11.101  1.00  0.00     0.022 C 
HETATM   20  C20 UNL     1      -4.044  77.490  10.882  1.00  0.00     0.007 C 
ENDBRANCH  18  19
ENDBRANCH  12  13
BRANCH   1  21
HETATM   21  C2  UNL     1      -9.307  79.636  11.246  1.00  0.00    -0.059 C 
HETATM   22  C1  UNL     1     -10.625  79.903  11.352  1.00  0.00     0.016 C 
BRANCH  21  23
HETATM   23  C3  UNL     1      -9.003  78.268  10.814  1.00  0.00     0.120 C 
HETATM   24 BR1  UNL     1      -9.964  76.850  11.676  1.00  0.00    -0.092 Br
ENDBRANCH  21  23
ENDBRANCH   1  21
BRANCH   1  25
HETATM   25  C5  UNL     1      -7.975  81.472  10.455  1.00  0.00     0.019 C 
HETATM   26  C6  UNL     1      -7.820  82.973  10.542  1.00  0.00     0.066 C 
HETATM   27  N1  UNL     1      -7.771  80.951   9.307  1.00  0.00    -0.306 N 
ATOM     28  H1  UNL     1      -7.859  79.939   9.209  1.00  0.00     0.186 HD
BRANCH  27  29
HETATM   29  N2  UNL     1      -7.435  81.698   8.182  1.00  0.00    -0.279 N 
ATOM     30  H2  UNL     1      -8.114  82.365   7.814  1.00  0.00     0.189 HD
BRANCH  29  31
HETATM   31  C7  UNL     1      -6.170  81.565   7.523  1.00  0.00     0.199 C 
HETATM   32  N3  UNL     1      -6.038  81.725   6.128  1.00  0.00    -0.068 NA
HETATM   33  S1  UNL     1      -4.821  81.217   8.378  1.00  0.00    -0.043 SA
ENDBRANCH  29  31
ENDBRANCH  27  29
ENDBRANCH   1  25
TORSDOF 7
ENDMDL
MODEL 5
REMARK VINA RESULT: -6.292097899      3.509      5.733
REMARK  7 active torsions:
REMARK  status: ('A' for Active; 'I' for Inactive)
REMARK    1  A    between atoms: C2_2  and  C3_3 
REMARK    2  A    between atoms: C2_2  and  C4_5 
REMARK    3  A    between atoms: C4_5  and  C5_6 
REMARK    4  A    between atoms: N1_8  and  N2_10 
REMARK    5  A    between atoms: N2_10  and  C7_12 
REMARK    6  A    between atoms: C14_25  and  N6_26 
REMARK    7  A    between atoms: C18_31  and  C19_32 
ROOT
HETATM    1  C4  UNL     1     -11.699  85.419  17.295  1.00  0.00     0.067 C 
HETATM    2  C8  UNL     1     -11.986  86.427  18.432  1.00  0.00     0.029 C 
HETATM    3  C9  UNL     1     -12.177  85.954  19.786  1.00  0.00     0.032 C 
HETATM    4  C10 UNL     1     -12.124  84.519  20.112  1.00  0.00     0.089 C 
HETATM    5  C11 UNL     1     -11.068  84.164  21.175  1.00  0.00     0.038 C 
HETATM    6  C12 UNL     1     -13.390  84.097  20.697  1.00  0.00     0.075 C 
HETATM    7  N4  UNL     1     -14.409  83.755  21.146  1.00  0.00    -0.196 NA
HETATM    8  C13 UNL     1     -11.738  83.678  18.912  1.00  0.00     0.049 C 
HETATM    9  N5  UNL     1     -12.205  82.513  18.939  1.00  0.00    -0.399 N 
ATOM     10  H51 UNL     1     -11.945  81.946  18.132  1.00  0.00     0.156 HD
ATOM     11  H52 UNL     1     -12.793  82.033  19.621  1.00  0.00     0.156 HD
HETATM   12  C14 UNL     1     -10.885  84.373  17.924  1.00  0.00     0.050 C 
ENDROOT
BRANCH  12  13
HETATM   13  N6  UNL     1      -9.906  83.620  17.299  1.00  0.00    -0.375 N 
HETATM   14  C15 UNL     1      -8.588  83.594  17.728  1.00  0.00     0.125 C 
HETATM   15  C16 UNL     1      -8.507  82.290  18.570  1.00  0.00     0.042 C 
HETATM   16  C17 UNL     1      -9.070  81.386  17.523  1.00  0.00     0.106 C 
HETATM   17 CL1  UNL     1      -9.620  79.845  18.149  1.00  0.00    -0.123 Cl
HETATM   18  C18 UNL     1     -10.242  82.273  17.008  1.00  0.00     0.102 C 
BRANCH  18  19
HETATM   19  C19 UNL     1     -10.223  82.020  15.514  1.00  0.00     0.022 C 
HETATM   20  C20 UNL     1     -11.224  80.948  15.165  1.00  0.00     0.007 C 
ENDBRANCH  18  19
ENDBRANCH  12  13
BRANCH   1  21
HETATM   21  C2  UNL     1     -12.985  84.985  16.647  1.00  0.00    -0.059 C 
HETATM   22  C1  UNL     1     -12.900  84.196  15.556  1.00  0.00     0.016 C 
BRANCH  21  23
HETATM   23  C3  UNL     1     -14.347  85.424  16.967  1.00  0.00     0.120 C 
HETATM   24 BR1  UNL     1     -15.709  85.050  15.669  1.00  0.00    -0.092 Br
ENDBRANCH  21  23
ENDBRANCH   1  21
BRANCH   1  25
HETATM   25  C5  UNL     1     -11.026  86.326  16.281  1.00  0.00     0.019 C 
HETATM   26  C6  UNL     1     -11.112  87.824  16.465  1.00  0.00     0.066 C 
HETATM   27  N1  UNL     1     -10.369  85.922  15.263  1.00  0.00    -0.306 N 
ATOM     28  H1  UNL     1     -10.282  84.917  15.109  1.00  0.00     0.186 HD
BRANCH  27  29
HETATM   29  N2  UNL     1      -9.765  86.786  14.356  1.00  0.00    -0.279 N 
ATOM     30  H2  UNL     1      -9.781  87.788  14.546  1.00  0.00     0.189 HD
BRANCH  29  31
HETATM   31  C7  UNL     1      -9.122  86.320  13.164  1.00  0.00     0.199 C 
HETATM   32  N3  UNL     1      -8.889  87.170  12.063  1.00  0.00    -0.068 NA
HETATM   33  S1  UNL     1      -8.630  84.765  13.040  1.00  0.00    -0.043 SA
ENDBRANCH  29  31
ENDBRANCH  27  29
ENDBRANCH   1  25
TORSDOF 7
ENDMDL
