MODEL 1
REMARK VINA RESULT: -8.495193395      0.000      0.000
REMARK  9 active torsions:
REMARK  status: ('A' for Active; 'I' for Inactive)
REMARK    1  A    between atoms: O1_2  and  C2_3 
REMARK    2  A    between atoms: C2_3  and  C3_5 
REMARK    3  A    between atoms: C6_8  and  N1_9 
REMARK    4  A    between atoms: N1_9  and  C7_11 
REMARK    5  A    between atoms: C8_14  and  N3_15 
REMARK    6  A    between atoms: N3_15  and  C9_17 
REMARK    7  A    between atoms: C9_17  and  C10_18 
REMARK    8  A    between atoms: C16_28  and  C17_29 
REMARK       I    between atoms: C17_29  and  N5_31 
REMARK    9  A    between atoms: N5_31  and  C18_33 
ROOT
HETATM    1  C7  UNL     1     -11.597  83.341  15.211  1.00  0.00     0.134 A 
HETATM    2  N2  UNL     1     -12.473  84.224  15.703  1.00  0.00    -0.176 N 
ATOM      3  H2  UNL     1     -12.121  85.047  16.191  1.00  0.00     0.186 HD
HETATM    4  C8  UNL     1     -13.816  84.064  15.574  1.00  0.00     0.679 A 
HETATM    5  N4  UNL     1     -14.343  82.990  14.935  1.00  0.00    -0.201 N 
ATOM      6  H4  UNL     1     -15.353  82.881  14.845  1.00  0.00     0.183 HD
HETATM    7  C15 UNL     1     -13.504  82.073  14.424  1.00  0.00     0.127 A 
HETATM    8  C16 UNL     1     -12.136  82.240  14.557  1.00  0.00     0.092 A 
ENDROOT
BRANCH   1   9
HETATM    9  N1  UNL     1     -10.360  83.438  15.303  1.00  0.00    -0.370 N 
ATOM     10  H1  UNL     1      -9.986  82.843  16.042  1.00  0.00     0.161 HD
BRANCH   9  11
HETATM   11  C6  UNL     1      -9.352  84.154  14.654  1.00  0.00     0.083 C 
HETATM   12  C5  UNL     1      -8.167  84.355  15.565  1.00  0.00     0.026 C 
HETATM   13  C4  UNL     1      -7.005  85.004  14.857  1.00  0.00     0.017 C 
HETATM   14  C3  UNL     1      -7.415  86.096  13.915  1.00  0.00     0.093 C 
HETATM   15  C24 UNL     1      -8.547  85.734  13.006  1.00  0.00    -0.033 C 
HETATM   16  C23 UNL     1      -9.748  85.398  13.905  1.00  0.00     0.034 C 
HETATM   17  C25 UNL     1      -8.194  84.591  12.099  1.00  0.00     0.016 C 
HETATM   18  C26 UNL     1      -8.849  86.933  12.137  1.00  0.00     0.016 C 
BRANCH  14  19
HETATM   19  C2  UNL     1      -6.221  86.471  13.110  1.00  0.00     0.263 C 
HETATM   20  O2  UNL     1      -5.979  87.650  12.748  1.00  0.00    -0.265 OA
BRANCH  19  21
HETATM   21  O1  UNL     1      -5.320  85.488  12.731  1.00  0.00    -0.326 OA
HETATM   22  C1  UNL     1      -4.629  85.606  11.506  1.00  0.00     0.213 C 
ENDBRANCH  19  21
ENDBRANCH  14  19
ENDBRANCH   9  11
ENDBRANCH   1   9
BRANCH   8  23
HETATM   23  C17 UNL     1     -11.241  81.233  13.996  1.00  0.00     0.257 C 
HETATM   24  O3  UNL     1     -10.990  80.245  14.696  1.00  0.00    -0.267 OA
HETATM   25  N5  UNL     1     -10.673  81.367  12.696  1.00  0.00    -0.352 N 
ATOM     26  H5  UNL     1     -10.882  82.182  12.120  1.00  0.00     0.163 HD
BRANCH  25  27
HETATM   27  C18 UNL     1      -9.792  80.326  12.206  1.00  0.00     0.084 C 
HETATM   28  C19 UNL     1      -8.755  80.978  11.325  1.00  0.00     0.025 C 
HETATM   29  C20 UNL     1      -8.236  79.803  10.528  1.00  0.00     0.002 C 
HETATM   30  C21 UNL     1      -9.541  79.105  10.141  1.00  0.00     0.002 C 
HETATM   31  C22 UNL     1     -10.531  79.445  11.218  1.00  0.00     0.025 C 
ENDBRANCH  25  27
ENDBRANCH   8  23
BRANCH   4  32
HETATM   32  N3  UNL     1     -14.678  84.901  16.038  1.00  0.00    -0.226 N 
ATOM     33  H3  UNL     1     -15.425  85.187  15.404  1.00  0.00     0.177 HD
BRANCH  32  34
HETATM   34  C9  UNL     1     -14.696  85.468  17.345  1.00  0.00     0.142 C 
BRANCH  34  35
HETATM   35  C10 UNL     1     -15.729  86.564  17.496  1.00  0.00     0.010 C 
HETATM   36  C11 UNL     1     -16.128  87.168  16.189  1.00  0.00     0.012 C 
HETATM   37  C12 UNL     1     -16.545  88.590  16.521  1.00  0.00     0.079 C 
HETATM   38  C13 UNL     1     -16.262  88.794  17.988  1.00  0.00     0.244 C 
HETATM   39  F1  UNL     1     -15.804  90.073  18.183  1.00  0.00    -0.206 F 
HETATM   40  F2  UNL     1     -17.322  88.461  18.792  1.00  0.00    -0.206 F 
HETATM   41  C14 UNL     1     -15.163  87.758  18.236  1.00  0.00     0.085 C 
ENDBRANCH  34  35
ENDBRANCH  32  34
ENDBRANCH   4  32
TORSDOF 9
ENDMDL
MODEL 2
REMARK VINA RESULT: -8.470889776      5.598      9.448
REMARK  9 active torsions:
REMARK  status: ('A' for Active; 'I' for Inactive)
REMARK    1  A    between atoms: O1_2  and  C2_3 
REMARK    2  A    between atoms: C2_3  and  C3_5 
REMARK    3  A    between atoms: C6_8  and  N1_9 
REMARK    4  A    between atoms: N1_9  and  C7_11 
REMARK    5  A    between atoms: C8_14  and  N3_15 
REMARK    6  A    between atoms: N3_15  and  C9_17 
REMARK    7  A    between atoms: C9_17  and  C10_18 
REMARK    8  A    between atoms: C16_28  and  C17_29 
REMARK       I    between atoms: C17_29  and  N5_31 
REMARK    9  A    between atoms: N5_31  and  C18_33 
ROOT
HETATM    1  C7  UNL     1     -11.901  82.947  16.909  1.00  0.00     0.134 A 
HETATM    2  N2  UNL     1     -11.355  81.911  16.262  1.00  0.00    -0.176 N 
ATOM      3  H2  UNL     1     -10.946  81.151  16.805  1.00  0.00     0.186 HD
HETATM    4  C8  UNL     1     -11.327  81.836  14.906  1.00  0.00     0.679 A 
HETATM    5  N4  UNL     1     -11.854  82.816  14.131  1.00  0.00    -0.201 N 
ATOM      6  H4  UNL     1     -11.827  82.748  13.114  1.00  0.00     0.183 HD
HETATM    7  C15 UNL     1     -12.414  83.878  14.734  1.00  0.00     0.127 A 
HETATM    8  C16 UNL     1     -12.441  83.951  16.116  1.00  0.00     0.092 A 
ENDROOT
BRANCH   1   9
HETATM    9  N1  UNL     1     -11.952  83.066  18.147  1.00  0.00    -0.370 N 
ATOM     10  H1  UNL     1     -12.912  83.147  18.482  1.00  0.00     0.161 HD
BRANCH   9  11
HETATM   11  C6  UNL     1     -11.032  83.116  19.196  1.00  0.00     0.083 C 
HETATM   12  C5  UNL     1     -10.811  81.743  19.780  1.00  0.00     0.026 C 
HETATM   13  C4  UNL     1      -9.723  81.733  20.823  1.00  0.00     0.017 C 
HETATM   14  C3  UNL     1      -9.750  82.931  21.725  1.00  0.00     0.093 C 
HETATM   15  C24 UNL     1      -9.886  84.238  21.009  1.00  0.00    -0.033 C 
HETATM   16  C23 UNL     1     -11.216  84.186  20.238  1.00  0.00     0.034 C 
HETATM   17  C25 UNL     1      -8.723  84.501  20.097  1.00  0.00     0.016 C 
HETATM   18  C26 UNL     1      -9.913  85.336  22.047  1.00  0.00     0.016 C 
BRANCH  14  19
HETATM   19  C2  UNL     1      -8.497  82.922  22.527  1.00  0.00     0.263 C 
HETATM   20  O2  UNL     1      -7.372  82.644  22.042  1.00  0.00    -0.265 OA
BRANCH  19  21
HETATM   21  O1  UNL     1      -8.552  83.235  23.878  1.00  0.00    -0.326 OA
HETATM   22  C1  UNL     1      -7.382  83.649  24.548  1.00  0.00     0.213 C 
ENDBRANCH  19  21
ENDBRANCH  14  19
ENDBRANCH   9  11
ENDBRANCH   1   9
BRANCH   8  23
HETATM   23  C17 UNL     1     -13.053  85.113  16.753  1.00  0.00     0.257 C 
HETATM   24  O3  UNL     1     -12.294  85.937  17.277  1.00  0.00    -0.267 OA
HETATM   25  N5  UNL     1     -14.465  85.306  16.778  1.00  0.00    -0.352 N 
ATOM     26  H5  UNL     1     -15.089  84.626  16.344  1.00  0.00     0.163 HD
BRANCH  25  27
HETATM   27  C18 UNL     1     -14.999  86.484  17.429  1.00  0.00     0.084 C 
HETATM   28  C19 UNL     1     -16.440  86.204  17.778  1.00  0.00     0.025 C 
HETATM   29  C20 UNL     1     -16.990  87.597  17.986  1.00  0.00     0.002 C 
HETATM   30  C21 UNL     1     -16.407  88.332  16.777  1.00  0.00     0.002 C 
HETATM   31  C22 UNL     1     -15.135  87.614  16.427  1.00  0.00     0.025 C 
ENDBRANCH  25  27
ENDBRANCH   8  23
BRANCH   4  32
HETATM   32  N3  UNL     1     -10.808  80.849  14.261  1.00  0.00    -0.226 N 
ATOM     33  H3  UNL     1     -11.446  80.111  13.964  1.00  0.00     0.177 HD
BRANCH  32  34
HETATM   34  C9  UNL     1      -9.434  80.683  13.919  1.00  0.00     0.142 C 
BRANCH  34  35
HETATM   35  C10 UNL     1      -9.230  79.769  12.730  1.00  0.00     0.010 C 
HETATM   36  C11 UNL     1     -10.064  80.157  11.552  1.00  0.00     0.012 C 
HETATM   37  C12 UNL     1     -10.297  78.863  10.791  1.00  0.00     0.079 C 
HETATM   38  C13 UNL     1      -9.690  77.757  11.618  1.00  0.00     0.244 C 
HETATM   39  F1  UNL     1     -10.486  76.643  11.530  1.00  0.00    -0.206 F 
HETATM   40  F2  UNL     1      -8.375  77.518  11.311  1.00  0.00    -0.206 F 
HETATM   41  C14 UNL     1      -9.724  78.367  13.020  1.00  0.00     0.085 C 
ENDBRANCH  34  35
ENDBRANCH  32  34
ENDBRANCH   4  32
TORSDOF 9
ENDMDL
MODEL 3
REMARK VINA RESULT: -8.447980243      1.966      5.380
REMARK  9 active torsions:
REMARK  status: ('A' for Active; 'I' for Inactive)
REMARK    1  A    between atoms: O1_2  and  C2_3 
REMARK    2  A    between atoms: C2_3  and  C3_5 
REMARK    3  A    between atoms: C6_8  and  N1_9 
REMARK    4  A    between atoms: N1_9  and  C7_11 
REMARK    5  A    between atoms: C8_14  and  N3_15 
REMARK    6  A    between atoms: N3_15  and  C9_17 
REMARK    7  A    between atoms: C9_17  and  C10_18 
REMARK    8  A    between atoms: C16_28  and  C17_29 
REMARK       I    between atoms: C17_29  and  N5_31 
REMARK    9  A    between atoms: N5_31  and  C18_33 
ROOT
HETATM    1  C7  UNL     1     -11.093  84.612  14.579  1.00  0.00     0.134 A 
HETATM    2  N2  UNL     1     -12.013  84.269  15.488  1.00  0.00    -0.176 N 
ATOM      3  H2  UNL     1     -12.595  83.451  15.314  1.00  0.00     0.186 HD
HETATM    4  C8  UNL     1     -12.198  84.973  16.634  1.00  0.00     0.679 A 
HETATM    5  N4  UNL     1     -11.454  86.070  16.921  1.00  0.00    -0.201 N 
ATOM      6  H4  UNL     1     -11.602  86.589  17.786  1.00  0.00     0.183 HD
HETATM    7  C15 UNL     1     -10.516  86.456  16.039  1.00  0.00     0.127 A 
HETATM    8  C16 UNL     1     -10.330  85.736  14.871  1.00  0.00     0.092 A 
ENDROOT
BRANCH   1   9
HETATM    9  N1  UNL     1     -10.883  84.005  13.513  1.00  0.00    -0.370 N 
ATOM     10  H1  UNL     1     -11.072  84.590  12.699  1.00  0.00     0.161 HD
BRANCH   9  11
HETATM   11  C6  UNL     1     -10.457  82.728  13.145  1.00  0.00     0.083 C 
HETATM   12  C5  UNL     1     -11.572  81.725  13.303  1.00  0.00     0.026 C 
HETATM   13  C4  UNL     1     -11.192  80.360  12.787  1.00  0.00     0.017 C 
HETATM   14  C3  UNL     1      -9.784  79.968  13.120  1.00  0.00     0.093 C 
HETATM   15  C24 UNL     1      -8.765  81.025  12.834  1.00  0.00    -0.033 C 
HETATM   16  C23 UNL     1      -9.139  82.246  13.690  1.00  0.00     0.034 C 
HETATM   17  C25 UNL     1      -8.706  81.366  11.373  1.00  0.00     0.016 C 
HETATM   18  C26 UNL     1      -7.410  80.486  13.234  1.00  0.00     0.016 C 
BRANCH  14  19
HETATM   19  C2  UNL     1      -9.464  78.735  12.351  1.00  0.00     0.263 C 
HETATM   20  O2  UNL     1      -8.546  77.941  12.675  1.00  0.00    -0.265 OA
BRANCH  19  21
HETATM   21  O1  UNL     1     -10.203  78.429  11.218  1.00  0.00    -0.326 OA
HETATM   22  C1  UNL     1      -9.542  78.003  10.046  1.00  0.00     0.213 C 
ENDBRANCH  19  21
ENDBRANCH  14  19
ENDBRANCH   9  11
ENDBRANCH   1   9
BRANCH   8  23
HETATM   23  C17 UNL     1      -9.308  86.172  13.925  1.00  0.00     0.257 C 
HETATM   24  O3  UNL     1      -9.694  86.634  12.845  1.00  0.00    -0.267 OA
HETATM   25  N5  UNL     1      -7.916  86.076  14.219  1.00  0.00    -0.352 N 
ATOM     26  H5  UNL     1      -7.599  85.695  15.111  1.00  0.00     0.163 HD
BRANCH  25  27
HETATM   27  C18 UNL     1      -6.959  86.528  13.231  1.00  0.00     0.084 C 
HETATM   28  C19 UNL     1      -6.596  85.346  12.366  1.00  0.00     0.025 C 
HETATM   29  C20 UNL     1      -5.300  85.804  11.735  1.00  0.00     0.002 C 
HETATM   30  C21 UNL     1      -4.567  86.384  12.947  1.00  0.00     0.002 C 
HETATM   31  C22 UNL     1      -5.635  86.845  13.898  1.00  0.00     0.025 C 
ENDBRANCH  25  27
ENDBRANCH   8  23
BRANCH   4  32
HETATM   32  N3  UNL     1     -13.076  84.661  17.524  1.00  0.00    -0.226 N 
ATOM     33  H3  UNL     1     -13.373  83.686  17.552  1.00  0.00     0.177 HD
BRANCH  32  34
HETATM   34  C9  UNL     1     -13.676  85.540  18.473  1.00  0.00     0.142 C 
BRANCH  34  35
HETATM   35  C10 UNL     1     -14.976  86.138  17.981  1.00  0.00     0.010 C 
HETATM   36  C11 UNL     1     -15.567  85.379  16.838  1.00  0.00     0.012 C 
HETATM   37  C12 UNL     1     -16.367  86.405  16.054  1.00  0.00     0.079 C 
HETATM   38  C13 UNL     1     -16.115  87.741  16.705  1.00  0.00     0.244 C 
HETATM   39  F1  UNL     1     -16.040  88.707  15.732  1.00  0.00    -0.206 F 
HETATM   40  F2  UNL     1     -17.012  88.032  17.700  1.00  0.00    -0.206 F 
HETATM   41  C14 UNL     1     -14.758  87.508  17.372  1.00  0.00     0.085 C 
ENDBRANCH  34  35
ENDBRANCH  32  34
ENDBRANCH   4  32
TORSDOF 9
ENDMDL
MODEL 4
REMARK VINA RESULT: -8.400799012      0.693      1.041
REMARK  9 active torsions:
REMARK  status: ('A' for Active; 'I' for Inactive)
REMARK    1  A    between atoms: O1_2  and  C2_3 
REMARK    2  A    between atoms: C2_3  and  C3_5 
REMARK    3  A    between atoms: C6_8  and  N1_9 
REMARK    4  A    between atoms: N1_9  and  C7_11 
REMARK    5  A    between atoms: C8_14  and  N3_15 
REMARK    6  A    between atoms: N3_15  and  C9_17 
REMARK    7  A    between atoms: C9_17  and  C10_18 
REMARK    8  A    between atoms: C16_28  and  C17_29 
REMARK       I    between atoms: C17_29  and  N5_31 
REMARK    9  A    between atoms: N5_31  and  C18_33 
ROOT
HETATM    1  C7  UNL     1     -11.419  83.345  15.249  1.00  0.00     0.134 A 
HETATM    2  N2  UNL     1     -12.310  84.194  15.775  1.00  0.00    -0.176 N 
ATOM      3  H2  UNL     1     -11.972  85.009  16.285  1.00  0.00     0.186 HD
HETATM    4  C8  UNL     1     -13.650  84.007  15.654  1.00  0.00     0.679 A 
HETATM    5  N4  UNL     1     -14.159  82.941  14.988  1.00  0.00    -0.201 N 
ATOM      6  H4  UNL     1     -15.168  82.812  14.904  1.00  0.00     0.183 HD
HETATM    7  C15 UNL     1     -13.305  82.059  14.442  1.00  0.00     0.127 A 
HETATM    8  C16 UNL     1     -11.940  82.253  14.567  1.00  0.00     0.092 A 
ENDROOT
BRANCH   1   9
HETATM    9  N1  UNL     1     -10.183  83.468  15.332  1.00  0.00    -0.370 N 
ATOM     10  H1  UNL     1      -9.794  82.889  16.076  1.00  0.00     0.161 HD
BRANCH   9  11
HETATM   11  C6  UNL     1      -9.194  84.195  14.669  1.00  0.00     0.083 C 
HETATM   12  C5  UNL     1      -7.996  84.407  15.561  1.00  0.00     0.026 C 
HETATM   13  C4  UNL     1      -6.852  85.068  14.835  1.00  0.00     0.017 C 
HETATM   14  C3  UNL     1      -7.288  86.158  13.902  1.00  0.00     0.093 C 
HETATM   15  C24 UNL     1      -8.431  85.786  13.011  1.00  0.00    -0.033 C 
HETATM   16  C23 UNL     1      -9.614  85.437  13.929  1.00  0.00     0.034 C 
HETATM   17  C25 UNL     1      -8.081  84.648  12.096  1.00  0.00     0.016 C 
HETATM   18  C26 UNL     1      -8.759  86.984  12.149  1.00  0.00     0.016 C 
BRANCH  14  19
HETATM   19  C2  UNL     1      -6.112  86.547  13.079  1.00  0.00     0.263 C 
HETATM   20  O2  UNL     1      -5.919  87.717  12.664  1.00  0.00    -0.265 OA
BRANCH  19  21
HETATM   21  O1  UNL     1      -5.170  85.586  12.742  1.00  0.00    -0.326 OA
HETATM   22  C1  UNL     1      -4.522  85.650  11.490  1.00  0.00     0.213 C 
ENDBRANCH  19  21
ENDBRANCH  14  19
ENDBRANCH   9  11
ENDBRANCH   1   9
BRANCH   8  23
HETATM   23  C17 UNL     1     -11.028  81.284  13.967  1.00  0.00     0.257 C 
HETATM   24  O3  UNL     1     -10.686  80.321  14.664  1.00  0.00    -0.267 OA
HETATM   25  N5  UNL     1     -10.544  81.426  12.634  1.00  0.00    -0.352 N 
ATOM     26  H5  UNL     1     -10.828  82.221  12.061  1.00  0.00     0.163 HD
BRANCH  25  27
HETATM   27  C18 UNL     1      -9.641  80.424  12.106  1.00  0.00     0.084 C 
HETATM   28  C19 UNL     1      -8.769  81.090  11.070  1.00  0.00     0.025 C 
HETATM   29  C20 UNL     1      -8.247  79.905  10.290  1.00  0.00     0.002 C 
HETATM   30  C21 UNL     1      -9.525  79.084  10.104  1.00  0.00     0.002 C 
HETATM   31  C22 UNL     1     -10.410  79.422  11.270  1.00  0.00     0.025 C 
ENDBRANCH  25  27
ENDBRANCH   8  23
BRANCH   4  32
HETATM   32  N3  UNL     1     -14.526  84.810  16.152  1.00  0.00    -0.226 N 
ATOM     33  H3  UNL     1     -15.363  84.976  15.593  1.00  0.00     0.177 HD
BRANCH  32  34
HETATM   34  C9  UNL     1     -14.446  85.489  17.402  1.00  0.00     0.142 C 
BRANCH  34  35
HETATM   35  C10 UNL     1     -14.888  86.934  17.315  1.00  0.00     0.010 C 
HETATM   36  C11 UNL     1     -15.782  87.335  18.443  1.00  0.00     0.012 C 
HETATM   37  C12 UNL     1     -16.651  88.448  17.882  1.00  0.00     0.079 C 
HETATM   38  C13 UNL     1     -16.308  88.569  16.418  1.00  0.00     0.244 C 
HETATM   39  F1  UNL     1     -17.452  88.841  15.711  1.00  0.00    -0.206 F 
HETATM   40  F2  UNL     1     -15.289  89.455  16.177  1.00  0.00    -0.206 F 
HETATM   41  C14 UNL     1     -15.773  87.170  16.109  1.00  0.00     0.085 C 
ENDBRANCH  34  35
ENDBRANCH  32  34
ENDBRANCH   4  32
TORSDOF 9
ENDMDL
MODEL 5
REMARK VINA RESULT: -8.360475528      4.089      7.210
REMARK  9 active torsions:
REMARK  status: ('A' for Active; 'I' for Inactive)
REMARK    1  A    between atoms: O1_2  and  C2_3 
REMARK    2  A    between atoms: C2_3  and  C3_5 
REMARK    3  A    between atoms: C6_8  and  N1_9 
REMARK    4  A    between atoms: N1_9  and  C7_11 
REMARK    5  A    between atoms: C8_14  and  N3_15 
REMARK    6  A    between atoms: N3_15  and  C9_17 
REMARK    7  A    between atoms: C9_17  and  C10_18 
REMARK    8  A    between atoms: C16_28  and  C17_29 
REMARK       I    between atoms: C17_29  and  N5_31 
REMARK    9  A    between atoms: N5_31  and  C18_33 
ROOT
HETATM    1  C7  UNL     1     -11.330  82.774  16.774  1.00  0.00     0.134 A 
HETATM    2  N2  UNL     1     -11.335  82.206  17.985  1.00  0.00    -0.176 N 
ATOM      3  H2  UNL     1     -12.185  82.250  18.546  1.00  0.00     0.186 HD
HETATM    4  C8  UNL     1     -10.247  81.572  18.493  1.00  0.00     0.679 A 
HETATM    5  N4  UNL     1      -9.089  81.480  17.794  1.00  0.00    -0.201 N 
ATOM      6  H4  UNL     1      -8.279  81.001  18.187  1.00  0.00     0.183 HD
HETATM    7  C15 UNL     1      -9.033  82.037  16.572  1.00  0.00     0.127 A 
HETATM    8  C16 UNL     1     -10.144  82.682  16.057  1.00  0.00     0.092 A 
ENDROOT
BRANCH   1   9
HETATM    9  N1  UNL     1     -12.297  83.369  16.262  1.00  0.00    -0.370 N 
ATOM     10  H1  UNL     1     -12.466  83.064  15.303  1.00  0.00     0.161 HD
BRANCH   9  11
HETATM   11  C6  UNL     1     -13.210  84.345  16.664  1.00  0.00     0.083 C 
HETATM   12  C5  UNL     1     -14.279  84.541  15.618  1.00  0.00     0.026 C 
HETATM   13  C4  UNL     1     -15.359  85.488  16.075  1.00  0.00     0.017 C 
HETATM   14  C3  UNL     1     -14.834  86.670  16.834  1.00  0.00     0.093 C 
HETATM   15  C24 UNL     1     -13.844  86.326  17.902  1.00  0.00    -0.033 C 
HETATM   16  C23 UNL     1     -12.660  85.638  17.204  1.00  0.00     0.034 C 
HETATM   17  C25 UNL     1     -14.447  85.455  18.966  1.00  0.00     0.016 C 
HETATM   18  C26 UNL     1     -13.403  87.614  18.559  1.00  0.00     0.016 C 
BRANCH  14  19
HETATM   19  C2  UNL     1     -15.998  87.377  17.433  1.00  0.00     0.263 C 
HETATM   20  O2  UNL     1     -16.998  86.779  17.903  1.00  0.00    -0.265 OA
BRANCH  19  21
HETATM   21  O1  UNL     1     -15.999  88.763  17.486  1.00  0.00    -0.326 OA
HETATM   22  C1  UNL     1     -16.554  89.420  18.604  1.00  0.00     0.213 C 
ENDBRANCH  19  21
ENDBRANCH  14  19
ENDBRANCH   9  11
ENDBRANCH   1   9
BRANCH   8  23
HETATM   23  C17 UNL     1     -10.064  83.281  14.728  1.00  0.00     0.257 C 
HETATM   24  O3  UNL     1     -10.747  82.769  13.834  1.00  0.00    -0.267 OA
HETATM   25  N5  UNL     1      -9.237  84.410  14.456  1.00  0.00    -0.352 N 
ATOM     26  H5  UNL     1      -8.674  84.831  15.195  1.00  0.00     0.163 HD
BRANCH  25  27
HETATM   27  C18 UNL     1      -9.208  84.949  13.112  1.00  0.00     0.084 C 
HETATM   28  C19 UNL     1      -7.767  85.016  12.673  1.00  0.00     0.025 C 
HETATM   29  C20 UNL     1      -7.832  85.997  11.525  1.00  0.00     0.002 C 
HETATM   30  C21 UNL     1      -8.720  87.093  12.120  1.00  0.00     0.002 C 
HETATM   31  C22 UNL     1      -9.596  86.414  13.133  1.00  0.00     0.025 C 
ENDBRANCH  25  27
ENDBRANCH   8  23
BRANCH   4  32
HETATM   32  N3  UNL     1     -10.228  81.016  19.656  1.00  0.00    -0.226 N 
ATOM     33  H3  UNL     1     -10.117  80.003  19.677  1.00  0.00     0.177 HD
BRANCH  32  34
HETATM   34  C9  UNL     1     -10.347  81.673  20.915  1.00  0.00     0.142 C 
BRANCH  34  35
HETATM   35  C10 UNL     1     -10.210  83.176  20.809  1.00  0.00     0.010 C 
HETATM   36  C11 UNL     1      -9.536  83.781  21.998  1.00  0.00     0.012 C 
HETATM   37  C12 UNL     1     -10.086  85.194  22.087  1.00  0.00     0.079 C 
HETATM   38  C13 UNL     1     -11.143  85.316  21.019  1.00  0.00     0.244 C 
HETATM   39  F1  UNL     1     -12.177  86.082  21.497  1.00  0.00    -0.206 F 
HETATM   40  F2  UNL     1     -10.646  85.753  19.818  1.00  0.00    -0.206 F 
HETATM   41  C14 UNL     1     -11.562  83.857  20.832  1.00  0.00     0.085 C 
ENDBRANCH  34  35
ENDBRANCH  32  34
ENDBRANCH   4  32
TORSDOF 9
ENDMDL
