MODEL 1
REMARK VINA RESULT: -9.046691953      0.000      0.000
REMARK  12 active torsions:
REMARK  status: ('A' for Active; 'I' for Inactive)
REMARK    1  A    between atoms: N1_1  and  C1_4 
REMARK    2  A    between atoms: N4_9  and  C2_10 
REMARK    3  A    between atoms: C2_10  and  C3_16 
REMARK    4  A    between atoms: N5_11  and  N6_13 
REMARK    5  A    between atoms: C3_16  and  N7_17 
REMARK    6  A    between atoms: C3_16  and  C9_30 
REMARK    7  A    between atoms: N7_17  and  N8_19 
REMARK    8  A    between atoms: C4_21  and  C5_22 
REMARK    9  A    between atoms: C8_25  and  N9_26 
REMARK   10  A    between atoms: N10_32  and  O4_33 
REMARK   11  A    between atoms: C11_37  and  N12_38 
REMARK   12  A    between atoms: C12_41  and  N13_42 
ROOT
HETATM    1  C3  UNL     1     -30.551   6.162 -26.697  1.00  0.00     0.209 C 
ENDROOT
BRANCH   1   2
HETATM    2  C2  UNL     1     -30.315   7.621 -26.880  1.00  0.00     0.166 C 
HETATM    3  N5  UNL     1     -29.242   8.175 -26.428  1.00  0.00    -0.291 N 
ATOM      4  H5  UNL     1     -28.554   7.598 -25.943  1.00  0.00     0.188 HD
BRANCH   2   5
HETATM    5  N4  UNL     1     -31.257   8.442 -27.552  1.00  0.00    -0.055 N 
HETATM    6  N3  UNL     1     -32.231   8.998 -26.854  1.00  0.00    -0.206 N 
HETATM    7  N2  UNL     1     -33.154   9.783 -27.424  1.00  0.00    -0.116 N 
ATOM      8  H3  UNL     1     -32.282   8.823 -25.851  1.00  0.00     0.210 HD
HETATM    9  C1  UNL     1     -33.127  10.041 -28.745  1.00  0.00     0.706 A 
ATOM     10  H2  UNL     1     -33.889  10.192 -26.848  1.00  0.00     0.207 HD
HETATM   11  N14 UNL     1     -32.150   9.490 -29.471  1.00  0.00    -0.020 N 
HETATM   12  C12 UNL     1     -31.219   8.694 -28.878  1.00  0.00     0.714 A 
ATOM     13  H14 UNL     1     -32.102   9.667 -30.474  1.00  0.00     0.203 HD
BRANCH   9  14
HETATM   14  N1  UNL     1     -34.045  10.807 -29.238  1.00  0.00    -0.233 N 
ATOM     15  H12 UNL     1     -35.043  10.603 -29.183  1.00  0.00     0.174 HD
ATOM     16  H11 UNL     1     -33.757  11.664 -29.711  1.00  0.00     0.174 HD
ENDBRANCH   9  14
BRANCH  12  17
HETATM   17  N13 UNL     1     -30.268   8.149 -29.550  1.00  0.00    -0.232 N 
ATOM     18 2H13 UNL     1     -29.336   8.024 -29.157  1.00  0.00     0.174 HD
ATOM     19 1H13 UNL     1     -30.484   7.845 -30.500  1.00  0.00     0.174 HD
ENDBRANCH  12  17
ENDBRANCH   2   5
BRANCH   3  20
HETATM   20  N6  UNL     1     -28.993   9.536 -26.582  1.00  0.00    -0.344 N 
ATOM     21  H62 UNL     1     -28.603   9.854 -27.470  1.00  0.00     0.176 HD
ATOM     22  H61 UNL     1     -29.189  10.209 -25.841  1.00  0.00     0.176 HD
ENDBRANCH   3  20
ENDBRANCH   1   2
BRANCH   1  23
HETATM   23  N7  UNL     1     -29.339   5.403 -26.981  1.00  0.00    -0.320 N 
ATOM     24  H7  UNL     1     -28.846   4.959 -26.207  1.00  0.00     0.181 HD
BRANCH  23  25
HETATM   25  N8  UNL     1     -28.831   5.264 -28.258  1.00  0.00    -0.312 N 
HETATM   26  C4  UNL     1     -29.474   4.925 -29.288  1.00  0.00     0.144 C 
ATOM     27  H8  UNL     1     -27.837   5.454 -28.379  1.00  0.00     0.185 HD
BRANCH  26  28
HETATM   28  C5  UNL     1     -28.792   4.820 -30.579  1.00  0.00     0.095 A 
HETATM   29  C6  UNL     1     -27.435   5.038 -30.776  1.00  0.00     0.043 A 
HETATM   30  C7  UNL     1     -27.200   4.841 -32.111  1.00  0.00     0.065 A 
HETATM   31  C8  UNL     1     -28.403   4.512 -32.684  1.00  0.00     0.215 A 
HETATM   32  O3  UNL     1     -29.293   4.517 -31.737  1.00  0.00    -0.287 OA
BRANCH  31  33
HETATM   33  N9  UNL     1     -28.627   4.219 -34.076  1.00  0.00    -0.090 N 
HETATM   34  O1  UNL     1     -29.465   3.377 -34.383  1.00  0.00    -0.530 OA
HETATM   35  O2  UNL     1     -27.901   4.886 -35.016  1.00  0.00    -0.530 OA
ENDBRANCH  31  33
ENDBRANCH  26  28
ENDBRANCH  23  25
ENDBRANCH   1  23
BRANCH   1  36
HETATM   36  C9  UNL     1     -31.078   5.849 -25.366  1.00  0.00     0.044 A 
HETATM   37  C10 UNL     1     -31.317   6.802 -24.368  1.00  0.00     0.157 A 
HETATM   38  N10 UNL     1     -31.805   6.180 -23.281  1.00  0.00    -0.173 N 
HETATM   39  N11 UNL     1     -31.877   4.900 -23.565  1.00  0.00    -0.254 N 
HETATM   40  C11 UNL     1     -31.441   4.657 -24.834  1.00  0.00     0.200 A 
ATOM     41  H11 UNL     1     -32.213   4.183 -22.921  1.00  0.00     0.191 HD
BRANCH  38  42
HETATM   42  O4  UNL     1     -32.153   6.814 -22.101  1.00  0.00    -0.268 OA
ATOM     43  H4  UNL     1     -31.579   7.389 -21.607  1.00  0.00     0.247 HD
ENDBRANCH  38  42
BRANCH  40  44
HETATM   44  N12 UNL     1     -31.396   3.363 -25.418  1.00  0.00    -0.096 N 
HETATM   45  O5  UNL     1     -32.173   2.457 -24.984  1.00  0.00    -0.530 OA
HETATM   46  O6  UNL     1     -30.578   2.983 -26.430  1.00  0.00    -0.530 OA
ENDBRANCH  40  44
ENDBRANCH   1  36
TORSDOF 12
ENDMDL
MODEL 2
REMARK VINA RESULT: -8.912820310      0.620      1.202
REMARK  12 active torsions:
REMARK  status: ('A' for Active; 'I' for Inactive)
REMARK    1  A    between atoms: N1_1  and  C1_4 
REMARK    2  A    between atoms: N4_9  and  C2_10 
REMARK    3  A    between atoms: C2_10  and  C3_16 
REMARK    4  A    between atoms: N5_11  and  N6_13 
REMARK    5  A    between atoms: C3_16  and  N7_17 
REMARK    6  A    between atoms: C3_16  and  C9_30 
REMARK    7  A    between atoms: N7_17  and  N8_19 
REMARK    8  A    between atoms: C4_21  and  C5_22 
REMARK    9  A    between atoms: C8_25  and  N9_26 
REMARK   10  A    between atoms: N10_32  and  O4_33 
REMARK   11  A    between atoms: C11_37  and  N12_38 
REMARK   12  A    between atoms: C12_41  and  N13_42 
ROOT
HETATM    1  C3  UNL     1     -30.492   6.094 -26.840  1.00  0.00     0.209 C 
ENDROOT
BRANCH   1   2
HETATM    2  C2  UNL     1     -30.255   7.540 -27.107  1.00  0.00     0.166 C 
HETATM    3  N5  UNL     1     -29.311   8.174 -26.501  1.00  0.00    -0.291 N 
ATOM      4  H5  UNL     1     -28.725   7.670 -25.835  1.00  0.00     0.188 HD
BRANCH   2   5
HETATM    5  N4  UNL     1     -31.057   8.261 -28.030  1.00  0.00    -0.055 N 
HETATM    6  N3  UNL     1     -30.749   8.216 -29.313  1.00  0.00    -0.206 N 
HETATM    7  N2  UNL     1     -31.462   8.871 -30.237  1.00  0.00    -0.116 N 
ATOM      8  H3  UNL     1     -29.943   7.665 -29.608  1.00  0.00     0.210 HD
HETATM    9  C1  UNL     1     -32.533   9.611 -29.893  1.00  0.00     0.706 A 
ATOM     10  H2  UNL     1     -31.189   8.810 -31.218  1.00  0.00     0.207 HD
HETATM   11  N14 UNL     1     -32.864   9.671 -28.601  1.00  0.00    -0.020 N 
HETATM   12  C12 UNL     1     -32.130   8.999 -27.672  1.00  0.00     0.714 A 
ATOM     13  H14 UNL     1     -33.671  10.222 -28.308  1.00  0.00     0.203 HD
BRANCH   9  14
HETATM   14  N1  UNL     1     -33.182  10.222 -30.830  1.00  0.00    -0.233 N 
ATOM     15  H12 UNL     1     -33.232   9.891 -31.794  1.00  0.00     0.174 HD
ATOM     16  H11 UNL     1     -33.674  11.084 -30.595  1.00  0.00     0.174 HD
ENDBRANCH   9  14
BRANCH  12  17
HETATM   17  N13 UNL     1     -32.423   9.038 -26.420  1.00  0.00    -0.232 N 
ATOM     18 2H13 UNL     1     -31.775   9.411 -25.728  1.00  0.00     0.174 HD
ATOM     19 1H13 UNL     1     -33.337   8.678 -26.146  1.00  0.00     0.174 HD
ENDBRANCH  12  17
ENDBRANCH   2   5
BRANCH   3  20
HETATM   20  N6  UNL     1     -29.065   9.526 -26.727  1.00  0.00    -0.344 N 
ATOM     21  H62 UNL     1     -28.190   9.784 -27.183  1.00  0.00     0.176 HD
ATOM     22  H61 UNL     1     -29.729  10.250 -26.453  1.00  0.00     0.176 HD
ENDBRANCH   3  20
ENDBRANCH   1   2
BRANCH   1  23
HETATM   23  N7  UNL     1     -29.304   5.310 -27.155  1.00  0.00    -0.320 N 
ATOM     24  H7  UNL     1     -28.816   4.834 -26.397  1.00  0.00     0.181 HD
BRANCH  23  25
HETATM   25  N8  UNL     1     -28.813   5.188 -28.441  1.00  0.00    -0.312 N 
HETATM   26  C4  UNL     1     -29.477   4.902 -29.473  1.00  0.00     0.144 C 
ATOM     27  H8  UNL     1     -27.813   5.344 -28.566  1.00  0.00     0.185 HD
BRANCH  26  28
HETATM   28  C5  UNL     1     -28.811   4.808 -30.773  1.00  0.00     0.095 A 
HETATM   29  C6  UNL     1     -27.456   5.026 -30.985  1.00  0.00     0.043 A 
HETATM   30  C7  UNL     1     -27.237   4.841 -32.324  1.00  0.00     0.065 A 
HETATM   31  C8  UNL     1     -28.448   4.520 -32.886  1.00  0.00     0.215 A 
HETATM   32  O3  UNL     1     -29.327   4.517 -31.928  1.00  0.00    -0.287 OA
BRANCH  31  33
HETATM   33  N9  UNL     1     -28.689   4.240 -34.277  1.00  0.00    -0.090 N 
HETATM   34  O1  UNL     1     -29.502   3.371 -34.581  1.00  0.00    -0.530 OA
HETATM   35  O2  UNL     1     -28.007   4.947 -35.221  1.00  0.00    -0.530 OA
ENDBRANCH  31  33
ENDBRANCH  26  28
ENDBRANCH  23  25
ENDBRANCH   1  23
BRANCH   1  36
HETATM   36  C9  UNL     1     -30.945   5.852 -25.468  1.00  0.00     0.044 A 
HETATM   37  C10 UNL     1     -31.077   6.847 -24.492  1.00  0.00     0.157 A 
HETATM   38  N10 UNL     1     -31.520   6.285 -23.355  1.00  0.00    -0.173 N 
HETATM   39  N11 UNL     1     -31.665   5.002 -23.586  1.00  0.00    -0.254 N 
HETATM   40  C11 UNL     1     -31.323   4.695 -24.870  1.00  0.00     0.200 A 
ATOM     41  H11 UNL     1     -31.990   4.323 -22.896  1.00  0.00     0.191 HD
BRANCH  38  42
HETATM   42  O4  UNL     1     -31.763   6.975 -22.179  1.00  0.00    -0.268 OA
ATOM     43  H4  UNL     1     -32.521   7.526 -22.023  1.00  0.00     0.247 HD
ENDBRANCH  38  42
BRANCH  40  44
HETATM   44  N12 UNL     1     -31.372   3.381 -25.408  1.00  0.00    -0.096 N 
HETATM   45  O5  UNL     1     -32.181   2.537 -24.913  1.00  0.00    -0.530 OA
HETATM   46  O6  UNL     1     -30.616   2.921 -26.434  1.00  0.00    -0.530 OA
ENDBRANCH  40  44
ENDBRANCH   1  36
TORSDOF 12
ENDMDL
MODEL 3
REMARK VINA RESULT: -8.714345795      0.894      1.191
REMARK  12 active torsions:
REMARK  status: ('A' for Active; 'I' for Inactive)
REMARK    1  A    between atoms: N1_1  and  C1_4 
REMARK    2  A    between atoms: N4_9  and  C2_10 
REMARK    3  A    between atoms: C2_10  and  C3_16 
REMARK    4  A    between atoms: N5_11  and  N6_13 
REMARK    5  A    between atoms: C3_16  and  N7_17 
REMARK    6  A    between atoms: C3_16  and  C9_30 
REMARK    7  A    between atoms: N7_17  and  N8_19 
REMARK    8  A    between atoms: C4_21  and  C5_22 
REMARK    9  A    between atoms: C8_25  and  N9_26 
REMARK   10  A    between atoms: N10_32  and  O4_33 
REMARK   11  A    between atoms: C11_37  and  N12_38 
REMARK   12  A    between atoms: C12_41  and  N13_42 
ROOT
HETATM    1  C3  UNL     1     -30.581   6.305 -26.781  1.00  0.00     0.209 C 
ENDROOT
BRANCH   1   2
HETATM    2  C2  UNL     1     -30.350   7.765 -26.966  1.00  0.00     0.166 C 
HETATM    3  N5  UNL     1     -29.262   8.316 -26.547  1.00  0.00    -0.291 N 
ATOM      4  H5  UNL     1     -28.560   7.737 -26.087  1.00  0.00     0.188 HD
BRANCH   2   5
HETATM    5  N4  UNL     1     -31.313   8.590 -27.603  1.00  0.00    -0.055 N 
HETATM    6  N3  UNL     1     -32.276   9.125 -26.875  1.00  0.00    -0.206 N 
HETATM    7  N2  UNL     1     -33.217   9.912 -27.412  1.00  0.00    -0.116 N 
ATOM      8  H3  UNL     1     -32.304   8.932 -25.874  1.00  0.00     0.210 HD
HETATM    9  C1  UNL     1     -33.219  10.194 -28.728  1.00  0.00     0.706 A 
ATOM     10  H2  UNL     1     -33.943  10.305 -26.814  1.00  0.00     0.207 HD
HETATM   11  N14 UNL     1     -32.254   9.664 -29.484  1.00  0.00    -0.020 N 
HETATM   12  C12 UNL     1     -31.304   8.866 -28.925  1.00  0.00     0.714 A 
ATOM     13  H14 UNL     1     -32.228   9.859 -30.485  1.00  0.00     0.203 HD
BRANCH   9  14
HETATM   14  N1  UNL     1     -34.154  10.960 -29.189  1.00  0.00    -0.233 N 
ATOM     15  H12 UNL     1     -34.958  10.620 -29.716  1.00  0.00     0.174 HD
ATOM     16  H11 UNL     1     -34.085  11.964 -29.016  1.00  0.00     0.174 HD
ENDBRANCH   9  14
BRANCH  12  17
HETATM   17  N13 UNL     1     -30.362   8.341 -29.627  1.00  0.00    -0.232 N 
ATOM     18 2H13 UNL     1     -30.235   8.571 -30.612  1.00  0.00     0.174 HD
ATOM     19 1H13 UNL     1     -29.744   7.681 -29.155  1.00  0.00     0.174 HD
ENDBRANCH  12  17
ENDBRANCH   2   5
BRANCH   3  20
HETATM   20  N6  UNL     1     -29.017   9.678 -26.703  1.00  0.00    -0.344 N 
ATOM     21  H62 UNL     1     -29.285  10.114 -27.585  1.00  0.00     0.176 HD
ATOM     22  H61 UNL     1     -28.583  10.237 -25.969  1.00  0.00     0.176 HD
ENDBRANCH   3  20
ENDBRANCH   1   2
BRANCH   1  23
HETATM   23  N7  UNL     1     -29.395   5.544 -27.153  1.00  0.00    -0.320 N 
ATOM     24  H7  UNL     1     -28.817   5.145 -26.413  1.00  0.00     0.181 HD
BRANCH  23  25
HETATM   25  N8  UNL     1     -29.022   5.342 -28.468  1.00  0.00    -0.312 N 
HETATM   26  C4  UNL     1     -29.776   4.997 -29.417  1.00  0.00     0.144 C 
ATOM     27  H8  UNL     1     -28.038   5.487 -28.692  1.00  0.00     0.185 HD
BRANCH  26  28
HETATM   28  C5  UNL     1     -29.231   4.822 -30.764  1.00  0.00     0.095 A 
HETATM   29  C6  UNL     1     -29.977   4.456 -31.876  1.00  0.00     0.043 A 
HETATM   30  C7  UNL     1     -29.103   4.402 -32.929  1.00  0.00     0.065 A 
HETATM   31  C8  UNL     1     -27.864   4.732 -32.438  1.00  0.00     0.215 A 
HETATM   32  O3  UNL     1     -28.006   4.965 -31.167  1.00  0.00    -0.287 OA
BRANCH  31  33
HETATM   33  N9  UNL     1     -26.642   4.802 -33.196  1.00  0.00    -0.090 N 
HETATM   34  O1  UNL     1     -25.719   5.494 -32.779  1.00  0.00    -0.530 OA
HETATM   35  O2  UNL     1     -26.545   4.098 -34.358  1.00  0.00    -0.530 OA
ENDBRANCH  31  33
ENDBRANCH  26  28
ENDBRANCH  23  25
ENDBRANCH   1  23
BRANCH   1  36
HETATM   36  C9  UNL     1     -31.021   5.982 -25.421  1.00  0.00     0.044 A 
HETATM   37  C10 UNL     1     -31.200   6.928 -24.404  1.00  0.00     0.157 A 
HETATM   38  N10 UNL     1     -31.614   6.297 -23.292  1.00  0.00    -0.173 N 
HETATM   39  N11 UNL     1     -31.696   5.019 -23.578  1.00  0.00    -0.254 N 
HETATM   40  C11 UNL     1     -31.341   4.785 -24.874  1.00  0.00     0.200 A 
ATOM     41  H11 UNL     1     -31.987   4.296 -22.919  1.00  0.00     0.191 HD
BRANCH  38  42
HETATM   42  O4  UNL     1     -31.890   6.922 -22.089  1.00  0.00    -0.268 OA
ATOM     43  H4  UNL     1     -31.639   6.587 -21.236  1.00  0.00     0.247 HD
ENDBRANCH  38  42
BRANCH  40  44
HETATM   44  N12 UNL     1     -31.326   3.494 -25.468  1.00  0.00    -0.096 N 
HETATM   45  O5  UNL     1     -32.202   2.641 -25.125  1.00  0.00    -0.530 OA
HETATM   46  O6  UNL     1     -30.439   3.065 -26.398  1.00  0.00    -0.530 OA
ENDBRANCH  40  44
ENDBRANCH   1  36
TORSDOF 12
ENDMDL
MODEL 4
REMARK VINA RESULT: -8.481754159      1.055      1.674
REMARK  12 active torsions:
REMARK  status: ('A' for Active; 'I' for Inactive)
REMARK    1  A    between atoms: N1_1  and  C1_4 
REMARK    2  A    between atoms: N4_9  and  C2_10 
REMARK    3  A    between atoms: C2_10  and  C3_16 
REMARK    4  A    between atoms: N5_11  and  N6_13 
REMARK    5  A    between atoms: C3_16  and  N7_17 
REMARK    6  A    between atoms: C3_16  and  C9_30 
REMARK    7  A    between atoms: N7_17  and  N8_19 
REMARK    8  A    between atoms: C4_21  and  C5_22 
REMARK    9  A    between atoms: C8_25  and  N9_26 
REMARK   10  A    between atoms: N10_32  and  O4_33 
REMARK   11  A    between atoms: C11_37  and  N12_38 
REMARK   12  A    between atoms: C12_41  and  N13_42 
ROOT
HETATM    1  C3  UNL     1     -30.544   6.172 -26.929  1.00  0.00     0.209 C 
ENDROOT
BRANCH   1   2
HETATM    2  C2  UNL     1     -30.340   7.626 -27.177  1.00  0.00     0.166 C 
HETATM    3  N5  UNL     1     -29.366   8.258 -26.617  1.00  0.00    -0.291 N 
ATOM      4  H5  UNL     1     -28.734   7.746 -26.000  1.00  0.00     0.188 HD
BRANCH   2   5
HETATM    5  N4  UNL     1     -31.205   8.358 -28.032  1.00  0.00    -0.055 N 
HETATM    6  N3  UNL     1     -30.963   8.362 -29.330  1.00  0.00    -0.206 N 
HETATM    7  N2  UNL     1     -31.738   9.030 -30.194  1.00  0.00    -0.116 N 
ATOM      8  H3  UNL     1     -30.161   7.841 -29.686  1.00  0.00     0.210 HD
HETATM    9  C1  UNL     1     -32.805   9.732 -29.770  1.00  0.00     0.706 A 
ATOM     10  H2  UNL     1     -31.515   9.008 -31.189  1.00  0.00     0.207 HD
HETATM   11  N14 UNL     1     -33.069   9.742 -28.461  1.00  0.00    -0.020 N 
HETATM   12  C12 UNL     1     -32.273   9.058 -27.595  1.00  0.00     0.714 A 
ATOM     13  H14 UNL     1     -33.872  10.264 -28.108  1.00  0.00     0.203 HD
BRANCH   9  14
HETATM   14  N1  UNL     1     -33.516  10.358 -30.651  1.00  0.00    -0.233 N 
ATOM     15  H12 UNL     1     -33.486  10.157 -31.651  1.00  0.00     0.174 HD
ATOM     16  H11 UNL     1     -34.144  11.095 -30.330  1.00  0.00     0.174 HD
ENDBRANCH   9  14
BRANCH  12  17
HETATM   17  N13 UNL     1     -32.501   9.048 -26.329  1.00  0.00    -0.232 N 
ATOM     18 2H13 UNL     1     -32.204   8.274 -25.736  1.00  0.00     0.174 HD
ATOM     19 1H13 UNL     1     -32.994   9.851 -25.939  1.00  0.00     0.174 HD
ENDBRANCH  12  17
ENDBRANCH   2   5
BRANCH   3  20
HETATM   20  N6  UNL     1     -29.148   9.617 -26.828  1.00  0.00    -0.344 N 
ATOM     21  H62 UNL     1     -29.761  10.103 -27.483  1.00  0.00     0.176 HD
ATOM     22  H61 UNL     1     -28.405  10.126 -26.351  1.00  0.00     0.176 HD
ENDBRANCH   3  20
ENDBRANCH   1   2
BRANCH   1  23
HETATM   23  N7  UNL     1     -29.360   5.412 -27.309  1.00  0.00    -0.320 N 
ATOM     24  H7  UNL     1     -28.789   4.994 -26.575  1.00  0.00     0.181 HD
BRANCH  23  25
HETATM   25  N8  UNL     1     -28.981   5.235 -28.626  1.00  0.00    -0.312 N 
HETATM   26  C4  UNL     1     -29.739   4.961 -29.595  1.00  0.00     0.144 C 
ATOM     27  H8  UNL     1     -27.988   5.335 -28.834  1.00  0.00     0.185 HD
BRANCH  26  28
HETATM   28  C5  UNL     1     -29.186   4.803 -30.940  1.00  0.00     0.095 A 
HETATM   29  C6  UNL     1     -29.920   4.425 -32.057  1.00  0.00     0.043 A 
HETATM   30  C7  UNL     1     -29.043   4.394 -33.107  1.00  0.00     0.065 A 
HETATM   31  C8  UNL     1     -27.813   4.749 -32.610  1.00  0.00     0.215 A 
HETATM   32  O3  UNL     1     -27.963   4.975 -31.339  1.00  0.00    -0.287 OA
BRANCH  31  33
HETATM   33  N9  UNL     1     -26.591   4.849 -33.365  1.00  0.00    -0.090 N 
HETATM   34  O1  UNL     1     -25.707   5.606 -32.973  1.00  0.00    -0.530 OA
HETATM   35  O2  UNL     1     -26.449   4.100 -34.494  1.00  0.00    -0.530 OA
ENDBRANCH  31  33
ENDBRANCH  26  28
ENDBRANCH  23  25
ENDBRANCH   1  23
BRANCH   1  36
HETATM   36  C9  UNL     1     -30.935   5.897 -25.543  1.00  0.00     0.044 A 
HETATM   37  C10 UNL     1     -31.062   6.875 -24.550  1.00  0.00     0.157 A 
HETATM   38  N10 UNL     1     -31.441   6.285 -23.404  1.00  0.00    -0.173 N 
HETATM   39  N11 UNL     1     -31.552   5.000 -23.647  1.00  0.00    -0.254 N 
HETATM   40  C11 UNL     1     -31.250   4.721 -24.948  1.00  0.00     0.200 A 
ATOM     41  H11 UNL     1     -31.826   4.302 -22.955  1.00  0.00     0.191 HD
BRANCH  38  42
HETATM   42  O4  UNL     1     -31.661   6.951 -22.211  1.00  0.00    -0.268 OA
ATOM     43  H4  UNL     1     -32.140   7.768 -22.129  1.00  0.00     0.247 HD
ENDBRANCH  38  42
BRANCH  40  44
HETATM   44  N12 UNL     1     -31.276   3.413 -25.501  1.00  0.00    -0.096 N 
HETATM   45  O5  UNL     1     -32.079   2.552 -25.025  1.00  0.00    -0.530 OA
HETATM   46  O6  UNL     1     -30.501   2.975 -26.523  1.00  0.00    -0.530 OA
ENDBRANCH  40  44
ENDBRANCH   1  36
TORSDOF 12
ENDMDL
MODEL 5
REMARK VINA RESULT: -8.074186608      1.380      1.458
REMARK  12 active torsions:
REMARK  status: ('A' for Active; 'I' for Inactive)
REMARK    1  A    between atoms: N1_1  and  C1_4 
REMARK    2  A    between atoms: N4_9  and  C2_10 
REMARK    3  A    between atoms: C2_10  and  C3_16 
REMARK    4  A    between atoms: N5_11  and  N6_13 
REMARK    5  A    between atoms: C3_16  and  N7_17 
REMARK    6  A    between atoms: C3_16  and  C9_30 
REMARK    7  A    between atoms: N7_17  and  N8_19 
REMARK    8  A    between atoms: C4_21  and  C5_22 
REMARK    9  A    between atoms: C8_25  and  N9_26 
REMARK   10  A    between atoms: N10_32  and  O4_33 
REMARK   11  A    between atoms: C11_37  and  N12_38 
REMARK   12  A    between atoms: C12_41  and  N13_42 
ROOT
HETATM    1  C3  UNL     1     -30.871   6.204 -27.017  1.00  0.00     0.209 C 
ENDROOT
BRANCH   1   2
HETATM    2  C2  UNL     1     -31.425   7.523 -27.432  1.00  0.00     0.166 C 
HETATM    3  N5  UNL     1     -30.720   8.596 -27.323  1.00  0.00    -0.291 N 
ATOM      4  H5  UNL     1     -29.773   8.529 -26.948  1.00  0.00     0.188 HD
BRANCH   2   5
HETATM    5  N4  UNL     1     -32.739   7.639 -27.958  1.00  0.00    -0.055 N 
HETATM    6  N3  UNL     1     -33.740   7.860 -27.126  1.00  0.00    -0.206 N 
HETATM    7  N2  UNL     1     -35.004   7.980 -27.553  1.00  0.00    -0.116 N 
ATOM      8  H3  UNL     1     -33.546   7.941 -26.128  1.00  0.00     0.210 HD
HETATM    9  C1  UNL     1     -35.308   7.879 -28.860  1.00  0.00     0.706 A 
ATOM     10  H2  UNL     1     -35.748   8.150 -26.877  1.00  0.00     0.207 HD
HETATM   11  N14 UNL     1     -34.310   7.655 -29.720  1.00  0.00    -0.020 N 
HETATM   12  C12 UNL     1     -33.031   7.535 -29.272  1.00  0.00     0.714 A 
ATOM     13  H14 UNL     1     -34.508   7.574 -30.718  1.00  0.00     0.203 HD
BRANCH   9  14
HETATM   14  N1  UNL     1     -36.546   8.003 -29.213  1.00  0.00    -0.233 N 
ATOM     15  H12 UNL     1     -36.987   7.441 -29.941  1.00  0.00     0.174 HD
ATOM     16  H11 UNL     1     -37.116   8.703 -28.737  1.00  0.00     0.174 HD
ENDBRANCH   9  14
BRANCH  12  17
HETATM   17  N13 UNL     1     -32.049   7.320 -30.075  1.00  0.00    -0.232 N 
ATOM     18 2H13 UNL     1     -31.202   7.886 -30.050  1.00  0.00     0.174 HD
ATOM     19 1H13 UNL     1     -32.154   6.556 -30.742  1.00  0.00     0.174 HD
ENDBRANCH  12  17
ENDBRANCH   2   5
BRANCH   3  20
HETATM   20  N6  UNL     1     -31.210   9.843 -27.701  1.00  0.00    -0.344 N 
ATOM     21  H62 UNL     1     -32.184  10.058 -27.491  1.00  0.00     0.176 HD
ATOM     22  H61 UNL     1     -30.625  10.533 -28.174  1.00  0.00     0.176 HD
ENDBRANCH   3  20
ENDBRANCH   1   2
BRANCH   1  23
HETATM   23  N7  UNL     1     -29.452   6.116 -27.339  1.00  0.00    -0.320 N 
ATOM     24  H7  UNL     1     -28.771   6.243 -26.590  1.00  0.00     0.181 HD
BRANCH  23  25
HETATM   25  N8  UNL     1     -28.993   5.867 -28.618  1.00  0.00    -0.312 N 
HETATM   26  C4  UNL     1     -29.378   4.947 -29.388  1.00  0.00     0.144 C 
ATOM     27  H8  UNL     1     -28.270   6.492 -28.975  1.00  0.00     0.185 HD
BRANCH  26  28
HETATM   28  C5  UNL     1     -28.794   4.811 -30.723  1.00  0.00     0.095 A 
HETATM   29  C6  UNL     1     -27.442   4.942 -31.010  1.00  0.00     0.043 A 
HETATM   30  C7  UNL     1     -27.310   4.744 -32.358  1.00  0.00     0.065 A 
HETATM   31  C8  UNL     1     -28.568   4.499 -32.851  1.00  0.00     0.215 A 
HETATM   32  O3  UNL     1     -29.390   4.552 -31.845  1.00  0.00    -0.287 OA
BRANCH  31  33
HETATM   33  N9  UNL     1     -28.903   4.235 -34.226  1.00  0.00    -0.090 N 
HETATM   34  O1  UNL     1     -29.542   3.223 -34.501  1.00  0.00    -0.530 OA
HETATM   35  O2  UNL     1     -28.502   5.116 -35.184  1.00  0.00    -0.530 OA
ENDBRANCH  31  33
ENDBRANCH  26  28
ENDBRANCH  23  25
ENDBRANCH   1  23
BRANCH   1  36
HETATM   36  C9  UNL     1     -31.118   5.921 -25.601  1.00  0.00     0.044 A 
HETATM   37  C10 UNL     1     -31.227   6.902 -24.607  1.00  0.00     0.157 A 
HETATM   38  N10 UNL     1     -31.460   6.302 -23.428  1.00  0.00    -0.173 N 
HETATM   39  N11 UNL     1     -31.499   5.010 -23.650  1.00  0.00    -0.254 N 
HETATM   40  C11 UNL     1     -31.294   4.735 -24.970  1.00  0.00     0.200 A 
ATOM     41  H11 UNL     1     -31.661   4.304 -22.931  1.00  0.00     0.191 HD
BRANCH  38  42
HETATM   42  O4  UNL     1     -31.622   6.968 -22.225  1.00  0.00    -0.268 OA
ATOM     43  H4  UNL     1     -32.412   6.944 -21.697  1.00  0.00     0.247 HD
ENDBRANCH  38  42
BRANCH  40  44
HETATM   44  N12 UNL     1     -31.274   3.420 -25.509  1.00  0.00    -0.096 N 
HETATM   45  O5  UNL     1     -32.075   2.548 -25.051  1.00  0.00    -0.530 OA
HETATM   46  O6  UNL     1     -30.457   2.987 -26.499  1.00  0.00    -0.530 OA
ENDBRANCH  40  44
ENDBRANCH   1  36
TORSDOF 12
ENDMDL
