MODEL 1
REMARK VINA RESULT: -7.336053872      0.000      0.000
REMARK  10 active torsions:
REMARK  status: ('A' for Active; 'I' for Inactive)
REMARK    1  A    between atoms: C2_9  and  S1_10 
REMARK    2  A    between atoms: S1_10  and  C3_11 
REMARK    3  A    between atoms: C7_22  and  N8_23 
REMARK    4  A    between atoms: C11_34  and  N10_35 
REMARK    5  A    between atoms: N10_35  and  C12_36 
REMARK    6  A    between atoms: N10_35  and  C14_40 
REMARK    7  A    between atoms: C12_36  and  C13_37 
REMARK    8  A    between atoms: C13_37  and  O3_38 
REMARK    9  A    between atoms: C14_40  and  C15_41 
REMARK   10  A    between atoms: C15_41  and  O4_42 
ROOT
HETATM    1  C3  UNL     1     -30.661   5.597 -30.634  1.00  0.00     0.053 C 
HETATM    2  C4  UNL     1     -31.714   6.384 -30.990  1.00  0.00     0.069 C 
HETATM    3  C5  UNL     1     -32.283   6.309 -32.336  1.00  0.00     0.112 C 
HETATM    4  N5  UNL     1     -31.740   5.689 -33.251  1.00  0.00    -0.385 N 
ATOM      5  H51 UNL     1     -32.137   5.637 -34.190  1.00  0.00     0.157 HD
ATOM      6  H52 UNL     1     -30.881   5.168 -33.077  1.00  0.00     0.157 HD
HETATM    7  N6  UNL     1     -33.512   7.055 -32.585  1.00  0.00    -0.339 N 
ATOM      8  H6  UNL     1     -33.979   7.021 -33.491  1.00  0.00     0.168 HD
HETATM    9  C6  UNL     1     -34.026   7.823 -31.530  1.00  0.00     0.180 C 
HETATM   10  N7  UNL     1     -33.447   7.938 -30.389  1.00  0.00    -0.343 N 
ATOM     11  H7  UNL     1     -33.920   8.499 -29.680  1.00  0.00     0.163 HD
HETATM   12  C7  UNL     1     -32.209   7.352 -30.032  1.00  0.00     0.294 C 
HETATM   13  C8  UNL     1     -32.042   6.995 -28.635  1.00  0.00     0.227 C 
HETATM   14  O1  UNL     1     -32.839   7.365 -27.723  1.00  0.00    -0.287 OA
HETATM   15  C9  UNL     1     -30.886   6.161 -28.262  1.00  0.00     0.098 A 
HETATM   16  C10 UNL     1     -30.221   5.479 -29.251  1.00  0.00     0.091 A 
HETATM   17  N9  UNL     1     -29.246   4.775 -28.624  1.00  0.00    -0.257 N 
ATOM     18  H9  UNL     1     -28.570   4.159 -29.076  1.00  0.00     0.195 HD
HETATM   19  O2  UNL     1     -29.319   5.016 -27.375  1.00  0.00    -0.218 OA
HETATM   20  C11 UNL     1     -30.282   5.840 -27.090  1.00  0.00     0.185 A 
ENDROOT
BRANCH   1  21
HETATM   21  S1  UNL     1     -29.988   4.520 -31.839  1.00  0.00    -0.048 SA
BRANCH  21  22
HETATM   22  C2  UNL     1     -28.238   4.717 -32.009  1.00  0.00     0.183 A 
HETATM   23  N1  UNL     1     -27.591   4.889 -33.210  1.00  0.00    -0.258 N 
HETATM   24  C1  UNL     1     -28.221   4.851 -34.503  1.00  0.00     0.181 C 
HETATM   25  N2  UNL     1     -26.302   5.078 -32.977  1.00  0.00    -0.224 N 
HETATM   26  N3  UNL     1     -26.080   5.038 -31.687  1.00  0.00    -0.226 N 
ATOM     27  H2  UNL     1     -25.592   5.231 -33.692  1.00  0.00     0.210 HD
HETATM   28  N4  UNL     1     -27.241   4.821 -31.120  1.00  0.00    -0.263 N 
ATOM     29  H3  UNL     1     -25.182   5.154 -31.218  1.00  0.00     0.210 HD
ATOM     30  H4  UNL     1     -27.372   4.740 -30.112  1.00  0.00     0.190 HD
ENDBRANCH  21  22
ENDBRANCH   1  21
BRANCH  12  31
HETATM   31  N8  UNL     1     -31.247   8.547 -30.261  1.00  0.00    -0.040 N 
ATOM     32  H83 UNL     1     -30.424   8.338 -30.825  1.00  0.00     0.278 HD
ATOM     33  H82 UNL     1     -31.602   9.277 -30.878  1.00  0.00     0.278 HD
ATOM     34  H81 UNL     1     -31.052   8.845 -29.305  1.00  0.00     0.278 HD
ENDBRANCH  12  31
BRANCH  20  35
HETATM   35  N10 UNL     1     -30.663   6.340 -25.787  1.00  0.00    -0.355 N 
BRANCH  35  36
HETATM   36  C12 UNL     1     -31.501   5.537 -24.937  1.00  0.00     0.151 C 
BRANCH  36  37
HETATM   37  C13 UNL     1     -31.137   4.098 -24.798  1.00  0.00     0.183 C 
BRANCH  37  38
HETATM   38  O3  UNL     1     -32.203   3.340 -25.342  1.00  0.00    -0.399 OA
ATOM     39  H3  UNL     1     -32.246   2.525 -24.857  1.00  0.00     0.209 HD
ENDBRANCH  37  38
ENDBRANCH  36  37
ENDBRANCH  35  36
BRANCH  35  40
HETATM   40  C14 UNL     1     -30.139   7.599 -25.412  1.00  0.00     0.151 C 
BRANCH  40  41
HETATM   41  C15 UNL     1     -29.715   8.535 -26.477  1.00  0.00     0.183 C 
BRANCH  41  42
HETATM   42  O4  UNL     1     -28.560   9.251 -26.160  1.00  0.00    -0.399 OA
ATOM     43  H4  UNL     1     -28.366   9.948 -26.776  1.00  0.00     0.209 HD
ENDBRANCH  41  42
ENDBRANCH  40  41
ENDBRANCH  35  40
ENDBRANCH  20  35
TORSDOF 10
ENDMDL
MODEL 2
REMARK VINA RESULT: -7.276675421      0.088      2.309
REMARK  10 active torsions:
REMARK  status: ('A' for Active; 'I' for Inactive)
REMARK    1  A    between atoms: C2_9  and  S1_10 
REMARK    2  A    between atoms: S1_10  and  C3_11 
REMARK    3  A    between atoms: C7_22  and  N8_23 
REMARK    4  A    between atoms: C11_34  and  N10_35 
REMARK    5  A    between atoms: N10_35  and  C12_36 
REMARK    6  A    between atoms: N10_35  and  C14_40 
REMARK    7  A    between atoms: C12_36  and  C13_37 
REMARK    8  A    between atoms: C13_37  and  O3_38 
REMARK    9  A    between atoms: C14_40  and  C15_41 
REMARK   10  A    between atoms: C15_41  and  O4_42 
ROOT
HETATM    1  C3  UNL     1     -30.643   5.604 -30.686  1.00  0.00     0.053 C 
HETATM    2  C4  UNL     1     -31.713   6.374 -31.032  1.00  0.00     0.069 C 
HETATM    3  C5  UNL     1     -32.303   6.279 -32.369  1.00  0.00     0.112 C 
HETATM    4  N5  UNL     1     -31.766   5.659 -33.287  1.00  0.00    -0.385 N 
ATOM      5  H51 UNL     1     -32.177   5.593 -34.218  1.00  0.00     0.157 HD
ATOM      6  H52 UNL     1     -30.896   5.151 -33.122  1.00  0.00     0.157 HD
HETATM    7  N6  UNL     1     -33.546   7.006 -32.604  1.00  0.00    -0.339 N 
ATOM      8  H6  UNL     1     -34.027   6.957 -33.502  1.00  0.00     0.168 HD
HETATM    9  C6  UNL     1     -34.054   7.775 -31.546  1.00  0.00     0.180 C 
HETATM   10  N7  UNL     1     -33.458   7.908 -30.416  1.00  0.00    -0.343 N 
ATOM     11  H7  UNL     1     -33.927   8.468 -29.705  1.00  0.00     0.163 HD
HETATM   12  C7  UNL     1     -32.206   7.342 -30.074  1.00  0.00     0.294 C 
HETATM   13  C8  UNL     1     -32.012   7.000 -28.678  1.00  0.00     0.227 C 
HETATM   14  O1  UNL     1     -32.799   7.367 -27.756  1.00  0.00    -0.287 OA
HETATM   15  C9  UNL     1     -30.838   6.186 -28.316  1.00  0.00     0.098 A 
HETATM   16  C10 UNL     1     -30.179   5.504 -29.310  1.00  0.00     0.091 A 
HETATM   17  N9  UNL     1     -29.184   4.820 -28.694  1.00  0.00    -0.257 N 
ATOM     18  H9  UNL     1     -28.507   4.209 -29.151  1.00  0.00     0.195 HD
HETATM   19  O2  UNL     1     -29.241   5.070 -27.445  1.00  0.00    -0.218 OA
HETATM   20  C11 UNL     1     -30.211   5.883 -27.152  1.00  0.00     0.185 A 
ENDROOT
BRANCH   1  21
HETATM   21  S1  UNL     1     -29.975   4.527 -31.894  1.00  0.00    -0.048 SA
BRANCH  21  22
HETATM   22  C2  UNL     1     -28.224   4.720 -32.067  1.00  0.00     0.183 A 
HETATM   23  N1  UNL     1     -27.581   4.904 -33.267  1.00  0.00    -0.258 N 
HETATM   24  C1  UNL     1     -28.214   4.885 -34.559  1.00  0.00     0.181 C 
HETATM   25  N2  UNL     1     -26.290   5.086 -33.036  1.00  0.00    -0.224 N 
HETATM   26  N3  UNL     1     -26.065   5.029 -31.747  1.00  0.00    -0.226 N 
ATOM     27  H2  UNL     1     -25.581   5.245 -33.751  1.00  0.00     0.210 HD
HETATM   28  N4  UNL     1     -27.225   4.809 -31.179  1.00  0.00    -0.263 N 
ATOM     29  H3  UNL     1     -25.165   5.136 -31.279  1.00  0.00     0.210 HD
ATOM     30  H4  UNL     1     -27.353   4.716 -30.171  1.00  0.00     0.190 HD
ENDBRANCH  21  22
ENDBRANCH   1  21
BRANCH  12  31
HETATM   31  N8  UNL     1     -31.264   8.549 -30.329  1.00  0.00    -0.040 N 
ATOM     32  H83 UNL     1     -31.186   8.839 -31.303  1.00  0.00     0.278 HD
ATOM     33  H82 UNL     1     -31.610   9.446 -29.990  1.00  0.00     0.278 HD
ATOM     34  H81 UNL     1     -30.395   8.231 -29.901  1.00  0.00     0.278 HD
ENDBRANCH  12  31
BRANCH  20  35
HETATM   35  N10 UNL     1     -30.578   6.388 -25.847  1.00  0.00    -0.355 N 
BRANCH  35  36
HETATM   36  C12 UNL     1     -30.158   7.707 -25.454  1.00  0.00     0.151 C 
BRANCH  36  37
HETATM   37  C13 UNL     1     -29.734   8.630 -26.545  1.00  0.00     0.183 C 
BRANCH  37  38
HETATM   38  O3  UNL     1     -28.533   9.254 -26.124  1.00  0.00    -0.399 OA
ATOM     39  H3  UNL     1     -28.647  10.190 -26.237  1.00  0.00     0.209 HD
ENDBRANCH  37  38
ENDBRANCH  36  37
ENDBRANCH  35  36
BRANCH  35  40
HETATM   40  C14 UNL     1     -31.380   5.546 -25.042  1.00  0.00     0.151 C 
BRANCH  40  41
HETATM   41  C15 UNL     1     -31.071   4.098 -25.005  1.00  0.00     0.183 C 
BRANCH  41  42
HETATM   42  O4  UNL     1     -32.136   3.294 -25.416  1.00  0.00    -0.399 OA
ATOM     43  H4  UNL     1     -32.860   3.284 -24.801  1.00  0.00     0.209 HD
ENDBRANCH  41  42
ENDBRANCH  40  41
ENDBRANCH  35  40
ENDBRANCH  20  35
TORSDOF 10
ENDMDL
MODEL 3
REMARK VINA RESULT: -7.152122299      5.485      9.195
REMARK  10 active torsions:
REMARK  status: ('A' for Active; 'I' for Inactive)
REMARK    1  A    between atoms: C2_9  and  S1_10 
REMARK    2  A    between atoms: S1_10  and  C3_11 
REMARK    3  A    between atoms: C7_22  and  N8_23 
REMARK    4  A    between atoms: C11_34  and  N10_35 
REMARK    5  A    between atoms: N10_35  and  C12_36 
REMARK    6  A    between atoms: N10_35  and  C14_40 
REMARK    7  A    between atoms: C12_36  and  C13_37 
REMARK    8  A    between atoms: C13_37  and  O3_38 
REMARK    9  A    between atoms: C14_40  and  C15_41 
REMARK   10  A    between atoms: C15_41  and  O4_42 
ROOT
HETATM    1  C3  UNL     1     -34.434  10.337 -24.454  1.00  0.00     0.053 C 
HETATM    2  C4  UNL     1     -34.034  11.624 -24.655  1.00  0.00     0.069 C 
HETATM    3  C5  UNL     1     -34.496  12.698 -23.773  1.00  0.00     0.112 C 
HETATM    4  N5  UNL     1     -35.393  12.535 -22.945  1.00  0.00    -0.385 N 
ATOM      5  H51 UNL     1     -35.714  13.283 -22.331  1.00  0.00     0.157 HD
ATOM      6  H52 UNL     1     -35.817  11.615 -22.824  1.00  0.00     0.157 HD
HETATM    7  N6  UNL     1     -33.890  14.013 -23.948  1.00  0.00    -0.339 N 
ATOM      8  H6  UNL     1     -34.142  14.797 -23.346  1.00  0.00     0.168 HD
HETATM    9  C6  UNL     1     -32.946  14.158 -24.975  1.00  0.00     0.180 C 
HETATM   10  N7  UNL     1     -32.634  13.215 -25.790  1.00  0.00    -0.343 N 
ATOM     11  H7  UNL     1     -31.916  13.417 -26.485  1.00  0.00     0.163 HD
HETATM   12  C7  UNL     1     -33.204  11.918 -25.804  1.00  0.00     0.294 C 
HETATM   13  C8  UNL     1     -32.341  10.840 -26.249  1.00  0.00     0.227 C 
HETATM   14  O1  UNL     1     -31.219  11.031 -26.803  1.00  0.00    -0.287 OA
HETATM   15  C9  UNL     1     -32.797   9.453 -26.045  1.00  0.00     0.098 A 
HETATM   16  C10 UNL     1     -33.822   9.221 -25.160  1.00  0.00     0.091 A 
HETATM   17  N9  UNL     1     -34.000   7.878 -25.144  1.00  0.00    -0.257 N 
ATOM     18  H9  UNL     1     -34.688   7.373 -24.584  1.00  0.00     0.195 HD
HETATM   19  O2  UNL     1     -33.161   7.353 -25.946  1.00  0.00    -0.218 OA
HETATM   20  C11 UNL     1     -32.409   8.243 -26.520  1.00  0.00     0.185 A 
ENDROOT
BRANCH   1  21
HETATM   21  S1  UNL     1     -35.540  10.011 -23.137  1.00  0.00    -0.048 SA
BRANCH  21  22
HETATM   22  C2  UNL     1     -34.726   9.280 -21.746  1.00  0.00     0.183 A 
HETATM   23  N1  UNL     1     -35.043   9.547 -20.435  1.00  0.00    -0.258 N 
HETATM   24  C1  UNL     1     -36.016  10.512 -19.998  1.00  0.00     0.181 C 
HETATM   25  N2  UNL     1     -34.298   8.782 -19.652  1.00  0.00    -0.224 N 
HETATM   26  N3  UNL     1     -33.515   8.034 -20.388  1.00  0.00    -0.226 N 
ATOM     27  H2  UNL     1     -34.329   8.778 -18.633  1.00  0.00     0.210 HD
HETATM   28  N4  UNL     1     -33.778   8.340 -21.635  1.00  0.00    -0.263 N 
ATOM     29  H3  UNL     1     -32.836   7.349 -20.057  1.00  0.00     0.210 HD
ATOM     30  H4  UNL     1     -33.311   7.910 -22.434  1.00  0.00     0.190 HD
ENDBRANCH  21  22
ENDBRANCH   1  21
BRANCH  12  31
HETATM   31  N8  UNL     1     -34.261  12.079 -26.928  1.00  0.00    -0.040 N 
ATOM     32  H83 UNL     1     -34.574  11.208 -27.356  1.00  0.00     0.278 HD
ATOM     33  H82 UNL     1     -35.186  12.369 -26.613  1.00  0.00     0.278 HD
ATOM     34  H81 UNL     1     -33.796  12.729 -27.561  1.00  0.00     0.278 HD
ENDBRANCH  12  31
BRANCH  20  35
HETATM   35  N10 UNL     1     -31.354   8.021 -27.485  1.00  0.00    -0.355 N 
BRANCH  35  36
HETATM   36  C12 UNL     1     -30.086   7.506 -27.043  1.00  0.00     0.151 C 
BRANCH  36  37
HETATM   37  C13 UNL     1     -29.446   8.194 -25.886  1.00  0.00     0.183 C 
BRANCH  37  38
HETATM   38  O3  UNL     1     -28.753   9.320 -26.398  1.00  0.00    -0.399 OA
ATOM     39  H3  UNL     1     -27.824   9.145 -26.304  1.00  0.00     0.209 HD
ENDBRANCH  37  38
ENDBRANCH  36  37
ENDBRANCH  35  36
BRANCH  35  40
HETATM   40  C14 UNL     1     -31.663   8.296 -28.838  1.00  0.00     0.151 C 
BRANCH  40  41
HETATM   41  C15 UNL     1     -32.689   7.469 -29.512  1.00  0.00     0.183 C 
BRANCH  41  42
HETATM   42  O4  UNL     1     -32.868   6.217 -28.921  1.00  0.00    -0.399 OA
ATOM     43  H4  UNL     1     -32.557   5.498 -29.459  1.00  0.00     0.209 HD
ENDBRANCH  41  42
ENDBRANCH  40  41
ENDBRANCH  35  40
ENDBRANCH  20  35
TORSDOF 10
ENDMDL
MODEL 4
REMARK VINA RESULT: -7.151816103      5.442      9.109
REMARK  10 active torsions:
REMARK  status: ('A' for Active; 'I' for Inactive)
REMARK    1  A    between atoms: C2_9  and  S1_10 
REMARK    2  A    between atoms: S1_10  and  C3_11 
REMARK    3  A    between atoms: C7_22  and  N8_23 
REMARK    4  A    between atoms: C11_34  and  N10_35 
REMARK    5  A    between atoms: N10_35  and  C12_36 
REMARK    6  A    between atoms: N10_35  and  C14_40 
REMARK    7  A    between atoms: C12_36  and  C13_37 
REMARK    8  A    between atoms: C13_37  and  O3_38 
REMARK    9  A    between atoms: C14_40  and  C15_41 
REMARK   10  A    between atoms: C15_41  and  O4_42 
ROOT
HETATM    1  C3  UNL     1     -34.335  10.372 -24.584  1.00  0.00     0.053 C 
HETATM    2  C4  UNL     1     -33.924  11.662 -24.731  1.00  0.00     0.069 C 
HETATM    3  C5  UNL     1     -34.375  12.702 -23.804  1.00  0.00     0.112 C 
HETATM    4  N5  UNL     1     -35.272  12.512 -22.983  1.00  0.00    -0.385 N 
ATOM      5  H51 UNL     1     -35.587  13.237 -22.337  1.00  0.00     0.157 HD
ATOM      6  H52 UNL     1     -35.705  11.592 -22.900  1.00  0.00     0.157 HD
HETATM    7  N6  UNL     1     -33.757  14.018 -23.924  1.00  0.00    -0.339 N 
ATOM      8  H6  UNL     1     -34.002  14.778 -23.289  1.00  0.00     0.168 HD
HETATM    9  C6  UNL     1     -32.813  14.197 -24.945  1.00  0.00     0.180 C 
HETATM   10  N7  UNL     1     -32.510  13.287 -25.799  1.00  0.00    -0.343 N 
ATOM     11  H7  UNL     1     -31.790  13.511 -26.486  1.00  0.00     0.163 HD
HETATM   12  C7  UNL     1     -33.091  11.997 -25.868  1.00  0.00     0.294 C 
HETATM   13  C8  UNL     1     -32.239  10.931 -26.359  1.00  0.00     0.227 C 
HETATM   14  O1  UNL     1     -31.115  11.134 -26.906  1.00  0.00    -0.287 OA
HETATM   15  C9  UNL     1     -32.707   9.541 -26.213  1.00  0.00     0.098 A 
HETATM   16  C10 UNL     1     -33.733   9.281 -25.337  1.00  0.00     0.091 A 
HETATM   17  N9  UNL     1     -33.924   7.939 -25.377  1.00  0.00    -0.257 N 
ATOM     18  H9  UNL     1     -34.616   7.418 -24.839  1.00  0.00     0.195 HD
HETATM   19  O2  UNL     1     -33.090   7.441 -26.202  1.00  0.00    -0.218 OA
HETATM   20  C11 UNL     1     -32.330   8.348 -26.739  1.00  0.00     0.185 A 
ENDROOT
BRANCH   1  21
HETATM   21  S1  UNL     1     -35.443  10.000 -23.281  1.00  0.00    -0.048 SA
BRANCH  21  22
HETATM   22  C2  UNL     1     -34.631   9.222 -21.914  1.00  0.00     0.183 A 
HETATM   23  N1  UNL     1     -34.958   9.435 -20.596  1.00  0.00    -0.258 N 
HETATM   24  C1  UNL     1     -35.943  10.373 -20.127  1.00  0.00     0.181 C 
HETATM   25  N2  UNL     1     -34.211   8.648 -19.839  1.00  0.00    -0.224 N 
HETATM   26  N3  UNL     1     -33.416   7.936 -20.598  1.00  0.00    -0.226 N 
ATOM     27  H2  UNL     1     -34.248   8.603 -18.821  1.00  0.00     0.210 HD
HETATM   28  N4  UNL     1     -33.674   8.288 -21.833  1.00  0.00    -0.263 N 
ATOM     29  H3  UNL     1     -32.733   7.245 -20.289  1.00  0.00     0.210 HD
ATOM     30  H4  UNL     1     -33.199   7.894 -22.645  1.00  0.00     0.190 HD
ENDBRANCH  21  22
ENDBRANCH   1  21
BRANCH  12  31
HETATM   31  N8  UNL     1     -34.147  12.215 -26.983  1.00  0.00    -0.040 N 
ATOM     32  H83 UNL     1     -33.897  11.838 -27.896  1.00  0.00     0.278 HD
ATOM     33  H82 UNL     1     -35.000  11.665 -26.884  1.00  0.00     0.278 HD
ATOM     34  H81 UNL     1     -34.278  13.226 -26.953  1.00  0.00     0.278 HD
ENDBRANCH  12  31
BRANCH  20  35
HETATM   35  N10 UNL     1     -31.278   8.158 -27.713  1.00  0.00    -0.355 N 
BRANCH  35  36
HETATM   36  C12 UNL     1     -31.482   8.589 -29.071  1.00  0.00     0.151 C 
BRANCH  36  37
HETATM   37  C13 UNL     1     -32.839   9.099 -29.417  1.00  0.00     0.183 C 
BRANCH  37  38
HETATM   38  O3  UNL     1     -32.733  10.503 -29.576  1.00  0.00    -0.399 OA
ATOM     39  H3  UNL     1     -32.193  10.827 -28.866  1.00  0.00     0.209 HD
ENDBRANCH  37  38
ENDBRANCH  36  37
ENDBRANCH  35  36
BRANCH  35  40
HETATM   40  C14 UNL     1     -30.073   7.584 -27.243  1.00  0.00     0.151 C 
BRANCH  40  41
HETATM   41  C15 UNL     1     -29.415   8.187 -26.062  1.00  0.00     0.183 C 
BRANCH  41  42
HETATM   42  O4  UNL     1     -28.718   9.361 -26.354  1.00  0.00    -0.399 OA
ATOM     43  H4  UNL     1     -28.817   9.644 -27.256  1.00  0.00     0.209 HD
ENDBRANCH  41  42
ENDBRANCH  40  41
ENDBRANCH  35  40
ENDBRANCH  20  35
TORSDOF 10
ENDMDL
MODEL 5
REMARK VINA RESULT: -7.001277960      5.137      7.808
REMARK  10 active torsions:
REMARK  status: ('A' for Active; 'I' for Inactive)
REMARK    1  A    between atoms: C2_9  and  S1_10 
REMARK    2  A    between atoms: S1_10  and  C3_11 
REMARK    3  A    between atoms: C7_22  and  N8_23 
REMARK    4  A    between atoms: C11_34  and  N10_35 
REMARK    5  A    between atoms: N10_35  and  C12_36 
REMARK    6  A    between atoms: N10_35  and  C14_40 
REMARK    7  A    between atoms: C12_36  and  C13_37 
REMARK    8  A    between atoms: C13_37  and  O3_38 
REMARK    9  A    between atoms: C14_40  and  C15_41 
REMARK   10  A    between atoms: C15_41  and  O4_42 
ROOT
HETATM    1  C3  UNL     1     -32.243   8.152 -24.515  1.00  0.00     0.053 C 
HETATM    2  C4  UNL     1     -33.211   8.556 -23.646  1.00  0.00     0.069 C 
HETATM    3  C5  UNL     1     -33.301   7.979 -22.304  1.00  0.00     0.112 C 
HETATM    4  N5  UNL     1     -32.649   6.992 -21.963  1.00  0.00    -0.385 N 
ATOM      5  H51 UNL     1     -32.711   6.590 -21.027  1.00  0.00     0.157 HD
ATOM      6  H52 UNL     1     -31.985   6.568 -22.611  1.00  0.00     0.157 HD
HETATM    7  N6  UNL     1     -34.252   8.585 -21.378  1.00  0.00    -0.339 N 
ATOM      8  H6  UNL     1     -34.342   8.253 -20.418  1.00  0.00     0.168 HD
HETATM    9  C6  UNL     1     -35.037   9.643 -21.859  1.00  0.00     0.180 C 
HETATM   10  N7  UNL     1     -34.996  10.062 -23.072  1.00  0.00    -0.343 N 
ATOM     11  H7  UNL     1     -35.589  10.856 -23.313  1.00  0.00     0.163 HD
HETATM   12  C7  UNL     1     -34.195   9.515 -24.105  1.00  0.00     0.294 C 
HETATM   13  C8  UNL     1     -33.744  10.438 -25.129  1.00  0.00     0.227 C 
HETATM   14  O1  UNL     1     -34.192  11.616 -25.250  1.00  0.00    -0.287 OA
HETATM   15  C9  UNL     1     -32.713   9.979 -26.076  1.00  0.00     0.098 A 
HETATM   16  C10 UNL     1     -31.982   8.859 -25.761  1.00  0.00     0.091 A 
HETATM   17  N9  UNL     1     -31.096   8.697 -26.774  1.00  0.00    -0.257 N 
ATOM     18  H9  UNL     1     -30.401   7.953 -26.846  1.00  0.00     0.195 HD
HETATM   19  O2  UNL     1     -31.279   9.633 -27.619  1.00  0.00    -0.218 OA
HETATM   20  C11 UNL     1     -32.235  10.437 -27.261  1.00  0.00     0.185 A 
ENDROOT
BRANCH   1  21
HETATM   21  S1  UNL     1     -31.135   6.901 -23.995  1.00  0.00    -0.048 SA
BRANCH  21  22
HETATM   22  C2  UNL     1     -31.166   5.492 -25.066  1.00  0.00     0.183 A 
HETATM   23  N1  UNL     1     -31.431   4.209 -24.650  1.00  0.00    -0.258 N 
HETATM   24  C1  UNL     1     -31.640   3.807 -23.285  1.00  0.00     0.181 C 
HETATM   25  N2  UNL     1     -31.448   3.413 -25.708  1.00  0.00    -0.224 N 
HETATM   26  N3  UNL     1     -31.208   4.114 -26.787  1.00  0.00    -0.226 N 
ATOM     27  H2  UNL     1     -31.622   2.409 -25.685  1.00  0.00     0.210 HD
HETATM   28  N4  UNL     1     -31.039   5.352 -26.392  1.00  0.00    -0.263 N 
ATOM     29  H3  UNL     1     -31.160   3.766 -27.744  1.00  0.00     0.210 HD
ATOM     30  H4  UNL     1     -30.834   6.126 -27.026  1.00  0.00     0.190 HD
ENDBRANCH  21  22
ENDBRANCH   1  21
BRANCH  12  31
HETATM   31  N8  UNL     1     -35.226   8.598 -24.814  1.00  0.00    -0.040 N 
ATOM     32  H83 UNL     1     -34.907   8.185 -25.690  1.00  0.00     0.278 HD
ATOM     33  H82 UNL     1     -35.406   7.708 -24.349  1.00  0.00     0.278 HD
ATOM     34  H81 UNL     1     -36.034   9.214 -24.896  1.00  0.00     0.278 HD
ENDBRANCH  12  31
BRANCH  20  35
HETATM   35  N10 UNL     1     -32.722  11.602 -27.966  1.00  0.00    -0.355 N 
BRANCH  35  36
HETATM   36  C12 UNL     1     -31.985  12.835 -27.892  1.00  0.00     0.151 C 
BRANCH  36  37
HETATM   37  C13 UNL     1     -32.462  13.845 -26.904  1.00  0.00     0.183 C 
BRANCH  37  38
HETATM   38  O3  UNL     1     -31.844  13.545 -25.665  1.00  0.00    -0.399 OA
ATOM     39  H3  UNL     1     -32.159  14.179 -25.032  1.00  0.00     0.209 HD
ENDBRANCH  37  38
ENDBRANCH  36  37
ENDBRANCH  35  36
BRANCH  35  40
HETATM   40  C14 UNL     1     -33.899  11.434 -28.733  1.00  0.00     0.151 C 
BRANCH  40  41
HETATM   41  C15 UNL     1     -33.902  10.421 -29.812  1.00  0.00     0.183 C 
BRANCH  41  42
HETATM   42  O4  UNL     1     -32.665  10.277 -30.442  1.00  0.00    -0.399 OA
ATOM     43  H4  UNL     1     -32.077   9.686 -29.987  1.00  0.00     0.209 HD
ENDBRANCH  41  42
ENDBRANCH  40  41
ENDBRANCH  35  40
ENDBRANCH  20  35
TORSDOF 10
ENDMDL
