MODEL 1
REMARK VINA RESULT: -8.971734985      0.000      0.000
REMARK  10 active torsions:
REMARK  status: ('A' for Active; 'I' for Inactive)
REMARK    1  A    between atoms: C2_3  and  O1_4 
REMARK    2  A    between atoms: C3_6  and  C4_7 
REMARK       I    between atoms: C4_7  and  N2_9 
REMARK    3  A    between atoms: N2_9  and  N3_10 
REMARK    4  A    between atoms: N3_10  and  C5_11 
REMARK    5  A    between atoms: C5_11  and  C6_12 
REMARK       I    between atoms: C6_12  and  N4_14 
REMARK    6  A    between atoms: N4_14  and  N5_16 
REMARK    7  A    between atoms: C7_18  and  C8_19 
REMARK    8  A    between atoms: C11_24  and  N7_25 
REMARK    9  A    between atoms: C13_29  and  N8_30 
REMARK   10  A    between atoms: N9_33  and  O7_34 
ROOT
HETATM    1  N8  UNL     1     -26.382   5.121 -32.642  1.00  0.00    -0.261 NA
HETATM    2  O6  UNL     1     -26.145   5.121 -31.426  1.00  0.00    -0.217 OA
ATOM      3  H6  UNL     1     -25.900   5.052 -30.510  1.00  0.00     0.261 HD
ENDROOT
BRANCH   1   4
HETATM    4  C13 UNL     1     -26.688   5.207 -33.782  1.00  0.00     0.263 A 
HETATM    5  C3  UNL     1     -27.876   4.710 -34.343  1.00  0.00     0.164 A 
HETATM    6  C2  UNL     1     -28.145   4.831 -35.678  1.00  0.00     0.168 A 
HETATM    7  N1  UNL     1     -27.264   5.435 -36.472  1.00  0.00    -0.281 N 
HETATM    8  C1  UNL     1     -27.520   5.582 -37.901  1.00  0.00     0.163 C 
HETATM    9  C14 UNL     1     -26.100   5.932 -35.986  1.00  0.00     0.357 A 
HETATM   10  N9  UNL     1     -25.839   5.818 -34.705  1.00  0.00    -0.138 N 
HETATM   11  O8  UNL     1     -25.307   6.499 -36.812  1.00  0.00    -0.244 OA
BRANCH   5  12
HETATM   12  C4  UNL     1     -28.863   4.050 -33.473  1.00  0.00     0.370 C 
HETATM   13  O2  UNL     1     -29.462   3.061 -34.066  1.00  0.00    -0.247 OA
HETATM   14  N2  UNL     1     -29.130   4.402 -32.221  1.00  0.00    -0.204 NA
BRANCH  14  15
HETATM   15  N3  UNL     1     -29.394   4.748 -30.988  1.00  0.00    -0.253 NA
BRANCH  15  16
HETATM   16  C5  UNL     1     -29.625   4.847 -29.839  1.00  0.00     0.300 C 
BRANCH  16  17
HETATM   17  C6  UNL     1     -29.802   6.140 -29.109  1.00  0.00     0.291 C 
HETATM   18  O3  UNL     1     -30.215   7.164 -29.673  1.00  0.00    -0.264 OA
HETATM   19  N4  UNL     1     -29.486   6.188 -27.732  1.00  0.00    -0.265 N 
ATOM     20  H4  UNL     1     -29.150   5.345 -27.268  1.00  0.00     0.190 HD
BRANCH  19  21
HETATM   21  N5  UNL     1     -29.619   7.309 -27.030  1.00  0.00    -0.308 N 
HETATM   22  C7  UNL     1     -30.135   7.710 -26.003  1.00  0.00     0.120 C 
ATOM     23  H5  UNL     1     -29.134   8.075 -27.499  1.00  0.00     0.186 HD
BRANCH  22  24
HETATM   24  C8  UNL     1     -30.914   6.983 -25.032  1.00  0.00    -0.002 A 
HETATM   25  C9  UNL     1     -31.707   7.556 -24.074  1.00  0.00     0.100 A 
HETATM   26  N6  UNL     1     -32.471   6.812 -23.219  1.00  0.00    -0.372 N 
HETATM   27  C10 UNL     1     -32.477   5.488 -23.283  1.00  0.00     0.123 A 
ATOM     28  H6  UNL     1     -33.046   7.283 -22.521  1.00  0.00     0.164 HD
HETATM   29  C11 UNL     1     -31.699   4.881 -24.221  1.00  0.00     0.119 A 
HETATM   30  C12 UNL     1     -30.911   5.593 -25.108  1.00  0.00     0.051 A 
BRANCH  29  31
HETATM   31  N7  UNL     1     -31.698   3.459 -24.309  1.00  0.00    -0.114 N 
HETATM   32  O4  UNL     1     -31.410   2.792 -23.307  1.00  0.00    -0.532 OA
HETATM   33  O5  UNL     1     -32.017   2.877 -25.500  1.00  0.00    -0.532 OA
ENDBRANCH  29  31
ENDBRANCH  22  24
ENDBRANCH  19  21
ENDBRANCH  16  17
ENDBRANCH  15  16
ENDBRANCH  14  15
ENDBRANCH   5  12
BRANCH   6  34
HETATM   34  O1  UNL     1     -29.319   4.347 -36.272  1.00  0.00    -0.345 OA
ATOM     35  H1  UNL     1     -30.007   4.040 -35.692  1.00  0.00     0.219 HD
ENDBRANCH   6  34
BRANCH  10  36
HETATM   36  O7  UNL     1     -24.657   6.320 -34.216  1.00  0.00    -0.276 OA
ATOM     37  H7  UNL     1     -24.619   7.259 -34.077  1.00  0.00     0.245 HD
ENDBRANCH  10  36
ENDBRANCH   1   4
TORSDOF 10
ENDMDL
MODEL 2
REMARK VINA RESULT: -8.759562468      5.687     10.160
REMARK  10 active torsions:
REMARK  status: ('A' for Active; 'I' for Inactive)
REMARK    1  A    between atoms: C2_3  and  O1_4 
REMARK    2  A    between atoms: C3_6  and  C4_7 
REMARK       I    between atoms: C4_7  and  N2_9 
REMARK    3  A    between atoms: N2_9  and  N3_10 
REMARK    4  A    between atoms: N3_10  and  C5_11 
REMARK    5  A    between atoms: C5_11  and  C6_12 
REMARK       I    between atoms: C6_12  and  N4_14 
REMARK    6  A    between atoms: N4_14  and  N5_16 
REMARK    7  A    between atoms: C7_18  and  C8_19 
REMARK    8  A    between atoms: C11_24  and  N7_25 
REMARK    9  A    between atoms: C13_29  and  N8_30 
REMARK   10  A    between atoms: N9_33  and  O7_34 
ROOT
HETATM    1  N8  UNL     1     -31.491   7.932 -24.854  1.00  0.00    -0.261 NA
HETATM    2  O6  UNL     1     -30.556   7.202 -25.214  1.00  0.00    -0.217 OA
ATOM      3  H6  UNL     1     -29.800   6.720 -25.529  1.00  0.00     0.261 HD
ENDROOT
BRANCH   1   4
HETATM    4  C13 UNL     1     -32.433   8.532 -24.462  1.00  0.00     0.263 A 
HETATM    5  C3  UNL     1     -33.095   8.299 -23.246  1.00  0.00     0.164 A 
HETATM    6  C2  UNL     1     -34.193   9.025 -22.876  1.00  0.00     0.168 A 
HETATM    7  N1  UNL     1     -34.649   9.979 -23.683  1.00  0.00    -0.281 N 
HETATM    8  C1  UNL     1     -35.818  10.774 -23.319  1.00  0.00     0.163 C 
HETATM    9  C14 UNL     1     -34.051  10.247 -24.870  1.00  0.00     0.357 A 
HETATM   10  N9  UNL     1     -32.997   9.553 -25.228  1.00  0.00    -0.138 N 
HETATM   11  O8  UNL     1     -34.549  11.180 -25.588  1.00  0.00    -0.244 OA
BRANCH   5  12
HETATM   12  C4  UNL     1     -32.592   7.253 -22.341  1.00  0.00     0.370 C 
HETATM   13  O2  UNL     1     -32.668   7.602 -21.091  1.00  0.00    -0.247 OA
HETATM   14  N2  UNL     1     -32.112   6.078 -22.728  1.00  0.00    -0.204 NA
BRANCH  14  15
HETATM   15  N3  UNL     1     -31.638   4.920 -23.108  1.00  0.00    -0.253 NA
BRANCH  15  16
HETATM   16  C5  UNL     1     -31.417   3.832 -23.497  1.00  0.00     0.300 C 
BRANCH  16  17
HETATM   17  C6  UNL     1     -31.331   3.438 -24.938  1.00  0.00     0.291 C 
HETATM   18  O3  UNL     1     -32.071   2.576 -25.431  1.00  0.00    -0.264 OA
HETATM   19  N4  UNL     1     -30.370   4.076 -25.756  1.00  0.00    -0.265 N 
ATOM     20  H4  UNL     1     -29.763   4.788 -25.351  1.00  0.00     0.190 HD
BRANCH  19  21
HETATM   21  N5  UNL     1     -30.242   3.767 -27.043  1.00  0.00    -0.308 N 
HETATM   22  C7  UNL     1     -30.321   4.290 -28.139  1.00  0.00     0.120 C 
ATOM     23  H5  UNL     1     -30.001   2.781 -27.143  1.00  0.00     0.186 HD
BRANCH  22  24
HETATM   24  C8  UNL     1     -30.634   5.656 -28.475  1.00  0.00    -0.002 A 
HETATM   25  C9  UNL     1     -29.717   6.606 -28.841  1.00  0.00     0.100 A 
HETATM   26  N6  UNL     1     -30.083   7.870 -29.208  1.00  0.00    -0.372 N 
HETATM   27  C10 UNL     1     -31.357   8.235 -29.226  1.00  0.00     0.123 A 
ATOM     28  H6  UNL     1     -29.364   8.543 -29.473  1.00  0.00     0.164 HD
HETATM   29  C11 UNL     1     -32.299   7.321 -28.867  1.00  0.00     0.119 A 
HETATM   30  C12 UNL     1     -31.976   6.029 -28.489  1.00  0.00     0.051 A 
BRANCH  29  31
HETATM   31  N7  UNL     1     -33.673   7.694 -28.888  1.00  0.00    -0.114 N 
HETATM   32  O4  UNL     1     -34.214   7.949 -29.971  1.00  0.00    -0.532 OA
HETATM   33  O5  UNL     1     -34.352   7.757 -27.707  1.00  0.00    -0.532 OA
ENDBRANCH  29  31
ENDBRANCH  22  24
ENDBRANCH  19  21
ENDBRANCH  16  17
ENDBRANCH  15  16
ENDBRANCH  14  15
ENDBRANCH   5  12
BRANCH   6  34
HETATM   34  O1  UNL     1     -34.879   8.819 -21.671  1.00  0.00    -0.345 OA
ATOM     35  H1  UNL     1     -34.385   8.461 -20.943  1.00  0.00     0.219 HD
ENDBRANCH   6  34
BRANCH  10  36
HETATM   36  O7  UNL     1     -32.395   9.825 -26.432  1.00  0.00    -0.276 OA
ATOM     37  H7  UNL     1     -32.971   9.995 -27.167  1.00  0.00     0.245 HD
ENDBRANCH  10  36
ENDBRANCH   1   4
TORSDOF 10
ENDMDL
MODEL 3
REMARK VINA RESULT: -8.628996812      5.167     11.185
REMARK  10 active torsions:
REMARK  status: ('A' for Active; 'I' for Inactive)
REMARK    1  A    between atoms: C2_3  and  O1_4 
REMARK    2  A    between atoms: C3_6  and  C4_7 
REMARK       I    between atoms: C4_7  and  N2_9 
REMARK    3  A    between atoms: N2_9  and  N3_10 
REMARK    4  A    between atoms: N3_10  and  C5_11 
REMARK    5  A    between atoms: C5_11  and  C6_12 
REMARK       I    between atoms: C6_12  and  N4_14 
REMARK    6  A    between atoms: N4_14  and  N5_16 
REMARK    7  A    between atoms: C7_18  and  C8_19 
REMARK    8  A    between atoms: C11_24  and  N7_25 
REMARK    9  A    between atoms: C13_29  and  N8_30 
REMARK   10  A    between atoms: N9_33  and  O7_34 
ROOT
HETATM    1  N8  UNL     1     -33.450   8.192 -21.006  1.00  0.00    -0.261 NA
HETATM    2  O6  UNL     1     -32.764   7.494 -20.246  1.00  0.00    -0.217 OA
ATOM      3  H6  UNL     1     -32.246   7.028 -19.599  1.00  0.00     0.261 HD
ENDROOT
BRANCH   1   4
HETATM    4  C13 UNL     1     -34.094   8.773 -21.812  1.00  0.00     0.263 A 
HETATM    5  C3  UNL     1     -33.844   8.786 -23.193  1.00  0.00     0.164 A 
HETATM    6  C2  UNL     1     -34.626   9.502 -24.057  1.00  0.00     0.168 A 
HETATM    7  N1  UNL     1     -35.652  10.205 -23.583  1.00  0.00    -0.281 N 
HETATM    8  C1  UNL     1     -36.507  10.979 -24.477  1.00  0.00     0.163 C 
HETATM    9  C14 UNL     1     -35.939  10.229 -22.259  1.00  0.00     0.357 A 
HETATM   10  N9  UNL     1     -35.192   9.544 -21.427  1.00  0.00    -0.138 N 
HETATM   11  O8  UNL     1     -36.942  10.927 -21.882  1.00  0.00    -0.244 OA
BRANCH   5  12
HETATM   12  C4  UNL     1     -32.718   8.004 -23.730  1.00  0.00     0.370 C 
HETATM   13  O2  UNL     1     -31.935   8.718 -24.483  1.00  0.00    -0.247 OA
HETATM   14  N2  UNL     1     -32.502   6.718 -23.489  1.00  0.00    -0.204 NA
BRANCH  14  15
HETATM   15  N3  UNL     1     -32.288   5.449 -23.252  1.00  0.00    -0.253 NA
BRANCH  15  16
HETATM   16  C5  UNL     1     -32.057   4.296 -23.252  1.00  0.00     0.300 C 
BRANCH  16  17
HETATM   17  C6  UNL     1     -31.603   3.513 -24.443  1.00  0.00     0.291 C 
HETATM   18  O3  UNL     1     -32.106   2.421 -24.745  1.00  0.00    -0.264 OA
HETATM   19  N4  UNL     1     -30.566   4.042 -25.244  1.00  0.00    -0.265 N 
ATOM     20  H4  UNL     1     -30.155   4.942 -24.998  1.00  0.00     0.190 HD
BRANCH  19  21
HETATM   21  N5  UNL     1     -30.116   3.392 -26.313  1.00  0.00    -0.308 N 
HETATM   22  C7  UNL     1     -29.833   3.598 -27.479  1.00  0.00     0.120 C 
ATOM     23  H5  UNL     1     -29.958   2.411 -26.084  1.00  0.00     0.186 HD
BRANCH  22  24
HETATM   24  C8  UNL     1     -29.902   4.828 -28.228  1.00  0.00    -0.002 A 
HETATM   25  C9  UNL     1     -29.148   5.117 -29.334  1.00  0.00     0.100 A 
HETATM   26  N6  UNL     1     -29.302   6.278 -30.039  1.00  0.00    -0.372 N 
HETATM   27  C10 UNL     1     -30.198   7.184 -29.677  1.00  0.00     0.123 A 
ATOM     28  H6  UNL     1     -28.717   6.449 -30.857  1.00  0.00     0.164 HD
HETATM   29  C11 UNL     1     -30.965   6.935 -28.581  1.00  0.00     0.119 A 
HETATM   30  C12 UNL     1     -30.846   5.774 -27.837  1.00  0.00     0.051 A 
BRANCH  29  31
HETATM   31  N7  UNL     1     -31.939   7.895 -28.182  1.00  0.00    -0.114 N 
HETATM   32  O4  UNL     1     -31.806   9.074 -28.534  1.00  0.00    -0.532 OA
HETATM   33  O5  UNL     1     -32.992   7.480 -27.421  1.00  0.00    -0.532 OA
ENDBRANCH  29  31
ENDBRANCH  22  24
ENDBRANCH  19  21
ENDBRANCH  16  17
ENDBRANCH  15  16
ENDBRANCH  14  15
ENDBRANCH   5  12
BRANCH   6  34
HETATM   34  O1  UNL     1     -34.405   9.540 -25.441  1.00  0.00    -0.345 OA
ATOM     35  H1  UNL     1     -34.648   8.770 -25.942  1.00  0.00     0.219 HD
ENDBRANCH   6  34
BRANCH  10  36
HETATM   36  O7  UNL     1     -35.484   9.573 -20.085  1.00  0.00    -0.276 OA
ATOM     37  H7  UNL     1     -35.983  10.319 -19.775  1.00  0.00     0.245 HD
ENDBRANCH  10  36
ENDBRANCH   1   4
TORSDOF 10
ENDMDL
MODEL 4
REMARK VINA RESULT: -8.562315956      2.636     10.656
REMARK  10 active torsions:
REMARK  status: ('A' for Active; 'I' for Inactive)
REMARK    1  A    between atoms: C2_3  and  O1_4 
REMARK    2  A    between atoms: C3_6  and  C4_7 
REMARK       I    between atoms: C4_7  and  N2_9 
REMARK    3  A    between atoms: N2_9  and  N3_10 
REMARK    4  A    between atoms: N3_10  and  C5_11 
REMARK    5  A    between atoms: C5_11  and  C6_12 
REMARK       I    between atoms: C6_12  and  N4_14 
REMARK    6  A    between atoms: N4_14  and  N5_16 
REMARK    7  A    between atoms: C7_18  and  C8_19 
REMARK    8  A    between atoms: C11_24  and  N7_25 
REMARK    9  A    between atoms: C13_29  and  N8_30 
REMARK   10  A    between atoms: N9_33  and  O7_34 
ROOT
HETATM    1  N8  UNL     1     -30.564   7.144 -25.538  1.00  0.00    -0.261 NA
HETATM    2  O6  UNL     1     -29.751   6.756 -26.390  1.00  0.00    -0.217 OA
ATOM      3  H6  UNL     1     -29.077   6.425 -26.971  1.00  0.00     0.261 HD
ENDROOT
BRANCH   1   4
HETATM    4  C13 UNL     1     -31.404   7.557 -24.814  1.00  0.00     0.263 A 
HETATM    5  C3  UNL     1     -32.327   8.566 -25.134  1.00  0.00     0.164 A 
HETATM    6  C2  UNL     1     -33.255   9.003 -24.230  1.00  0.00     0.168 A 
HETATM    7  N1  UNL     1     -33.292   8.461 -23.015  1.00  0.00    -0.281 N 
HETATM    8  C1  UNL     1     -34.271   8.902 -22.027  1.00  0.00     0.163 C 
HETATM    9  C14 UNL     1     -32.426   7.484 -22.651  1.00  0.00     0.357 A 
HETATM   10  N9  UNL     1     -31.534   7.062 -23.515  1.00  0.00    -0.138 N 
HETATM   11  O8  UNL     1     -32.527   7.013 -21.467  1.00  0.00    -0.244 OA
BRANCH   5  12
HETATM   12  C4  UNL     1     -32.301   9.165 -26.478  1.00  0.00     0.370 C 
HETATM   13  O2  UNL     1     -32.421  10.459 -26.445  1.00  0.00    -0.247 OA
HETATM   14  N2  UNL     1     -32.172   8.487 -27.611  1.00  0.00    -0.204 NA
BRANCH  14  15
HETATM   15  N3  UNL     1     -32.045   7.820 -28.729  1.00  0.00    -0.253 NA
BRANCH  15  16
HETATM   16  C5  UNL     1     -31.841   7.068 -29.610  1.00  0.00     0.300 C 
BRANCH  16  17
HETATM   17  C6  UNL     1     -30.758   6.036 -29.622  1.00  0.00     0.291 C 
HETATM   18  O3  UNL     1     -31.001   4.824 -29.547  1.00  0.00    -0.264 OA
HETATM   19  N4  UNL     1     -29.415   6.467 -29.723  1.00  0.00    -0.265 N 
ATOM     20  H4  UNL     1     -29.215   7.465 -29.789  1.00  0.00     0.190 HD
BRANCH  19  21
HETATM   21  N5  UNL     1     -28.408   5.599 -29.735  1.00  0.00    -0.308 N 
HETATM   22  C7  UNL     1     -27.789   4.901 -30.516  1.00  0.00     0.120 C 
ATOM     23  H5  UNL     1     -28.038   5.481 -28.792  1.00  0.00     0.186 HD
BRANCH  22  24
HETATM   24  C8  UNL     1     -27.965   4.750 -31.939  1.00  0.00    -0.002 A 
HETATM   25  C9  UNL     1     -29.161   4.503 -32.561  1.00  0.00     0.100 A 
HETATM   26  N6  UNL     1     -29.274   4.431 -33.920  1.00  0.00    -0.372 N 
HETATM   27  C10 UNL     1     -28.220   4.599 -34.705  1.00  0.00     0.123 A 
ATOM     28  H6  UNL     1     -30.186   4.246 -34.338  1.00  0.00     0.164 HD
HETATM   29  C11 UNL     1     -27.013   4.843 -34.125  1.00  0.00     0.119 A 
HETATM   30  C12 UNL     1     -26.850   4.926 -32.753  1.00  0.00     0.051 A 
BRANCH  29  31
HETATM   31  N7  UNL     1     -25.869   5.033 -34.953  1.00  0.00    -0.114 N 
HETATM   32  O4  UNL     1     -24.816   4.448 -34.672  1.00  0.00    -0.532 OA
HETATM   33  O5  UNL     1     -25.974   5.858 -36.033  1.00  0.00    -0.532 OA
ENDBRANCH  29  31
ENDBRANCH  22  24
ENDBRANCH  19  21
ENDBRANCH  16  17
ENDBRANCH  15  16
ENDBRANCH  14  15
ENDBRANCH   5  12
BRANCH   6  34
HETATM   34  O1  UNL     1     -34.190  10.008 -24.515  1.00  0.00    -0.345 OA
ATOM     35  H1  UNL     1     -34.559  10.026 -25.390  1.00  0.00     0.219 HD
ENDBRANCH   6  34
BRANCH  10  36
HETATM   36  O7  UNL     1     -30.655   6.074 -23.142  1.00  0.00    -0.276 OA
ATOM     37  H7  UNL     1     -30.654   5.285 -23.671  1.00  0.00     0.245 HD
ENDBRANCH  10  36
ENDBRANCH   1   4
TORSDOF 10
ENDMDL
MODEL 5
REMARK VINA RESULT: -8.430471505      6.234     11.606
REMARK  10 active torsions:
REMARK  status: ('A' for Active; 'I' for Inactive)
REMARK    1  A    between atoms: C2_3  and  O1_4 
REMARK    2  A    between atoms: C3_6  and  C4_7 
REMARK       I    between atoms: C4_7  and  N2_9 
REMARK    3  A    between atoms: N2_9  and  N3_10 
REMARK    4  A    between atoms: N3_10  and  C5_11 
REMARK    5  A    between atoms: C5_11  and  C6_12 
REMARK       I    between atoms: C6_12  and  N4_14 
REMARK    6  A    between atoms: N4_14  and  N5_16 
REMARK    7  A    between atoms: C7_18  and  C8_19 
REMARK    8  A    between atoms: C11_24  and  N7_25 
REMARK    9  A    between atoms: C13_29  and  N8_30 
REMARK   10  A    between atoms: N9_33  and  O7_34 
ROOT
HETATM    1  N8  UNL     1     -33.717   8.183 -21.422  1.00  0.00    -0.261 NA
HETATM    2  O6  UNL     1     -32.818   7.338 -21.306  1.00  0.00    -0.217 OA
ATOM      3  H6  UNL     1     -32.186   6.630 -21.262  1.00  0.00     0.261 HD
ENDROOT
BRANCH   1   4
HETATM    4  C13 UNL     1     -34.505   9.065 -21.476  1.00  0.00     0.263 A 
HETATM    5  C3  UNL     1     -35.059   9.587 -22.656  1.00  0.00     0.164 A 
HETATM    6  C2  UNL     1     -35.949  10.624 -22.634  1.00  0.00     0.168 A 
HETATM    7  N1  UNL     1     -36.305  11.156 -21.468  1.00  0.00    -0.281 N 
HETATM    8  C1  UNL     1     -37.254  12.263 -21.407  1.00  0.00     0.163 C 
HETATM    9  C14 UNL     1     -35.802  10.694 -20.297  1.00  0.00     0.357 A 
HETATM   10  N9  UNL     1     -34.948   9.699 -20.314  1.00  0.00    -0.138 N 
HETATM   11  O8  UNL     1     -36.196  11.257 -19.219  1.00  0.00    -0.244 OA
BRANCH   5  12
HETATM   12  C4  UNL     1     -34.679   8.999 -23.951  1.00  0.00     0.370 C 
HETATM   13  O2  UNL     1     -35.297   7.880 -24.187  1.00  0.00    -0.247 OA
HETATM   14  N2  UNL     1     -33.808   9.529 -24.801  1.00  0.00    -0.204 NA
BRANCH  14  15
HETATM   15  N3  UNL     1     -32.950  10.049 -25.640  1.00  0.00    -0.253 NA
BRANCH  15  16
HETATM   16  C5  UNL     1     -32.030  10.424 -26.269  1.00  0.00     0.300 C 
BRANCH  16  17
HETATM   17  C6  UNL     1     -30.932   9.549 -26.784  1.00  0.00     0.291 C 
HETATM   18  O3  UNL     1     -29.753   9.692 -26.430  1.00  0.00    -0.264 OA
HETATM   19  N4  UNL     1     -31.258   8.527 -27.706  1.00  0.00    -0.265 N 
ATOM     20  H4  UNL     1     -32.228   8.407 -27.995  1.00  0.00     0.190 HD
BRANCH  19  21
HETATM   21  N5  UNL     1     -30.325   7.720 -28.203  1.00  0.00    -0.308 N 
HETATM   22  C7  UNL     1     -29.889   6.594 -28.049  1.00  0.00     0.120 C 
ATOM     23  H5  UNL     1     -29.815   8.193 -28.949  1.00  0.00     0.186 HD
BRANCH  22  24
HETATM   24  C8  UNL     1     -30.305   5.577 -27.116  1.00  0.00    -0.002 A 
HETATM   25  C9  UNL     1     -30.280   4.230 -27.359  1.00  0.00     0.100 A 
HETATM   26  N6  UNL     1     -30.629   3.310 -26.411  1.00  0.00    -0.372 N 
HETATM   27  C10 UNL     1     -31.011   3.689 -25.199  1.00  0.00     0.123 A 
ATOM     28  H6  UNL     1     -30.595   2.317 -26.639  1.00  0.00     0.164 HD
HETATM   29  C11 UNL     1     -31.050   5.020 -24.919  1.00  0.00     0.119 A 
HETATM   30  C12 UNL     1     -30.705   5.986 -25.846  1.00  0.00     0.051 A 
BRANCH  29  31
HETATM   31  N7  UNL     1     -31.451   5.444 -23.619  1.00  0.00    -0.114 N 
HETATM   32  O4  UNL     1     -32.241   4.745 -22.971  1.00  0.00    -0.532 OA
HETATM   33  O5  UNL     1     -30.949   6.613 -23.129  1.00  0.00    -0.532 OA
ENDBRANCH  29  31
ENDBRANCH  22  24
ENDBRANCH  19  21
ENDBRANCH  16  17
ENDBRANCH  15  16
ENDBRANCH  14  15
ENDBRANCH   5  12
BRANCH   6  34
HETATM   34  O1  UNL     1     -36.520  11.170 -23.792  1.00  0.00    -0.345 OA
ATOM     35  H1  UNL     1     -37.406  11.508 -23.723  1.00  0.00     0.219 HD
ENDBRANCH   6  34
BRANCH  10  36
HETATM   36  O7  UNL     1     -34.437   9.234 -19.127  1.00  0.00    -0.276 OA
ATOM     37  H7  UNL     1     -34.516   9.810 -18.376  1.00  0.00     0.245 HD
ENDBRANCH  10  36
ENDBRANCH   1   4
TORSDOF 10
ENDMDL
