MODEL 1
REMARK VINA RESULT: -8.221185169      0.000      0.000
REMARK  4 active torsions:
REMARK  status: ('A' for Active; 'I' for Inactive)
REMARK    1  A    between atoms: C2_2  and  C3_3 
REMARK    2  A    between atoms: C3_3  and  C4_4 
REMARK    3  A    between atoms: C5_5  and  C6_6 
REMARK    4  A    between atoms: C14_20  and  C15_21 
ROOT
HETATM    1  C4  UNL     1      -6.650   8.941  16.117  1.00  0.00     0.005 C 
HETATM    2  C5  UNL     1      -6.738   7.952  15.057  1.00  0.00     0.000 C 
HETATM    3  C10 UNL     1      -5.958   6.778  15.634  1.00  0.00     0.039 C 
HETATM    4  C11 UNL     1      -5.683   7.114  17.103  1.00  0.00     0.064 C 
HETATM    5  C12 UNL     1      -5.687   5.903  17.952  1.00  0.00     0.210 C 
HETATM    6  O1  UNL     1      -4.293   5.621  18.151  1.00  0.00    -0.320 OA
HETATM    7  C13 UNL     1      -3.572   6.785  18.019  1.00  0.00     0.213 C 
HETATM    8  N1  UNL     1      -2.441   7.094  18.552  1.00  0.00    -0.365 N 
ATOM      9  H11 UNL     1      -1.907   7.957  18.455  1.00  0.00     0.159 HD
ATOM     10  H12 UNL     1      -1.892   6.502  19.174  1.00  0.00     0.159 HD
HETATM   11  N2  UNL     1      -4.351   7.624  17.137  1.00  0.00    -0.344 N 
ATOM     12  H2  UNL     1      -4.009   8.439  16.627  1.00  0.00     0.164 HD
HETATM   13  C14 UNL     1      -6.783   8.137  17.387  1.00  0.00     0.057 C 
ENDROOT
BRANCH  13  14
HETATM   14  C15 UNL     1      -6.484   8.889  18.627  1.00  0.00    -0.009 A 
HETATM   15  C16 UNL     1      -5.707  10.022  18.636  1.00  0.00     0.011 A 
HETATM   16  C17 UNL     1      -5.358  10.664  19.827  1.00  0.00     0.004 A 
HETATM   17  C18 UNL     1      -5.801  10.154  21.026  1.00  0.00     0.045 A 
HETATM   18  C19 UNL     1      -6.588   9.012  21.061  1.00  0.00     0.155 A 
HETATM   19  F1  UNL     1      -7.007   8.525  22.253  1.00  0.00    -0.203 F 
HETATM   20  C20 UNL     1      -6.918   8.400  19.860  1.00  0.00     0.161 A 
HETATM   21  F2  UNL     1      -7.739   7.325  19.949  1.00  0.00    -0.202 F 
ENDBRANCH  13  14
BRANCH   2  22
HETATM   22  C6  UNL     1      -7.970   7.426  14.492  1.00  0.00    -0.047 C 
HETATM   23  C7  UNL     1      -7.509   6.376  13.435  1.00  0.00     0.015 C 
HETATM   24  C8  UNL     1      -8.942   6.701  15.334  1.00  0.00     0.015 C 
HETATM   25  C9  UNL     1      -8.675   8.458  13.589  1.00  0.00     0.015 C 
ENDBRANCH   2  22
BRANCH   1  26
HETATM   26  C3  UNL     1      -7.283  10.252  16.062  1.00  0.00     0.032 C 
BRANCH  26  27
HETATM   27  C2  UNL     1      -8.670  10.301  16.600  1.00  0.00    -0.037 C 
HETATM   28  C1  UNL     1      -9.515  11.188  16.069  1.00  0.00     0.007 C 
ENDBRANCH  26  27
ENDBRANCH   1  26
TORSDOF 4
ENDMDL
MODEL 2
REMARK VINA RESULT: -7.831546151      2.070      3.467
REMARK  4 active torsions:
REMARK  status: ('A' for Active; 'I' for Inactive)
REMARK    1  A    between atoms: C2_2  and  C3_3 
REMARK    2  A    between atoms: C3_3  and  C4_4 
REMARK    3  A    between atoms: C5_5  and  C6_6 
REMARK    4  A    between atoms: C14_20  and  C15_21 
ROOT
HETATM    1  C4  UNL     1      -6.601   9.408  16.867  1.00  0.00     0.005 C 
HETATM    2  C5  UNL     1      -7.664   9.805  15.958  1.00  0.00     0.000 C 
HETATM    3  C10 UNL     1      -7.971   8.506  15.224  1.00  0.00     0.039 C 
HETATM    4  C11 UNL     1      -7.206   7.398  15.954  1.00  0.00     0.064 C 
HETATM    5  C12 UNL     1      -7.944   6.116  15.929  1.00  0.00     0.210 C 
HETATM    6  O1  UNL     1      -7.288   5.364  14.896  1.00  0.00    -0.320 OA
HETATM    7  C13 UNL     1      -5.995   5.811  14.762  1.00  0.00     0.213 C 
HETATM    8  N1  UNL     1      -4.962   5.167  14.342  1.00  0.00    -0.365 N 
ATOM      9  H11 UNL     1      -4.002   5.498  14.243  1.00  0.00     0.159 HD
ATOM     10  H12 UNL     1      -4.948   4.194  14.036  1.00  0.00     0.159 HD
HETATM   11  N2  UNL     1      -6.015   7.190  15.196  1.00  0.00    -0.344 N 
ATOM     12  H2  UNL     1      -5.303   7.892  14.994  1.00  0.00     0.164 HD
HETATM   13  C14 UNL     1      -7.003   8.030  17.330  1.00  0.00     0.057 C 
ENDROOT
BRANCH  13  14
HETATM   14  C15 UNL     1      -5.958   7.304  18.086  1.00  0.00    -0.009 A 
HETATM   15  C16 UNL     1      -4.616   7.470  17.838  1.00  0.00     0.011 A 
HETATM   16  C17 UNL     1      -3.648   6.706  18.496  1.00  0.00     0.004 A 
HETATM   17  C18 UNL     1      -4.041   5.762  19.416  1.00  0.00     0.045 A 
HETATM   18  C19 UNL     1      -5.385   5.563  19.696  1.00  0.00     0.155 A 
HETATM   19  F1  UNL     1      -5.748   4.625  20.602  1.00  0.00    -0.203 F 
HETATM   20  C20 UNL     1      -6.321   6.339  19.027  1.00  0.00     0.161 A 
HETATM   21  F2  UNL     1      -7.614   6.146  19.383  1.00  0.00    -0.202 F 
ENDBRANCH  13  14
BRANCH   2  22
HETATM   22  C6  UNL     1      -8.930  10.401  16.348  1.00  0.00    -0.047 C 
HETATM   23  C7  UNL     1      -9.910  10.053  15.185  1.00  0.00     0.015 C 
HETATM   24  C8  UNL     1      -9.634   9.957  17.568  1.00  0.00     0.015 C 
HETATM   25  C9  UNL     1      -8.897  11.939  16.252  1.00  0.00     0.015 C 
ENDBRANCH   2  22
BRANCH   1  26
HETATM   26  C3  UNL     1      -5.979  10.306  17.831  1.00  0.00     0.032 C 
BRANCH  26  27
HETATM   27  C2  UNL     1      -6.728  10.471  19.107  1.00  0.00    -0.037 C 
HETATM   28  C1  UNL     1      -7.008  11.713  19.511  1.00  0.00     0.007 C 
ENDBRANCH  26  27
ENDBRANCH   1  26
TORSDOF 4
ENDMDL
MODEL 3
REMARK VINA RESULT: -7.689914302      1.818      2.074
REMARK  4 active torsions:
REMARK  status: ('A' for Active; 'I' for Inactive)
REMARK    1  A    between atoms: C2_2  and  C3_3 
REMARK    2  A    between atoms: C3_3  and  C4_4 
REMARK    3  A    between atoms: C5_5  and  C6_6 
REMARK    4  A    between atoms: C14_20  and  C15_21 
ROOT
HETATM    1  C4  UNL     1      -6.188   8.431  16.456  1.00  0.00     0.005 C 
HETATM    2  C5  UNL     1      -6.209   7.038  16.045  1.00  0.00     0.000 C 
HETATM    3  C10 UNL     1      -5.798   6.312  17.320  1.00  0.00     0.039 C 
HETATM    4  C11 UNL     1      -5.805   7.356  18.441  1.00  0.00     0.064 C 
HETATM    5  C12 UNL     1      -6.212   6.766  19.735  1.00  0.00     0.210 C 
HETATM    6  O1  UNL     1      -4.971   6.582  20.432  1.00  0.00    -0.320 OA
HETATM    7  C13 UNL     1      -4.045   7.480  19.955  1.00  0.00     0.213 C 
HETATM    8  N1  UNL     1      -3.026   7.982  20.561  1.00  0.00    -0.365 N 
ATOM      9  H11 UNL     1      -2.340   8.648  20.208  1.00  0.00     0.159 HD
ATOM     10  H12 UNL     1      -2.744   7.783  21.521  1.00  0.00     0.159 HD
HETATM   11  N2  UNL     1      -4.446   7.762  18.594  1.00  0.00    -0.344 N 
ATOM     12  H2  UNL     1      -3.859   8.178  17.871  1.00  0.00     0.164 HD
HETATM   13  C14 UNL     1      -6.742   8.413  17.859  1.00  0.00     0.057 C 
ENDROOT
BRANCH  13  14
HETATM   14  C15 UNL     1      -6.601   9.691  18.594  1.00  0.00    -0.009 A 
HETATM   15  C16 UNL     1      -5.380  10.202  18.964  1.00  0.00     0.011 A 
HETATM   16  C17 UNL     1      -5.272  11.359  19.738  1.00  0.00     0.004 A 
HETATM   17  C18 UNL     1      -6.414  12.010  20.145  1.00  0.00     0.045 A 
HETATM   18  C19 UNL     1      -7.666  11.529  19.794  1.00  0.00     0.155 A 
HETATM   19  F1  UNL     1      -8.776  12.184  20.210  1.00  0.00    -0.203 F 
HETATM   20  C20 UNL     1      -7.739  10.378  19.022  1.00  0.00     0.161 A 
HETATM   21  F2  UNL     1      -8.984   9.987  18.656  1.00  0.00    -0.202 F 
ENDBRANCH  13  14
BRANCH   2  22
HETATM   22  C6  UNL     1      -7.356   6.338  15.490  1.00  0.00    -0.047 C 
HETATM   23  C7  UNL     1      -7.047   4.825  15.714  1.00  0.00     0.015 C 
HETATM   24  C8  UNL     1      -8.707   6.527  16.056  1.00  0.00     0.015 C 
HETATM   25  C9  UNL     1      -7.381   6.406  13.950  1.00  0.00     0.015 C 
ENDBRANCH   2  22
BRANCH   1  26
HETATM   26  C3  UNL     1      -6.551   9.542  15.585  1.00  0.00     0.032 C 
BRANCH  26  27
HETATM   27  C2  UNL     1      -8.005   9.856  15.545  1.00  0.00    -0.037 C 
HETATM   28  C1  UNL     1      -8.631   9.771  14.368  1.00  0.00     0.007 C 
ENDBRANCH  26  27
ENDBRANCH   1  26
TORSDOF 4
ENDMDL
MODEL 4
REMARK VINA RESULT: -7.688992483      2.583      4.411
REMARK  4 active torsions:
REMARK  status: ('A' for Active; 'I' for Inactive)
REMARK    1  A    between atoms: C2_2  and  C3_3 
REMARK    2  A    between atoms: C3_3  and  C4_4 
REMARK    3  A    between atoms: C5_5  and  C6_6 
REMARK    4  A    between atoms: C14_20  and  C15_21 
ROOT
HETATM    1  C4  UNL     1      -7.979   7.898  16.772  1.00  0.00     0.005 C 
HETATM    2  C5  UNL     1      -8.628   9.191  16.630  1.00  0.00     0.000 C 
HETATM    3  C10 UNL     1      -8.019   9.993  17.773  1.00  0.00     0.039 C 
HETATM    4  C11 UNL     1      -6.874   9.148  18.340  1.00  0.00     0.064 C 
HETATM    5  C12 UNL     1      -5.760   9.993  18.825  1.00  0.00     0.210 C 
HETATM    6  O1  UNL     1      -5.942  10.014  20.249  1.00  0.00    -0.320 OA
HETATM    7  C13 UNL     1      -6.621   8.883  20.636  1.00  0.00     0.213 C 
HETATM    8  N1  UNL     1      -6.587   8.273  21.769  1.00  0.00    -0.365 N 
ATOM      9  H11 UNL     1      -7.090   7.434  22.056  1.00  0.00     0.159 HD
ATOM     10  H12 UNL     1      -6.030   8.546  22.578  1.00  0.00     0.159 HD
HETATM   11  N2  UNL     1      -7.411   8.495  19.488  1.00  0.00    -0.344 N 
ATOM     12  H2  UNL     1      -8.213   7.864  19.498  1.00  0.00     0.164 HD
HETATM   13  C14 UNL     1      -6.560   8.236  17.155  1.00  0.00     0.057 C 
ENDROOT
BRANCH  13  14
HETATM   14  C15 UNL     1      -5.747   7.079  17.593  1.00  0.00    -0.009 A 
HETATM   15  C16 UNL     1      -6.201   6.159  18.509  1.00  0.00     0.011 A 
HETATM   16  C17 UNL     1      -5.385   5.128  18.980  1.00  0.00     0.004 A 
HETATM   17  C18 UNL     1      -4.093   5.024  18.521  1.00  0.00     0.045 A 
HETATM   18  C19 UNL     1      -3.594   5.930  17.597  1.00  0.00     0.155 A 
HETATM   19  F1  UNL     1      -2.317   5.810  17.164  1.00  0.00    -0.203 F 
HETATM   20  C20 UNL     1      -4.431   6.942  17.147  1.00  0.00     0.161 A 
HETATM   21  F2  UNL     1      -3.914   7.762  16.200  1.00  0.00    -0.202 F 
ENDBRANCH  13  14
BRANCH   2  22
HETATM   22  C6  UNL     1      -8.598  10.025  15.441  1.00  0.00    -0.047 C 
HETATM   23  C7  UNL     1      -9.194  11.392  15.897  1.00  0.00     0.015 C 
HETATM   24  C8  UNL     1      -7.319  10.378  14.794  1.00  0.00     0.015 C 
HETATM   25  C9  UNL     1      -9.647   9.583  14.401  1.00  0.00     0.015 C 
ENDBRANCH   2  22
BRANCH   1  26
HETATM   26  C3  UNL     1      -8.201   6.773  15.874  1.00  0.00     0.032 C 
BRANCH  26  27
HETATM   27  C2  UNL     1      -7.232   6.669  14.749  1.00  0.00    -0.037 C 
HETATM   28  C1  UNL     1      -7.712   6.709  13.503  1.00  0.00     0.007 C 
ENDBRANCH  26  27
ENDBRANCH   1  26
TORSDOF 4
ENDMDL
MODEL 5
REMARK VINA RESULT: -7.659613028      2.958      5.110
REMARK  4 active torsions:
REMARK  status: ('A' for Active; 'I' for Inactive)
REMARK    1  A    between atoms: C2_2  and  C3_3 
REMARK    2  A    between atoms: C3_3  and  C4_4 
REMARK    3  A    between atoms: C5_5  and  C6_6 
REMARK    4  A    between atoms: C14_20  and  C15_21 
ROOT
HETATM    1  C4  UNL     1      -6.742   6.485  16.944  1.00  0.00     0.005 C 
HETATM    2  C5  UNL     1      -7.307   7.719  17.464  1.00  0.00     0.000 C 
HETATM    3  C10 UNL     1      -6.630   7.845  18.822  1.00  0.00     0.039 C 
HETATM    4  C11 UNL     1      -5.535   6.775  18.868  1.00  0.00     0.064 C 
HETATM    5  C12 UNL     1      -4.361   7.227  19.647  1.00  0.00     0.210 C 
HETATM    6  O1  UNL     1      -4.521   6.573  20.915  1.00  0.00    -0.320 OA
HETATM    7  C13 UNL     1      -5.267   5.431  20.746  1.00  0.00     0.213 C 
HETATM    8  N1  UNL     1      -5.257   4.352  21.449  1.00  0.00    -0.365 N 
ATOM      9  H11 UNL     1      -5.810   3.505  21.323  1.00  0.00     0.159 HD
ATOM     10  H12 UNL     1      -4.671   4.177  22.265  1.00  0.00     0.159 HD
HETATM   11  N2  UNL     1      -6.097   5.680  19.588  1.00  0.00    -0.344 N 
ATOM     12  H2  UNL     1      -6.939   5.163  19.332  1.00  0.00     0.164 HD
HETATM   13  C14 UNL     1      -5.298   6.526  17.379  1.00  0.00     0.057 C 
ENDROOT
BRANCH  13  14
HETATM   14  C15 UNL     1      -4.557   5.261  17.176  1.00  0.00    -0.009 A 
HETATM   15  C16 UNL     1      -5.186   4.070  16.898  1.00  0.00     0.011 A 
HETATM   16  C17 UNL     1      -4.478   2.870  16.804  1.00  0.00     0.004 A 
HETATM   17  C18 UNL     1      -3.116   2.871  16.992  1.00  0.00     0.045 A 
HETATM   18  C19 UNL     1      -2.441   4.050  17.274  1.00  0.00     0.155 A 
HETATM   19  F1  UNL     1      -1.100   4.026  17.461  1.00  0.00    -0.203 F 
HETATM   20  C20 UNL     1      -3.173   5.226  17.359  1.00  0.00     0.161 A 
HETATM   21  F2  UNL     1      -2.457   6.356  17.575  1.00  0.00    -0.202 F 
ENDBRANCH  13  14
BRANCH   2  22
HETATM   22  C6  UNL     1      -7.240   9.018  16.816  1.00  0.00    -0.047 C 
HETATM   23  C7  UNL     1      -6.988  10.030  17.976  1.00  0.00     0.015 C 
HETATM   24  C8  UNL     1      -6.184   9.319  15.828  1.00  0.00     0.015 C 
HETATM   25  C9  UNL     1      -8.621   9.485  16.316  1.00  0.00     0.015 C 
ENDBRANCH   2  22
BRANCH   1  26
HETATM   26  C3  UNL     1      -7.051   5.940  15.629  1.00  0.00     0.032 C 
BRANCH  26  27
HETATM   27  C2  UNL     1      -8.458   5.488  15.453  1.00  0.00    -0.037 C 
HETATM   28  C1  UNL     1      -8.962   4.647  16.360  1.00  0.00     0.007 C 
ENDBRANCH  26  27
ENDBRANCH   1  26
TORSDOF 4
ENDMDL
