MODEL 1
REMARK VINA RESULT: -7.222499343      0.000      0.000
REMARK  1 active torsions:
REMARK  status: ('A' for Active; 'I' for Inactive)
REMARK    1  A    between atoms: N1_8  and  C6_10 
ROOT
HETATM    1  C1  UNL     1      -2.177   0.125  15.534  1.00  0.00     0.027 C 
HETATM    2  C2  UNL     1      -2.248  -0.523  16.883  1.00  0.00     0.136 C 
HETATM    3  C3  UNL     1      -3.549  -0.287  17.559  1.00  0.00     0.212 C 
HETATM    4  O1  UNL     1      -4.318   0.678  17.333  1.00  0.00    -0.288 OA
HETATM    5  C4  UNL     1      -3.716  -1.395  18.512  1.00  0.00     0.248 C 
HETATM    6  O2  UNL     1      -4.454  -1.360  19.532  1.00  0.00    -0.282 OA
HETATM    7  C5  UNL     1      -2.872  -2.477  18.021  1.00  0.00     0.134 C 
HETATM    8  N1  UNL     1      -2.723  -3.636  18.562  1.00  0.00    -0.350 N 
ATOM      9  H1  UNL     1      -2.095  -4.297  18.106  1.00  0.00     0.166 HD
HETATM   10  C12 UNL     1      -2.226  -2.007  16.805  1.00  0.00     0.191 C 
HETATM   11  O3  UNL     1      -1.738  -2.722  15.862  1.00  0.00    -0.290 OA
ENDROOT
BRANCH   8  12
HETATM   12  C6  UNL     1      -3.366  -4.049  19.736  1.00  0.00     0.032 A 
HETATM   13  C7  UNL     1      -2.804  -3.845  20.979  1.00  0.00     0.029 A 
HETATM   14  C8  UNL     1      -3.467  -4.268  22.123  1.00  0.00     0.002 A 
HETATM   15  C9  UNL     1      -4.711  -4.900  21.992  1.00  0.00     0.000 A 
HETATM   16  C10 UNL     1      -5.269  -5.102  20.753  1.00  0.00     0.002 A 
HETATM   17  C11 UNL     1      -4.606  -4.682  19.636  1.00  0.00     0.029 A 
ENDBRANCH   8  12
TORSDOF 1
ENDMDL
MODEL 2
REMARK VINA RESULT: -7.155002999      0.052      1.203
REMARK  1 active torsions:
REMARK  status: ('A' for Active; 'I' for Inactive)
REMARK    1  A    between atoms: N1_8  and  C6_10 
ROOT
HETATM    1  C1  UNL     1      -2.155   0.123  15.576  1.00  0.00     0.027 C 
HETATM    2  C2  UNL     1      -2.247  -0.540  16.917  1.00  0.00     0.136 C 
HETATM    3  C3  UNL     1      -3.554  -0.303  17.579  1.00  0.00     0.212 C 
HETATM    4  O1  UNL     1      -4.315   0.669  17.355  1.00  0.00    -0.288 OA
HETATM    5  C4  UNL     1      -3.740  -1.421  18.517  1.00  0.00     0.248 C 
HETATM    6  O2  UNL     1      -4.490  -1.393  19.528  1.00  0.00    -0.282 OA
HETATM    7  C5  UNL     1      -2.896  -2.502  18.024  1.00  0.00     0.134 C 
HETATM    8  N1  UNL     1      -2.761  -3.668  18.554  1.00  0.00    -0.350 N 
ATOM      9  H1  UNL     1      -2.132  -4.328  18.098  1.00  0.00     0.166 HD
HETATM   10  C12 UNL     1      -2.233  -2.023  16.822  1.00  0.00     0.191 C 
HETATM   11  O3  UNL     1      -1.737  -2.730  15.876  1.00  0.00    -0.290 OA
ENDROOT
BRANCH   8  12
HETATM   12  C6  UNL     1      -3.421  -4.090  19.715  1.00  0.00     0.032 A 
HETATM   13  C7  UNL     1      -4.653  -4.709  19.664  1.00  0.00     0.029 A 
HETATM   14  C8  UNL     1      -5.280  -5.114  20.834  1.00  0.00     0.002 A 
HETATM   15  C9  UNL     1      -4.641  -4.885  22.061  1.00  0.00     0.000 A 
HETATM   16  C10 UNL     1      -3.414  -4.269  22.110  1.00  0.00     0.002 A 
HETATM   17  C11 UNL     1      -2.808  -3.875  20.952  1.00  0.00     0.029 A 
ENDBRANCH   8  12
TORSDOF 1
ENDMDL
MODEL 3
REMARK VINA RESULT: -6.876807709      1.078      1.122
REMARK  1 active torsions:
REMARK  status: ('A' for Active; 'I' for Inactive)
REMARK    1  A    between atoms: N1_8  and  C6_10 
ROOT
HETATM    1  C1  UNL     1      -2.655   1.289  16.076  1.00  0.00     0.027 C 
HETATM    2  C2  UNL     1      -2.573   0.384  17.268  1.00  0.00     0.136 C 
HETATM    3  C3  UNL     1      -3.574   0.727  18.310  1.00  0.00     0.212 C 
HETATM    4  O1  UNL     1      -4.100   1.854  18.467  1.00  0.00    -0.288 OA
HETATM    5  C4  UNL     1      -3.793  -0.508  19.079  1.00  0.00     0.248 C 
HETATM    6  O2  UNL     1      -4.238  -0.550  20.257  1.00  0.00    -0.282 OA
HETATM    7  C5  UNL     1      -3.395  -1.602  18.204  1.00  0.00     0.134 C 
HETATM    8  N1  UNL     1      -3.427  -2.858  18.487  1.00  0.00    -0.350 N 
ATOM      9  H1  UNL     1      -3.115  -3.515  17.773  1.00  0.00     0.166 HD
HETATM   10  C12 UNL     1      -2.953  -1.016  16.948  1.00  0.00     0.191 C 
HETATM   11  O3  UNL     1      -2.899  -1.587  15.803  1.00  0.00    -0.290 OA
ENDROOT
BRANCH   8  12
HETATM   12  C6  UNL     1      -3.861  -3.382  19.712  1.00  0.00     0.032 A 
HETATM   13  C7  UNL     1      -2.972  -3.719  20.711  1.00  0.00     0.029 A 
HETATM   14  C8  UNL     1      -3.437  -4.237  21.912  1.00  0.00     0.002 A 
HETATM   15  C9  UNL     1      -4.816  -4.408  22.090  1.00  0.00     0.000 A 
HETATM   16  C10 UNL     1      -5.699  -4.072  21.093  1.00  0.00     0.002 A 
HETATM   17  C11 UNL     1      -5.230  -3.564  19.916  1.00  0.00     0.029 A 
ENDBRANCH   8  12
TORSDOF 1
ENDMDL
MODEL 4
REMARK VINA RESULT: -6.711085839      1.401      2.322
REMARK  1 active torsions:
REMARK  status: ('A' for Active; 'I' for Inactive)
REMARK    1  A    between atoms: N1_8  and  C6_10 
ROOT
HETATM    1  C1  UNL     1      -2.241   0.292  15.901  1.00  0.00     0.027 C 
HETATM    2  C2  UNL     1      -3.086  -0.691  16.654  1.00  0.00     0.136 C 
HETATM    3  C3  UNL     1      -2.382  -1.976  16.895  1.00  0.00     0.212 C 
HETATM    4  O1  UNL     1      -1.438  -2.426  16.203  1.00  0.00    -0.288 OA
HETATM    5  C4  UNL     1      -3.023  -2.571  18.077  1.00  0.00     0.248 C 
HETATM    6  O2  UNL     1      -3.004  -3.798  18.363  1.00  0.00    -0.282 OA
HETATM    7  C5  UNL     1      -3.645  -1.466  18.795  1.00  0.00     0.134 C 
HETATM    8  N1  UNL     1      -4.315  -1.548  19.892  1.00  0.00    -0.350 N 
ATOM      9  H1  UNL     1      -4.696  -0.686  20.281  1.00  0.00     0.166 HD
HETATM   10  C12 UNL     1      -3.372  -0.251  18.044  1.00  0.00     0.191 C 
HETATM   11  O3  UNL     1      -3.378   0.951  18.486  1.00  0.00    -0.290 OA
ENDROOT
BRANCH   8  12
HETATM   12  C6  UNL     1      -4.555  -2.741  20.585  1.00  0.00     0.032 A 
HETATM   13  C7  UNL     1      -3.617  -3.284  21.438  1.00  0.00     0.029 A 
HETATM   14  C8  UNL     1      -3.887  -4.469  22.108  1.00  0.00     0.002 A 
HETATM   15  C9  UNL     1      -5.122  -5.098  21.905  1.00  0.00     0.000 A 
HETATM   16  C10 UNL     1      -6.055  -4.556  21.055  1.00  0.00     0.002 A 
HETATM   17  C11 UNL     1      -5.778  -3.390  20.401  1.00  0.00     0.029 A 
ENDBRANCH   8  12
TORSDOF 1
ENDMDL
MODEL 5
REMARK VINA RESULT: -6.690040425      1.379      2.593
REMARK  1 active torsions:
REMARK  status: ('A' for Active; 'I' for Inactive)
REMARK    1  A    between atoms: N1_8  and  C6_10 
ROOT
HETATM    1  C1  UNL     1      -2.166   0.290  15.891  1.00  0.00     0.027 C 
HETATM    2  C2  UNL     1      -3.030  -0.689  16.626  1.00  0.00     0.136 C 
HETATM    3  C3  UNL     1      -2.340  -1.981  16.872  1.00  0.00     0.212 C 
HETATM    4  O1  UNL     1      -1.388  -2.435  16.194  1.00  0.00    -0.288 OA
HETATM    5  C4  UNL     1      -3.004  -2.576  18.042  1.00  0.00     0.248 C 
HETATM    6  O2  UNL     1      -2.999  -3.804  18.323  1.00  0.00    -0.282 OA
HETATM    7  C5  UNL     1      -3.629  -1.469  18.754  1.00  0.00     0.134 C 
HETATM    8  N1  UNL     1      -4.317  -1.550  19.840  1.00  0.00    -0.350 N 
ATOM      9  H1  UNL     1      -4.698  -0.688  20.227  1.00  0.00     0.166 HD
HETATM   10  C12 UNL     1      -3.335  -0.253  18.012  1.00  0.00     0.191 C 
HETATM   11  O3  UNL     1      -3.339   0.947  18.459  1.00  0.00    -0.290 OA
ENDROOT
BRANCH   8  12
HETATM   12  C6  UNL     1      -4.577  -2.745  20.524  1.00  0.00     0.032 A 
HETATM   13  C7  UNL     1      -5.746  -3.450  20.330  1.00  0.00     0.029 A 
HETATM   14  C8  UNL     1      -5.972  -4.630  21.025  1.00  0.00     0.002 A 
HETATM   15  C9  UNL     1      -4.997  -5.088  21.921  1.00  0.00     0.000 A 
HETATM   16  C10 UNL     1      -3.834  -4.383  22.113  1.00  0.00     0.002 A 
HETATM   17  C11 UNL     1      -3.623  -3.224  21.424  1.00  0.00     0.029 A 
ENDBRANCH   8  12
TORSDOF 1
ENDMDL
