MODEL 1
REMARK VINA RESULT: -7.399700382      0.000      0.000
REMARK  4 active torsions:
REMARK  status: ('A' for Active; 'I' for Inactive)
REMARK       I    between atoms: C1_2  and  N1_3 
REMARK    1  A    between atoms: C1_2  and  C9_18 
REMARK    2  A    between atoms: N1_3  and  C2_5 
REMARK    3  A    between atoms: C7_13  and  O2_14 
REMARK    4  A    between atoms: C7_13  and  C8_16 
ROOT
HETATM    1  C2  UNL     1      -0.219   1.761  83.150  1.00  0.00     0.294 C 
HETATM    2  N2  UNL     1       0.560   2.701  82.371  1.00  0.00    -0.047 N 
ATOM      3  H21 UNL     1       1.555   2.678  82.594  1.00  0.00     0.280 HD
ATOM      4  H22 UNL     1       0.392   3.673  82.630  1.00  0.00     0.280 HD
HETATM    5  C3  UNL     1       0.282   2.426  80.979  1.00  0.00     0.223 C 
HETATM    6  C4  UNL     1      -1.047   3.133  80.671  1.00  0.00     0.037 C 
HETATM    7  C5  UNL     1      -1.994   2.326  81.572  1.00  0.00     0.014 C 
HETATM    8  C6  UNL     1      -1.166   1.202  82.159  1.00  0.00     0.073 C 
HETATM    9  C7  UNL     1      -0.221   0.994  80.954  1.00  0.00     0.102 C 
ENDROOT
BRANCH   1  10
HETATM   10  N1  UNL     1      -0.943   2.393  84.250  1.00  0.00    -0.329 N 
HETATM   11  C1  UNL     1      -1.505   1.634  85.304  1.00  0.00     0.248 C 
HETATM   12  O1  UNL     1      -1.375   0.394  85.289  1.00  0.00    -0.268 OA
ATOM     13  H1  UNL     1      -1.045   3.408  84.259  1.00  0.00     0.164 HD
BRANCH  11  14
HETATM   14  C9  UNL     1      -2.240   2.229  86.427  1.00  0.00     0.006 C 
HETATM   15  C10 UNL     1      -2.367   1.610  87.569  1.00  0.00    -0.014 C 
HETATM   16  C11 UNL     1      -3.093   2.172  88.712  1.00  0.00     0.028 C 
HETATM   17  C12 UNL     1      -3.277   3.652  88.582  1.00  0.00     0.004 C 
HETATM   18  C13 UNL     1      -3.852   3.947  87.194  1.00  0.00     0.005 C 
HETATM   19  C14 UNL     1      -2.823   3.565  86.176  1.00  0.00     0.044 C 
ENDBRANCH  11  14
ENDBRANCH   1  10
BRANCH   9  20
HETATM   20  O2  UNL     1      -0.995   0.807  79.797  1.00  0.00    -0.386 OA
ATOM     21  H2  UNL     1      -0.477   0.334  79.157  1.00  0.00     0.210 HD
ENDBRANCH   9  20
BRANCH   9  22
HETATM   22  C8  UNL     1       0.801  -0.044  81.142  1.00  0.00     0.125 C 
HETATM   23 BR1  UNL     1      -0.102  -1.726  81.587  1.00  0.00    -0.093 Br
ENDBRANCH   9  22
TORSDOF 4
ENDMDL
MODEL 2
REMARK VINA RESULT: -6.985724827      2.724      3.230
REMARK  4 active torsions:
REMARK  status: ('A' for Active; 'I' for Inactive)
REMARK       I    between atoms: C1_2  and  N1_3 
REMARK    1  A    between atoms: C1_2  and  C9_18 
REMARK    2  A    between atoms: N1_3  and  C2_5 
REMARK    3  A    between atoms: C7_13  and  O2_14 
REMARK    4  A    between atoms: C7_13  and  C8_16 
ROOT
HETATM    1  C2  UNL     1       0.425   3.776  82.866  1.00  0.00     0.294 C 
HETATM    2  N2  UNL     1       0.429   5.216  82.716  1.00  0.00    -0.047 N 
ATOM      3  H21 UNL     1       1.107   5.680  83.321  1.00  0.00     0.280 HD
ATOM      4  H22 UNL     1      -0.407   5.660  83.093  1.00  0.00     0.280 HD
HETATM    5  C3  UNL     1       0.637   5.493  81.312  1.00  0.00     0.223 C 
HETATM    6  C4  UNL     1      -0.739   5.336  80.647  1.00  0.00     0.037 C 
HETATM    7  C5  UNL     1      -0.971   3.833  80.864  1.00  0.00     0.014 C 
HETATM    8  C6  UNL     1       0.305   3.291  81.472  1.00  0.00     0.073 C 
HETATM    9  C7  UNL     1       1.293   4.241  80.757  1.00  0.00     0.102 C 
ENDROOT
BRANCH   1  10
HETATM   10  N1  UNL     1      -0.688   3.288  83.676  1.00  0.00    -0.329 N 
HETATM   11  C1  UNL     1      -0.734   3.491  85.075  1.00  0.00     0.248 C 
HETATM   12  O1  UNL     1       0.202   4.104  85.626  1.00  0.00    -0.268 OA
ATOM     13  H1  UNL     1      -1.452   2.789  83.220  1.00  0.00     0.164 HD
BRANCH  11  14
HETATM   14  C9  UNL     1      -1.832   3.017  85.926  1.00  0.00     0.006 C 
HETATM   15  C10 UNL     1      -2.853   3.778  86.215  1.00  0.00    -0.014 C 
HETATM   16  C11 UNL     1      -3.969   3.339  87.061  1.00  0.00     0.028 C 
HETATM   17  C12 UNL     1      -4.025   1.848  87.178  1.00  0.00     0.004 C 
HETATM   18  C13 UNL     1      -2.633   1.340  87.564  1.00  0.00     0.005 C 
HETATM   19  C14 UNL     1      -1.703   1.633  86.428  1.00  0.00     0.044 C 
ENDBRANCH  11  14
ENDBRANCH   1  10
BRANCH   9  20
HETATM   20  O2  UNL     1       1.057   4.183  79.374  1.00  0.00    -0.386 OA
ATOM     21  H2  UNL     1       0.866   3.284  79.135  1.00  0.00     0.210 HD
ENDBRANCH   9  20
BRANCH   9  22
HETATM   22  C8  UNL     1       2.704   4.048  81.114  1.00  0.00     0.125 C 
HETATM   23 BR1  UNL     1       3.807   4.591  79.589  1.00  0.00    -0.093 Br
ENDBRANCH   9  22
TORSDOF 4
ENDMDL
MODEL 3
REMARK VINA RESULT: -6.794777280      3.352      3.935
REMARK  4 active torsions:
REMARK  status: ('A' for Active; 'I' for Inactive)
REMARK       I    between atoms: C1_2  and  N1_3 
REMARK    1  A    between atoms: C1_2  and  C9_18 
REMARK    2  A    between atoms: N1_3  and  C2_5 
REMARK    3  A    between atoms: C7_13  and  O2_14 
REMARK    4  A    between atoms: C7_13  and  C8_16 
ROOT
HETATM    1  C2  UNL     1      -0.122   4.418  82.578  1.00  0.00     0.294 C 
HETATM    2  N2  UNL     1       1.274   4.170  82.870  1.00  0.00    -0.047 N 
ATOM      3  H21 UNL     1       1.594   3.255  82.552  1.00  0.00     0.280 HD
ATOM      4  H22 UNL     1       1.458   4.032  83.864  1.00  0.00     0.280 HD
HETATM    5  C3  UNL     1       2.025   5.266  82.300  1.00  0.00     0.223 C 
HETATM    6  C4  UNL     1       1.922   6.415  83.314  1.00  0.00     0.037 C 
HETATM    7  C5  UNL     1       0.416   6.706  83.238  1.00  0.00     0.014 C 
HETATM    8  C6  UNL     1      -0.129   5.828  82.130  1.00  0.00     0.073 C 
HETATM    9  C7  UNL     1       1.122   5.842  81.224  1.00  0.00     0.102 C 
ENDROOT
BRANCH   1  10
HETATM   10  N1  UNL     1      -0.989   4.245  83.741  1.00  0.00    -0.329 N 
HETATM   11  C1  UNL     1      -1.159   2.985  84.360  1.00  0.00     0.248 C 
HETATM   12  O1  UNL     1      -0.549   1.999  83.900  1.00  0.00    -0.268 OA
ATOM     13  H1  UNL     1      -1.484   5.054  84.116  1.00  0.00     0.164 HD
BRANCH  11  14
HETATM   14  C9  UNL     1      -2.021   2.767  85.529  1.00  0.00     0.006 C 
HETATM   15  C10 UNL     1      -2.846   3.686  85.954  1.00  0.00    -0.014 C 
HETATM   16  C11 UNL     1      -3.722   3.505  87.116  1.00  0.00     0.028 C 
HETATM   17  C12 UNL     1      -3.885   2.060  87.471  1.00  0.00     0.004 C 
HETATM   18  C13 UNL     1      -2.495   1.423  87.555  1.00  0.00     0.005 C 
HETATM   19  C14 UNL     1      -1.890   1.450  86.187  1.00  0.00     0.044 C 
ENDBRANCH  11  14
ENDBRANCH   1  10
BRANCH   9  20
HETATM   20  O2  UNL     1       1.497   7.174  80.987  1.00  0.00    -0.386 OA
ATOM     21  H2  UNL     1       2.433   7.258  81.126  1.00  0.00     0.210 HD
ENDBRANCH   9  20
BRANCH   9  22
HETATM   22  C8  UNL     1       1.005   5.045  79.996  1.00  0.00     0.125 C 
HETATM   23 BR1  UNL     1       2.794   4.438  79.479  1.00  0.00    -0.093 Br
ENDBRANCH   9  22
TORSDOF 4
ENDMDL
MODEL 4
REMARK VINA RESULT: -6.790578266      3.197      3.641
REMARK  4 active torsions:
REMARK  status: ('A' for Active; 'I' for Inactive)
REMARK       I    between atoms: C1_2  and  N1_3 
REMARK    1  A    between atoms: C1_2  and  C9_18 
REMARK    2  A    between atoms: N1_3  and  C2_5 
REMARK    3  A    between atoms: C7_13  and  O2_14 
REMARK    4  A    between atoms: C7_13  and  C8_16 
ROOT
HETATM    1  C2  UNL     1      -0.251   4.313  82.568  1.00  0.00     0.294 C 
HETATM    2  N2  UNL     1       1.125   3.900  82.748  1.00  0.00    -0.047 N 
ATOM      3  H21 UNL     1       1.320   2.976  82.363  1.00  0.00     0.280 HD
ATOM      4  H22 UNL     1       1.355   3.687  83.719  1.00  0.00     0.280 HD
HETATM    5  C3  UNL     1       1.955   4.940  82.181  1.00  0.00     0.223 C 
HETATM    6  C4  UNL     1       2.046   6.034  83.256  1.00  0.00     0.037 C 
HETATM    7  C5  UNL     1       0.579   6.488  83.300  1.00  0.00     0.014 C 
HETATM    8  C6  UNL     1      -0.130   5.739  82.192  1.00  0.00     0.073 C 
HETATM    9  C7  UNL     1       1.054   5.669  81.201  1.00  0.00     0.102 C 
ENDROOT
BRANCH   1  10
HETATM   10  N1  UNL     1      -1.055   4.168  83.779  1.00  0.00    -0.329 N 
HETATM   11  C1  UNL     1      -1.166   2.930  84.454  1.00  0.00     0.248 C 
HETATM   12  O1  UNL     1      -0.559   1.939  84.001  1.00  0.00    -0.268 OA
ATOM     13  H1  UNL     1      -1.549   4.981  84.147  1.00  0.00     0.164 HD
BRANCH  11  14
HETATM   14  C9  UNL     1      -1.963   2.742  85.672  1.00  0.00     0.006 C 
HETATM   15  C10 UNL     1      -1.923   1.628  86.354  1.00  0.00    -0.014 C 
HETATM   16  C11 UNL     1      -2.704   1.404  87.575  1.00  0.00     0.028 C 
HETATM   17  C12 UNL     1      -3.184   2.689  88.173  1.00  0.00     0.004 C 
HETATM   18  C13 UNL     1      -3.855   3.514  87.072  1.00  0.00     0.005 C 
HETATM   19  C14 UNL     1      -2.809   3.887  86.069  1.00  0.00     0.044 C 
ENDBRANCH  11  14
ENDBRANCH   1  10
BRANCH   9  20
HETATM   20  O2  UNL     1       1.558   6.965  81.004  1.00  0.00    -0.386 OA
ATOM     21  H2  UNL     1       1.327   7.253  80.129  1.00  0.00     0.210 HD
ENDBRANCH   9  20
BRANCH   9  22
HETATM   22  C8  UNL     1       0.769   4.961  79.947  1.00  0.00     0.125 C 
HETATM   23 BR1  UNL     1       2.441   4.190  79.280  1.00  0.00    -0.093 Br
ENDBRANCH   9  22
TORSDOF 4
ENDMDL
MODEL 5
REMARK VINA RESULT: -6.785086411      2.113      2.490
REMARK  4 active torsions:
REMARK  status: ('A' for Active; 'I' for Inactive)
REMARK       I    between atoms: C1_2  and  N1_3 
REMARK    1  A    between atoms: C1_2  and  C9_18 
REMARK    2  A    between atoms: N1_3  and  C2_5 
REMARK    3  A    between atoms: C7_13  and  O2_14 
REMARK    4  A    between atoms: C7_13  and  C8_16 
ROOT
HETATM    1  C2  UNL     1      -0.487   3.230  82.767  1.00  0.00     0.294 C 
HETATM    2  N2  UNL     1      -1.567   3.215  81.803  1.00  0.00    -0.047 N 
ATOM      3  H21 UNL     1      -1.937   4.144  81.601  1.00  0.00     0.280 HD
ATOM      4  H22 UNL     1      -2.427   2.810  82.170  1.00  0.00     0.280 HD
HETATM    5  C3  UNL     1      -1.073   2.531  80.628  1.00  0.00     0.223 C 
HETATM    6  C4  UNL     1      -1.202   1.031  80.933  1.00  0.00     0.037 C 
HETATM    7  C5  UNL     1      -0.195   0.904  82.085  1.00  0.00     0.014 C 
HETATM    8  C6  UNL     1       0.478   2.255  82.210  1.00  0.00     0.073 C 
HETATM    9  C7  UNL     1       0.439   2.643  80.715  1.00  0.00     0.102 C 
ENDROOT
BRANCH   1  10
HETATM   10  N1  UNL     1      -0.910   2.826  84.105  1.00  0.00    -0.329 N 
HETATM   11  C1  UNL     1      -2.042   3.398  84.732  1.00  0.00     0.248 C 
HETATM   12  O1  UNL     1      -2.693   4.269  84.121  1.00  0.00    -0.268 OA
ATOM     13  H1  UNL     1      -0.376   2.111  84.600  1.00  0.00     0.164 HD
BRANCH  11  14
HETATM   14  C9  UNL     1      -2.500   3.021  86.075  1.00  0.00     0.006 C 
HETATM   15  C10 UNL     1      -2.185   1.873  86.611  1.00  0.00    -0.014 C 
HETATM   16  C11 UNL     1      -2.624   1.463  87.949  1.00  0.00     0.028 C 
HETATM   17  C12 UNL     1      -3.073   2.631  88.770  1.00  0.00     0.004 C 
HETATM   18  C13 UNL     1      -4.069   3.448  87.944  1.00  0.00     0.005 C 
HETATM   19  C14 UNL     1      -3.337   4.022  86.771  1.00  0.00     0.044 C 
ENDBRANCH  11  14
ENDBRANCH   1  10
BRANCH   9  20
HETATM   20  O2  UNL     1       1.012   1.605  79.962  1.00  0.00    -0.386 OA
ATOM     21  H2  UNL     1       1.291   0.917  80.554  1.00  0.00     0.210 HD
ENDBRANCH   9  20
BRANCH   9  22
HETATM   22  C8  UNL     1       1.000   3.964  80.404  1.00  0.00     0.125 C 
HETATM   23 BR1  UNL     1       2.851   4.015  81.044  1.00  0.00    -0.093 Br
ENDBRANCH   9  22
TORSDOF 4
ENDMDL
