MODEL 1
REMARK VINA RESULT: -6.594043766      0.000      0.000
REMARK  5 active torsions:
REMARK  status: ('A' for Active; 'I' for Inactive)
REMARK    1  A    between atoms: C2_2  and  C3_3 
REMARK    2  A    between atoms: C3_3  and  C4_4 
REMARK    3  A    between atoms: C4_4  and  N1_5 
REMARK    4  A    between atoms: N1_5  and  C5_7 
REMARK    5  A    between atoms: C10_17  and  N4_18 
ROOT
HETATM    1  C5  UNL     1      -1.351   3.908  83.416  1.00  0.00     0.067 A 
HETATM    2  C6  UNL     1      -0.654   3.332  82.364  1.00  0.00     0.060 A 
HETATM    3 BR1  UNL     1      -0.212   4.345  80.803  1.00  0.00    -0.046 Br
HETATM    4  C7  UNL     1      -0.284   2.010  82.469  1.00  0.00     0.026 A 
HETATM    5  C8  UNL     1       0.471   1.378  81.337  1.00  0.00     0.070 C 
HETATM    6  N2  UNL     1      -0.578   1.283  83.546  1.00  0.00    -0.344 N 
ATOM      7  H2  UNL     1      -0.286   0.307  83.585  1.00  0.00     0.167 HD
HETATM    8  C9  UNL     1      -1.255   1.813  84.585  1.00  0.00     0.136 A 
HETATM    9  N3  UNL     1      -1.528   1.014  85.664  1.00  0.00    -0.176 N 
ATOM     10  H3  UNL     1      -1.232   0.038  85.691  1.00  0.00     0.186 HD
HETATM   11  C10 UNL     1      -2.198   1.566  86.679  1.00  0.00     0.677 A 
HETATM   12  N5  UNL     1      -2.597   2.841  86.662  1.00  0.00    -0.195 N 
ATOM     13  H5  UNL     1      -3.107   3.201  87.469  1.00  0.00     0.184 HD
HETATM   14  C11 UNL     1      -2.355   3.694  85.610  1.00  0.00     0.039 A 
HETATM   15  C12 UNL     1      -2.814   5.082  85.648  1.00  0.00     0.070 C 
HETATM   16  C13 UNL     1      -1.661   3.130  84.558  1.00  0.00     0.059 A 
ENDROOT
BRANCH   1  17
HETATM   17  N1  UNL     1      -1.744   5.082  83.452  1.00  0.00    -0.368 N 
ATOM     18  H1  UNL     1      -2.721   5.087  83.746  1.00  0.00     0.165 HD
BRANCH  17  19
HETATM   19  C4  UNL     1      -1.345   6.389  83.240  1.00  0.00     0.061 C 
BRANCH  19  20
HETATM   20  C3  UNL     1       0.076   6.706  83.702  1.00  0.00     0.044 C 
BRANCH  20  21
HETATM   21  C2  UNL     1      -0.058   7.547  84.952  1.00  0.00     0.001 C 
HETATM   22  C1  UNL     1       0.965   8.662  84.991  1.00  0.00     0.005 C 
ENDBRANCH  20  21
ENDBRANCH  19  20
ENDBRANCH  17  19
ENDBRANCH   1  17
BRANCH  11  23
HETATM   23  N4  UNL     1      -2.486   0.869  87.722  1.00  0.00    -0.234 N 
ATOM     24  H42 UNL     1      -3.027   0.015  87.582  1.00  0.00     0.174 HD
ATOM     25  H41 UNL     1      -2.176   1.173  88.645  1.00  0.00     0.174 HD
ENDBRANCH  11  23
TORSDOF 5
ENDMDL
MODEL 2
REMARK VINA RESULT: -6.339306781      2.422      4.522
REMARK  5 active torsions:
REMARK  status: ('A' for Active; 'I' for Inactive)
REMARK    1  A    between atoms: C2_2  and  C3_3 
REMARK    2  A    between atoms: C3_3  and  C4_4 
REMARK    3  A    between atoms: C4_4  and  N1_5 
REMARK    4  A    between atoms: N1_5  and  C5_7 
REMARK    5  A    between atoms: C10_17  and  N4_18 
ROOT
HETATM    1  C5  UNL     1      -1.218   3.595  83.471  1.00  0.00     0.067 A 
HETATM    2  C6  UNL     1      -1.203   4.740  82.686  1.00  0.00     0.060 A 
HETATM    3 BR1  UNL     1      -1.535   6.461  83.449  1.00  0.00    -0.046 Br
HETATM    4  C7  UNL     1      -0.942   4.608  81.341  1.00  0.00     0.026 A 
HETATM    5  C8  UNL     1      -0.923   5.840  80.484  1.00  0.00     0.070 C 
HETATM    6  N2  UNL     1      -0.705   3.421  80.785  1.00  0.00    -0.344 N 
ATOM      7  H2  UNL     1      -0.516   3.366  79.785  1.00  0.00     0.167 HD
HETATM    8  C9  UNL     1      -0.713   2.289  81.520  1.00  0.00     0.136 A 
HETATM    9  N3  UNL     1      -0.463   1.099  80.890  1.00  0.00    -0.176 N 
ATOM     10  H3  UNL     1      -0.276   1.056  79.889  1.00  0.00     0.186 HD
HETATM   11  C10 UNL     1      -0.476  -0.005  81.644  1.00  0.00     0.677 A 
HETATM   12  N5  UNL     1      -0.721   0.030  82.956  1.00  0.00    -0.195 N 
ATOM     13  H5  UNL     1      -0.717  -0.850  83.473  1.00  0.00     0.184 HD
HETATM   14  C11 UNL     1      -0.979   1.192  83.647  1.00  0.00     0.039 A 
HETATM   15  C12 UNL     1      -1.239   1.168  85.086  1.00  0.00     0.070 C 
HETATM   16  C13 UNL     1      -0.966   2.335  82.874  1.00  0.00     0.059 A 
ENDROOT
BRANCH   1  17
HETATM   17  N1  UNL     1      -1.440   3.570  84.689  1.00  0.00    -0.368 N 
ATOM     18  H1  UNL     1      -1.110   2.679  85.059  1.00  0.00     0.165 HD
BRANCH  17  19
HETATM   19  C4  UNL     1      -1.971   4.306  85.732  1.00  0.00     0.061 C 
BRANCH  19  20
HETATM   20  C3  UNL     1      -3.423   3.978  86.072  1.00  0.00     0.044 C 
BRANCH  20  21
HETATM   21  C2  UNL     1      -3.395   3.208  87.374  1.00  0.00     0.001 C 
HETATM   22  C1  UNL     1      -4.126   1.888  87.261  1.00  0.00     0.005 C 
ENDBRANCH  20  21
ENDBRANCH  19  20
ENDBRANCH  17  19
ENDBRANCH   1  17
BRANCH  11  23
HETATM   23  N4  UNL     1      -0.249  -1.155  81.112  1.00  0.00    -0.234 N 
ATOM     24  H42 UNL     1      -0.596  -1.312  80.166  1.00  0.00     0.174 HD
ATOM     25  H41 UNL     1       0.261  -1.869  81.632  1.00  0.00     0.174 HD
ENDBRANCH  11  23
TORSDOF 5
ENDMDL
MODEL 3
REMARK VINA RESULT: -6.306071145      1.225      1.854
REMARK  5 active torsions:
REMARK  status: ('A' for Active; 'I' for Inactive)
REMARK    1  A    between atoms: C2_2  and  C3_3 
REMARK    2  A    between atoms: C3_3  and  C4_4 
REMARK    3  A    between atoms: C4_4  and  N1_5 
REMARK    4  A    between atoms: N1_5  and  C5_7 
REMARK    5  A    between atoms: C10_17  and  N4_18 
ROOT
HETATM    1  C5  UNL     1      -1.233   4.269  83.178  1.00  0.00     0.067 A 
HETATM    2  C6  UNL     1      -0.479   3.667  82.180  1.00  0.00     0.060 A 
HETATM    3 BR1  UNL     1       0.076   4.649  80.636  1.00  0.00    -0.046 Br
HETATM    4  C7  UNL     1      -0.137   2.341  82.328  1.00  0.00     0.026 A 
HETATM    5  C8  UNL     1       0.679   1.682  81.255  1.00  0.00     0.070 C 
HETATM    6  N2  UNL     1      -0.509   1.635  83.394  1.00  0.00    -0.344 N 
ATOM      7  H2  UNL     1      -0.234   0.656  83.466  1.00  0.00     0.167 HD
HETATM    8  C9  UNL     1      -1.242   2.191  84.381  1.00  0.00     0.136 A 
HETATM    9  N3  UNL     1      -1.594   1.412  85.452  1.00  0.00    -0.176 N 
ATOM     10  H3  UNL     1      -1.315   0.433  85.512  1.00  0.00     0.186 HD
HETATM   11  C10 UNL     1      -2.319   1.990  86.414  1.00  0.00     0.677 A 
HETATM   12  N5  UNL     1      -2.697   3.270  86.353  1.00  0.00    -0.195 N 
ATOM     13  H5  UNL     1      -3.251   3.648  87.121  1.00  0.00     0.184 HD
HETATM   14  C11 UNL     1      -2.376   4.103  85.306  1.00  0.00     0.039 A 
HETATM   15  C12 UNL     1      -2.816   5.498  85.294  1.00  0.00     0.070 C 
HETATM   16  C13 UNL     1      -1.626   3.513  84.309  1.00  0.00     0.059 A 
ENDROOT
BRANCH   1  17
HETATM   17  N1  UNL     1      -1.610   5.448  83.171  1.00  0.00    -0.368 N 
ATOM     18  H1  UNL     1      -2.623   5.464  83.288  1.00  0.00     0.165 HD
BRANCH  17  19
HETATM   19  C4  UNL     1      -1.162   6.752  83.064  1.00  0.00     0.061 C 
BRANCH  19  20
HETATM   20  C3  UNL     1      -1.802   7.557  81.935  1.00  0.00     0.044 C 
BRANCH  20  21
HETATM   21  C2  UNL     1      -3.281   7.629  82.245  1.00  0.00     0.001 C 
HETATM   22  C1  UNL     1      -3.964   8.733  81.468  1.00  0.00     0.005 C 
ENDBRANCH  20  21
ENDBRANCH  19  20
ENDBRANCH  17  19
ENDBRANCH   1  17
BRANCH  11  23
HETATM   23  N4  UNL     1      -2.683   1.313  87.446  1.00  0.00    -0.234 N 
ATOM     24  H42 UNL     1      -2.173   1.472  88.316  1.00  0.00     0.174 HD
ATOM     25  H41 UNL     1      -3.453   0.647  87.380  1.00  0.00     0.174 HD
ENDBRANCH  11  23
TORSDOF 5
ENDMDL
MODEL 4
REMARK VINA RESULT: -6.259833259      2.254      4.977
REMARK  5 active torsions:
REMARK  status: ('A' for Active; 'I' for Inactive)
REMARK    1  A    between atoms: C2_2  and  C3_3 
REMARK    2  A    between atoms: C3_3  and  C4_4 
REMARK    3  A    between atoms: C4_4  and  N1_5 
REMARK    4  A    between atoms: N1_5  and  C5_7 
REMARK    5  A    between atoms: C10_17  and  N4_18 
ROOT
HETATM    1  C5  UNL     1      -1.218   3.684  84.225  1.00  0.00     0.067 A 
HETATM    2  C6  UNL     1      -1.294   5.034  83.910  1.00  0.00     0.060 A 
HETATM    3 BR1  UNL     1      -1.499   6.354  85.278  1.00  0.00    -0.046 Br
HETATM    4  C7  UNL     1      -1.217   5.402  82.586  1.00  0.00     0.026 A 
HETATM    5  C8  UNL     1      -1.298   6.859  82.236  1.00  0.00     0.070 C 
HETATM    6  N2  UNL     1      -1.072   4.503  81.614  1.00  0.00    -0.344 N 
ATOM      7  H2  UNL     1      -1.019   4.817  80.646  1.00  0.00     0.167 HD
HETATM    8  C9  UNL     1      -0.995   3.184  81.887  1.00  0.00     0.136 A 
HETATM    9  N3  UNL     1      -0.847   2.308  80.844  1.00  0.00    -0.176 N 
ATOM     10  H3  UNL     1      -0.796   2.635  79.879  1.00  0.00     0.186 HD
HETATM   11  C10 UNL     1      -0.772   1.009  81.144  1.00  0.00     0.677 A 
HETATM   12  N5  UNL     1      -0.839   0.561  82.401  1.00  0.00    -0.195 N 
ATOM     13  H5  UNL     1      -0.777  -0.445  82.561  1.00  0.00     0.184 HD
HETATM   14  C11 UNL     1      -0.987   1.388  83.491  1.00  0.00     0.039 A 
HETATM   15  C12 UNL     1      -1.052   0.840  84.845  1.00  0.00     0.070 C 
HETATM   16  C13 UNL     1      -1.064   2.732  83.187  1.00  0.00     0.059 A 
ENDROOT
BRANCH   1  17
HETATM   17  N1  UNL     1      -1.275   3.215  85.370  1.00  0.00    -0.368 N 
ATOM     18  H1  UNL     1      -0.523   2.534  85.478  1.00  0.00     0.165 HD
BRANCH  17  19
HETATM   19  C4  UNL     1      -1.983   3.277  86.556  1.00  0.00     0.061 C 
BRANCH  19  20
HETATM   20  C3  UNL     1      -3.502   3.280  86.394  1.00  0.00     0.044 C 
BRANCH  20  21
HETATM   21  C2  UNL     1      -4.015   2.069  87.141  1.00  0.00     0.001 C 
HETATM   22  C1  UNL     1      -2.899   1.334  87.853  1.00  0.00     0.005 C 
ENDBRANCH  20  21
ENDBRANCH  19  20
ENDBRANCH  17  19
ENDBRANCH   1  17
BRANCH  11  23
HETATM   23  N4  UNL     1      -0.633   0.135  80.210  1.00  0.00    -0.234 N 
ATOM     24  H42 UNL     1       0.114  -0.553  80.316  1.00  0.00     0.174 HD
ATOM     25  H41 UNL     1      -1.255   0.143  79.401  1.00  0.00     0.174 HD
ENDBRANCH  11  23
TORSDOF 5
ENDMDL
MODEL 5
REMARK VINA RESULT: -6.238762496      1.515      4.559
REMARK  5 active torsions:
REMARK  status: ('A' for Active; 'I' for Inactive)
REMARK    1  A    between atoms: C2_2  and  C3_3 
REMARK    2  A    between atoms: C3_3  and  C4_4 
REMARK    3  A    between atoms: C4_4  and  N1_5 
REMARK    4  A    between atoms: N1_5  and  C5_7 
REMARK    5  A    between atoms: C10_17  and  N4_18 
ROOT
HETATM    1  C5  UNL     1      -0.938   3.248  83.587  1.00  0.00     0.067 A 
HETATM    2  C6  UNL     1      -0.951   4.487  82.961  1.00  0.00     0.060 A 
HETATM    3 BR1  UNL     1       0.013   4.778  81.335  1.00  0.00    -0.046 Br
HETATM    4  C7  UNL     1      -1.677   5.504  83.537  1.00  0.00     0.026 A 
HETATM    5  C8  UNL     1      -1.697   6.847  82.867  1.00  0.00     0.070 C 
HETATM    6  N2  UNL     1      -2.358   5.328  84.668  1.00  0.00    -0.344 N 
ATOM      7  H2  UNL     1      -2.883   6.107  85.062  1.00  0.00     0.167 HD
HETATM    8  C9  UNL     1      -2.365   4.136  85.301  1.00  0.00     0.136 A 
HETATM    9  N3  UNL     1      -3.085   4.017  86.461  1.00  0.00    -0.176 N 
ATOM     10  H3  UNL     1      -3.605   4.805  86.847  1.00  0.00     0.186 HD
HETATM   11  C10 UNL     1      -3.075   2.826  87.066  1.00  0.00     0.677 A 
HETATM   12  N5  UNL     1      -2.398   1.783  86.578  1.00  0.00    -0.195 N 
ATOM     13  H5  UNL     1      -2.431   0.901  87.090  1.00  0.00     0.184 HD
HETATM   14  C11 UNL     1      -1.657   1.838  85.420  1.00  0.00     0.039 A 
HETATM   15  C12 UNL     1      -0.937   0.662  84.933  1.00  0.00     0.070 C 
HETATM   16  C13 UNL     1      -1.664   3.066  84.790  1.00  0.00     0.059 A 
ENDROOT
BRANCH   1  17
HETATM   17  N1  UNL     1      -0.328   2.251  83.180  1.00  0.00    -0.368 N 
ATOM     18  H1  UNL     1       0.041   1.746  83.986  1.00  0.00     0.165 HD
BRANCH  17  19
HETATM   19  C4  UNL     1       0.037   1.569  82.034  1.00  0.00     0.061 C 
BRANCH  19  20
HETATM   20  C3  UNL     1      -1.124   0.936  81.269  1.00  0.00     0.044 C 
BRANCH  20  21
HETATM   21  C2  UNL     1      -1.136  -0.529  81.644  1.00  0.00     0.001 C 
HETATM   22  C1  UNL     1       0.239  -1.151  81.519  1.00  0.00     0.005 C 
ENDBRANCH  20  21
ENDBRANCH  19  20
ENDBRANCH  17  19
ENDBRANCH   1  17
BRANCH  11  23
HETATM   23  N4  UNL     1      -3.731   2.649  88.159  1.00  0.00    -0.234 N 
ATOM     24  H42 UNL     1      -4.517   1.998  88.136  1.00  0.00     0.174 HD
ATOM     25  H41 UNL     1      -3.460   3.147  89.007  1.00  0.00     0.174 HD
ENDBRANCH  11  23
TORSDOF 5
ENDMDL
