MODEL 1
REMARK VINA RESULT: -8.209120866      0.000      0.000
REMARK  8 active torsions:
REMARK  status: ('A' for Active; 'I' for Inactive)
REMARK    1  A    between atoms: N1_1  and  C1_5 
REMARK    2  A    between atoms: C1_5  and  C2_6 
REMARK    3  A    between atoms: C6_10  and  C7_11 
REMARK    4  A    between atoms: C7_11  and  C8_12 
REMARK    5  A    between atoms: C8_12  and  O1_13 
REMARK    6  A    between atoms: N2_15  and  O2_17 
REMARK    7  A    between atoms: C9_19  and  S1_20 
REMARK    8  A    between atoms: S1_20  and  C10_21 
ROOT
HETATM    1  C2  UNL     1     -21.924  10.485  10.895  1.00  0.00    -0.015 A 
HETATM    2  C3  UNL     1     -20.870  11.241  11.347  1.00  0.00     0.010 A 
HETATM    3  C4  UNL     1     -19.607  10.693  11.439  1.00  0.00     0.002 A 
HETATM    4  C5  UNL     1     -19.452   9.376  11.060  1.00  0.00     0.015 A 
HETATM    5  C6  UNL     1     -20.482   8.593  10.601  1.00  0.00     0.008 A 
HETATM    6  C9  UNL     1     -21.765   9.163  10.517  1.00  0.00     0.026 A 
ENDROOT
BRANCH   6   7
HETATM    7  S1  UNL     1     -23.035   8.157   9.829  1.00  0.00    -0.088 SA
BRANCH   7   8
HETATM    8  C10 UNL     1     -23.821   6.979  10.878  1.00  0.00     0.024 A 
HETATM    9  C11 UNL     1     -23.821   7.222  12.276  1.00  0.00     0.020 A 
HETATM   10  C12 UNL     1     -24.398   6.346  13.115  1.00  0.00     0.003 A 
HETATM   11  C13 UNL     1     -25.012   5.181  12.680  1.00  0.00     0.025 A 
HETATM   12  C14 UNL     1     -25.002   4.965  11.326  1.00  0.00     0.052 A 
HETATM   13 CL1  UNL     1     -25.763   3.509  10.687  1.00  0.00    -0.083 Cl
HETATM   14  C15 UNL     1     -24.411   5.851  10.406  1.00  0.00     0.049 A 
HETATM   15 BR1  UNL     1     -24.469   5.371   8.543  1.00  0.00    -0.048 Br
ENDBRANCH   7   8
ENDBRANCH   6   7
BRANCH   1  16
HETATM   16  C1  UNL     1     -23.249  11.099  10.885  1.00  0.00     0.269 C 
BRANCH  16  17
HETATM   17  N1  UNL     1     -23.842  10.958  12.209  1.00  0.00    -0.075 N 
ATOM     18  H13 UNL     1     -23.168  10.643  12.906  1.00  0.00     0.274 HD
ATOM     19  H12 UNL     1     -24.073  11.858  12.630  1.00  0.00     0.274 HD
ATOM     20  H11 UNL     1     -24.651  10.340  12.142  1.00  0.00     0.274 HD
ENDBRANCH  16  17
ENDBRANCH   1  16
BRANCH   5  21
HETATM   21  C7  UNL     1     -20.190   7.256  10.069  1.00  0.00     0.067 C 
HETATM   22  N2  UNL     1     -20.293   6.186  10.746  1.00  0.00    -0.270 N 
ATOM     23  H2  UNL     1     -20.599   6.303  11.712  1.00  0.00     0.194 HD
BRANCH  21  24
HETATM   24  C8  UNL     1     -19.746   7.155   8.660  1.00  0.00     0.224 C 
BRANCH  24  25
HETATM   25  O1  UNL     1     -20.443   6.183   7.952  1.00  0.00    -0.395 OA
ATOM     26  H1  UNL     1     -20.222   6.179   7.028  1.00  0.00     0.209 HD
ENDBRANCH  24  25
ENDBRANCH  21  24
BRANCH  22  27
HETATM   27  O2  UNL     1     -20.051   4.921  10.362  1.00  0.00    -0.290 OA
ATOM     28  H2  UNL     1     -20.213   4.115  10.837  1.00  0.00     0.244 HD
ENDBRANCH  22  27
ENDBRANCH   5  21
TORSDOF 8
ENDMDL
MODEL 2
REMARK VINA RESULT: -7.975111251      0.786      1.225
REMARK  8 active torsions:
REMARK  status: ('A' for Active; 'I' for Inactive)
REMARK    1  A    between atoms: N1_1  and  C1_5 
REMARK    2  A    between atoms: C1_5  and  C2_6 
REMARK    3  A    between atoms: C6_10  and  C7_11 
REMARK    4  A    between atoms: C7_11  and  C8_12 
REMARK    5  A    between atoms: C8_12  and  O1_13 
REMARK    6  A    between atoms: N2_15  and  O2_17 
REMARK    7  A    between atoms: C9_19  and  S1_20 
REMARK    8  A    between atoms: S1_20  and  C10_21 
ROOT
HETATM    1  C2  UNL     1     -21.817  10.413  11.131  1.00  0.00    -0.015 A 
HETATM    2  C3  UNL     1     -20.587  10.953  11.416  1.00  0.00     0.010 A 
HETATM    3  C4  UNL     1     -19.441  10.202  11.254  1.00  0.00     0.002 A 
HETATM    4  C5  UNL     1     -19.582   8.908  10.799  1.00  0.00     0.015 A 
HETATM    5  C6  UNL     1     -20.795   8.338  10.501  1.00  0.00     0.008 A 
HETATM    6  C9  UNL     1     -21.955   9.113  10.675  1.00  0.00     0.026 A 
ENDROOT
BRANCH   6   7
HETATM    7  S1  UNL     1     -23.480   8.378  10.188  1.00  0.00    -0.088 SA
BRANCH   7   8
HETATM    8  C10 UNL     1     -24.111   7.053  11.161  1.00  0.00     0.024 A 
HETATM    9  C11 UNL     1     -24.115   7.201  12.573  1.00  0.00     0.020 A 
HETATM   10  C12 UNL     1     -24.576   6.212  13.355  1.00  0.00     0.003 A 
HETATM   11  C13 UNL     1     -25.065   5.017  12.849  1.00  0.00     0.025 A 
HETATM   12  C14 UNL     1     -25.053   4.894  11.483  1.00  0.00     0.052 A 
HETATM   13 CL1  UNL     1     -25.658   3.408  10.754  1.00  0.00    -0.083 Cl
HETATM   14  C15 UNL     1     -24.580   5.900  10.619  1.00  0.00     0.049 A 
HETATM   15 BR1  UNL     1     -24.616   5.541   8.729  1.00  0.00    -0.048 Br
ENDBRANCH   7   8
ENDBRANCH   6   7
BRANCH   1  16
HETATM   16  C1  UNL     1     -22.998  11.233  11.387  1.00  0.00     0.269 C 
BRANCH  16  17
HETATM   17  N1  UNL     1     -22.911  11.773  12.738  1.00  0.00    -0.075 N 
ATOM     18  H13 UNL     1     -23.607  12.497  12.914  1.00  0.00     0.274 HD
ATOM     19  H12 UNL     1     -23.219  11.105  13.445  1.00  0.00     0.274 HD
ATOM     20  H11 UNL     1     -21.959  12.100  12.900  1.00  0.00     0.274 HD
ENDBRANCH  16  17
ENDBRANCH   1  16
BRANCH   5  21
HETATM   21  C7  UNL     1     -20.835   7.013   9.869  1.00  0.00     0.067 C 
HETATM   22  N2  UNL     1     -20.824   6.827   8.613  1.00  0.00    -0.270 N 
ATOM     23  H2  UNL     1     -20.785   7.671   8.042  1.00  0.00     0.194 HD
BRANCH  21  24
HETATM   24  C8  UNL     1     -20.894   5.828  10.754  1.00  0.00     0.224 C 
BRANCH  24  25
HETATM   25  O1  UNL     1     -19.880   4.915  10.488  1.00  0.00    -0.395 OA
ATOM     26  H1  UNL     1     -19.443   4.618  11.278  1.00  0.00     0.209 HD
ENDBRANCH  24  25
ENDBRANCH  21  24
BRANCH  22  27
HETATM   27  O2  UNL     1     -20.859   5.666   7.934  1.00  0.00    -0.290 OA
ATOM     28  H2  UNL     1     -20.873   5.528   6.995  1.00  0.00     0.244 HD
ENDBRANCH  22  27
ENDBRANCH   5  21
TORSDOF 8
ENDMDL
MODEL 3
REMARK VINA RESULT: -7.760437871      1.700      2.137
REMARK  8 active torsions:
REMARK  status: ('A' for Active; 'I' for Inactive)
REMARK    1  A    between atoms: N1_1  and  C1_5 
REMARK    2  A    between atoms: C1_5  and  C2_6 
REMARK    3  A    between atoms: C6_10  and  C7_11 
REMARK    4  A    between atoms: C7_11  and  C8_12 
REMARK    5  A    between atoms: C8_12  and  O1_13 
REMARK    6  A    between atoms: N2_15  and  O2_17 
REMARK    7  A    between atoms: C9_19  and  S1_20 
REMARK    8  A    between atoms: S1_20  and  C10_21 
ROOT
HETATM    1  C2  UNL     1     -23.568   9.649  10.611  1.00  0.00    -0.015 A 
HETATM    2  C3  UNL     1     -22.664  10.677  10.502  1.00  0.00     0.010 A 
HETATM    3  C4  UNL     1     -21.403  10.447   9.991  1.00  0.00     0.002 A 
HETATM    4  C5  UNL     1     -21.097   9.161   9.599  1.00  0.00     0.015 A 
HETATM    5  C6  UNL     1     -21.976   8.111   9.691  1.00  0.00     0.008 A 
HETATM    6  C9  UNL     1     -23.256   8.359  10.218  1.00  0.00     0.026 A 
ENDROOT
BRANCH   6   7
HETATM    7  S1  UNL     1     -24.386   7.008  10.225  1.00  0.00    -0.088 SA
BRANCH   7   8
HETATM    8  C10 UNL     1     -24.667   6.169  11.748  1.00  0.00     0.024 A 
HETATM    9  C11 UNL     1     -24.309   6.829  12.953  1.00  0.00     0.020 A 
HETATM   10  C12 UNL     1     -24.494   6.223  14.137  1.00  0.00     0.003 A 
HETATM   11  C13 UNL     1     -25.032   4.949  14.255  1.00  0.00     0.025 A 
HETATM   12  C14 UNL     1     -25.371   4.329  13.080  1.00  0.00     0.052 A 
HETATM   13 CL1  UNL     1     -26.062   2.709  13.138  1.00  0.00    -0.083 Cl
HETATM   14  C15 UNL     1     -25.197   4.921  11.814  1.00  0.00     0.049 A 
HETATM   15 BR1  UNL     1     -25.706   3.889  10.271  1.00  0.00    -0.048 Br
ENDBRANCH   7   8
ENDBRANCH   6   7
BRANCH   1  16
HETATM   16  C1  UNL     1     -24.862   9.940  11.222  1.00  0.00     0.269 C 
BRANCH  16  17
HETATM   17  N1  UNL     1     -24.645  10.387  12.592  1.00  0.00    -0.075 N 
ATOM     18  H13 UNL     1     -23.907   9.861  13.061  1.00  0.00     0.274 HD
ATOM     19  H12 UNL     1     -24.212  11.309  12.637  1.00  0.00     0.274 HD
ATOM     20  H11 UNL     1     -25.531  10.347  13.096  1.00  0.00     0.274 HD
ENDBRANCH  16  17
ENDBRANCH   1  16
BRANCH   5  21
HETATM   21  C7  UNL     1     -21.618   6.815   9.100  1.00  0.00     0.067 C 
HETATM   22  N2  UNL     1     -22.047   6.406   7.976  1.00  0.00    -0.270 N 
ATOM     23  H2  UNL     1     -22.674   7.044   7.485  1.00  0.00     0.194 HD
BRANCH  21  24
HETATM   24  C8  UNL     1     -20.707   5.935   9.865  1.00  0.00     0.224 C 
BRANCH  24  25
HETATM   25  O1  UNL     1     -21.319   5.382  10.984  1.00  0.00    -0.395 OA
ATOM     26  H1  UNL     1     -20.875   4.600  11.292  1.00  0.00     0.209 HD
ENDBRANCH  24  25
ENDBRANCH  21  24
BRANCH  22  27
HETATM   27  O2  UNL     1     -21.786   5.247   7.347  1.00  0.00    -0.290 OA
ATOM     28  H2  UNL     1     -21.256   5.098   6.574  1.00  0.00     0.244 HD
ENDBRANCH  22  27
ENDBRANCH   5  21
TORSDOF 8
ENDMDL
MODEL 4
REMARK VINA RESULT: -7.672251010      1.808      2.460
REMARK  8 active torsions:
REMARK  status: ('A' for Active; 'I' for Inactive)
REMARK    1  A    between atoms: N1_1  and  C1_5 
REMARK    2  A    between atoms: C1_5  and  C2_6 
REMARK    3  A    between atoms: C6_10  and  C7_11 
REMARK    4  A    between atoms: C7_11  and  C8_12 
REMARK    5  A    between atoms: C8_12  and  O1_13 
REMARK    6  A    between atoms: N2_15  and  O2_17 
REMARK    7  A    between atoms: C9_19  and  S1_20 
REMARK    8  A    between atoms: S1_20  and  C10_21 
ROOT
HETATM    1  C2  UNL     1     -22.964   9.877  11.097  1.00  0.00    -0.015 A 
HETATM    2  C3  UNL     1     -22.036  10.885  11.017  1.00  0.00     0.010 A 
HETATM    3  C4  UNL     1     -20.690  10.590  10.945  1.00  0.00     0.002 A 
HETATM    4  C5  UNL     1     -20.325   9.260  10.954  1.00  0.00     0.015 A 
HETATM    5  C6  UNL     1     -21.227   8.227  11.029  1.00  0.00     0.008 A 
HETATM    6  C9  UNL     1     -22.595   8.543  11.106  1.00  0.00     0.026 A 
ENDROOT
BRANCH   6   7
HETATM    7  S1  UNL     1     -23.722   7.190  11.100  1.00  0.00    -0.088 SA
BRANCH   7   8
HETATM    8  C10 UNL     1     -24.037   6.379   9.569  1.00  0.00     0.024 A 
HETATM    9  C11 UNL     1     -23.537   6.972   8.380  1.00  0.00     0.020 A 
HETATM   10  C12 UNL     1     -23.763   6.395   7.189  1.00  0.00     0.003 A 
HETATM   11  C13 UNL     1     -24.480   5.216   7.048  1.00  0.00     0.025 A 
HETATM   12  C14 UNL     1     -24.954   4.659   8.207  1.00  0.00     0.052 A 
HETATM   13 CL1  UNL     1     -25.874   3.158   8.119  1.00  0.00    -0.083 Cl
HETATM   14  C15 UNL     1     -24.745   5.223   9.480  1.00  0.00     0.049 A 
HETATM   15 BR1  UNL     1     -25.509   4.315  10.994  1.00  0.00    -0.048 Br
ENDBRANCH   7   8
ENDBRANCH   6   7
BRANCH   1  16
HETATM   16  C1  UNL     1     -24.369  10.253  11.240  1.00  0.00     0.269 C 
BRANCH  16  17
HETATM   17  N1  UNL     1     -24.670  10.413  12.657  1.00  0.00    -0.075 N 
ATOM     18  H13 UNL     1     -25.192  11.267  12.850  1.00  0.00     0.274 HD
ATOM     19  H12 UNL     1     -25.367   9.744  12.984  1.00  0.00     0.274 HD
ATOM     20  H11 UNL     1     -23.800  10.359  13.186  1.00  0.00     0.274 HD
ENDBRANCH  16  17
ENDBRANCH   1  16
BRANCH   5  21
HETATM   21  C7  UNL     1     -20.758   6.845  10.867  1.00  0.00     0.067 C 
HETATM   22  N2  UNL     1     -20.849   5.956  11.771  1.00  0.00    -0.270 N 
ATOM     23  H2  UNL     1     -21.280   6.257  12.644  1.00  0.00     0.194 HD
BRANCH  21  24
HETATM   24  C8  UNL     1     -20.138   6.473   9.576  1.00  0.00     0.224 C 
BRANCH  24  25
HETATM   25  O1  UNL     1     -20.657   5.292   9.059  1.00  0.00    -0.395 OA
ATOM     26  H1  UNL     1     -19.992   4.623   8.942  1.00  0.00     0.209 HD
ENDBRANCH  24  25
ENDBRANCH  21  24
BRANCH  22  27
HETATM   27  O2  UNL     1     -20.453   4.672  11.729  1.00  0.00    -0.290 OA
ATOM     28  H2  UNL     1     -20.333   4.064  12.449  1.00  0.00     0.244 HD
ENDBRANCH  22  27
ENDBRANCH   5  21
TORSDOF 8
ENDMDL
MODEL 5
REMARK VINA RESULT: -7.625717097      3.413      5.642
REMARK  8 active torsions:
REMARK  status: ('A' for Active; 'I' for Inactive)
REMARK    1  A    between atoms: N1_1  and  C1_5 
REMARK    2  A    between atoms: C1_5  and  C2_6 
REMARK    3  A    between atoms: C6_10  and  C7_11 
REMARK    4  A    between atoms: C7_11  and  C8_12 
REMARK    5  A    between atoms: C8_12  and  O1_13 
REMARK    6  A    between atoms: N2_15  and  O2_17 
REMARK    7  A    between atoms: C9_19  and  S1_20 
REMARK    8  A    between atoms: S1_20  and  C10_21 
ROOT
HETATM    1  C2  UNL     1     -23.909   6.030  12.175  1.00  0.00    -0.015 A 
HETATM    2  C3  UNL     1     -24.925   5.112  12.270  1.00  0.00     0.010 A 
HETATM    3  C4  UNL     1     -25.449   4.532  11.133  1.00  0.00     0.002 A 
HETATM    4  C5  UNL     1     -24.915   4.907   9.918  1.00  0.00     0.015 A 
HETATM    5  C6  UNL     1     -23.896   5.819   9.788  1.00  0.00     0.008 A 
HETATM    6  C9  UNL     1     -23.375   6.406  10.954  1.00  0.00     0.026 A 
ENDROOT
BRANCH   6   7
HETATM    7  S1  UNL     1     -22.005   7.493  10.750  1.00  0.00    -0.088 SA
BRANCH   7   8
HETATM    8  C10 UNL     1     -22.220   9.188  11.176  1.00  0.00     0.024 A 
HETATM    9  C11 UNL     1     -23.542   9.676  11.342  1.00  0.00     0.020 A 
HETATM   10  C12 UNL     1     -23.754  10.964  11.655  1.00  0.00     0.003 A 
HETATM   11  C13 UNL     1     -22.724  11.875  11.832  1.00  0.00     0.025 A 
HETATM   12  C14 UNL     1     -21.454  11.385  11.667  1.00  0.00     0.052 A 
HETATM   13 CL1  UNL     1     -20.084  12.474  11.875  1.00  0.00    -0.083 Cl
HETATM   14  C15 UNL     1     -21.178  10.044  11.339  1.00  0.00     0.049 A 
HETATM   15 BR1  UNL     1     -19.333   9.541  11.122  1.00  0.00    -0.048 Br
ENDBRANCH   7   8
ENDBRANCH   6   7
BRANCH   1  16
HETATM   16  C1  UNL     1     -23.442   6.661  13.407  1.00  0.00     0.269 C 
BRANCH  16  17
HETATM   17  N1  UNL     1     -24.501   6.583  14.405  1.00  0.00    -0.075 N 
ATOM     18  H13 UNL     1     -25.312   6.061  14.073  1.00  0.00     0.274 HD
ATOM     19  H12 UNL     1     -24.254   5.980  15.189  1.00  0.00     0.274 HD
ATOM     20  H11 UNL     1     -24.742   7.529  14.703  1.00  0.00     0.274 HD
ENDBRANCH  16  17
ENDBRANCH   1  16
BRANCH   5  21
HETATM   21  C7  UNL     1     -23.283   6.033   8.470  1.00  0.00     0.067 C 
HETATM   22  N2  UNL     1     -22.065   5.784   8.207  1.00  0.00    -0.270 N 
ATOM     23  H2  UNL     1     -21.513   5.415   8.981  1.00  0.00     0.194 HD
BRANCH  21  24
HETATM   24  C8  UNL     1     -24.139   6.574   7.390  1.00  0.00     0.224 C 
BRANCH  24  25
HETATM   25  O1  UNL     1     -24.441   5.621   6.425  1.00  0.00    -0.395 OA
ATOM     26  H1  UNL     1     -23.725   5.014   6.277  1.00  0.00     0.209 HD
ENDBRANCH  24  25
ENDBRANCH  21  24
BRANCH  22  27
HETATM   27  O2  UNL     1     -21.407   5.943   7.046  1.00  0.00    -0.290 OA
ATOM     28  H2  UNL     1     -20.506   5.724   6.839  1.00  0.00     0.244 HD
ENDBRANCH  22  27
ENDBRANCH   5  21
TORSDOF 8
ENDMDL
