MODEL 1
REMARK VINA RESULT: -8.285204763      0.000      0.000
REMARK  10 active torsions:
REMARK  status: ('A' for Active; 'I' for Inactive)
REMARK    1  A    between atoms: C2_2  and  C3_3 
REMARK    2  A    between atoms: C3_3  and  C4_4 
REMARK    3  A    between atoms: C4_4  and  C5_5 
REMARK    4  A    between atoms: C5_5  and  C6_6 
REMARK    5  A    between atoms: C6_6  and  O2_8 
REMARK    6  A    between atoms: O2_8  and  C7_9 
REMARK    7  A    between atoms: N1_14  and  C11_15 
REMARK    8  A    between atoms: C11_15  and  C12_16 
REMARK    9  A    between atoms: C12_16  and  C13_17 
REMARK   10  A    between atoms: C13_17  and  C14_18 
ROOT
HETATM    1  C5  UNL     1      42.817  40.487 -55.008  1.00  0.00     0.089 C 
HETATM    2  C9  UNL     1      42.463  41.854 -54.542  1.00  0.00     0.126 C 
HETATM    3  C10 UNL     1      42.287  41.574 -53.069  1.00  0.00     0.222 C 
HETATM    4  O3  UNL     1      42.646  42.418 -52.205  1.00  0.00    -0.273 OA
HETATM    5  N1  UNL     1      41.699  40.304 -52.922  1.00  0.00    -0.333 N 
HETATM    6  C19 UNL     1      41.900  39.592 -54.164  1.00  0.00     0.126 C 
HETATM    7  C20 UNL     1      40.544  39.606 -54.811  1.00  0.00     0.180 C 
HETATM    8  S1  UNL     1      39.973  38.129 -55.528  1.00  0.00     0.147 S 
HETATM    9  O4  UNL     1      40.350  37.879 -56.932  1.00  0.00    -0.228 OA
HETATM   10  O5  UNL     1      38.450  38.066 -55.476  1.00  0.00    -0.228 OA
HETATM   11  C21 UNL     1      40.610  36.762 -54.557  1.00  0.00     0.148 C 
HETATM   12  C22 UNL     1      42.126  36.998 -54.644  1.00  0.00     0.096 C 
HETATM   13  C23 UNL     1      42.504  38.269 -54.020  1.00  0.00     0.158 C 
HETATM   14  O6  UNL     1      43.479  38.187 -53.265  1.00  0.00    -0.295 OA
ENDROOT
BRANCH   1  15
HETATM   15  C4  UNL     1      44.272  40.227 -54.682  1.00  0.00     0.023 C 
BRANCH  15  16
HETATM   16  C3  UNL     1      45.057  41.493 -54.916  1.00  0.00     0.001 C 
BRANCH  16  17
HETATM   17  C2  UNL     1      46.120  41.264 -55.995  1.00  0.00    -0.005 C 
HETATM   18  C1  UNL     1      46.758  42.539 -56.429  1.00  0.00     0.005 C 
ENDBRANCH  16  17
ENDBRANCH  15  16
ENDBRANCH   1  15
BRANCH   1  19
HETATM   19  C6  UNL     1      42.700  40.254 -56.461  1.00  0.00     0.271 C 
HETATM   20  O1  UNL     1      43.280  39.289 -57.024  1.00  0.00    -0.264 OA
BRANCH  19  21
HETATM   21  O2  UNL     1      41.950  41.085 -57.258  1.00  0.00    -0.321 OA
BRANCH  21  22
HETATM   22  C7  UNL     1      42.498  41.572 -58.465  1.00  0.00     0.174 C 
HETATM   23  C8  UNL     1      43.364  42.771 -58.107  1.00  0.00     0.034 C 
ENDBRANCH  21  22
ENDBRANCH  19  21
ENDBRANCH   1  19
BRANCH   5  24
HETATM   24  C11 UNL     1      41.017  39.958 -51.703  1.00  0.00     0.127 C 
BRANCH  24  25
HETATM   25  C12 UNL     1      41.090  38.588 -51.196  1.00  0.00     0.020 C 
BRANCH  25  26
HETATM   26  C13 UNL     1      39.718  37.942 -51.276  1.00  0.00     0.006 C 
BRANCH  26  27
HETATM   27  C14 UNL     1      38.591  38.879 -51.008  1.00  0.00    -0.014 C 
HETATM   28  C15 UNL     1      37.360  38.641 -51.850  1.00  0.00     0.004 C 
HETATM   29  C16 UNL     1      36.246  38.218 -50.919  1.00  0.00     0.000 C 
HETATM   30  C17 UNL     1      36.603  38.883 -49.634  1.00  0.00     0.000 C 
HETATM   31  C18 UNL     1      38.102  38.715 -49.578  1.00  0.00     0.004 C 
ENDBRANCH  26  27
ENDBRANCH  25  26
ENDBRANCH  24  25
ENDBRANCH   5  24
TORSDOF 10
ENDMDL
MODEL 2
REMARK VINA RESULT: -8.231563387      0.675      1.015
REMARK  10 active torsions:
REMARK  status: ('A' for Active; 'I' for Inactive)
REMARK    1  A    between atoms: C2_2  and  C3_3 
REMARK    2  A    between atoms: C3_3  and  C4_4 
REMARK    3  A    between atoms: C4_4  and  C5_5 
REMARK    4  A    between atoms: C5_5  and  C6_6 
REMARK    5  A    between atoms: C6_6  and  O2_8 
REMARK    6  A    between atoms: O2_8  and  C7_9 
REMARK    7  A    between atoms: N1_14  and  C11_15 
REMARK    8  A    between atoms: C11_15  and  C12_16 
REMARK    9  A    between atoms: C12_16  and  C13_17 
REMARK   10  A    between atoms: C13_17  and  C14_18 
ROOT
HETATM    1  C5  UNL     1      43.228  40.508 -55.261  1.00  0.00     0.089 C 
HETATM    2  C9  UNL     1      42.982  41.918 -54.860  1.00  0.00     0.126 C 
HETATM    3  C10 UNL     1      42.734  41.717 -53.385  1.00  0.00     0.222 C 
HETATM    4  O3  UNL     1      43.138  42.561 -52.542  1.00  0.00    -0.273 OA
HETATM    5  N1  UNL     1      42.031  40.510 -53.211  1.00  0.00    -0.333 N 
HETATM    6  C19 UNL     1      42.208  39.732 -54.416  1.00  0.00     0.126 C 
HETATM    7  C20 UNL     1      40.880  39.838 -55.112  1.00  0.00     0.180 C 
HETATM    8  S1  UNL     1      40.203  38.388 -55.791  1.00  0.00     0.147 S 
HETATM    9  O4  UNL     1      40.602  38.049 -57.170  1.00  0.00    -0.228 OA
HETATM   10  O5  UNL     1      38.680  38.461 -55.792  1.00  0.00    -0.228 OA
HETATM   11  C21 UNL     1      40.685  37.013 -54.747  1.00  0.00     0.148 C 
HETATM   12  C22 UNL     1      42.218  37.111 -54.788  1.00  0.00     0.096 C 
HETATM   13  C23 UNL     1      42.687  38.368 -54.200  1.00  0.00     0.158 C 
HETATM   14  O6  UNL     1      43.626  38.233 -53.408  1.00  0.00    -0.295 OA
ENDROOT
BRANCH   1  15
HETATM   15  C4  UNL     1      44.642  40.136 -54.873  1.00  0.00     0.023 C 
BRANCH  15  16
HETATM   16  C3  UNL     1      45.500  41.375 -54.909  1.00  0.00     0.001 C 
BRANCH  16  17
HETATM   17  C2  UNL     1      46.337  41.402 -56.191  1.00  0.00    -0.005 C 
HETATM   18  C1  UNL     1      46.740  42.788 -56.565  1.00  0.00     0.005 C 
ENDBRANCH  16  17
ENDBRANCH  15  16
ENDBRANCH   1  15
BRANCH   1  19
HETATM   19  C6  UNL     1      43.137  40.226 -56.706  1.00  0.00     0.271 C 
HETATM   20  O1  UNL     1      43.629  39.181 -57.208  1.00  0.00    -0.264 OA
BRANCH  19  21
HETATM   21  O2  UNL     1      42.511  41.097 -57.565  1.00  0.00    -0.321 OA
BRANCH  21  22
HETATM   22  C7  UNL     1      42.917  41.156 -58.916  1.00  0.00     0.174 C 
HETATM   23  C8  UNL     1      44.013  42.208 -59.004  1.00  0.00     0.034 C 
ENDBRANCH  21  22
ENDBRANCH  19  21
ENDBRANCH   1  19
BRANCH   5  24
HETATM   24  C11 UNL     1      41.282  40.276 -52.004  1.00  0.00     0.127 C 
BRANCH  24  25
HETATM   25  C12 UNL     1      40.757  38.940 -51.725  1.00  0.00     0.020 C 
BRANCH  25  26
HETATM   26  C13 UNL     1      39.241  38.959 -51.818  1.00  0.00     0.006 C 
BRANCH  26  27
HETATM   27  C14 UNL     1      38.557  38.243 -50.704  1.00  0.00    -0.014 C 
HETATM   28  C15 UNL     1      39.201  38.425 -49.351  1.00  0.00     0.004 C 
HETATM   29  C16 UNL     1      38.221  39.173 -48.476  1.00  0.00     0.000 C 
HETATM   30  C17 UNL     1      36.895  38.780 -49.034  1.00  0.00     0.000 C 
HETATM   31  C18 UNL     1      37.148  38.783 -50.522  1.00  0.00     0.004 C 
ENDBRANCH  26  27
ENDBRANCH  25  26
ENDBRANCH  24  25
ENDBRANCH   5  24
TORSDOF 10
ENDMDL
MODEL 3
REMARK VINA RESULT: -8.223038194      2.025      6.547
REMARK  10 active torsions:
REMARK  status: ('A' for Active; 'I' for Inactive)
REMARK    1  A    between atoms: C2_2  and  C3_3 
REMARK    2  A    between atoms: C3_3  and  C4_4 
REMARK    3  A    between atoms: C4_4  and  C5_5 
REMARK    4  A    between atoms: C5_5  and  C6_6 
REMARK    5  A    between atoms: C6_6  and  O2_8 
REMARK    6  A    between atoms: O2_8  and  C7_9 
REMARK    7  A    between atoms: N1_14  and  C11_15 
REMARK    8  A    between atoms: C11_15  and  C12_16 
REMARK    9  A    between atoms: C12_16  and  C13_17 
REMARK   10  A    between atoms: C13_17  and  C14_18 
ROOT
HETATM    1  C5  UNL     1      41.899  40.394 -53.691  1.00  0.00     0.089 C 
HETATM    2  C9  UNL     1      43.252  40.973 -53.904  1.00  0.00     0.126 C 
HETATM    3  C10 UNL     1      42.937  41.928 -55.029  1.00  0.00     0.222 C 
HETATM    4  O3  UNL     1      43.502  43.052 -55.098  1.00  0.00    -0.273 OA
HETATM    5  N1  UNL     1      41.982  41.328 -55.871  1.00  0.00    -0.333 N 
HETATM    6  C19 UNL     1      41.356  40.264 -55.119  1.00  0.00     0.126 C 
HETATM    7  C20 UNL     1      41.945  39.013 -55.709  1.00  0.00     0.180 C 
HETATM    8  S1  UNL     1      40.866  37.692 -56.047  1.00  0.00     0.147 S 
HETATM    9  O4  UNL     1      40.612  36.740 -54.948  1.00  0.00    -0.228 OA
HETATM   10  O5  UNL     1      41.388  36.865 -57.216  1.00  0.00    -0.228 OA
HETATM   11  C21 UNL     1      39.283  38.382 -56.527  1.00  0.00     0.148 C 
HETATM   12  C22 UNL     1      38.925  39.231 -55.298  1.00  0.00     0.096 C 
HETATM   13  C23 UNL     1      39.895  40.310 -55.095  1.00  0.00     0.158 C 
HETATM   14  O6  UNL     1      39.382  41.411 -54.871  1.00  0.00    -0.295 OA
ENDROOT
BRANCH   1  15
HETATM   15  C4  UNL     1      41.075  41.377 -52.888  1.00  0.00     0.023 C 
BRANCH  15  16
HETATM   16  C3  UNL     1      41.952  42.003 -51.834  1.00  0.00     0.001 C 
BRANCH  16  17
HETATM   17  C2  UNL     1      41.825  43.529 -51.878  1.00  0.00    -0.005 C 
HETATM   18  C1  UNL     1      42.221  44.160 -50.587  1.00  0.00     0.005 C 
ENDBRANCH  16  17
ENDBRANCH  15  16
ENDBRANCH   1  15
BRANCH   1  19
HETATM   19  C6  UNL     1      41.854  39.135 -52.922  1.00  0.00     0.271 C 
HETATM   20  O1  UNL     1      42.849  38.367 -52.852  1.00  0.00    -0.264 OA
BRANCH  19  21
HETATM   21  O2  UNL     1      40.719  38.752 -52.248  1.00  0.00    -0.321 OA
BRANCH  21  22
HETATM   22  C7  UNL     1      40.814  38.357 -50.895  1.00  0.00     0.174 C 
HETATM   23  C8  UNL     1      39.798  39.183 -50.119  1.00  0.00     0.034 C 
ENDBRANCH  21  22
ENDBRANCH  19  21
ENDBRANCH   1  19
BRANCH   5  24
HETATM   24  C11 UNL     1      41.822  41.786 -57.226  1.00  0.00     0.127 C 
BRANCH  24  25
HETATM   25  C12 UNL     1      42.828  41.444 -58.230  1.00  0.00     0.020 C 
BRANCH  25  26
HETATM   26  C13 UNL     1      43.729  42.642 -58.476  1.00  0.00     0.006 C 
BRANCH  26  27
HETATM   27  C14 UNL     1      45.183  42.340 -58.355  1.00  0.00    -0.014 C 
HETATM   28  C15 UNL     1      45.950  43.287 -57.463  1.00  0.00     0.004 C 
HETATM   29  C16 UNL     1      46.448  42.493 -56.276  1.00  0.00     0.000 C 
HETATM   30  C17 UNL     1      46.597  41.115 -56.825  1.00  0.00     0.000 C 
HETATM   31  C18 UNL     1      45.382  40.978 -57.711  1.00  0.00     0.004 C 
ENDBRANCH  26  27
ENDBRANCH  25  26
ENDBRANCH  24  25
ENDBRANCH   5  24
TORSDOF 10
ENDMDL
MODEL 4
REMARK VINA RESULT: -8.196559562      1.861      6.840
REMARK  10 active torsions:
REMARK  status: ('A' for Active; 'I' for Inactive)
REMARK    1  A    between atoms: C2_2  and  C3_3 
REMARK    2  A    between atoms: C3_3  and  C4_4 
REMARK    3  A    between atoms: C4_4  and  C5_5 
REMARK    4  A    between atoms: C5_5  and  C6_6 
REMARK    5  A    between atoms: C6_6  and  O2_8 
REMARK    6  A    between atoms: O2_8  and  C7_9 
REMARK    7  A    between atoms: N1_14  and  C11_15 
REMARK    8  A    between atoms: C11_15  and  C12_16 
REMARK    9  A    between atoms: C12_16  and  C13_17 
REMARK   10  A    between atoms: C13_17  and  C14_18 
ROOT
HETATM    1  C5  UNL     1      40.932  38.817 -54.162  1.00  0.00     0.089 C 
HETATM    2  C9  UNL     1      42.373  38.450 -54.161  1.00  0.00     0.126 C 
HETATM    3  C10 UNL     1      42.969  39.781 -54.549  1.00  0.00     0.222 C 
HETATM    4  O3  UNL     1      44.059  40.169 -54.053  1.00  0.00    -0.273 OA
HETATM    5  N1  UNL     1      42.114  40.398 -55.482  1.00  0.00    -0.333 N 
HETATM    6  C19 UNL     1      40.823  39.757 -55.370  1.00  0.00     0.126 C 
HETATM    7  C20 UNL     1      40.741  38.896 -56.599  1.00  0.00     0.180 C 
HETATM    8  S1  UNL     1      39.248  38.896 -57.491  1.00  0.00     0.147 S 
HETATM    9  O4  UNL     1      38.218  37.930 -57.066  1.00  0.00    -0.228 OA
HETATM   10  O5  UNL     1      39.511  38.620 -58.967  1.00  0.00    -0.228 OA
HETATM   11  C21 UNL     1      38.528  40.532 -57.359  1.00  0.00     0.148 C 
HETATM   12  C22 UNL     1      38.390  40.692 -55.837  1.00  0.00     0.096 C 
HETATM   13  C23 UNL     1      39.699  40.672 -55.179  1.00  0.00     0.158 C 
HETATM   14  O6  UNL     1      39.856  41.569 -54.344  1.00  0.00    -0.295 OA
ENDROOT
BRANCH   1  15
HETATM   15  C4  UNL     1      40.622  39.553 -52.877  1.00  0.00     0.023 C 
BRANCH  15  16
HETATM   16  C3  UNL     1      41.172  38.764 -51.717  1.00  0.00     0.001 C 
BRANCH  16  17
HETATM   17  C2  UNL     1      40.444  39.146 -50.424  1.00  0.00    -0.005 C 
HETATM   18  C1  UNL     1      40.034  37.947 -49.640  1.00  0.00     0.005 C 
ENDBRANCH  16  17
ENDBRANCH  15  16
ENDBRANCH   1  15
BRANCH   1  19
HETATM   19  C6  UNL     1      39.982  37.689 -54.200  1.00  0.00     0.271 C 
HETATM   20  O1  UNL     1      40.356  36.520 -54.478  1.00  0.00    -0.264 OA
BRANCH  19  21
HETATM   21  O2  UNL     1      38.647  37.872 -53.930  1.00  0.00    -0.321 OA
BRANCH  21  22
HETATM   22  C7  UNL     1      38.010  37.046 -52.978  1.00  0.00     0.174 C 
HETATM   23  C8  UNL     1      37.250  37.964 -52.032  1.00  0.00     0.034 C 
ENDBRANCH  21  22
ENDBRANCH  19  21
ENDBRANCH   1  19
BRANCH   5  24
HETATM   24  C11 UNL     1      42.613  41.434 -56.347  1.00  0.00     0.127 C 
BRANCH  24  25
HETATM   25  C12 UNL     1      42.992  41.109 -57.721  1.00  0.00     0.020 C 
BRANCH  25  26
HETATM   26  C13 UNL     1      44.301  40.339 -57.720  1.00  0.00     0.006 C 
BRANCH  26  27
HETATM   27  C14 UNL     1      45.508  41.196 -57.895  1.00  0.00    -0.014 C 
HETATM   28  C15 UNL     1      45.214  42.620 -58.300  1.00  0.00     0.004 C 
HETATM   29  C16 UNL     1      45.660  43.517 -57.167  1.00  0.00     0.000 C 
HETATM   30  C17 UNL     1      46.769  42.746 -56.536  1.00  0.00     0.000 C 
HETATM   31  C18 UNL     1      46.252  41.328 -56.576  1.00  0.00     0.004 C 
ENDBRANCH  26  27
ENDBRANCH  25  26
ENDBRANCH  24  25
ENDBRANCH   5  24
TORSDOF 10
ENDMDL
MODEL 5
REMARK VINA RESULT: -8.171921168      1.737      2.409
REMARK  10 active torsions:
REMARK  status: ('A' for Active; 'I' for Inactive)
REMARK    1  A    between atoms: C2_2  and  C3_3 
REMARK    2  A    between atoms: C3_3  and  C4_4 
REMARK    3  A    between atoms: C4_4  and  C5_5 
REMARK    4  A    between atoms: C5_5  and  C6_6 
REMARK    5  A    between atoms: C6_6  and  O2_8 
REMARK    6  A    between atoms: O2_8  and  C7_9 
REMARK    7  A    between atoms: N1_14  and  C11_15 
REMARK    8  A    between atoms: C11_15  and  C12_16 
REMARK    9  A    between atoms: C12_16  and  C13_17 
REMARK   10  A    between atoms: C13_17  and  C14_18 
ROOT
HETATM    1  C5  UNL     1      42.959  42.144 -56.315  1.00  0.00     0.089 C 
HETATM    2  C9  UNL     1      42.548  43.253 -55.412  1.00  0.00     0.126 C 
HETATM    3  C10 UNL     1      42.871  42.620 -54.081  1.00  0.00     0.222 C 
HETATM    4  O3  UNL     1      43.333  43.310 -53.134  1.00  0.00    -0.273 OA
HETATM    5  N1  UNL     1      42.566  41.247 -54.152  1.00  0.00    -0.333 N 
HETATM    6  C19 UNL     1      42.494  40.896 -55.553  1.00  0.00     0.126 C 
HETATM    7  C20 UNL     1      41.022  40.738 -55.810  1.00  0.00     0.180 C 
HETATM    8  S1  UNL     1      40.506  39.366 -56.745  1.00  0.00     0.147 S 
HETATM    9  O4  UNL     1      40.477  39.530 -58.210  1.00  0.00    -0.228 OA
HETATM   10  O5  UNL     1      39.100  38.941 -56.334  1.00  0.00    -0.228 OA
HETATM   11  C21 UNL     1      41.616  38.005 -56.385  1.00  0.00     0.148 C 
HETATM   12  C22 UNL     1      42.978  38.600 -56.778  1.00  0.00     0.096 C 
HETATM   13  C23 UNL     1      43.317  39.752 -55.939  1.00  0.00     0.158 C 
HETATM   14  O6  UNL     1      44.474  39.734 -55.505  1.00  0.00    -0.295 OA
ENDROOT
BRANCH   1  15
HETATM   15  C4  UNL     1      44.466  42.164 -56.448  1.00  0.00     0.023 C 
BRANCH  15  16
HETATM   16  C3  UNL     1      44.900  43.546 -56.869  1.00  0.00     0.001 C 
BRANCH  16  17
HETATM   17  C2  UNL     1      46.393  43.549 -57.213  1.00  0.00    -0.005 C 
HETATM   18  C1  UNL     1      47.193  42.764 -56.230  1.00  0.00     0.005 C 
ENDBRANCH  16  17
ENDBRANCH  15  16
ENDBRANCH   1  15
BRANCH   1  19
HETATM   19  C6  UNL     1      42.448  42.220 -57.697  1.00  0.00     0.271 C 
HETATM   20  O1  UNL     1      41.512  42.999 -58.014  1.00  0.00    -0.264 OA
BRANCH  19  21
HETATM   21  O2  UNL     1      42.979  41.441 -58.697  1.00  0.00    -0.321 OA
BRANCH  21  22
HETATM   22  C7  UNL     1      43.280  42.023 -59.948  1.00  0.00     0.174 C 
HETATM   23  C8  UNL     1      44.777  41.862 -60.163  1.00  0.00     0.034 C 
ENDBRANCH  21  22
ENDBRANCH  19  21
ENDBRANCH   1  19
BRANCH   5  24
HETATM   24  C11 UNL     1      42.347  40.490 -52.948  1.00  0.00     0.127 C 
BRANCH  24  25
HETATM   25  C12 UNL     1      41.098  40.654 -52.206  1.00  0.00     0.020 C 
BRANCH  25  26
HETATM   26  C13 UNL     1      40.526  39.289 -51.864  1.00  0.00     0.006 C 
BRANCH  26  27
HETATM   27  C14 UNL     1      40.456  39.012 -50.401  1.00  0.00    -0.014 C 
HETATM   28  C15 UNL     1      40.707  40.212 -49.521  1.00  0.00     0.004 C 
HETATM   29  C16 UNL     1      39.428  40.503 -48.769  1.00  0.00     0.000 C 
HETATM   30  C17 UNL     1      38.780  39.164 -48.667  1.00  0.00     0.000 C 
HETATM   31  C18 UNL     1      39.056  38.558 -50.022  1.00  0.00     0.004 C 
ENDBRANCH  26  27
ENDBRANCH  25  26
ENDBRANCH  24  25
ENDBRANCH   5  24
TORSDOF 10
ENDMDL
