MODEL 1
REMARK VINA RESULT: -6.382013184      0.000      0.000
REMARK  7 active torsions:
REMARK  status: ('A' for Active; 'I' for Inactive)
REMARK    1  A    between atoms: O1_2  and  C2_3 
REMARK    2  A    between atoms: C2_3  and  C3_5 
REMARK    3  A    between atoms: C3_5  and  O3_7 
REMARK    4  A    between atoms: O3_7  and  C5_8 
REMARK    5  A    between atoms: C5_8  and  C6_12 
REMARK    6  A    between atoms: C11_17  and  N2_18 
REMARK    7  A    between atoms: C15_25  and  C16_26 
ROOT
HETATM    1  C6  UNL     1      19.650 -22.060 -22.129  1.00  0.00     0.048 A 
HETATM    2  C7  UNL     1      19.026 -23.085 -21.378  1.00  0.00     0.027 A 
HETATM    3  C8  UNL     1      19.711 -24.032 -20.647  1.00  0.00    -0.028 A 
HETATM    4  C9  UNL     1      21.077 -23.936 -20.679  1.00  0.00     0.010 A 
HETATM    5  C10 UNL     1      21.724 -22.971 -21.382  1.00  0.00     0.056 A 
HETATM    6  C11 UNL     1      21.001 -22.001 -22.129  1.00  0.00     0.118 A 
HETATM    7  S1  UNL     1      22.020 -25.150 -19.746  1.00  0.00    -0.125 SA
HETATM    8  C12 UNL     1      20.843 -26.197 -18.875  1.00  0.00     0.049 C 
HETATM    9  C13 UNL     1      21.443 -27.578 -18.702  1.00  0.00     0.021 C 
HETATM   10  C14 UNL     1      19.601 -26.335 -19.717  1.00  0.00     0.033 C 
HETATM   11  C15 UNL     1      18.907 -25.022 -19.927  1.00  0.00     0.110 C 
ENDROOT
BRANCH   1  12
HETATM   12  C5  UNL     1      18.806 -21.233 -22.945  1.00  0.00     0.149 C 
HETATM   13  N1  UNL     1      18.579 -21.565 -24.166  1.00  0.00    -0.379 N 
ATOM     14  H12 UNL     1      17.979 -20.978 -24.746  1.00  0.00     0.158 HD
ATOM     15  H11 UNL     1      19.023 -22.426 -24.485  1.00  0.00     0.158 HD
BRANCH  12  16
HETATM   16  O3  UNL     1      18.201 -20.058 -22.510  1.00  0.00    -0.320 OA
BRANCH  16  17
HETATM   17  C3  UNL     1      18.219 -19.607 -21.191  1.00  0.00     0.226 C 
HETATM   18  C4  UNL     1      17.026 -20.093 -20.397  1.00  0.00     0.051 C 
BRANCH  17  19
HETATM   19  C2  UNL     1      18.458 -18.177 -21.031  1.00  0.00     0.287 C 
HETATM   20  O2  UNL     1      19.683 -17.811 -21.015  1.00  0.00    -0.262 OA
BRANCH  19  21
HETATM   21  O1  UNL     1      17.514 -17.186 -20.897  1.00  0.00    -0.324 OA
HETATM   22  C1  UNL     1      17.672 -16.177 -19.895  1.00  0.00     0.213 C 
ENDBRANCH  19  21
ENDBRANCH  17  19
ENDBRANCH  16  17
ENDBRANCH  12  16
ENDBRANCH   1  12
BRANCH   6  23
HETATM   23  N2  UNL     1      21.819 -21.047 -22.781  1.00  0.00    -0.115 N 
HETATM   24  O4  UNL     1      21.929 -19.903 -22.181  1.00  0.00    -0.532 OA
HETATM   25  O5  UNL     1      22.489 -21.229 -23.939  1.00  0.00    -0.532 OA
ENDBRANCH   6  23
BRANCH  11  26
HETATM   26  C16 UNL     1      18.379 -24.445 -18.671  1.00  0.00     0.239 C 
HETATM   27  N3  UNL     1      17.085 -24.691 -18.158  1.00  0.00    -0.062 NA
HETATM   28  O6  UNL     1      19.126 -23.683 -18.010  1.00  0.00    -0.276 OA
ENDBRANCH  11  26
TORSDOF 7
ENDMDL
MODEL 2
REMARK VINA RESULT: -6.294890611      1.290      1.473
REMARK  7 active torsions:
REMARK  status: ('A' for Active; 'I' for Inactive)
REMARK    1  A    between atoms: O1_2  and  C2_3 
REMARK    2  A    between atoms: C2_3  and  C3_5 
REMARK    3  A    between atoms: C3_5  and  O3_7 
REMARK    4  A    between atoms: O3_7  and  C5_8 
REMARK    5  A    between atoms: C5_8  and  C6_12 
REMARK    6  A    between atoms: C11_17  and  N2_18 
REMARK    7  A    between atoms: C15_25  and  C16_26 
ROOT
HETATM    1  C6  UNL     1      19.318 -22.210 -21.397  1.00  0.00     0.048 A 
HETATM    2  C7  UNL     1      18.604 -23.163 -20.631  1.00  0.00     0.027 A 
HETATM    3  C8  UNL     1      19.151 -24.334 -20.151  1.00  0.00    -0.028 A 
HETATM    4  C9  UNL     1      20.469 -24.545 -20.459  1.00  0.00     0.010 A 
HETATM    5  C10 UNL     1      21.199 -23.663 -21.188  1.00  0.00     0.056 A 
HETATM    6  C11 UNL     1      20.618 -22.459 -21.674  1.00  0.00     0.118 A 
HETATM    7  S1  UNL     1      21.232 -26.060 -19.860  1.00  0.00    -0.125 SA
HETATM    8  C12 UNL     1      20.008 -26.925 -18.864  1.00  0.00     0.049 C 
HETATM    9  C13 UNL     1      20.266 -28.416 -18.949  1.00  0.00     0.021 C 
HETATM   10  C14 UNL     1      18.640 -26.659 -19.437  1.00  0.00     0.033 C 
HETATM   11  C15 UNL     1      18.269 -25.207 -19.374  1.00  0.00     0.110 C 
ENDROOT
BRANCH   1  12
HETATM   12  C5  UNL     1      18.574 -21.108 -21.939  1.00  0.00     0.149 C 
HETATM   13  N1  UNL     1      18.374 -21.037 -23.207  1.00  0.00    -0.379 N 
ATOM     14  H12 UNL     1      17.845 -20.254 -23.591  1.00  0.00     0.158 HD
ATOM     15  H11 UNL     1      18.764 -21.797 -23.764  1.00  0.00     0.158 HD
BRANCH  12  16
HETATM   16  O3  UNL     1      18.042 -20.071 -21.178  1.00  0.00    -0.320 OA
BRANCH  16  17
HETATM   17  C3  UNL     1      18.318 -18.721 -21.388  1.00  0.00     0.226 C 
HETATM   18  C4  UNL     1      19.789 -18.401 -21.229  1.00  0.00     0.051 C 
BRANCH  17  19
HETATM   19  C2  UNL     1      17.457 -17.794 -20.662  1.00  0.00     0.287 C 
HETATM   20  O2  UNL     1      16.467 -18.316 -20.044  1.00  0.00    -0.262 OA
BRANCH  19  21
HETATM   21  O1  UNL     1      17.595 -16.429 -20.571  1.00  0.00    -0.324 OA
HETATM   22  C1  UNL     1      17.962 -15.828 -19.325  1.00  0.00     0.213 C 
ENDBRANCH  19  21
ENDBRANCH  17  19
ENDBRANCH  16  17
ENDBRANCH  12  16
ENDBRANCH   1  12
BRANCH   6  23
HETATM   23  N2  UNL     1      21.516 -21.632 -22.390  1.00  0.00    -0.115 N 
HETATM   24  O4  UNL     1      22.458 -21.087 -21.685  1.00  0.00    -0.532 OA
HETATM   25  O5  UNL     1      21.485 -21.382 -23.717  1.00  0.00    -0.532 OA
ENDBRANCH   6  23
BRANCH  11  26
HETATM   26  C16 UNL     1      18.138 -24.708 -17.987  1.00  0.00     0.239 C 
HETATM   27  N3  UNL     1      19.226 -24.459 -17.119  1.00  0.00    -0.062 NA
HETATM   28  O6  UNL     1      16.984 -24.489 -17.544  1.00  0.00    -0.276 OA
ENDBRANCH  11  26
TORSDOF 7
ENDMDL
MODEL 3
REMARK VINA RESULT: -5.972103236      2.981      3.431
REMARK  7 active torsions:
REMARK  status: ('A' for Active; 'I' for Inactive)
REMARK    1  A    between atoms: O1_2  and  C2_3 
REMARK    2  A    between atoms: C2_3  and  C3_5 
REMARK    3  A    between atoms: C3_5  and  O3_7 
REMARK    4  A    between atoms: O3_7  and  C5_8 
REMARK    5  A    between atoms: C5_8  and  C6_12 
REMARK    6  A    between atoms: C11_17  and  N2_18 
REMARK    7  A    between atoms: C15_25  and  C16_26 
ROOT
HETATM    1  C6  UNL     1      19.433 -21.084 -22.284  1.00  0.00     0.048 A 
HETATM    2  C7  UNL     1      18.203 -21.762 -22.462  1.00  0.00     0.027 A 
HETATM    3  C8  UNL     1      18.093 -23.041 -22.966  1.00  0.00    -0.028 A 
HETATM    4  C9  UNL     1      19.272 -23.652 -23.302  1.00  0.00     0.010 A 
HETATM    5  C10 UNL     1      20.477 -23.046 -23.149  1.00  0.00     0.056 A 
HETATM    6  C11 UNL     1      20.573 -21.728 -22.625  1.00  0.00     0.118 A 
HETATM    7  S1  UNL     1      19.185 -25.320 -23.969  1.00  0.00    -0.125 SA
HETATM    8  C12 UNL     1      17.458 -25.826 -23.936  1.00  0.00     0.049 C 
HETATM    9  C13 UNL     1      17.208 -26.802 -25.069  1.00  0.00     0.021 C 
HETATM   10  C14 UNL     1      16.593 -24.616 -24.170  1.00  0.00     0.033 C 
HETATM   11  C15 UNL     1      16.742 -23.592 -23.083  1.00  0.00     0.110 C 
ENDROOT
BRANCH   1  12
HETATM   12  C5  UNL     1      19.374 -19.709 -21.875  1.00  0.00     0.149 C 
HETATM   13  N1  UNL     1      20.463 -19.073 -21.624  1.00  0.00    -0.379 N 
ATOM     14  H12 UNL     1      20.421 -18.096 -21.334  1.00  0.00     0.158 HD
ATOM     15  H11 UNL     1      21.327 -19.602 -21.741  1.00  0.00     0.158 HD
BRANCH  12  16
HETATM   16  O3  UNL     1      18.195 -18.987 -21.716  1.00  0.00    -0.320 OA
BRANCH  16  17
HETATM   17  C3  UNL     1      17.812 -18.360 -20.531  1.00  0.00     0.226 C 
HETATM   18  C4  UNL     1      16.402 -18.723 -20.116  1.00  0.00     0.051 C 
BRANCH  17  19
HETATM   19  C2  UNL     1      18.062 -16.924 -20.484  1.00  0.00     0.287 C 
HETATM   20  O2  UNL     1      17.030 -16.172 -20.555  1.00  0.00    -0.262 OA
BRANCH  19  21
HETATM   21  O1  UNL     1      19.280 -16.295 -20.370  1.00  0.00    -0.324 OA
HETATM   22  C1  UNL     1      19.448 -15.224 -19.436  1.00  0.00     0.213 C 
ENDBRANCH  19  21
ENDBRANCH  17  19
ENDBRANCH  16  17
ENDBRANCH  12  16
ENDBRANCH   1  12
BRANCH   6  23
HETATM   23  N2  UNL     1      21.899 -21.250 -22.500  1.00  0.00    -0.115 N 
HETATM   24  O4  UNL     1      22.357 -20.599 -23.523  1.00  0.00    -0.532 OA
HETATM   25  O5  UNL     1      22.702 -21.398 -21.424  1.00  0.00    -0.532 OA
ENDBRANCH   6  23
BRANCH  11  26
HETATM   26  C16 UNL     1      16.266 -24.078 -21.769  1.00  0.00     0.239 C 
HETATM   27  N3  UNL     1      17.109 -24.408 -20.683  1.00  0.00    -0.062 NA
HETATM   28  O6  UNL     1      15.029 -24.208 -21.599  1.00  0.00    -0.276 OA
ENDBRANCH  11  26
TORSDOF 7
ENDMDL
MODEL 4
REMARK VINA RESULT: -5.961497150      3.311      4.133
REMARK  7 active torsions:
REMARK  status: ('A' for Active; 'I' for Inactive)
REMARK    1  A    between atoms: O1_2  and  C2_3 
REMARK    2  A    between atoms: C2_3  and  C3_5 
REMARK    3  A    between atoms: C3_5  and  O3_7 
REMARK    4  A    between atoms: O3_7  and  C5_8 
REMARK    5  A    between atoms: C5_8  and  C6_12 
REMARK    6  A    between atoms: C11_17  and  N2_18 
REMARK    7  A    between atoms: C15_25  and  C16_26 
ROOT
HETATM    1  C6  UNL     1      18.416 -22.042 -23.186  1.00  0.00     0.048 A 
HETATM    2  C7  UNL     1      17.472 -22.769 -22.420  1.00  0.00     0.027 A 
HETATM    3  C8  UNL     1      16.720 -23.814 -22.913  1.00  0.00    -0.028 A 
HETATM    4  C9  UNL     1      16.933 -24.133 -24.228  1.00  0.00     0.010 A 
HETATM    5  C10 UNL     1      17.827 -23.469 -25.004  1.00  0.00     0.056 A 
HETATM    6  C11 UNL     1      18.596 -22.395 -24.479  1.00  0.00     0.118 A 
HETATM    7  S1  UNL     1      15.974 -25.487 -24.922  1.00  0.00    -0.125 SA
HETATM    8  C12 UNL     1      14.979 -26.182 -23.594  1.00  0.00     0.049 C 
HETATM    9  C13 UNL     1      13.703 -26.755 -24.180  1.00  0.00     0.021 C 
HETATM   10  C14 UNL     1      14.596 -25.077 -22.645  1.00  0.00     0.033 C 
HETATM   11  C15 UNL     1      15.790 -24.457 -21.982  1.00  0.00     0.110 C 
ENDROOT
BRANCH   1  12
HETATM   12  C5  UNL     1      19.021 -20.895 -22.570  1.00  0.00     0.149 C 
HETATM   13  N1  UNL     1      20.267 -20.927 -22.253  1.00  0.00    -0.379 N 
ATOM     14  H12 UNL     1      20.697 -20.111 -21.816  1.00  0.00     0.158 HD
ATOM     15  H11 UNL     1      20.762 -21.790 -22.473  1.00  0.00     0.158 HD
BRANCH  12  16
HETATM   16  O3  UNL     1      18.345 -19.717 -22.270  1.00  0.00    -0.320 OA
BRANCH  16  17
HETATM   17  C3  UNL     1      18.311 -19.130 -21.006  1.00  0.00     0.226 C 
HETATM   18  C4  UNL     1      16.910 -19.074 -20.433  1.00  0.00     0.051 C 
BRANCH  17  19
HETATM   19  C2  UNL     1      19.017 -17.859 -20.895  1.00  0.00     0.287 C 
HETATM   20  O2  UNL     1      20.266 -17.885 -21.168  1.00  0.00    -0.262 OA
BRANCH  19  21
HETATM   21  O1  UNL     1      18.488 -16.642 -20.533  1.00  0.00    -0.324 OA
HETATM   22  C1  UNL     1      19.301 -15.681 -19.855  1.00  0.00     0.213 C 
ENDBRANCH  19  21
ENDBRANCH  17  19
ENDBRANCH  16  17
ENDBRANCH  12  16
ENDBRANCH   1  12
BRANCH   6  23
HETATM   23  N2  UNL     1      19.503 -21.827 -25.405  1.00  0.00    -0.115 N 
HETATM   24  O4  UNL     1      18.968 -21.119 -26.350  1.00  0.00    -0.532 OA
HETATM   25  O5  UNL     1      20.849 -21.945 -25.379  1.00  0.00    -0.532 OA
ENDBRANCH   6  23
BRANCH  11  26
HETATM   26  C16 UNL     1      16.511 -25.401 -21.100  1.00  0.00     0.239 C 
HETATM   27  N3  UNL     1      15.991 -25.927 -19.895  1.00  0.00    -0.062 NA
HETATM   28  O6  UNL     1      17.664 -25.764 -21.438  1.00  0.00    -0.276 OA
ENDBRANCH  11  26
TORSDOF 7
ENDMDL
MODEL 5
REMARK VINA RESULT: -5.892389474      2.020      4.183
REMARK  7 active torsions:
REMARK  status: ('A' for Active; 'I' for Inactive)
REMARK    1  A    between atoms: O1_2  and  C2_3 
REMARK    2  A    between atoms: C2_3  and  C3_5 
REMARK    3  A    between atoms: C3_5  and  O3_7 
REMARK    4  A    between atoms: O3_7  and  C5_8 
REMARK    5  A    between atoms: C5_8  and  C6_12 
REMARK    6  A    between atoms: C11_17  and  N2_18 
REMARK    7  A    between atoms: C15_25  and  C16_26 
ROOT
HETATM    1  C6  UNL     1      19.569 -21.944 -21.610  1.00  0.00     0.048 A 
HETATM    2  C7  UNL     1      20.937 -21.871 -21.969  1.00  0.00     0.027 A 
HETATM    3  C8  UNL     1      21.883 -22.801 -21.596  1.00  0.00    -0.028 A 
HETATM    4  C9  UNL     1      21.426 -23.842 -20.831  1.00  0.00     0.010 A 
HETATM    5  C10 UNL     1      20.125 -23.959 -20.461  1.00  0.00     0.056 A 
HETATM    6  C11 UNL     1      19.162 -22.991 -20.857  1.00  0.00     0.118 A 
HETATM    7  S1  UNL     1      22.621 -25.082 -20.312  1.00  0.00    -0.125 SA
HETATM    8  C12 UNL     1      24.201 -24.657 -21.059  1.00  0.00     0.049 C 
HETATM    9  C13 UNL     1      25.320 -25.142 -20.159  1.00  0.00     0.021 C 
HETATM   10  C14 UNL     1      24.304 -23.157 -21.158  1.00  0.00     0.033 C 
HETATM   11  C15 UNL     1      23.254 -22.573 -22.056  1.00  0.00     0.110 C 
ENDROOT
BRANCH   1  12
HETATM   12  C5  UNL     1      18.735 -20.829 -21.962  1.00  0.00     0.149 C 
HETATM   13  N1  UNL     1      18.287 -20.723 -23.162  1.00  0.00    -0.379 N 
ATOM     14  H12 UNL     1      17.694 -19.932 -23.411  1.00  0.00     0.158 HD
ATOM     15  H11 UNL     1      18.556 -21.466 -23.806  1.00  0.00     0.158 HD
BRANCH  12  16
HETATM   16  O3  UNL     1      18.368 -19.816 -21.081  1.00  0.00    -0.320 OA
BRANCH  16  17
HETATM   17  C3  UNL     1      18.619 -18.461 -21.295  1.00  0.00     0.226 C 
HETATM   18  C4  UNL     1      20.093 -18.126 -21.212  1.00  0.00     0.051 C 
BRANCH  17  19
HETATM   19  C2  UNL     1      17.789 -17.549 -20.516  1.00  0.00     0.287 C 
HETATM   20  O2  UNL     1      18.347 -16.459 -20.146  1.00  0.00    -0.262 OA
BRANCH  19  21
HETATM   21  O1  UNL     1      16.479 -17.733 -20.139  1.00  0.00    -0.324 OA
HETATM   22  C1  UNL     1      15.886 -16.869 -19.165  1.00  0.00     0.213 C 
ENDBRANCH  19  21
ENDBRANCH  17  19
ENDBRANCH  16  17
ENDBRANCH  12  16
ENDBRANCH   1  12
BRANCH   6  23
HETATM   23  N2  UNL     1      17.846 -23.271 -20.417  1.00  0.00    -0.115 N 
HETATM   24  O4  UNL     1      17.693 -23.358 -19.132  1.00  0.00    -0.532 OA
HETATM   25  O5  UNL     1      16.760 -23.436 -21.203  1.00  0.00    -0.532 OA
ENDBRANCH   6  23
BRANCH  11  26
HETATM   26  C16 UNL     1      23.404 -22.997 -23.465  1.00  0.00     0.239 C 
HETATM   27  N3  UNL     1      22.706 -24.075 -24.056  1.00  0.00    -0.062 NA
HETATM   28  O6  UNL     1      24.206 -22.361 -24.193  1.00  0.00    -0.276 OA
ENDBRANCH  11  26
TORSDOF 7
ENDMDL
