MODEL 1
REMARK VINA RESULT: -6.046113201      0.000      0.000
REMARK  1 active torsions:
REMARK  status: ('A' for Active; 'I' for Inactive)
REMARK    1  A    between atoms: N2_18  and  O2_20 
ROOT
HETATM    1  O1  UNL     1      61.744 -31.011  38.551  1.00  0.00    -0.266 OA
HETATM    2  C1  UNL     1      61.494 -30.873  37.300  1.00  0.00     0.265 C 
HETATM    3  N1  UNL     1      62.530 -31.057  36.342  1.00  0.00    -0.356 N 
ATOM      4  H1  UNL     1      63.450 -30.675  36.565  1.00  0.00     0.162 HD
HETATM    5  C2  UNL     1      62.386 -31.731  35.093  1.00  0.00     0.123 C 
HETATM    6  C3  UNL     1      63.372 -31.210  34.091  1.00  0.00     0.020 C 
HETATM    7  C4  UNL     1      63.527 -29.734  34.081  1.00  0.00     0.002 C 
HETATM    8  C5  UNL     1      63.195 -29.120  32.714  1.00  0.00     0.000 C 
HETATM    9  C6  UNL     1      61.897 -29.625  32.171  1.00  0.00     0.000 C 
HETATM   10  C7  UNL     1      61.076 -28.520  31.504  1.00  0.00     0.000 C 
HETATM   11  C8  UNL     1      59.664 -29.025  31.416  1.00  0.00     0.000 C 
HETATM   12  C9  UNL     1      58.658 -28.087  32.035  1.00  0.00     0.000 C 
HETATM   13  C10 UNL     1      58.917 -27.989  33.539  1.00  0.00     0.000 C 
HETATM   14  C11 UNL     1      58.004 -28.853  34.337  1.00  0.00     0.000 C 
HETATM   15  C12 UNL     1      58.668 -30.036  34.976  1.00  0.00     0.006 C 
HETATM   16  C13 UNL     1      59.780 -29.571  35.852  1.00  0.00     0.065 C 
HETATM   17  C14 UNL     1      60.120 -30.529  36.939  1.00  0.00     0.099 C 
HETATM   18  N2  UNL     1      59.145 -31.067  37.577  1.00  0.00    -0.268 N 
ATOM     19  H2  UNL     1      58.200 -30.803  37.297  1.00  0.00     0.194 HD
ENDROOT
BRANCH  18  20
HETATM   20  O2  UNL     1      59.268 -31.956  38.590  1.00  0.00    -0.290 OA
ATOM     21  H2  UNL     1      58.581 -32.536  38.899  1.00  0.00     0.244 HD
ENDBRANCH  18  20
TORSDOF 1
ENDMDL
MODEL 2
REMARK VINA RESULT: -5.884550785      3.589      5.144
REMARK  1 active torsions:
REMARK  status: ('A' for Active; 'I' for Inactive)
REMARK    1  A    between atoms: N2_18  and  O2_20 
ROOT
HETATM    1  O1  UNL     1      59.578 -28.468  30.333  1.00  0.00    -0.266 OA
HETATM    2  C1  UNL     1      60.038 -28.690  31.510  1.00  0.00     0.265 C 
HETATM    3  N1  UNL     1      61.432 -28.902  31.701  1.00  0.00    -0.356 N 
ATOM      4  H1  UNL     1      61.919 -29.477  31.014  1.00  0.00     0.162 HD
HETATM    5  C2  UNL     1      62.204 -28.374  32.779  1.00  0.00     0.123 C 
HETATM    6  C3  UNL     1      63.384 -29.252  33.067  1.00  0.00     0.020 C 
HETATM    7  C4  UNL     1      63.093 -30.708  33.056  1.00  0.00     0.002 C 
HETATM    8  C5  UNL     1      63.418 -31.381  34.397  1.00  0.00     0.000 C 
HETATM    9  C6  UNL     1      62.848 -30.628  35.556  1.00  0.00     0.000 C 
HETATM   10  C7  UNL     1      62.264 -31.557  36.622  1.00  0.00     0.000 C 
HETATM   11  C8  UNL     1      61.351 -30.719  37.472  1.00  0.00     0.000 C 
HETATM   12  C9  UNL     1      59.956 -31.281  37.577  1.00  0.00     0.000 C 
HETATM   13  C10 UNL     1      59.295 -31.254  36.198  1.00  0.00     0.000 C 
HETATM   14  C11 UNL     1      58.383 -30.091  36.020  1.00  0.00     0.000 C 
HETATM   15  C12 UNL     1      58.882 -29.050  35.063  1.00  0.00     0.006 C 
HETATM   16  C13 UNL     1      59.134 -29.674  33.734  1.00  0.00     0.065 C 
HETATM   17  C14 UNL     1      59.067 -28.709  32.602  1.00  0.00     0.099 C 
HETATM   18  N2  UNL     1      58.103 -27.863  32.606  1.00  0.00    -0.268 N 
ATOM     19  H2  UNL     1      57.444 -27.906  33.385  1.00  0.00     0.194 HD
ENDROOT
BRANCH  18  20
HETATM   20  O2  UNL     1      57.888 -26.917  31.662  1.00  0.00    -0.290 OA
ATOM     21  H2  UNL     1      57.683 -26.005  31.834  1.00  0.00     0.244 HD
ENDBRANCH  18  20
TORSDOF 1
ENDMDL
MODEL 3
REMARK VINA RESULT: -5.511674889      1.281      3.933
REMARK  1 active torsions:
REMARK  status: ('A' for Active; 'I' for Inactive)
REMARK    1  A    between atoms: N2_18  and  O2_20 
ROOT
HETATM    1  O1  UNL     1      58.191 -31.609  37.584  1.00  0.00    -0.266 OA
HETATM    2  C1  UNL     1      58.985 -30.958  36.814  1.00  0.00     0.265 C 
HETATM    3  N1  UNL     1      58.463 -30.009  35.891  1.00  0.00    -0.356 N 
ATOM      4  H1  UNL     1      57.608 -30.259  35.393  1.00  0.00     0.162 HD
HETATM    5  C2  UNL     1      59.039 -28.736  35.607  1.00  0.00     0.123 C 
HETATM    6  C3  UNL     1      58.687 -28.292  34.219  1.00  0.00     0.020 C 
HETATM    7  C4  UNL     1      58.778 -29.353  33.184  1.00  0.00     0.002 C 
HETATM    8  C5  UNL     1      59.767 -28.998  32.066  1.00  0.00     0.000 C 
HETATM    9  C6  UNL     1      61.078 -28.525  32.605  1.00  0.00     0.000 C 
HETATM   10  C7  UNL     1      62.266 -29.077  31.815  1.00  0.00     0.000 C 
HETATM   11  C8  UNL     1      63.478 -28.917  32.688  1.00  0.00     0.000 C 
HETATM   12  C9  UNL     1      64.236 -30.204  32.893  1.00  0.00     0.000 C 
HETATM   13  C10 UNL     1      63.359 -31.190  33.665  1.00  0.00     0.000 C 
HETATM   14  C11 UNL     1      63.684 -31.234  35.118  1.00  0.00     0.000 C 
HETATM   15  C12 UNL     1      62.636 -30.636  36.008  1.00  0.00     0.006 C 
HETATM   16  C13 UNL     1      61.336 -31.328  35.783  1.00  0.00     0.065 C 
HETATM   17  C14 UNL     1      60.411 -31.247  36.947  1.00  0.00     0.099 C 
HETATM   18  N2  UNL     1      60.912 -31.443  38.112  1.00  0.00    -0.268 N 
ATOM     19  H2  UNL     1      61.911 -31.642  38.165  1.00  0.00     0.194 HD
ENDROOT
BRANCH  18  20
HETATM   20  O2  UNL     1      60.221 -31.407  39.276  1.00  0.00    -0.290 OA
ATOM     21  H2  UNL     1      60.516 -30.989  40.077  1.00  0.00     0.244 HD
ENDBRANCH  18  20
TORSDOF 1
ENDMDL
MODEL 4
REMARK VINA RESULT: -5.356711130      1.177      3.928
REMARK  1 active torsions:
REMARK  status: ('A' for Active; 'I' for Inactive)
REMARK    1  A    between atoms: N2_18  and  O2_20 
ROOT
HETATM    1  O1  UNL     1      59.674 -31.978  38.771  1.00  0.00    -0.266 OA
HETATM    2  C1  UNL     1      60.117 -31.273  37.793  1.00  0.00     0.265 C 
HETATM    3  N1  UNL     1      59.250 -30.368  37.119  1.00  0.00    -0.356 N 
ATOM      4  H1  UNL     1      58.298 -30.681  36.930  1.00  0.00     0.162 HD
HETATM    5  C2  UNL     1      59.607 -29.057  36.685  1.00  0.00     0.123 C 
HETATM    6  C3  UNL     1      58.780 -28.644  35.505  1.00  0.00     0.020 C 
HETATM    7  C4  UNL     1      58.592 -29.699  34.478  1.00  0.00     0.002 C 
HETATM    8  C5  UNL     1      59.121 -29.277  33.101  1.00  0.00     0.000 C 
HETATM    9  C6  UNL     1      60.501 -28.707  33.179  1.00  0.00     0.000 C 
HETATM   10  C7  UNL     1      61.391 -29.173  32.025  1.00  0.00     0.000 C 
HETATM   11  C8  UNL     1      62.811 -28.923  32.446  1.00  0.00     0.000 C 
HETATM   12  C9  UNL     1      63.682 -30.150  32.357  1.00  0.00     0.000 C 
HETATM   13  C10 UNL     1      63.185 -31.195  33.357  1.00  0.00     0.000 C 
HETATM   14  C11 UNL     1      63.982 -31.211  34.616  1.00  0.00     0.000 C 
HETATM   15  C12 UNL     1      63.254 -30.688  35.818  1.00  0.00     0.006 C 
HETATM   16  C13 UNL     1      62.006 -31.474  36.027  1.00  0.00     0.065 C 
HETATM   17  C14 UNL     1      61.522 -31.457  37.434  1.00  0.00     0.099 C 
HETATM   18  N2  UNL     1      62.396 -31.612  38.360  1.00  0.00    -0.268 N 
ATOM     19  H2  UNL     1      63.367 -31.737  38.072  1.00  0.00     0.194 HD
ENDROOT
BRANCH  18  20
HETATM   20  O2  UNL     1      62.136 -31.623  39.689  1.00  0.00    -0.290 OA
ATOM     21  H2  UNL     1      62.713 -31.286  40.364  1.00  0.00     0.244 HD
ENDBRANCH  18  20
TORSDOF 1
ENDMDL
MODEL 5
REMARK VINA RESULT: -5.349856028      8.973     11.504
REMARK  1 active torsions:
REMARK  status: ('A' for Active; 'I' for Inactive)
REMARK    1  A    between atoms: N2_18  and  O2_20 
ROOT
HETATM    1  O1  UNL     1      63.766 -30.817  43.376  1.00  0.00    -0.266 OA
HETATM    2  C1  UNL     1      64.410 -31.897  43.115  1.00  0.00     0.265 C 
HETATM    3  N1  UNL     1      64.232 -33.048  43.932  1.00  0.00    -0.356 N 
ATOM      4  H1  UNL     1      64.171 -32.904  44.940  1.00  0.00     0.162 HD
HETATM    5  C2  UNL     1      64.130 -34.388  43.454  1.00  0.00     0.123 C 
HETATM    6  C3  UNL     1      64.598 -35.360  44.495  1.00  0.00     0.020 C 
HETATM    7  C4  UNL     1      65.836 -34.958  45.210  1.00  0.00     0.002 C 
HETATM    8  C5  UNL     1      66.964 -35.987  45.051  1.00  0.00     0.000 C 
HETATM    9  C6  UNL     1      67.158 -36.392  43.625  1.00  0.00     0.000 C 
HETATM   10  C7  UNL     1      68.636 -36.526  43.253  1.00  0.00     0.000 C 
HETATM   11  C8  UNL     1      68.710 -36.484  41.754  1.00  0.00     0.000 C 
HETATM   12  C9  UNL     1      69.655 -35.429  41.235  1.00  0.00     0.000 C 
HETATM   13  C10 UNL     1      69.124 -34.046  41.612  1.00  0.00     0.000 C 
HETATM   14  C11 UNL     1      68.404 -33.381  40.491  1.00  0.00     0.000 C 
HETATM   15  C12 UNL     1      66.921 -33.267  40.685  1.00  0.00     0.006 C 
HETATM   16  C13 UNL     1      66.639 -32.527  41.947  1.00  0.00     0.065 C 
HETATM   17  C14 UNL     1      65.307 -31.864  41.961  1.00  0.00     0.099 C 
HETATM   18  N2  UNL     1      64.948 -31.239  40.899  1.00  0.00    -0.268 N 
ATOM     19  H2  UNL     1      65.600 -31.237  40.114  1.00  0.00     0.194 HD
ENDROOT
BRANCH  18  20
HETATM   20  O2  UNL     1      63.776 -30.582  40.736  1.00  0.00    -0.290 OA
ATOM     21  H2  UNL     1      63.688 -29.661  40.521  1.00  0.00     0.244 HD
ENDBRANCH  18  20
TORSDOF 1
ENDMDL
