MODEL 1
REMARK VINA RESULT: -9.228678796      0.000      0.000
REMARK  9 active torsions:
REMARK  status: ('A' for Active; 'I' for Inactive)
REMARK    1  A    between atoms: N1_1  and  N2_4 
REMARK       I    between atoms: N2_4  and  C1_6 
REMARK    2  A    between atoms: C1_6  and  C2_8 
REMARK    3  A    between atoms: C5_11  and  O2_12 
REMARK    4  A    between atoms: O2_12  and  N3_13 
REMARK    5  A    between atoms: C6_15  and  C7_16 
REMARK    6  A    between atoms: C6_15  and  C8_18 
REMARK    7  A    between atoms: C8_18  and  C9_19 
REMARK       I    between atoms: C9_19  and  N4_21 
REMARK    8  A    between atoms: N4_21  and  C10_23 
REMARK    9  A    between atoms: C11_24  and  O5_25 
ROOT
HETATM    1  N3  UNL     1      15.596  39.527 201.819  1.00  0.00    -0.261 N 
ATOM      2  H3  UNL     1      15.441  39.063 202.713  1.00  0.00     0.194 HD
HETATM    3  C6  UNL     1      15.456  38.887 200.712  1.00  0.00     0.079 C 
ENDROOT
BRANCH   3   4
HETATM    4  C7  UNL     1      15.074  37.493 200.779  1.00  0.00     0.285 C 
HETATM    5  O3  UNL     1      14.540  36.963 199.785  1.00  0.00    -0.300 OA
ENDBRANCH   3   4
BRANCH   3   6
HETATM    6  C8  UNL     1      15.696  39.593 199.429  1.00  0.00     0.165 C 
BRANCH   6   7
HETATM    7  C9  UNL     1      17.100  39.482 198.958  1.00  0.00     0.228 C 
HETATM    8  O4  UNL     1      18.017  39.169 199.757  1.00  0.00    -0.273 OA
HETATM    9  N4  UNL     1      17.357  39.745 197.586  1.00  0.00    -0.319 N 
ATOM     10  H4  UNL     1      16.606  39.999 196.943  1.00  0.00     0.169 HD
BRANCH   9  11
HETATM   11  C10 UNL     1      18.712  39.636 197.141  1.00  0.00     0.155 A 
HETATM   12  C11 UNL     1      19.500  40.754 196.982  1.00  0.00     0.177 A 
HETATM   13  N5  UNL     1      20.774  40.604 196.561  1.00  0.00    -0.287 N 
HETATM   14  C12 UNL     1      21.266  39.378 196.301  1.00  0.00     0.329 A 
ATOM     15  H5  UNL     1      21.368  41.425 196.439  1.00  0.00     0.172 HD
HETATM   16  O6  UNL     1      22.454  39.237 195.908  1.00  0.00    -0.247 OA
HETATM   17  N6  UNL     1      20.509  38.263 196.451  1.00  0.00    -0.273 N 
HETATM   18  C13 UNL     1      19.241  38.392 196.869  1.00  0.00     0.280 A 
ATOM     19  H6  UNL     1      20.897  37.342 196.250  1.00  0.00     0.173 HD
HETATM   20  O7  UNL     1      18.484  37.375 197.026  1.00  0.00    -0.265 OA
BRANCH  12  21
HETATM   21  O5  UNL     1      18.946  41.991 197.264  1.00  0.00    -0.344 OA
ATOM     22  H5  UNL     1      19.519  42.678 197.583  1.00  0.00     0.219 HD
ENDBRANCH  12  21
ENDBRANCH   9  11
ENDBRANCH   6   7
ENDBRANCH   3   6
BRANCH   1  23
HETATM   23  O2  UNL     1      15.958  40.845 201.769  1.00  0.00    -0.236 OA
BRANCH  23  24
HETATM   24  C5  UNL     1      15.091  41.777 202.340  1.00  0.00     0.114 A 
HETATM   25  C4  UNL     1      15.529  42.795 203.151  1.00  0.00     0.043 A 
HETATM   26  C3  UNL     1      14.618  43.690 203.690  1.00  0.00     0.038 A 
HETATM   27  C2  UNL     1      13.275  43.531 203.390  1.00  0.00     0.102 A 
HETATM   28  N7  UNL     1      12.885  42.523 202.593  1.00  0.00    -0.359 N 
HETATM   29  C14 UNL     1      13.750  41.638 202.057  1.00  0.00     0.128 A 
ATOM     30  H7  UNL     1      11.892  42.422 202.383  1.00  0.00     0.165 HD
BRANCH  27  31
HETATM   31  C1  UNL     1      12.257  44.430 203.916  1.00  0.00     0.286 C 
HETATM   32  N2  UNL     1      10.904  44.038 203.983  1.00  0.00    -0.271 N 
ATOM     33  H2  UNL     1      10.638  43.110 203.656  1.00  0.00     0.189 HD
HETATM   34  O1  UNL     1      12.586  45.561 204.314  1.00  0.00    -0.264 OA
BRANCH  32  35
HETATM   35  N1  UNL     1       9.926  44.891 204.484  1.00  0.00    -0.342 N 
ATOM     36  H12 UNL     1      10.223  45.768 204.913  1.00  0.00     0.176 HD
ATOM     37  H11 UNL     1       8.936  44.655 204.429  1.00  0.00     0.176 HD
ENDBRANCH  32  35
ENDBRANCH  27  31
ENDBRANCH  23  24
ENDBRANCH   1  23
TORSDOF 9
ENDMDL
MODEL 2
REMARK VINA RESULT: -9.088625390      4.308      5.607
REMARK  9 active torsions:
REMARK  status: ('A' for Active; 'I' for Inactive)
REMARK    1  A    between atoms: N1_1  and  N2_4 
REMARK       I    between atoms: N2_4  and  C1_6 
REMARK    2  A    between atoms: C1_6  and  C2_8 
REMARK    3  A    between atoms: C5_11  and  O2_12 
REMARK    4  A    between atoms: O2_12  and  N3_13 
REMARK    5  A    between atoms: C6_15  and  C7_16 
REMARK    6  A    between atoms: C6_15  and  C8_18 
REMARK    7  A    between atoms: C8_18  and  C9_19 
REMARK       I    between atoms: C9_19  and  N4_21 
REMARK    8  A    between atoms: N4_21  and  C10_23 
REMARK    9  A    between atoms: C11_24  and  O5_25 
ROOT
HETATM    1  N3  UNL     1      14.896  41.142 203.872  1.00  0.00    -0.261 N 
ATOM      2  H3  UNL     1      14.536  41.187 204.824  1.00  0.00     0.194 HD
HETATM    3  C6  UNL     1      15.208  40.014 203.339  1.00  0.00     0.079 C 
ENDROOT
BRANCH   3   4
HETATM    4  C7  UNL     1      15.032  38.817 204.134  1.00  0.00     0.285 C 
HETATM    5  O3  UNL     1      14.063  38.069 203.897  1.00  0.00    -0.300 OA
ENDBRANCH   3   4
BRANCH   3   6
HETATM    6  C8  UNL     1      15.735  39.985 201.952  1.00  0.00     0.165 C 
BRANCH   6   7
HETATM    7  C9  UNL     1      14.671  39.831 200.929  1.00  0.00     0.228 C 
HETATM    8  O4  UNL     1      14.366  40.791 200.177  1.00  0.00    -0.273 OA
HETATM    9  N4  UNL     1      14.021  38.571 200.838  1.00  0.00    -0.319 N 
ATOM     10  H4  UNL     1      14.275  37.797 201.452  1.00  0.00     0.169 HD
BRANCH   9  11
HETATM   11  C10 UNL     1      12.997  38.433 199.849  1.00  0.00     0.155 A 
HETATM   12  C11 UNL     1      13.310  38.244 198.522  1.00  0.00     0.177 A 
HETATM   13  N5  UNL     1      12.310  38.118 197.623  1.00  0.00    -0.287 N 
HETATM   14  C12 UNL     1      11.026  38.175 198.020  1.00  0.00     0.329 A 
ATOM     15  H5  UNL     1      12.530  37.978 196.636  1.00  0.00     0.172 HD
HETATM   16  O6  UNL     1      10.093  38.057 197.183  1.00  0.00    -0.247 OA
HETATM   17  N6  UNL     1      10.693  38.359 199.323  1.00  0.00    -0.273 N 
HETATM   18  C13 UNL     1      11.672  38.487 200.230  1.00  0.00     0.280 A 
ATOM     19  H6  UNL     1       9.714  38.399 199.607  1.00  0.00     0.173 HD
HETATM   20  O7  UNL     1      11.415  38.663 201.469  1.00  0.00    -0.265 OA
BRANCH  12  21
HETATM   21  O5  UNL     1      14.647  38.192 198.166  1.00  0.00    -0.344 OA
ATOM     22  H5  UNL     1      15.127  39.009 198.099  1.00  0.00     0.219 HD
ENDBRANCH  12  21
ENDBRANCH   9  11
ENDBRANCH   6   7
ENDBRANCH   3   6
BRANCH   1  23
HETATM   23  O2  UNL     1      15.058  42.280 203.131  1.00  0.00    -0.236 OA
BRANCH  23  24
HETATM   24  C5  UNL     1      14.441  43.444 203.588  1.00  0.00     0.114 A 
HETATM   25  C4  UNL     1      15.135  44.456 204.204  1.00  0.00     0.043 A 
HETATM   26  C3  UNL     1      14.466  45.590 204.638  1.00  0.00     0.038 A 
HETATM   27  C2  UNL     1      13.098  45.671 204.436  1.00  0.00     0.102 A 
HETATM   28  N7  UNL     1      12.453  44.660 203.830  1.00  0.00    -0.359 N 
HETATM   29  C14 UNL     1      13.080  43.547 203.400  1.00  0.00     0.128 A 
ATOM     30  H7  UNL     1      11.446  44.738 203.689  1.00  0.00     0.165 HD
BRANCH  27  31
HETATM   31  C1  UNL     1      12.324  46.828 204.862  1.00  0.00     0.286 C 
HETATM   32  N2  UNL     1      10.922  46.758 204.991  1.00  0.00    -0.271 N 
ATOM     33  H2  UNL     1      10.445  45.882 204.780  1.00  0.00     0.189 HD
HETATM   34  O1  UNL     1      12.909  47.895 205.118  1.00  0.00    -0.264 OA
BRANCH  32  35
HETATM   35  N1  UNL     1      10.175  47.859 205.398  1.00  0.00    -0.342 N 
ATOM     36  H12 UNL     1      10.241  48.154 206.372  1.00  0.00     0.176 HD
ATOM     37  H11 UNL     1       9.575  48.365 204.746  1.00  0.00     0.176 HD
ENDBRANCH  32  35
ENDBRANCH  27  31
ENDBRANCH  23  24
ENDBRANCH   1  23
TORSDOF 9
ENDMDL
MODEL 3
REMARK VINA RESULT: -9.012491434      1.869      9.358
REMARK  9 active torsions:
REMARK  status: ('A' for Active; 'I' for Inactive)
REMARK    1  A    between atoms: N1_1  and  N2_4 
REMARK       I    between atoms: N2_4  and  C1_6 
REMARK    2  A    between atoms: C1_6  and  C2_8 
REMARK    3  A    between atoms: C5_11  and  O2_12 
REMARK    4  A    between atoms: O2_12  and  N3_13 
REMARK    5  A    between atoms: C6_15  and  C7_16 
REMARK    6  A    between atoms: C6_15  and  C8_18 
REMARK    7  A    between atoms: C8_18  and  C9_19 
REMARK       I    between atoms: C9_19  and  N4_21 
REMARK    8  A    between atoms: N4_21  and  C10_23 
REMARK    9  A    between atoms: C11_24  and  O5_25 
ROOT
HETATM    1  N3  UNL     1      15.698  38.738 199.416  1.00  0.00    -0.261 N 
ATOM      2  H3  UNL     1      15.216  38.099 198.785  1.00  0.00     0.194 HD
HETATM    3  C6  UNL     1      15.526  38.661 200.688  1.00  0.00     0.079 C 
ENDROOT
BRANCH   3   4
HETATM    4  C7  UNL     1      14.630  37.642 201.191  1.00  0.00     0.285 C 
HETATM    5  O3  UNL     1      13.469  37.963 201.517  1.00  0.00    -0.300 OA
ENDBRANCH   3   4
BRANCH   3   6
HETATM    6  C8  UNL     1      16.238  39.613 201.577  1.00  0.00     0.165 C 
BRANCH   6   7
HETATM    7  C9  UNL     1      15.459  40.847 201.852  1.00  0.00     0.228 C 
HETATM    8  O4  UNL     1      15.065  41.575 200.907  1.00  0.00    -0.273 OA
HETATM    9  N4  UNL     1      15.184  41.164 203.209  1.00  0.00    -0.319 N 
ATOM     10  H4  UNL     1      15.508  40.567 203.970  1.00  0.00     0.169 HD
BRANCH   9  11
HETATM   11  C10 UNL     1      14.433  42.354 203.464  1.00  0.00     0.155 A 
HETATM   12  C11 UNL     1      15.051  43.505 203.899  1.00  0.00     0.177 A 
HETATM   13  N5  UNL     1      14.303  44.606 204.127  1.00  0.00    -0.287 N 
HETATM   14  C12 UNL     1      12.972  44.577 203.930  1.00  0.00     0.329 A 
ATOM     15  H5  UNL     1      14.750  45.465 204.449  1.00  0.00     0.172 HD
HETATM   16  O6  UNL     1      12.273  45.603 204.142  1.00  0.00    -0.247 OA
HETATM   17  N6  UNL     1      12.342  43.455 203.502  1.00  0.00    -0.273 N 
HETATM   18  C13 UNL     1      13.068  42.351 203.270  1.00  0.00     0.280 A 
ATOM     19  H6  UNL     1      11.332  43.450 203.358  1.00  0.00     0.173 HD
HETATM   20  O7  UNL     1      12.525  41.268 202.867  1.00  0.00    -0.265 OA
BRANCH  12  21
HETATM   21  O5  UNL     1      16.423  43.482 204.084  1.00  0.00    -0.344 OA
ATOM     22  H5  UNL     1      16.944  42.923 203.520  1.00  0.00     0.219 HD
ENDBRANCH  12  21
ENDBRANCH   9  11
ENDBRANCH   6   7
ENDBRANCH   3   6
BRANCH   1  23
HETATM   23  O2  UNL     1      16.542  39.697 198.929  1.00  0.00    -0.236 OA
BRANCH  23  24
HETATM   24  C5  UNL     1      17.585  39.282 198.100  1.00  0.00     0.114 A 
HETATM   25  C4  UNL     1      17.376  38.822 196.824  1.00  0.00     0.043 A 
HETATM   26  C3  UNL     1      18.454  38.422 196.047  1.00  0.00     0.038 A 
HETATM   27  C2  UNL     1      19.726  38.501 196.589  1.00  0.00     0.102 A 
HETATM   28  N7  UNL     1      19.890  38.957 197.842  1.00  0.00    -0.359 N 
HETATM   29  C14 UNL     1      18.860  39.350 198.617  1.00  0.00     0.128 A 
ATOM     30  H7  UNL     1      20.835  39.008 198.223  1.00  0.00     0.165 HD
BRANCH  27  31
HETATM   31  C1  UNL     1      20.908  38.101 195.838  1.00  0.00     0.286 C 
HETATM   32  N2  UNL     1      22.050  38.927 195.785  1.00  0.00    -0.271 N 
ATOM     33  H2  UNL     1      22.044  39.817 196.282  1.00  0.00     0.189 HD
HETATM   34  O1  UNL     1      20.911  37.014 195.234  1.00  0.00    -0.264 OA
BRANCH  32  35
HETATM   35  N1  UNL     1      23.183  38.552 195.070  1.00  0.00    -0.342 N 
ATOM     36  H12 UNL     1      23.533  39.187 194.353  1.00  0.00     0.176 HD
ATOM     37  H11 UNL     1      23.657  37.668 195.252  1.00  0.00     0.176 HD
ENDBRANCH  32  35
ENDBRANCH  27  31
ENDBRANCH  23  24
ENDBRANCH   1  23
TORSDOF 9
ENDMDL
MODEL 4
REMARK VINA RESULT: -9.010603693      2.016      2.978
REMARK  9 active torsions:
REMARK  status: ('A' for Active; 'I' for Inactive)
REMARK    1  A    between atoms: N1_1  and  N2_4 
REMARK       I    between atoms: N2_4  and  C1_6 
REMARK    2  A    between atoms: C1_6  and  C2_8 
REMARK    3  A    between atoms: C5_11  and  O2_12 
REMARK    4  A    between atoms: O2_12  and  N3_13 
REMARK    5  A    between atoms: C6_15  and  C7_16 
REMARK    6  A    between atoms: C6_15  and  C8_18 
REMARK    7  A    between atoms: C8_18  and  C9_19 
REMARK       I    between atoms: C9_19  and  N4_21 
REMARK    8  A    between atoms: N4_21  and  C10_23 
REMARK    9  A    between atoms: C11_24  and  O5_25 
ROOT
HETATM    1  N3  UNL     1      15.303  41.061 203.578  1.00  0.00    -0.261 N 
ATOM      2  H3  UNL     1      15.893  41.149 204.404  1.00  0.00     0.194 HD
HETATM    3  C6  UNL     1      14.757  39.937 203.276  1.00  0.00     0.079 C 
ENDROOT
BRANCH   3   4
HETATM    4  C7  UNL     1      15.008  38.806 204.144  1.00  0.00     0.285 C 
HETATM    5  O3  UNL     1      14.268  37.805 204.065  1.00  0.00    -0.300 OA
ENDBRANCH   3   4
BRANCH   3   6
HETATM    6  C8  UNL     1      13.909  39.843 202.062  1.00  0.00     0.165 C 
BRANCH   6   7
HETATM    7  C9  UNL     1      14.677  39.486 200.842  1.00  0.00     0.228 C 
HETATM    8  O4  UNL     1      14.145  38.807 199.930  1.00  0.00    -0.273 OA
HETATM    9  N4  UNL     1      16.021  39.939 200.754  1.00  0.00    -0.319 N 
ATOM     10  H4  UNL     1      16.446  40.490 201.499  1.00  0.00     0.169 HD
BRANCH   9  11
HETATM   11  C10 UNL     1      16.753  39.590 199.575  1.00  0.00     0.155 A 
HETATM   12  C11 UNL     1      16.695  40.372 198.445  1.00  0.00     0.177 A 
HETATM   13  N5  UNL     1      17.404  40.004 197.355  1.00  0.00    -0.287 N 
HETATM   14  C12 UNL     1      18.155  38.888 197.376  1.00  0.00     0.329 A 
ATOM     15  H5  UNL     1      17.369  40.576 196.511  1.00  0.00     0.172 HD
HETATM   16  O6  UNL     1      18.816  38.544 196.361  1.00  0.00    -0.247 OA
HETATM   17  N6  UNL     1      18.228  38.102 198.480  1.00  0.00    -0.273 N 
HETATM   18  C13 UNL     1      17.531  38.451 199.571  1.00  0.00     0.280 A 
ATOM     19  H6  UNL     1      18.803  37.259 198.479  1.00  0.00     0.173 HD
HETATM   20  O7  UNL     1      17.563  37.747 200.636  1.00  0.00    -0.265 OA
BRANCH  12  21
HETATM   21  O5  UNL     1      15.908  41.511 198.475  1.00  0.00    -0.344 OA
ATOM     22  H5  UNL     1      15.024  41.437 198.813  1.00  0.00     0.219 HD
ENDBRANCH  12  21
ENDBRANCH   9  11
ENDBRANCH   6   7
ENDBRANCH   3   6
BRANCH   1  23
HETATM   23  O2  UNL     1      15.074  42.137 202.765  1.00  0.00    -0.236 OA
BRANCH  23  24
HETATM   24  C5  UNL     1      14.476  43.262 203.333  1.00  0.00     0.114 A 
HETATM   25  C4  UNL     1      15.195  44.224 203.998  1.00  0.00     0.043 A 
HETATM   26  C3  UNL     1      14.544  45.321 204.542  1.00  0.00     0.038 A 
HETATM   27  C2  UNL     1      13.169  45.416 204.397  1.00  0.00     0.102 A 
HETATM   28  N7  UNL     1      12.501  44.454 203.738  1.00  0.00    -0.359 N 
HETATM   29  C14 UNL     1      13.110  43.378 203.202  1.00  0.00     0.128 A 
ATOM     30  H7  UNL     1      11.490  44.542 203.640  1.00  0.00     0.165 HD
BRANCH  27  31
HETATM   31  C1  UNL     1      12.414  46.537 204.938  1.00  0.00     0.286 C 
HETATM   32  N2  UNL     1      11.004  46.518 204.966  1.00  0.00    -0.271 N 
ATOM     33  H2  UNL     1      10.509  45.705 204.600  1.00  0.00     0.189 HD
HETATM   34  O1  UNL     1      13.021  47.526 205.384  1.00  0.00    -0.264 OA
BRANCH  32  35
HETATM   35  N1  UNL     1      10.275  47.584 205.483  1.00  0.00    -0.342 N 
ATOM     36  H12 UNL     1      10.622  48.530 205.322  1.00  0.00     0.176 HD
ATOM     37  H11 UNL     1       9.415  47.434 206.009  1.00  0.00     0.176 HD
ENDBRANCH  32  35
ENDBRANCH  27  31
ENDBRANCH  23  24
ENDBRANCH   1  23
TORSDOF 9
ENDMDL
MODEL 5
REMARK VINA RESULT: -9.004722567      4.341      5.566
REMARK  9 active torsions:
REMARK  status: ('A' for Active; 'I' for Inactive)
REMARK    1  A    between atoms: N1_1  and  N2_4 
REMARK       I    between atoms: N2_4  and  C1_6 
REMARK    2  A    between atoms: C1_6  and  C2_8 
REMARK    3  A    between atoms: C5_11  and  O2_12 
REMARK    4  A    between atoms: O2_12  and  N3_13 
REMARK    5  A    between atoms: C6_15  and  C7_16 
REMARK    6  A    between atoms: C6_15  and  C8_18 
REMARK    7  A    between atoms: C8_18  and  C9_19 
REMARK       I    between atoms: C9_19  and  N4_21 
REMARK    8  A    between atoms: N4_21  and  C10_23 
REMARK    9  A    between atoms: C11_24  and  O5_25 
ROOT
HETATM    1  N3  UNL     1      14.910  41.053 203.900  1.00  0.00    -0.261 N 
ATOM      2  H3  UNL     1      14.572  41.105 204.861  1.00  0.00     0.194 HD
HETATM    3  C6  UNL     1      15.157  39.918 203.350  1.00  0.00     0.079 C 
ENDROOT
BRANCH   3   4
HETATM    4  C7  UNL     1      14.942  38.722 204.136  1.00  0.00     0.285 C 
HETATM    5  O3  UNL     1      14.001  37.961 203.834  1.00  0.00    -0.300 OA
ENDBRANCH   3   4
BRANCH   3   6
HETATM    6  C8  UNL     1      15.655  39.881 201.952  1.00  0.00     0.165 C 
BRANCH   6   7
HETATM    7  C9  UNL     1      14.565  39.775 200.950  1.00  0.00     0.228 C 
HETATM    8  O4  UNL     1      14.150  40.797 200.348  1.00  0.00    -0.273 OA
HETATM    9  N4  UNL     1      14.018  38.487 200.705  1.00  0.00    -0.319 N 
ATOM     10  H4  UNL     1      14.360  37.662 201.198  1.00  0.00     0.169 HD
BRANCH   9  11
HETATM   11  C10 UNL     1      12.967  38.395 199.738  1.00  0.00     0.155 A 
HETATM   12  C11 UNL     1      11.652  38.579 200.097  1.00  0.00     0.177 A 
HETATM   13  N5  UNL     1      10.693  38.483 199.151  1.00  0.00    -0.287 N 
HETATM   14  C12 UNL     1      11.021  38.212 197.874  1.00  0.00     0.329 A 
ATOM     15  H5  UNL     1       9.714  38.617 199.405  1.00  0.00     0.172 HD
HETATM   16  O6  UNL     1      10.128  38.122 196.991  1.00  0.00    -0.247 OA
HETATM   17  N6  UNL     1      12.311  38.027 197.497  1.00  0.00    -0.273 N 
HETATM   18  C13 UNL     1      13.277  38.119 198.422  1.00  0.00     0.280 A 
ATOM     19  H6  UNL     1      12.542  37.823 196.524  1.00  0.00     0.173 HD
HETATM   20  O7  UNL     1      14.507  37.953 198.122  1.00  0.00    -0.265 OA
BRANCH  12  21
HETATM   21  O5  UNL     1      11.368  38.856 201.424  1.00  0.00    -0.344 OA
ATOM     22  H5  UNL     1      10.523  38.592 201.767  1.00  0.00     0.219 HD
ENDBRANCH  12  21
ENDBRANCH   9  11
ENDBRANCH   6   7
ENDBRANCH   3   6
BRANCH   1  23
HETATM   23  O2  UNL     1      15.111  42.191 203.168  1.00  0.00    -0.236 OA
BRANCH  23  24
HETATM   24  C5  UNL     1      14.487  43.360 203.603  1.00  0.00     0.114 A 
HETATM   25  C4  UNL     1      15.176  44.391 204.193  1.00  0.00     0.043 A 
HETATM   26  C3  UNL     1      14.500  45.529 204.606  1.00  0.00     0.038 A 
HETATM   27  C2  UNL     1      13.131  45.594 204.409  1.00  0.00     0.102 A 
HETATM   28  N7  UNL     1      12.491  44.565 203.829  1.00  0.00    -0.359 N 
HETATM   29  C14 UNL     1      13.125  43.448 203.420  1.00  0.00     0.128 A 
ATOM     30  H7  UNL     1      11.483  44.632 203.692  1.00  0.00     0.165 HD
BRANCH  27  31
HETATM   31  C1  UNL     1      12.350  46.755 204.815  1.00  0.00     0.286 C 
HETATM   32  N2  UNL     1      10.953  46.668 204.982  1.00  0.00    -0.271 N 
ATOM     33  H2  UNL     1      10.485  45.778 204.816  1.00  0.00     0.189 HD
HETATM   34  O1  UNL     1      12.924  47.839 205.016  1.00  0.00    -0.264 OA
BRANCH  32  35
HETATM   35  N1  UNL     1      10.200  47.772 205.370  1.00  0.00    -0.342 N 
ATOM     36  H12 UNL     1       9.337  47.611 205.889  1.00  0.00     0.176 HD
ATOM     37  H11 UNL     1      10.494  48.722 205.144  1.00  0.00     0.176 HD
ENDBRANCH  32  35
ENDBRANCH  27  31
ENDBRANCH  23  24
ENDBRANCH   1  23
TORSDOF 9
ENDMDL
