MODEL 1
REMARK VINA RESULT: -5.789140069      0.000      0.000
REMARK  1 active torsions:
REMARK  status: ('A' for Active; 'I' for Inactive)
REMARK    1  A    between atoms: C2_2  and  N1_3 
ROOT
HETATM    1  N1  UNL     1      18.563  -8.703  96.955  1.00  0.00    -0.302 N 
ATOM      2  H1  UNL     1      18.283  -9.228  96.127  1.00  0.00     0.174 HD
HETATM    3  C3  UNL     1      18.832  -7.350  96.861  1.00  0.00     0.179 C 
HETATM    4  N2  UNL     1      19.067  -6.215  96.785  1.00  0.00    -0.172 NA
ENDROOT
BRANCH   1   5
HETATM    5  C2  UNL     1      18.680  -9.367  98.223  1.00  0.00     0.108 C 
HETATM    6  C1  UNL     1      20.092  -9.961  98.297  1.00  0.00     0.064 C 
HETATM    7  C4  UNL     1      18.476  -8.396  99.348  1.00  0.00     0.054 C 
HETATM    8  C5  UNL     1      18.468  -9.080 100.672  1.00  0.00     0.009 C 
HETATM    9  C6  UNL     1      17.608 -10.302 100.728  1.00  0.00     0.044 C 
HETATM   10  C7  UNL     1      17.558 -11.101  99.477  1.00  0.00     0.058 C 
HETATM   11  N3  UNL     1      17.735 -10.425  98.268  1.00  0.00    -0.376 N 
ATOM     12  H3  UNL     1      17.199 -10.685  97.440  1.00  0.00     0.161 HD
ENDBRANCH   1   5
TORSDOF 1
ENDMDL
MODEL 2
REMARK VINA RESULT: -5.621652239      2.303      3.080
REMARK  1 active torsions:
REMARK  status: ('A' for Active; 'I' for Inactive)
REMARK    1  A    between atoms: C2_2  and  N1_3 
ROOT
HETATM    1  N1  UNL     1      17.839  -6.581 100.969  1.00  0.00    -0.302 N 
ATOM      2  H1  UNL     1      17.125  -6.343 101.656  1.00  0.00     0.174 HD
HETATM    3  C3  UNL     1      18.478  -5.580 100.257  1.00  0.00     0.179 C 
HETATM    4  N2  UNL     1      19.010  -4.745  99.652  1.00  0.00    -0.172 NA
ENDROOT
BRANCH   1   5
HETATM    5  C2  UNL     1      18.186  -7.954 100.735  1.00  0.00     0.108 C 
HETATM    6  C1  UNL     1      19.174  -8.367 101.834  1.00  0.00     0.064 C 
HETATM    7  C4  UNL     1      16.966  -8.824 100.795  1.00  0.00     0.054 C 
HETATM    8  C5  UNL     1      17.278 -10.236 100.433  1.00  0.00     0.009 C 
HETATM    9  C6  UNL     1      18.102 -10.387  99.195  1.00  0.00     0.044 C 
HETATM   10  C7  UNL     1      19.111  -9.320  98.970  1.00  0.00     0.058 C 
HETATM   11  N3  UNL     1      18.835  -8.049  99.476  1.00  0.00    -0.376 N 
ATOM     12  H3  UNL     1      19.093  -7.211  98.955  1.00  0.00     0.161 HD
ENDBRANCH   1   5
TORSDOF 1
ENDMDL
MODEL 3
REMARK VINA RESULT: -5.606505012      1.772      2.648
REMARK  1 active torsions:
REMARK  status: ('A' for Active; 'I' for Inactive)
REMARK    1  A    between atoms: C2_2  and  N1_3 
ROOT
HETATM    1  N1  UNL     1      19.151  -7.776  99.691  1.00  0.00    -0.302 N 
ATOM      2  H1  UNL     1      19.387  -8.010 100.655  1.00  0.00     0.174 HD
HETATM    3  C3  UNL     1      19.006  -6.453  99.313  1.00  0.00     0.179 C 
HETATM    4  N2  UNL     1      18.875  -5.345  98.993  1.00  0.00    -0.172 NA
ENDROOT
BRANCH   1   5
HETATM    5  C2  UNL     1      18.967  -8.819  98.721  1.00  0.00     0.108 C 
HETATM    6  C1  UNL     1      20.318  -9.526  98.552  1.00  0.00     0.064 C 
HETATM    7  C4  UNL     1      17.935  -9.800  99.190  1.00  0.00     0.054 C 
HETATM    8  C5  UNL     1      17.633 -10.823  98.149  1.00  0.00     0.009 C 
HETATM    9  C6  UNL     1      17.398 -10.262  96.784  1.00  0.00     0.044 C 
HETATM   10  C7  UNL     1      18.210  -9.067  96.440  1.00  0.00     0.058 C 
HETATM   11  N3  UNL     1      18.602  -8.226  97.484  1.00  0.00    -0.376 N 
ATOM     12  H3  UNL     1      18.625  -7.214  97.361  1.00  0.00     0.161 HD
ENDBRANCH   1   5
TORSDOF 1
ENDMDL
MODEL 4
REMARK VINA RESULT: -5.489793520      2.029      3.078
REMARK  1 active torsions:
REMARK  status: ('A' for Active; 'I' for Inactive)
REMARK    1  A    between atoms: C2_2  and  N1_3 
ROOT
HETATM    1  N1  UNL     1      18.564  -6.790  99.171  1.00  0.00    -0.302 N 
ATOM      2  H1  UNL     1      17.579  -6.883  99.418  1.00  0.00     0.174 HD
HETATM    3  C3  UNL     1      19.307  -5.735  99.669  1.00  0.00     0.179 C 
HETATM    4  N2  UNL     1      19.933  -4.847 100.078  1.00  0.00    -0.172 NA
ENDROOT
BRANCH   1   5
HETATM    5  C2  UNL     1      19.184  -7.753  98.305  1.00  0.00     0.108 C 
HETATM    6  C1  UNL     1      20.451  -7.102  97.734  1.00  0.00     0.064 C 
HETATM    7  C4  UNL     1      19.548  -8.992  99.067  1.00  0.00     0.054 C 
HETATM    8  C5  UNL     1      20.079 -10.057  98.169  1.00  0.00     0.009 C 
HETATM    9  C6  UNL     1      19.262 -10.288  96.939  1.00  0.00     0.044 C 
HETATM   10  C7  UNL     1      18.625  -9.077  96.363  1.00  0.00     0.058 C 
HETATM   11  N3  UNL     1      18.295  -8.039  97.236  1.00  0.00    -0.376 N 
ATOM     12  H3  UNL     1      17.438  -7.501  97.109  1.00  0.00     0.161 HD
ENDBRANCH   1   5
TORSDOF 1
ENDMDL
MODEL 5
REMARK VINA RESULT: -5.400024419      1.565      3.816
REMARK  1 active torsions:
REMARK  status: ('A' for Active; 'I' for Inactive)
REMARK    1  A    between atoms: C2_2  and  N1_3 
ROOT
HETATM    1  N1  UNL     1      18.130 -10.524  99.368  1.00  0.00    -0.302 N 
ATOM      2  H1  UNL     1      18.330 -11.517  99.252  1.00  0.00     0.174 HD
HETATM    3  C3  UNL     1      17.207 -10.107 100.311  1.00  0.00     0.179 C 
HETATM    4  N2  UNL     1      16.428  -9.754 101.095  1.00  0.00    -0.172 NA
ENDROOT
BRANCH   1   5
HETATM    5  C2  UNL     1      18.804  -9.553  98.552  1.00  0.00     0.108 C 
HETATM    6  C1  UNL     1      20.262 -10.009  98.412  1.00  0.00     0.064 C 
HETATM    7  C4  UNL     1      18.165  -9.465  97.198  1.00  0.00     0.054 C 
HETATM    8  C5  UNL     1      18.765  -8.377  96.375  1.00  0.00     0.009 C 
HETATM    9  C6  UNL     1      18.910  -7.073  97.090  1.00  0.00     0.044 C 
HETATM   10  C7  UNL     1      19.230  -7.175  98.537  1.00  0.00     0.058 C 
HETATM   11  N3  UNL     1      18.778  -8.302  99.224  1.00  0.00    -0.376 N 
ATOM     12  H3  UNL     1      18.438  -8.229 100.183  1.00  0.00     0.161 HD
ENDBRANCH   1   5
TORSDOF 1
ENDMDL
