MODEL 1
REMARK VINA RESULT: -9.218638676      0.000      0.000
REMARK  4 active torsions:
REMARK  status: ('A' for Active; 'I' for Inactive)
REMARK    1  A    between atoms: C8_8  and  O1_9 
REMARK    2  A    between atoms: O1_9  and  C9_10 
REMARK    3  A    between atoms: C9_10  and  C10_11 
REMARK    4  A    between atoms: C10_11  and  C11_12 
ROOT
HETATM    1  C1  UNL     1     -17.148  19.163 -20.798  1.00  0.00     0.010 C 
HETATM    2  C2  UNL     1     -18.046  18.453 -19.771  1.00  0.00    -0.011 C 
HETATM    3  C3  UNL     1     -17.975  17.001 -20.093  1.00  0.00     0.005 C 
HETATM    4  C4  UNL     1     -18.973  16.152 -19.334  1.00  0.00     0.009 C 
HETATM    5  C5  UNL     1     -19.647  17.022 -18.344  1.00  0.00     0.037 C 
HETATM    6  C6  UNL     1     -20.453  16.339 -17.286  1.00  0.00     0.044 C 
HETATM    7  C7  UNL     1     -21.579  15.508 -17.816  1.00  0.00     0.015 C 
HETATM    8  C8  UNL     1     -20.905  17.398 -16.302  1.00  0.00     0.267 C 
HETATM    9  O2  UNL     1     -20.551  18.702 -16.737  1.00  0.00    -0.328 OA
HETATM   10  C12 UNL     1     -21.159  18.836 -17.945  1.00  0.00     0.307 C 
HETATM   11  O3  UNL     1     -21.362  20.087 -18.436  1.00  0.00    -0.297 OA
HETATM   12  C13 UNL     1     -22.077  19.861 -19.645  1.00  0.00     0.310 C 
HETATM   13  C14 UNL     1     -23.457  20.479 -19.316  1.00  0.00     0.118 C 
HETATM   14  O4  UNL     1     -22.301  18.584 -19.955  1.00  0.00    -0.171 OA
HETATM   15  O5  UNL     1     -21.376  17.705 -19.912  1.00  0.00    -0.218 OA
HETATM   16  C15 UNL     1     -20.382  18.111 -19.058  1.00  0.00     0.154 C 
HETATM   17  C16 UNL     1     -19.466  19.011 -19.825  1.00  0.00     0.035 C 
HETATM   18  C17 UNL     1     -19.854  19.074 -21.308  1.00  0.00     0.045 C 
HETATM   19  C18 UNL     1     -20.845  20.144 -21.609  1.00  0.00     0.060 C 
HETATM   20  C19 UNL     1     -21.859  19.672 -22.651  1.00  0.00     0.045 C 
HETATM   21  C20 UNL     1     -20.102  21.305 -22.296  1.00  0.00     0.045 C 
HETATM   22  O6  UNL     1     -21.513  20.678 -20.573  1.00  0.00    -0.321 OA
ENDROOT
BRANCH   8  23
HETATM   23  O1  UNL     1     -20.507  17.162 -15.013  1.00  0.00    -0.361 OA
BRANCH  23  24
HETATM   24  C9  UNL     1     -21.527  16.527 -14.310  1.00  0.00     0.172 C 
BRANCH  24  25
HETATM   25  C10 UNL     1     -22.248  17.451 -13.367  1.00  0.00     0.041 C 
BRANCH  25  26
HETATM   26  C11 UNL     1     -23.710  17.462 -13.751  1.00  0.00     0.116 C 
HETATM   27 CL1  UNL     1     -23.928  18.693 -15.027  1.00  0.00    -0.130 Cl
ENDBRANCH  25  26
ENDBRANCH  24  25
ENDBRANCH  23  24
ENDBRANCH   8  23
TORSDOF 4
ENDMDL
MODEL 2
REMARK VINA RESULT: -9.152538023      1.911      2.248
REMARK  4 active torsions:
REMARK  status: ('A' for Active; 'I' for Inactive)
REMARK    1  A    between atoms: C8_8  and  O1_9 
REMARK    2  A    between atoms: O1_9  and  C9_10 
REMARK    3  A    between atoms: C9_10  and  C10_11 
REMARK    4  A    between atoms: C10_11  and  C11_12 
ROOT
HETATM    1  C1  UNL     1     -17.125  19.206 -20.983  1.00  0.00     0.010 C 
HETATM    2  C2  UNL     1     -17.975  18.465 -19.938  1.00  0.00    -0.011 C 
HETATM    3  C3  UNL     1     -17.900  17.020 -20.294  1.00  0.00     0.005 C 
HETATM    4  C4  UNL     1     -18.858  16.143 -19.516  1.00  0.00     0.009 C 
HETATM    5  C5  UNL     1     -19.506  16.984 -18.484  1.00  0.00     0.037 C 
HETATM    6  C6  UNL     1     -20.265  16.270 -17.411  1.00  0.00     0.044 C 
HETATM    7  C7  UNL     1     -21.399  15.436 -17.918  1.00  0.00     0.015 C 
HETATM    8  C8  UNL     1     -20.692  17.303 -16.390  1.00  0.00     0.267 C 
HETATM    9  O2  UNL     1     -20.370  18.620 -16.810  1.00  0.00    -0.328 OA
HETATM   10  C12 UNL     1     -21.024  18.771 -17.992  1.00  0.00     0.307 C 
HETATM   11  O3  UNL     1     -21.259  20.028 -18.449  1.00  0.00    -0.297 OA
HETATM   12  C13 UNL     1     -22.016  19.819 -19.636  1.00  0.00     0.310 C 
HETATM   13  C14 UNL     1     -23.390  20.412 -19.244  1.00  0.00     0.118 C 
HETATM   14  O4  UNL     1     -22.236  18.546 -19.964  1.00  0.00    -0.171 OA
HETATM   15  O5  UNL     1     -21.299  17.678 -19.973  1.00  0.00    -0.218 OA
HETATM   16  C15 UNL     1     -20.280  18.079 -19.148  1.00  0.00     0.154 C 
HETATM   17  C16 UNL     1     -19.404  19.006 -19.929  1.00  0.00     0.035 C 
HETATM   18  C17 UNL     1     -19.846  19.094 -21.395  1.00  0.00     0.045 C 
HETATM   19  C18 UNL     1     -20.860  20.157 -21.637  1.00  0.00     0.060 C 
HETATM   20  C19 UNL     1     -21.906  19.695 -22.651  1.00  0.00     0.045 C 
HETATM   21  C20 UNL     1     -20.157  21.342 -22.326  1.00  0.00     0.045 C 
HETATM   22  O6  UNL     1     -21.496  20.661 -20.566  1.00  0.00    -0.321 OA
ENDROOT
BRANCH   8  23
HETATM   23  O1  UNL     1     -20.245  17.045 -15.122  1.00  0.00    -0.361 OA
BRANCH  23  24
HETATM   24  C9  UNL     1     -19.894  15.704 -15.005  1.00  0.00     0.172 C 
BRANCH  24  25
HETATM   25  C10 UNL     1     -18.434  15.507 -14.698  1.00  0.00     0.041 C 
BRANCH  25  26
HETATM   26  C11 UNL     1     -18.052  14.108 -15.128  1.00  0.00     0.116 C 
HETATM   27 CL1  UNL     1     -17.312  14.221 -16.751  1.00  0.00    -0.130 Cl
ENDBRANCH  25  26
ENDBRANCH  24  25
ENDBRANCH  23  24
ENDBRANCH   8  23
TORSDOF 4
ENDMDL
MODEL 3
REMARK VINA RESULT: -8.991330481      1.082      1.082
REMARK  4 active torsions:
REMARK  status: ('A' for Active; 'I' for Inactive)
REMARK    1  A    between atoms: C8_8  and  O1_9 
REMARK    2  A    between atoms: O1_9  and  C9_10 
REMARK    3  A    between atoms: C9_10  and  C10_11 
REMARK    4  A    between atoms: C10_11  and  C11_12 
ROOT
HETATM    1  C1  UNL     1     -18.069  19.545 -21.135  1.00  0.00     0.010 C 
HETATM    2  C2  UNL     1     -18.728  18.791 -19.968  1.00  0.00    -0.011 C 
HETATM    3  C3  UNL     1     -18.553  17.341 -20.261  1.00  0.00     0.005 C 
HETATM    4  C4  UNL     1     -19.335  16.428 -19.340  1.00  0.00     0.009 C 
HETATM    5  C5  UNL     1     -19.945  17.265 -18.283  1.00  0.00     0.037 C 
HETATM    6  C6  UNL     1     -20.513  16.548 -17.099  1.00  0.00     0.044 C 
HETATM    7  C7  UNL     1     -21.610  15.588 -17.435  1.00  0.00     0.015 C 
HETATM    8  C8  UNL     1     -20.924  17.595 -16.086  1.00  0.00     0.267 C 
HETATM    9  O2  UNL     1     -20.777  18.910 -16.601  1.00  0.00    -0.328 OA
HETATM   10  C12 UNL     1     -21.565  18.934 -17.708  1.00  0.00     0.307 C 
HETATM   11  O3  UNL     1     -21.967  20.137 -18.195  1.00  0.00    -0.297 OA
HETATM   12  C13 UNL     1     -22.824  19.793 -19.277  1.00  0.00     0.310 C 
HETATM   13  C14 UNL     1     -24.198  20.282 -18.762  1.00  0.00     0.118 C 
HETATM   14  O4  UNL     1     -22.955  18.488 -19.518  1.00  0.00    -0.171 OA
HETATM   15  O5  UNL     1     -21.946  17.709 -19.592  1.00  0.00    -0.218 OA
HETATM   16  C15 UNL     1     -20.887  18.246 -18.906  1.00  0.00     0.154 C 
HETATM   17  C16 UNL     1     -20.192  19.201 -19.823  1.00  0.00     0.035 C 
HETATM   18  C17 UNL     1     -20.796  19.165 -21.233  1.00  0.00     0.045 C 
HETATM   19  C18 UNL     1     -21.927  20.118 -21.409  1.00  0.00     0.060 C 
HETATM   20  C19 UNL     1     -23.027  19.506 -22.277  1.00  0.00     0.045 C 
HETATM   21  C20 UNL     1     -21.418  21.319 -22.228  1.00  0.00     0.045 C 
HETATM   22  O6  UNL     1     -22.489  20.623 -20.298  1.00  0.00    -0.321 OA
ENDROOT
BRANCH   8  23
HETATM   23  O1  UNL     1     -20.321  17.452 -14.865  1.00  0.00    -0.361 OA
BRANCH  23  24
HETATM   24  C9  UNL     1     -21.134  16.708 -14.017  1.00  0.00     0.172 C 
BRANCH  24  25
HETATM   25  C10 UNL     1     -22.375  17.449 -13.599  1.00  0.00     0.041 C 
BRANCH  25  26
HETATM   26  C11 UNL     1     -23.481  16.435 -13.405  1.00  0.00     0.116 C 
HETATM   27 CL1  UNL     1     -22.928  14.888 -14.107  1.00  0.00    -0.130 Cl
ENDBRANCH  25  26
ENDBRANCH  24  25
ENDBRANCH  23  24
ENDBRANCH   8  23
TORSDOF 4
ENDMDL
MODEL 4
REMARK VINA RESULT: -8.471121114      2.132      2.472
REMARK  4 active torsions:
REMARK  status: ('A' for Active; 'I' for Inactive)
REMARK    1  A    between atoms: C8_8  and  O1_9 
REMARK    2  A    between atoms: O1_9  and  C9_10 
REMARK    3  A    between atoms: C9_10  and  C10_11 
REMARK    4  A    between atoms: C10_11  and  C11_12 
ROOT
HETATM    1  C1  UNL     1     -18.415  19.525 -20.957  1.00  0.00     0.010 C 
HETATM    2  C2  UNL     1     -19.002  18.706 -19.796  1.00  0.00    -0.011 C 
HETATM    3  C3  UNL     1     -18.827  17.274 -20.170  1.00  0.00     0.005 C 
HETATM    4  C4  UNL     1     -19.548  16.306 -19.256  1.00  0.00     0.009 C 
HETATM    5  C5  UNL     1     -20.110  17.082 -18.127  1.00  0.00     0.037 C 
HETATM    6  C6  UNL     1     -20.606  16.299 -16.953  1.00  0.00     0.044 C 
HETATM    7  C7  UNL     1     -21.708  15.342 -17.278  1.00  0.00     0.015 C 
HETATM    8  C8  UNL     1     -20.975  17.290 -15.868  1.00  0.00     0.267 C 
HETATM    9  O2  UNL     1     -20.869  18.630 -16.324  1.00  0.00    -0.328 OA
HETATM   10  C12 UNL     1     -21.716  18.697 -17.385  1.00  0.00     0.307 C 
HETATM   11  O3  UNL     1     -22.157  19.917 -17.790  1.00  0.00    -0.297 OA
HETATM   12  C13 UNL     1     -23.066  19.615 -18.842  1.00  0.00     0.310 C 
HETATM   13  C14 UNL     1     -24.416  20.058 -18.231  1.00  0.00     0.118 C 
HETATM   14  O4  UNL     1     -23.195  18.322 -19.140  1.00  0.00    -0.171 OA
HETATM   15  O5  UNL     1     -22.183  17.561 -19.306  1.00  0.00    -0.218 OA
HETATM   16  C15 UNL     1     -21.095  18.079 -18.651  1.00  0.00     0.154 C 
HETATM   17  C16 UNL     1     -20.461  19.088 -19.554  1.00  0.00     0.035 C 
HETATM   18  C17 UNL     1     -21.139  19.113 -20.931  1.00  0.00     0.045 C 
HETATM   19  C18 UNL     1     -22.288  20.057 -20.999  1.00  0.00     0.060 C 
HETATM   20  C19 UNL     1     -23.426  19.473 -21.837  1.00  0.00     0.045 C 
HETATM   21  C20 UNL     1     -21.837  21.304 -21.783  1.00  0.00     0.045 C 
HETATM   22  O6  UNL     1     -22.796  20.499 -19.836  1.00  0.00    -0.321 OA
ENDROOT
BRANCH   8  23
HETATM   23  O1  UNL     1     -20.305  17.095 -14.690  1.00  0.00    -0.361 OA
BRANCH  23  24
HETATM   24  C9  UNL     1     -19.071  16.501 -14.937  1.00  0.00     0.172 C 
BRANCH  24  25
HETATM   25  C10 UNL     1     -18.971  15.108 -14.378  1.00  0.00     0.041 C 
BRANCH  25  26
HETATM   26  C11 UNL     1     -17.851  14.394 -15.102  1.00  0.00     0.116 C 
HETATM   27 CL1  UNL     1     -18.327  12.682 -15.287  1.00  0.00    -0.130 Cl
ENDBRANCH  25  26
ENDBRANCH  24  25
ENDBRANCH  23  24
ENDBRANCH   8  23
TORSDOF 4
ENDMDL
MODEL 5
REMARK VINA RESULT: -8.276802939      2.623      6.640
REMARK  4 active torsions:
REMARK  status: ('A' for Active; 'I' for Inactive)
REMARK    1  A    between atoms: C8_8  and  O1_9 
REMARK    2  A    between atoms: O1_9  and  C9_10 
REMARK    3  A    between atoms: C9_10  and  C10_11 
REMARK    4  A    between atoms: C10_11  and  C11_12 
ROOT
HETATM    1  C1  UNL     1     -26.055  21.558 -17.384  1.00  0.00     0.010 C 
HETATM    2  C2  UNL     1     -25.032  21.286 -18.500  1.00  0.00    -0.011 C 
HETATM    3  C3  UNL     1     -25.818  21.167 -19.760  1.00  0.00     0.005 C 
HETATM    4  C4  UNL     1     -25.012  20.673 -20.944  1.00  0.00     0.009 C 
HETATM    5  C5  UNL     1     -23.594  20.596 -20.526  1.00  0.00     0.037 C 
HETATM    6  C6  UNL     1     -22.581  20.418 -21.611  1.00  0.00     0.044 C 
HETATM    7  C7  UNL     1     -22.757  19.168 -22.414  1.00  0.00     0.015 C 
HETATM    8  C8  UNL     1     -21.210  20.534 -20.979  1.00  0.00     0.267 C 
HETATM    9  O2  UNL     1     -21.292  20.639 -19.565  1.00  0.00    -0.328 OA
HETATM   10  C12 UNL     1     -21.940  19.509 -19.176  1.00  0.00     0.307 C 
HETATM   11  O3  UNL     1     -21.822  19.104 -17.884  1.00  0.00    -0.297 OA
HETATM   12  C13 UNL     1     -22.541  17.877 -17.850  1.00  0.00     0.310 C 
HETATM   13  C14 UNL     1     -21.410  16.855 -17.585  1.00  0.00     0.118 C 
HETATM   14  O4  UNL     1     -23.117  17.512 -18.996  1.00  0.00    -0.171 OA
HETATM   15  O5  UNL     1     -23.818  18.323 -19.689  1.00  0.00    -0.218 OA
HETATM   16  C15 UNL     1     -23.458  19.615 -19.404  1.00  0.00     0.154 C 
HETATM   17  C16 UNL     1     -24.213  20.036 -18.183  1.00  0.00     0.035 C 
HETATM   18  C17 UNL     1     -25.214  18.959 -17.744  1.00  0.00     0.045 C 
HETATM   19  C18 UNL     1     -24.627  17.964 -16.804  1.00  0.00     0.060 C 
HETATM   20  C19 UNL     1     -25.152  16.559 -17.098  1.00  0.00     0.045 C 
HETATM   21  C20 UNL     1     -25.148  18.278 -15.389  1.00  0.00     0.045 C 
HETATM   22  O6  UNL     1     -23.288  17.912 -16.716  1.00  0.00    -0.321 OA
ENDROOT
BRANCH   8  23
HETATM   23  O1  UNL     1     -20.431  21.520 -21.522  1.00  0.00    -0.361 OA
BRANCH  23  24
HETATM   24  C9  UNL     1     -19.392  20.955 -22.256  1.00  0.00     0.172 C 
BRANCH  24  25
HETATM   25  C10 UNL     1     -19.008  19.585 -21.766  1.00  0.00     0.041 C 
BRANCH  25  26
HETATM   26  C11 UNL     1     -17.515  19.579 -21.523  1.00  0.00     0.116 C 
HETATM   27 CL1  UNL     1     -17.049  17.919 -21.053  1.00  0.00    -0.130 Cl
ENDBRANCH  25  26
ENDBRANCH  24  25
ENDBRANCH  23  24
ENDBRANCH   8  23
TORSDOF 4
ENDMDL
