MODEL 1
REMARK VINA RESULT: -9.099657777      0.000      0.000
REMARK  12 active torsions:
REMARK  status: ('A' for Active; 'I' for Inactive)
REMARK    1  A    between atoms: C3_3  and  O1_4 
REMARK    2  A    between atoms: C3_3  and  C21_39 
REMARK    3  A    between atoms: O1_4  and  C4_5 
REMARK    4  A    between atoms: C5_7  and  O3_8 
REMARK    5  A    between atoms: O3_8  and  C6_9 
REMARK    6  A    between atoms: C8_11  and  O4_12 
REMARK    7  A    between atoms: C9_14  and  N1_15 
REMARK    8  A    between atoms: C11_20  and  N2_21 
REMARK    9  A    between atoms: C12_25  and  O5_26 
REMARK   10  A    between atoms: O5_26  and  C13_27 
REMARK   11  A    between atoms: C19_33  and  O6_34 
REMARK   12  A    between atoms: C20_36  and  O7_37 
ROOT
HETATM    1  C1  UNL     1     146.928  20.335 -78.482  1.00  0.00     0.015 C 
HETATM    2  C2  UNL     1     145.870  19.760 -78.512  1.00  0.00    -0.074 C 
HETATM    3  C3  UNL     1     144.582  19.046 -78.528  1.00  0.00     0.302 C 
ENDROOT
BRANCH   3   4
HETATM    4  O1  UNL     1     144.765  17.690 -78.458  1.00  0.00    -0.330 OA
BRANCH   4   5
HETATM    5  C4  UNL     1     144.279  16.978 -79.540  1.00  0.00     0.296 C 
HETATM    6  O2  UNL     1     144.737  15.647 -79.379  1.00  0.00    -0.326 OA
HETATM    7  C5  UNL     1     144.019  14.854 -80.339  1.00  0.00     0.295 C 
HETATM    8  C12 UNL     1     144.519  15.189 -81.704  1.00  0.00     0.208 C 
HETATM    9  C19 UNL     1     144.308  16.678 -82.003  1.00  0.00     0.185 C 
HETATM   10  C20 UNL     1     144.872  17.475 -80.839  1.00  0.00     0.204 C 
BRANCH   7  11
HETATM   11  O3  UNL     1     144.220  13.555 -79.999  1.00  0.00    -0.351 OA
BRANCH  11  12
HETATM   12  C6  UNL     1     143.059  12.837 -79.771  1.00  0.00     0.157 C 
HETATM   13  C7  UNL     1     142.949  11.609 -80.593  1.00  0.00     0.068 C 
HETATM   14  C8  UNL     1     141.808  10.721 -80.244  1.00  0.00     0.151 C 
HETATM   15  C9  UNL     1     141.832  10.419 -78.749  1.00  0.00     0.214 C 
HETATM   16  C10 UNL     1     141.647  11.738 -78.046  1.00  0.00     0.070 C 
HETATM   17  C11 UNL     1     142.855  12.592 -78.290  1.00  0.00     0.214 C 
BRANCH  14  18
HETATM   18  O4  UNL     1     140.566  11.273 -80.536  1.00  0.00    -0.393 OA
ATOM     19  H4  UNL     1     139.857  10.642 -80.518  1.00  0.00     0.210 HD
ENDBRANCH  14  18
BRANCH  15  20
HETATM   20  N1  UNL     1     140.758   9.507 -78.473  1.00  0.00    -0.072 N 
ATOM     21  H13 UNL     1     139.886   9.979 -78.235  1.00  0.00     0.274 HD
ATOM     22  H12 UNL     1     140.425   9.022 -79.306  1.00  0.00     0.274 HD
ATOM     23  H11 UNL     1     141.076   8.869 -77.742  1.00  0.00     0.274 HD
ENDBRANCH  15  20
BRANCH  17  24
HETATM   24  N2  UNL     1     142.633  13.857 -77.616  1.00  0.00    -0.072 N 
ATOM     25  H23 UNL     1     143.420  14.122 -77.024  1.00  0.00     0.274 HD
ATOM     26  H22 UNL     1     142.662  14.647 -78.260  1.00  0.00     0.274 HD
ATOM     27  H21 UNL     1     141.756  13.817 -77.096  1.00  0.00     0.274 HD
ENDBRANCH  17  24
ENDBRANCH  11  12
ENDBRANCH   7  11
BRANCH   8  28
HETATM   28  O5  UNL     1     143.995  14.380 -82.641  1.00  0.00    -0.373 OA
BRANCH  28  29
HETATM   29  C13 UNL     1     144.867  13.887 -83.584  1.00  0.00     0.122 C 
HETATM   30  C14 UNL     1     143.972  13.086 -84.552  1.00  0.00     0.032 C 
HETATM   31  C15 UNL     1     144.824  12.757 -85.748  1.00  0.00     0.002 C 
HETATM   32  C16 UNL     1     145.866  11.750 -85.238  1.00  0.00     0.000 C 
HETATM   33  C17 UNL     1     146.704  12.409 -84.196  1.00  0.00     0.002 C 
HETATM   34  C18 UNL     1     145.851  12.895 -83.024  1.00  0.00     0.032 C 
ENDBRANCH  28  29
ENDBRANCH   8  28
BRANCH   9  35
HETATM   35  O6  UNL     1     142.982  17.000 -82.132  1.00  0.00    -0.390 OA
ATOM     36  H6  UNL     1     142.689  16.968 -83.035  1.00  0.00     0.210 HD
ENDBRANCH   9  35
BRANCH  10  37
HETATM   37  O7  UNL     1     146.250  17.193 -80.809  1.00  0.00    -0.388 OA
ATOM     38  H7  UNL     1     146.712  18.006 -80.980  1.00  0.00     0.210 HD
ENDBRANCH  10  37
ENDBRANCH   4   5
ENDBRANCH   3   4
BRANCH   3  39
HETATM   39  C21 UNL     1     143.673  19.572 -77.481  1.00  0.00     0.215 C 
HETATM   40  O8  UNL     1     142.500  19.838 -77.768  1.00  0.00    -0.645 OA
HETATM   41  O9  UNL     1     144.170  19.752 -76.198  1.00  0.00    -0.645 OA
ENDBRANCH   3  39
TORSDOF 12
ENDMDL
MODEL 2
REMARK VINA RESULT: -8.622260085      1.290      1.661
REMARK  12 active torsions:
REMARK  status: ('A' for Active; 'I' for Inactive)
REMARK    1  A    between atoms: C3_3  and  O1_4 
REMARK    2  A    between atoms: C3_3  and  C21_39 
REMARK    3  A    between atoms: O1_4  and  C4_5 
REMARK    4  A    between atoms: C5_7  and  O3_8 
REMARK    5  A    between atoms: O3_8  and  C6_9 
REMARK    6  A    between atoms: C8_11  and  O4_12 
REMARK    7  A    between atoms: C9_14  and  N1_15 
REMARK    8  A    between atoms: C11_20  and  N2_21 
REMARK    9  A    between atoms: C12_25  and  O5_26 
REMARK   10  A    between atoms: O5_26  and  C13_27 
REMARK   11  A    between atoms: C19_33  and  O6_34 
REMARK   12  A    between atoms: C20_36  and  O7_37 
ROOT
HETATM    1  C1  UNL     1     146.667  20.228 -78.456  1.00  0.00     0.015 C 
HETATM    2  C2  UNL     1     145.683  19.536 -78.417  1.00  0.00    -0.074 C 
HETATM    3  C3  UNL     1     144.489  18.677 -78.351  1.00  0.00     0.302 C 
ENDROOT
BRANCH   3   4
HETATM    4  O1  UNL     1     144.826  17.350 -78.404  1.00  0.00    -0.330 OA
BRANCH   4   5
HETATM    5  C4  UNL     1     144.328  16.663 -79.496  1.00  0.00     0.296 C 
HETATM    6  O2  UNL     1     145.048  15.445 -79.563  1.00  0.00    -0.326 OA
HETATM    7  C5  UNL     1     144.358  14.620 -80.515  1.00  0.00     0.295 C 
HETATM    8  C12 UNL     1     144.576  15.181 -81.880  1.00  0.00     0.208 C 
HETATM    9  C19 UNL     1     144.046  16.617 -81.961  1.00  0.00     0.185 C 
HETATM   10  C20 UNL     1     144.616  17.395 -80.788  1.00  0.00     0.204 C 
BRANCH   7  11
HETATM   11  O3  UNL     1     144.848  13.362 -80.369  1.00  0.00    -0.351 OA
BRANCH  11  12
HETATM   12  C6  UNL     1     143.903  12.415 -80.015  1.00  0.00     0.157 C 
HETATM   13  C7  UNL     1     142.961  12.879 -78.970  1.00  0.00     0.068 C 
HETATM   14  C8  UNL     1     141.824  11.958 -78.698  1.00  0.00     0.151 C 
HETATM   15  C9  UNL     1     141.119  11.614 -80.006  1.00  0.00     0.214 C 
HETATM   16  C10 UNL     1     142.130  10.891 -80.857  1.00  0.00     0.070 C 
HETATM   17  C11 UNL     1     143.216  11.851 -81.242  1.00  0.00     0.214 C 
BRANCH  14  18
HETATM   18  O4  UNL     1     142.210  10.760 -78.107  1.00  0.00    -0.393 OA
ATOM     19  H4  UNL     1     141.945   9.992 -78.600  1.00  0.00     0.210 HD
ENDBRANCH  14  18
BRANCH  15  20
HETATM   20  N1  UNL     1     139.992  10.783 -79.686  1.00  0.00    -0.072 N 
ATOM     21  H13 UNL     1     140.234  10.005 -79.074  1.00  0.00     0.274 HD
ATOM     22  H12 UNL     1     139.326  11.241 -79.065  1.00  0.00     0.274 HD
ATOM     23  H11 UNL     1     139.573  10.480 -80.566  1.00  0.00     0.274 HD
ENDBRANCH  15  20
BRANCH  17  24
HETATM   24  N2  UNL     1     144.178  11.117 -82.041  1.00  0.00    -0.072 N 
ATOM     25  H23 UNL     1     144.394  10.204 -81.641  1.00  0.00     0.274 HD
ATOM     26  H22 UNL     1     143.781  10.798 -82.925  1.00  0.00     0.274 HD
ATOM     27  H21 UNL     1     145.013  11.687 -82.177  1.00  0.00     0.274 HD
ENDBRANCH  17  24
ENDBRANCH  11  12
ENDBRANCH   7  11
BRANCH   8  28
HETATM   28  O5  UNL     1     144.080  14.378 -82.837  1.00  0.00    -0.373 OA
BRANCH  28  29
HETATM   29  C13 UNL     1     144.878  14.171 -83.939  1.00  0.00     0.122 C 
HETATM   30  C14 UNL     1     144.105  13.136 -84.782  1.00  0.00     0.032 C 
HETATM   31  C15 UNL     1     144.790  13.079 -86.121  1.00  0.00     0.002 C 
HETATM   32  C16 UNL     1     146.158  12.435 -85.849  1.00  0.00     0.000 C 
HETATM   33  C17 UNL     1     146.933  13.317 -84.930  1.00  0.00     0.002 C 
HETATM   34  C18 UNL     1     146.196  13.523 -83.607  1.00  0.00     0.032 C 
ENDBRANCH  28  29
ENDBRANCH   8  28
BRANCH   9  35
HETATM   35  O6  UNL     1     142.678  16.672 -81.879  1.00  0.00    -0.390 OA
ATOM     36  H6  UNL     1     142.333  17.506 -82.175  1.00  0.00     0.210 HD
ENDBRANCH   9  35
BRANCH  10  37
HETATM   37  O7  UNL     1     146.011  17.400 -80.968  1.00  0.00    -0.388 OA
ATOM     38  H7  UNL     1     146.407  17.615 -80.131  1.00  0.00     0.210 HD
ENDBRANCH  10  37
ENDBRANCH   4   5
ENDBRANCH   3   4
BRANCH   3  39
HETATM   39  C21 UNL     1     143.652  19.025 -77.177  1.00  0.00     0.215 C 
HETATM   40  O8  UNL     1     143.651  18.284 -76.187  1.00  0.00    -0.645 OA
HETATM   41  O9  UNL     1     142.888  20.182 -77.224  1.00  0.00    -0.645 OA
ENDBRANCH   3  39
TORSDOF 12
ENDMDL
MODEL 3
REMARK VINA RESULT: -8.306998121      1.050      1.596
REMARK  12 active torsions:
REMARK  status: ('A' for Active; 'I' for Inactive)
REMARK    1  A    between atoms: C3_3  and  O1_4 
REMARK    2  A    between atoms: C3_3  and  C21_39 
REMARK    3  A    between atoms: O1_4  and  C4_5 
REMARK    4  A    between atoms: C5_7  and  O3_8 
REMARK    5  A    between atoms: O3_8  and  C6_9 
REMARK    6  A    between atoms: C8_11  and  O4_12 
REMARK    7  A    between atoms: C9_14  and  N1_15 
REMARK    8  A    between atoms: C11_20  and  N2_21 
REMARK    9  A    between atoms: C12_25  and  O5_26 
REMARK   10  A    between atoms: O5_26  and  C13_27 
REMARK   11  A    between atoms: C19_33  and  O6_34 
REMARK   12  A    between atoms: C20_36  and  O7_37 
ROOT
HETATM    1  C1  UNL     1     142.975  19.479 -76.093  1.00  0.00     0.015 C 
HETATM    2  C2  UNL     1     143.629  19.047 -77.006  1.00  0.00    -0.074 C 
HETATM    3  C3  UNL     1     144.428  18.541 -78.135  1.00  0.00     0.302 C 
ENDROOT
BRANCH   3   4
HETATM    4  O1  UNL     1     143.789  18.745 -79.329  1.00  0.00    -0.330 OA
BRANCH   4   5
HETATM    5  C4  UNL     1     143.745  17.645 -80.165  1.00  0.00     0.296 C 
HETATM    6  O2  UNL     1     144.220  16.548 -79.405  1.00  0.00    -0.326 OA
HETATM    7  C5  UNL     1     143.923  15.368 -80.169  1.00  0.00     0.295 C 
HETATM    8  C12 UNL     1     144.822  15.331 -81.359  1.00  0.00     0.208 C 
HETATM    9  C19 UNL     1     144.613  16.575 -82.230  1.00  0.00     0.185 C 
HETATM   10  C20 UNL     1     144.697  17.796 -81.330  1.00  0.00     0.204 C 
BRANCH   7  11
HETATM   11  O3  UNL     1     144.095  14.310 -79.335  1.00  0.00    -0.351 OA
BRANCH  11  12
HETATM   12  C6  UNL     1     143.029  13.428 -79.302  1.00  0.00     0.157 C 
HETATM   13  C7  UNL     1     143.191  12.266 -80.207  1.00  0.00     0.068 C 
HETATM   14  C8  UNL     1     142.156  11.209 -80.062  1.00  0.00     0.151 C 
HETATM   15  C9  UNL     1     142.047  10.795 -78.597  1.00  0.00     0.214 C 
HETATM   16  C10 UNL     1     141.596  12.017 -77.843  1.00  0.00     0.070 C 
HETATM   17  C11 UNL     1     142.691  13.041 -77.877  1.00  0.00     0.214 C 
BRANCH  14  18
HETATM   18  O4  UNL     1     140.889  11.612 -80.473  1.00  0.00    -0.393 OA
ATOM     19  H4  UNL     1     140.376  10.913 -80.860  1.00  0.00     0.210 HD
ENDBRANCH  14  18
BRANCH  15  20
HETATM   20  N1  UNL     1     141.089   9.728 -78.518  1.00  0.00    -0.072 N 
ATOM     21  H13 UNL     1     140.887   9.307 -79.425  1.00  0.00     0.274 HD
ATOM     22  H12 UNL     1     141.460   8.894 -78.063  1.00  0.00     0.274 HD
ATOM     23  H11 UNL     1     140.256  10.095 -78.056  1.00  0.00     0.274 HD
ENDBRANCH  15  20
BRANCH  17  24
HETATM   24  N2  UNL     1     142.214  14.207 -77.158  1.00  0.00    -0.072 N 
ATOM     25  H23 UNL     1     141.651  13.956 -76.346  1.00  0.00     0.274 HD
ATOM     26  H22 UNL     1     142.966  14.692 -76.669  1.00  0.00     0.274 HD
ATOM     27  H21 UNL     1     141.712  14.821 -77.800  1.00  0.00     0.274 HD
ENDBRANCH  17  24
ENDBRANCH  11  12
ENDBRANCH   7  11
BRANCH   8  28
HETATM   28  O5  UNL     1     144.700  14.179 -82.043  1.00  0.00    -0.373 OA
BRANCH  28  29
HETATM   29  C13 UNL     1     145.312  14.129 -83.274  1.00  0.00     0.122 C 
HETATM   30  C14 UNL     1     144.249  13.505 -84.203  1.00  0.00     0.032 C 
HETATM   31  C15 UNL     1     144.757  13.679 -85.609  1.00  0.00     0.002 C 
HETATM   32  C16 UNL     1     145.978  12.753 -85.716  1.00  0.00     0.000 C 
HETATM   33  C17 UNL     1     147.018  13.212 -84.751  1.00  0.00     0.002 C 
HETATM   34  C18 UNL     1     146.490  13.192 -83.317  1.00  0.00     0.032 C 
ENDBRANCH  28  29
ENDBRANCH   8  28
BRANCH   9  35
HETATM   35  O6  UNL     1     143.384  16.584 -82.838  1.00  0.00    -0.390 OA
ATOM     36  H6  UNL     1     142.975  17.441 -82.812  1.00  0.00     0.210 HD
ENDBRANCH   9  35
BRANCH  10  37
HETATM   37  O7  UNL     1     146.004  17.803 -80.808  1.00  0.00    -0.388 OA
ATOM     38  H7  UNL     1     146.580  17.452 -81.478  1.00  0.00     0.210 HD
ENDBRANCH  10  37
ENDBRANCH   4   5
ENDBRANCH   3   4
BRANCH   3  39
HETATM   39  C21 UNL     1     145.803  19.097 -78.101  1.00  0.00     0.215 C 
HETATM   40  O8  UNL     1     146.745  18.375 -77.754  1.00  0.00    -0.645 OA
HETATM   41  O9  UNL     1     145.993  20.422 -78.462  1.00  0.00    -0.645 OA
ENDBRANCH   3  39
TORSDOF 12
ENDMDL
MODEL 4
REMARK VINA RESULT: -8.231202884      2.546      5.191
REMARK  12 active torsions:
REMARK  status: ('A' for Active; 'I' for Inactive)
REMARK    1  A    between atoms: C3_3  and  O1_4 
REMARK    2  A    between atoms: C3_3  and  C21_39 
REMARK    3  A    between atoms: O1_4  and  C4_5 
REMARK    4  A    between atoms: C5_7  and  O3_8 
REMARK    5  A    between atoms: O3_8  and  C6_9 
REMARK    6  A    between atoms: C8_11  and  O4_12 
REMARK    7  A    between atoms: C9_14  and  N1_15 
REMARK    8  A    between atoms: C11_20  and  N2_21 
REMARK    9  A    between atoms: C12_25  and  O5_26 
REMARK   10  A    between atoms: O5_26  and  C13_27 
REMARK   11  A    between atoms: C19_33  and  O6_34 
REMARK   12  A    between atoms: C20_36  and  O7_37 
ROOT
HETATM    1  C1  UNL     1     142.829  20.206 -77.301  1.00  0.00     0.015 C 
HETATM    2  C2  UNL     1     143.747  19.512 -77.656  1.00  0.00    -0.074 C 
HETATM    3  C3  UNL     1     144.867  18.674 -78.114  1.00  0.00     0.302 C 
ENDROOT
BRANCH   3   4
HETATM    4  O1  UNL     1     144.523  17.943 -79.221  1.00  0.00    -0.330 OA
BRANCH   4   5
HETATM    5  C4  UNL     1     144.686  16.576 -79.093  1.00  0.00     0.296 C 
HETATM    6  O2  UNL     1     143.900  15.984 -80.112  1.00  0.00    -0.326 OA
HETATM    7  C5  UNL     1     144.276  14.598 -80.158  1.00  0.00     0.295 C 
HETATM    8  C12 UNL     1     143.755  13.921 -78.935  1.00  0.00     0.208 C 
HETATM    9  C19 UNL     1     144.334  14.571 -77.673  1.00  0.00     0.185 C 
HETATM   10  C20 UNL     1     144.128  16.073 -77.782  1.00  0.00     0.204 C 
BRANCH   7  11
HETATM   11  O3  UNL     1     143.762  14.093 -81.309  1.00  0.00    -0.351 OA
BRANCH  11  12
HETATM   12  C6  UNL     1     144.707  13.790 -82.274  1.00  0.00     0.157 C 
HETATM   13  C7  UNL     1     144.871  12.336 -82.509  1.00  0.00     0.068 C 
HETATM   14  C8  UNL     1     145.740  11.982 -83.663  1.00  0.00     0.151 C 
HETATM   15  C9  UNL     1     145.265  12.723 -84.909  1.00  0.00     0.214 C 
HETATM   16  C10 UNL     1     145.428  14.192 -84.618  1.00  0.00     0.070 C 
HETATM   17  C11 UNL     1     144.460  14.583 -83.541  1.00  0.00     0.214 C 
BRANCH  14  18
HETATM   18  O4  UNL     1     147.078  12.310 -83.470  1.00  0.00    -0.393 OA
ATOM     19  H4  UNL     1     147.677  11.613 -83.709  1.00  0.00     0.210 HD
ENDBRANCH  14  18
BRANCH  15  20
HETATM   20  N1  UNL     1     146.088  12.298 -86.007  1.00  0.00    -0.072 N 
ATOM     21  H13 UNL     1     146.351  11.314 -85.948  1.00  0.00     0.274 HD
ATOM     22  H12 UNL     1     145.579  12.248 -86.889  1.00  0.00     0.274 HD
ATOM     23  H11 UNL     1     146.894  12.922 -86.048  1.00  0.00     0.274 HD
ENDBRANCH  15  20
BRANCH  17  24
HETATM   24  N2  UNL     1     144.658  15.995 -83.275  1.00  0.00    -0.072 N 
ATOM     25  H23 UNL     1     144.382  16.578 -84.065  1.00  0.00     0.274 HD
ATOM     26  H22 UNL     1     143.995  16.355 -82.590  1.00  0.00     0.274 HD
ATOM     27  H21 UNL     1     145.626  16.156 -82.997  1.00  0.00     0.274 HD
ENDBRANCH  17  24
ENDBRANCH  11  12
ENDBRANCH   7  11
BRANCH   8  28
HETATM   28  O5  UNL     1     143.943  12.591 -78.980  1.00  0.00    -0.373 OA
BRANCH  28  29
HETATM   29  C13 UNL     1     142.838  11.806 -78.740  1.00  0.00     0.122 C 
HETATM   30  C14 UNL     1     142.384  11.347 -80.140  1.00  0.00     0.032 C 
HETATM   31  C15 UNL     1     141.355  10.271 -79.923  1.00  0.00     0.002 C 
HETATM   32  C16 UNL     1     140.138  10.989 -79.320  1.00  0.00     0.000 C 
HETATM   33  C17 UNL     1     140.527  11.579 -78.007  1.00  0.00     0.002 C 
HETATM   34  C18 UNL     1     141.677  12.573 -78.165  1.00  0.00     0.032 C 
ENDBRANCH  28  29
ENDBRANCH   8  28
BRANCH   9  35
HETATM   35  O6  UNL     1     145.679  14.340 -77.539  1.00  0.00    -0.390 OA
ATOM     36  H6  UNL     1     146.186  15.144 -77.547  1.00  0.00     0.210 HD
ENDBRANCH   9  35
BRANCH  10  37
HETATM   37  O7  UNL     1     142.735  16.270 -77.813  1.00  0.00    -0.388 OA
ATOM     38  H7  UNL     1     142.515  16.620 -78.669  1.00  0.00     0.210 HD
ENDBRANCH  10  37
ENDBRANCH   4   5
ENDBRANCH   3   4
BRANCH   3  39
HETATM   39  C21 UNL     1     146.093  19.487 -78.304  1.00  0.00     0.215 C 
HETATM   40  O8  UNL     1     146.022  20.567 -78.902  1.00  0.00    -0.645 OA
HETATM   41  O9  UNL     1     147.294  19.008 -77.802  1.00  0.00    -0.645 OA
ENDBRANCH   3  39
TORSDOF 12
ENDMDL
MODEL 5
REMARK VINA RESULT: -8.184064994      2.494      7.000
REMARK  12 active torsions:
REMARK  status: ('A' for Active; 'I' for Inactive)
REMARK    1  A    between atoms: C3_3  and  O1_4 
REMARK    2  A    between atoms: C3_3  and  C21_39 
REMARK    3  A    between atoms: O1_4  and  C4_5 
REMARK    4  A    between atoms: C5_7  and  O3_8 
REMARK    5  A    between atoms: O3_8  and  C6_9 
REMARK    6  A    between atoms: C8_11  and  O4_12 
REMARK    7  A    between atoms: C9_14  and  N1_15 
REMARK    8  A    between atoms: C11_20  and  N2_21 
REMARK    9  A    between atoms: C12_25  and  O5_26 
REMARK   10  A    between atoms: O5_26  and  C13_27 
REMARK   11  A    between atoms: C19_33  and  O6_34 
REMARK   12  A    between atoms: C20_36  and  O7_37 
ROOT
HETATM    1  C1  UNL     1     142.704  11.566 -81.941  1.00  0.00     0.015 C 
HETATM    2  C2  UNL     1     142.665  11.376 -80.753  1.00  0.00    -0.074 C 
HETATM    3  C3  UNL     1     142.610  11.167 -79.296  1.00  0.00     0.302 C 
ENDROOT
BRANCH   3   4
HETATM    4  O1  UNL     1     143.356  12.104 -78.630  1.00  0.00    -0.330 OA
BRANCH   4   5
HETATM    5  C4  UNL     1     143.263  13.389 -79.131  1.00  0.00     0.296 C 
HETATM    6  O2  UNL     1     144.479  13.639 -79.815  1.00  0.00    -0.326 OA
HETATM    7  C5  UNL     1     144.281  14.851 -80.560  1.00  0.00     0.295 C 
HETATM    8  C12 UNL     1     144.225  15.995 -79.604  1.00  0.00     0.208 C 
HETATM    9  C19 UNL     1     143.075  15.808 -78.608  1.00  0.00     0.185 C 
HETATM   10  C20 UNL     1     143.186  14.412 -78.020  1.00  0.00     0.204 C 
BRANCH   7  11
HETATM   11  O3  UNL     1     145.310  14.939 -81.441  1.00  0.00    -0.351 OA
BRANCH  11  12
HETATM   12  C6  UNL     1     145.156  14.172 -82.582  1.00  0.00     0.157 C 
HETATM   13  C7  UNL     1     144.827  14.963 -83.791  1.00  0.00     0.068 C 
HETATM   14  C8  UNL     1     144.835  14.195 -85.064  1.00  0.00     0.151 C 
HETATM   15  C9  UNL     1     146.156  13.444 -85.202  1.00  0.00     0.214 C 
HETATM   16  C10 UNL     1     146.213  12.471 -84.054  1.00  0.00     0.070 C 
HETATM   17  C11 UNL     1     146.335  13.240 -82.772  1.00  0.00     0.214 C 
BRANCH  14  18
HETATM   18  O4  UNL     1     143.813  13.256 -85.152  1.00  0.00    -0.393 OA
ATOM     19  H4  UNL     1     143.277  13.351 -85.930  1.00  0.00     0.210 HD
ENDBRANCH  14  18
BRANCH  15  20
HETATM   20  N1  UNL     1     146.144  12.776 -86.474  1.00  0.00    -0.072 N 
ATOM     21  H13 UNL     1     145.860  11.799 -86.407  1.00  0.00     0.274 HD
ATOM     22  H12 UNL     1     145.391  13.094 -87.082  1.00  0.00     0.274 HD
ATOM     23  H11 UNL     1     147.068  12.892 -86.891  1.00  0.00     0.274 HD
ENDBRANCH  15  20
BRANCH  17  24
HETATM   24  N2  UNL     1     146.368  12.274 -81.691  1.00  0.00    -0.072 N 
ATOM     25  H23 UNL     1     147.316  12.107 -81.353  1.00  0.00     0.274 HD
ATOM     26  H22 UNL     1     145.970  12.646 -80.829  1.00  0.00     0.274 HD
ATOM     27  H21 UNL     1     145.908  11.414 -81.989  1.00  0.00     0.274 HD
ENDBRANCH  17  24
ENDBRANCH  11  12
ENDBRANCH   7  11
BRANCH   8  28
HETATM   28  O5  UNL     1     144.188  17.179 -80.241  1.00  0.00    -0.373 OA
BRANCH  28  29
HETATM   29  C13 UNL     1     144.577  18.280 -79.513  1.00  0.00     0.122 C 
HETATM   30  C14 UNL     1     145.827  17.807 -78.743  1.00  0.00     0.032 C 
HETATM   31  C15 UNL     1     146.453  19.040 -78.148  1.00  0.00     0.002 C 
HETATM   32  C16 UNL     1     145.469  19.512 -77.067  1.00  0.00     0.000 C 
HETATM   33  C17 UNL     1     144.176  19.874 -77.715  1.00  0.00     0.002 C 
HETATM   34  C18 UNL     1     143.577  18.681 -78.460  1.00  0.00     0.032 C 
ENDBRANCH  28  29
ENDBRANCH   8  28
BRANCH   9  35
HETATM   35  O6  UNL     1     141.846  15.916 -79.207  1.00  0.00    -0.390 OA
ATOM     36  H6  UNL     1     141.136  15.910 -78.576  1.00  0.00     0.210 HD
ENDBRANCH   9  35
BRANCH  10  37
HETATM   37  O7  UNL     1     144.412  14.379 -77.331  1.00  0.00    -0.388 OA
ATOM     38  H7  UNL     1     144.303  14.881 -76.531  1.00  0.00     0.210 HD
ENDBRANCH  10  37
ENDBRANCH   4   5
ENDBRANCH   3   4
BRANCH   3  39
HETATM   39  C21 UNL     1     141.206  11.091 -78.826  1.00  0.00     0.215 C 
HETATM   40  O8  UNL     1     140.840  11.794 -77.877  1.00  0.00    -0.645 OA
HETATM   41  O9  UNL     1     140.334  10.225 -79.471  1.00  0.00    -0.645 OA
ENDBRANCH   3  39
TORSDOF 12
ENDMDL
