MODEL 1
REMARK VINA RESULT: -5.166494252      0.000      0.000
REMARK  4 active torsions:
REMARK  status: ('A' for Active; 'I' for Inactive)
REMARK       I    between atoms: N1_1  and  C1_4 
REMARK    1  A    between atoms: N3_6  and  C2_8 
REMARK    2  A    between atoms: C3_9  and  C4_10 
REMARK    3  A    between atoms: C5_13  and  C6_14 
REMARK    4  A    between atoms: N6_20  and  N7_21 
ROOT
HETATM    1  C2  UNL     1      22.854  -0.859  -2.657  1.00  0.00     0.151 A 
HETATM    2  C3  UNL     1      21.668  -1.092  -1.977  1.00  0.00     0.105 A 
HETATM    3  C5  UNL     1      21.746  -1.536  -0.669  1.00  0.00     0.093 A 
HETATM    4  N5  UNL     1      22.980  -1.723  -0.102  1.00  0.00    -0.303 N 
ATOM      5  H5  UNL     1      23.044  -2.048   0.862  1.00  0.00     0.171 HD
HETATM    6  C7  UNL     1      24.099  -1.487  -0.792  1.00  0.00     0.347 A 
HETATM    7  O3  UNL     1      25.196  -1.692  -0.176  1.00  0.00    -0.245 OA
HETATM    8  N6  UNL     1      24.076  -1.064  -2.045  1.00  0.00    -0.194 N 
ENDROOT
BRANCH   1   9
HETATM    9  N3  UNL     1      22.926  -0.460  -3.812  1.00  0.00    -0.315 N 
HETATM   10  C1  UNL     1      22.882  -0.852  -5.088  1.00  0.00     0.187 C 
HETATM   11  N1  UNL     1      21.768  -1.174  -5.706  1.00  0.00    -0.373 N 
HETATM   12  N2  UNL     1      24.087  -0.916  -5.927  1.00  0.00    -0.064 NA
ATOM     13  H12 UNL     1      21.734  -1.473  -6.681  1.00  0.00     0.158 HD
ATOM     14  H11 UNL     1      20.932  -1.129  -5.123  1.00  0.00     0.158 HD
ATOM     15  H3  UNL     1      23.077   0.548  -3.793  1.00  0.00     0.170 HD
ENDBRANCH   1   9
BRANCH   2  16
HETATM   16  C4  UNL     1      20.345  -0.909  -2.571  1.00  0.00     0.271 C 
HETATM   17  N4  UNL     1      19.506   0.194  -2.408  1.00  0.00    -0.057 NA
HETATM   18  O1  UNL     1      19.922  -1.863  -3.320  1.00  0.00    -0.271 OA
ENDBRANCH   2  16
BRANCH   8  19
HETATM   19  N7  UNL     1      25.273  -0.829  -2.729  1.00  0.00    -0.333 N 
ATOM     20  H72 UNL     1      25.278  -0.247  -3.566  1.00  0.00     0.177 HD
ATOM     21  H71 UNL     1      26.152  -1.234  -2.405  1.00  0.00     0.177 HD
ENDBRANCH   8  19
BRANCH   3  22
HETATM   22  C6  UNL     1      20.567  -1.838   0.123  1.00  0.00     0.289 C 
HETATM   23  O2  UNL     1      20.577  -2.208   1.298  1.00  0.00    -0.300 OA
ENDBRANCH   3  22
TORSDOF 4
ENDMDL
MODEL 2
REMARK VINA RESULT: -4.992820596      1.266      1.266
REMARK  4 active torsions:
REMARK  status: ('A' for Active; 'I' for Inactive)
REMARK       I    between atoms: N1_1  and  C1_4 
REMARK    1  A    between atoms: N3_6  and  C2_8 
REMARK    2  A    between atoms: C3_9  and  C4_10 
REMARK    3  A    between atoms: C5_13  and  C6_14 
REMARK    4  A    between atoms: N6_20  and  N7_21 
ROOT
HETATM    1  C2  UNL     1      22.691  -2.036  -2.454  1.00  0.00     0.151 A 
HETATM    2  C3  UNL     1      21.527  -1.710  -1.774  1.00  0.00     0.105 A 
HETATM    3  C5  UNL     1      21.528  -1.824  -0.395  1.00  0.00     0.093 A 
HETATM    4  N5  UNL     1      22.668  -2.248   0.237  1.00  0.00    -0.303 N 
ATOM      5  H5  UNL     1      22.675  -2.333   1.254  1.00  0.00     0.171 HD
HETATM    6  C7  UNL     1      23.769  -2.552  -0.454  1.00  0.00     0.347 A 
HETATM    7  O3  UNL     1      24.775  -2.936   0.226  1.00  0.00    -0.245 OA
HETATM    8  N6  UNL     1      23.817  -2.460  -1.773  1.00  0.00    -0.194 N 
ENDROOT
BRANCH   1   9
HETATM    9  N3  UNL     1      22.828  -1.973  -3.669  1.00  0.00    -0.315 N 
HETATM   10  C1  UNL     1      22.732  -2.679  -4.798  1.00  0.00     0.187 C 
HETATM   11  N1  UNL     1      21.585  -2.994  -5.358  1.00  0.00    -0.373 N 
HETATM   12  N2  UNL     1      23.918  -3.135  -5.537  1.00  0.00    -0.064 NA
ATOM     13  H12 UNL     1      21.512  -3.534  -6.221  1.00  0.00     0.158 HD
ATOM     14  H11 UNL     1      20.762  -2.677  -4.844  1.00  0.00     0.158 HD
ATOM     15  H3  UNL     1      23.126  -1.027  -3.908  1.00  0.00     0.170 HD
ENDBRANCH   1   9
BRANCH   2  16
HETATM   16  C4  UNL     1      20.300  -1.269  -2.434  1.00  0.00     0.271 C 
HETATM   17  N4  UNL     1      19.779   0.025  -2.442  1.00  0.00    -0.057 NA
HETATM   18  O1  UNL     1      19.644  -2.170  -3.073  1.00  0.00    -0.271 OA
ENDBRANCH   2  16
BRANCH   8  19
HETATM   19  N7  UNL     1      24.992  -2.789  -2.458  1.00  0.00    -0.333 N 
ATOM     20  H72 UNL     1      25.351  -2.169  -3.184  1.00  0.00     0.177 HD
ATOM     21  H71 UNL     1      25.502  -3.646  -2.244  1.00  0.00     0.177 HD
ENDBRANCH   8  19
BRANCH   3  22
HETATM   22  C6  UNL     1      20.354  -1.537   0.410  1.00  0.00     0.289 C 
HETATM   23  O2  UNL     1      20.117  -2.024   1.518  1.00  0.00    -0.300 OA
ENDBRANCH   3  22
TORSDOF 4
ENDMDL
MODEL 3
REMARK VINA RESULT: -4.824000021      1.899      3.861
REMARK  4 active torsions:
REMARK  status: ('A' for Active; 'I' for Inactive)
REMARK       I    between atoms: N1_1  and  C1_4 
REMARK    1  A    between atoms: N3_6  and  C2_8 
REMARK    2  A    between atoms: C3_9  and  C4_10 
REMARK    3  A    between atoms: C5_13  and  C6_14 
REMARK    4  A    between atoms: N6_20  and  N7_21 
ROOT
HETATM    1  C2  UNL     1      22.567  -2.779  -2.846  1.00  0.00     0.151 A 
HETATM    2  C3  UNL     1      22.130  -2.309  -1.617  1.00  0.00     0.105 A 
HETATM    3  C5  UNL     1      20.789  -1.994  -1.482  1.00  0.00     0.093 A 
HETATM    4  N5  UNL     1      19.955  -2.159  -2.557  1.00  0.00    -0.303 N 
ATOM      5  H5  UNL     1      18.965  -1.930  -2.464  1.00  0.00     0.171 HD
HETATM    6  C7  UNL     1      20.416  -2.615  -3.725  1.00  0.00     0.347 A 
HETATM    7  O3  UNL     1      19.561  -2.733  -4.662  1.00  0.00    -0.245 OA
HETATM    8  N6  UNL     1      21.688  -2.928  -3.903  1.00  0.00    -0.194 N 
ENDROOT
BRANCH   1   9
HETATM    9  N3  UNL     1      23.721  -3.099  -3.098  1.00  0.00    -0.315 N 
HETATM   10  C1  UNL     1      24.895  -2.633  -3.531  1.00  0.00     0.187 C 
HETATM   11  N1  UNL     1      25.696  -1.898  -2.793  1.00  0.00    -0.373 N 
HETATM   12  N2  UNL     1      25.410  -2.940  -4.873  1.00  0.00    -0.064 NA
ATOM     13  H12 UNL     1      26.593  -1.541  -3.124  1.00  0.00     0.158 HD
ATOM     14  H11 UNL     1      25.338  -1.685  -1.862  1.00  0.00     0.158 HD
ATOM     15  H3  UNL     1      23.825  -4.095  -2.905  1.00  0.00     0.170 HD
ENDBRANCH   1   9
BRANCH   2  16
HETATM   16  C4  UNL     1      23.008  -2.115  -0.466  1.00  0.00     0.271 C 
HETATM   17  N4  UNL     1      23.168  -2.985   0.614  1.00  0.00    -0.057 NA
HETATM   18  O1  UNL     1      23.703  -1.034  -0.457  1.00  0.00    -0.271 OA
ENDBRANCH   2  16
BRANCH   8  19
HETATM   19  N7  UNL     1      22.128  -3.402  -5.144  1.00  0.00    -0.333 N 
ATOM     20  H72 UNL     1      22.281  -2.752  -5.915  1.00  0.00     0.177 HD
ATOM     21  H71 UNL     1      22.300  -4.396  -5.296  1.00  0.00     0.177 HD
ENDBRANCH   8  19
BRANCH   3  22
HETATM   22  C6  UNL     1      20.233  -1.467  -0.249  1.00  0.00     0.289 C 
HETATM   23  O2  UNL     1      19.815  -2.148   0.690  1.00  0.00    -0.300 OA
ENDBRANCH   3  22
TORSDOF 4
ENDMDL
MODEL 4
REMARK VINA RESULT: -4.744454782      2.575      2.620
REMARK  4 active torsions:
REMARK  status: ('A' for Active; 'I' for Inactive)
REMARK       I    between atoms: N1_1  and  C1_4 
REMARK    1  A    between atoms: N3_6  and  C2_8 
REMARK    2  A    between atoms: C3_9  and  C4_10 
REMARK    3  A    between atoms: C5_13  and  C6_14 
REMARK    4  A    between atoms: N6_20  and  N7_21 
ROOT
HETATM    1  C2  UNL     1      22.455  -3.155  -2.456  1.00  0.00     0.151 A 
HETATM    2  C3  UNL     1      21.365  -2.380  -2.091  1.00  0.00     0.105 A 
HETATM    3  C5  UNL     1      21.289  -1.943  -0.780  1.00  0.00     0.093 A 
HETATM    4  N5  UNL     1      22.286  -2.287   0.096  1.00  0.00    -0.303 N 
ATOM      5  H5  UNL     1      22.236  -1.967   1.063  1.00  0.00     0.171 HD
HETATM    6  C7  UNL     1      23.321  -3.035  -0.296  1.00  0.00     0.347 A 
HETATM    7  O3  UNL     1      24.194  -3.300   0.592  1.00  0.00    -0.245 OA
HETATM    8  N6  UNL     1      23.437  -3.478  -1.537  1.00  0.00    -0.194 N 
ENDROOT
BRANCH   1   9
HETATM    9  N3  UNL     1      22.648  -3.599  -3.580  1.00  0.00    -0.315 N 
HETATM   10  C1  UNL     1      22.549  -4.699  -4.330  1.00  0.00     0.187 C 
HETATM   11  N1  UNL     1      21.408  -5.158  -4.793  1.00  0.00    -0.373 N 
HETATM   12  N2  UNL     1      23.730  -5.474  -4.740  1.00  0.00    -0.064 NA
ATOM     13  H12 UNL     1      21.333  -5.999  -5.367  1.00  0.00     0.158 HD
ATOM     14  H11 UNL     1      20.589  -4.620  -4.508  1.00  0.00     0.158 HD
ATOM     15  H3  UNL     1      23.024  -2.849  -4.160  1.00  0.00     0.170 HD
ENDBRANCH   1   9
BRANCH   2  16
HETATM   16  C4  UNL     1      20.287  -2.016  -3.008  1.00  0.00     0.271 C 
HETATM   17  N4  UNL     1      19.474  -2.895  -3.726  1.00  0.00    -0.057 NA
HETATM   18  O1  UNL     1      20.071  -0.759  -3.160  1.00  0.00    -0.271 OA
ENDBRANCH   2  16
BRANCH   8  19
HETATM   19  N7  UNL     1      24.538  -4.259  -1.904  1.00  0.00    -0.333 N 
ATOM     20  H72 UNL     1      24.565  -5.250  -1.666  1.00  0.00     0.177 HD
ATOM     21  H71 UNL     1      25.324  -3.853  -2.411  1.00  0.00     0.177 HD
ENDBRANCH   8  19
BRANCH   3  22
HETATM   22  C6  UNL     1      20.176  -1.153  -0.286  1.00  0.00     0.289 C 
HETATM   23  O2  UNL     1      19.821  -1.084   0.893  1.00  0.00    -0.300 OA
ENDBRANCH   3  22
TORSDOF 4
ENDMDL
MODEL 5
REMARK VINA RESULT: -4.725421294      2.624      4.419
REMARK  4 active torsions:
REMARK  status: ('A' for Active; 'I' for Inactive)
REMARK       I    between atoms: N1_1  and  C1_4 
REMARK    1  A    between atoms: N3_6  and  C2_8 
REMARK    2  A    between atoms: C3_9  and  C4_10 
REMARK    3  A    between atoms: C5_13  and  C6_14 
REMARK    4  A    between atoms: N6_20  and  N7_21 
ROOT
HETATM    1  C2  UNL     1      22.306  -3.262  -2.624  1.00  0.00     0.151 A 
HETATM    2  C3  UNL     1      21.966  -2.435  -1.564  1.00  0.00     0.105 A 
HETATM    3  C5  UNL     1      20.749  -1.780  -1.617  1.00  0.00     0.093 A 
HETATM    4  N5  UNL     1      19.935  -1.974  -2.702  1.00  0.00    -0.303 N 
ATOM      5  H5  UNL     1      19.035  -1.495  -2.746  1.00  0.00     0.171 HD
HETATM    6  C7  UNL     1      20.299  -2.780  -3.703  1.00  0.00     0.347 A 
HETATM    7  O3  UNL     1      19.472  -2.894  -4.665  1.00  0.00    -0.245 OA
HETATM    8  N6  UNL     1      21.453  -3.427  -3.699  1.00  0.00    -0.194 N 
ENDROOT
BRANCH   1   9
HETATM    9  N3  UNL     1      23.346  -3.904  -2.700  1.00  0.00    -0.315 N 
HETATM   10  C1  UNL     1      24.008  -4.940  -2.180  1.00  0.00     0.187 C 
HETATM   11  N1  UNL     1      23.701  -6.193  -2.431  1.00  0.00    -0.373 N 
HETATM   12  N2  UNL     1      25.175  -4.760  -1.304  1.00  0.00    -0.064 NA
ATOM     13  H12 UNL     1      24.208  -6.985  -2.033  1.00  0.00     0.158 HD
ATOM     14  H11 UNL     1      22.891  -6.317  -3.039  1.00  0.00     0.158 HD
ATOM     15  H3  UNL     1      23.921  -3.494  -3.436  1.00  0.00     0.170 HD
ENDBRANCH   1   9
BRANCH   2  16
HETATM   16  C4  UNL     1      22.829  -2.207  -0.407  1.00  0.00     0.271 C 
HETATM   17  N4  UNL     1      23.944  -1.369  -0.353  1.00  0.00    -0.057 NA
HETATM   18  O1  UNL     1      22.520  -2.843   0.666  1.00  0.00    -0.271 OA
ENDBRANCH   2  16
BRANCH   8  19
HETATM   19  N7  UNL     1      21.793  -4.261  -4.769  1.00  0.00    -0.333 N 
ATOM     20  H72 UNL     1      21.963  -5.254  -4.609  1.00  0.00     0.177 HD
ATOM     21  H71 UNL     1      21.877  -3.893  -5.716  1.00  0.00     0.177 HD
ENDBRANCH   8  19
BRANCH   3  22
HETATM   22  C6  UNL     1      20.310  -0.868  -0.575  1.00  0.00     0.289 C 
HETATM   23  O2  UNL     1      19.602  -1.177   0.386  1.00  0.00    -0.300 OA
ENDBRANCH   3  22
TORSDOF 4
ENDMDL
