MODEL 1
REMARK VINA RESULT: -7.391377051      0.000      0.000
REMARK  7 active torsions:
REMARK  status: ('A' for Active; 'I' for Inactive)
REMARK    1  A    between atoms: C2_2  and  O1_3 
REMARK    2  A    between atoms: O1_3  and  C3_4 
REMARK    3  A    between atoms: C3_4  and  C4_6 
REMARK    4  A    between atoms: C5_7  and  C6_8 
REMARK    5  A    between atoms: C7_9  and  S1_10 
REMARK    6  A    between atoms: S1_10  and  N1_13 
REMARK    7  A    between atoms: N1_13  and  N2_15 
ROOT
HETATM    1  C6  UNL     1      15.006  -8.188 -27.183  1.00  0.00     0.012 A 
HETATM    2  C7  UNL     1      16.349  -8.130 -26.796  1.00  0.00     0.115 A 
HETATM    3  C8  UNL     1      16.772  -6.809 -26.819  1.00  0.00     0.032 A 
HETATM    4  C9  UNL     1      18.151  -6.374 -26.465  1.00  0.00     0.070 C 
HETATM    5  N3  UNL     1      15.746  -6.053 -27.205  1.00  0.00    -0.356 N 
HETATM    6  C10 UNL     1      15.766  -4.601 -27.360  1.00  0.00     0.156 C 
HETATM    7  C11 UNL     1      14.678  -6.875 -27.425  1.00  0.00     0.019 A 
HETATM    8  C12 UNL     1      13.350  -6.375 -27.871  1.00  0.00     0.069 C 
ENDROOT
BRANCH   2   9
HETATM    9  S1  UNL     1      17.380  -9.464 -26.360  1.00  0.00     0.278 S 
HETATM   10  O3  UNL     1      18.001 -10.010 -27.651  1.00  0.00    -0.199 OA
HETATM   11  O4  UNL     1      16.639 -10.558 -25.681  1.00  0.00    -0.199 OA
BRANCH   9  12
HETATM   12  N1  UNL     1      18.656  -8.948 -25.297  1.00  0.00    -0.229 N 
ATOM     13  H1  UNL     1      19.586  -8.680 -25.620  1.00  0.00     0.199 HD
BRANCH  12  14
HETATM   14  N2  UNL     1      18.275  -8.939 -23.961  1.00  0.00    -0.336 N 
ATOM     15  H22 UNL     1      17.397  -8.530 -23.641  1.00  0.00     0.177 HD
ATOM     16  H21 UNL     1      18.963  -9.379 -23.350  1.00  0.00     0.177 HD
ENDBRANCH  12  14
ENDBRANCH   9  12
ENDBRANCH   2   9
BRANCH   1  17
HETATM   17  C5  UNL     1      14.248  -9.412 -27.253  1.00  0.00     0.021 C 
HETATM   18  C4  UNL     1      13.214  -9.679 -28.014  1.00  0.00     0.083 C 
BRANCH  18  19
HETATM   19  C3  UNL     1      12.558 -11.001 -27.949  1.00  0.00     0.282 C 
HETATM   20  O2  UNL     1      12.537 -11.595 -26.853  1.00  0.00    -0.260 OA
BRANCH  19  21
HETATM   21  O1  UNL     1      11.966 -11.612 -29.039  1.00  0.00    -0.319 OA
BRANCH  21  22
HETATM   22  C2  UNL     1      10.993 -12.650 -28.850  1.00  0.00     0.174 C 
HETATM   23  C1  UNL     1       9.608 -12.170 -29.197  1.00  0.00     0.034 C 
ENDBRANCH  21  22
ENDBRANCH  19  21
ENDBRANCH  18  19
ENDBRANCH   1  17
TORSDOF 7
ENDMDL
MODEL 2
REMARK VINA RESULT: -6.994859917      1.033      1.045
REMARK  7 active torsions:
REMARK  status: ('A' for Active; 'I' for Inactive)
REMARK    1  A    between atoms: C2_2  and  O1_3 
REMARK    2  A    between atoms: O1_3  and  C3_4 
REMARK    3  A    between atoms: C3_4  and  C4_6 
REMARK    4  A    between atoms: C5_7  and  C6_8 
REMARK    5  A    between atoms: C7_9  and  S1_10 
REMARK    6  A    between atoms: S1_10  and  N1_13 
REMARK    7  A    between atoms: N1_13  and  N2_15 
ROOT
HETATM    1  C6  UNL     1      14.635  -7.611 -26.960  1.00  0.00     0.012 A 
HETATM    2  C7  UNL     1      15.854  -7.319 -26.340  1.00  0.00     0.115 A 
HETATM    3  C8  UNL     1      15.960  -5.946 -26.170  1.00  0.00     0.032 A 
HETATM    4  C9  UNL     1      17.132  -5.277 -25.541  1.00  0.00     0.070 C 
HETATM    5  N3  UNL     1      14.859  -5.383 -26.661  1.00  0.00    -0.356 N 
HETATM    6  C10 UNL     1      14.567  -3.952 -26.680  1.00  0.00     0.156 C 
HETATM    7  C11 UNL     1      14.055  -6.378 -27.138  1.00  0.00     0.019 A 
HETATM    8  C12 UNL     1      12.730  -6.119 -27.764  1.00  0.00     0.069 C 
ENDROOT
BRANCH   2   9
HETATM    9  S1  UNL     1      17.086  -8.448 -25.850  1.00  0.00     0.278 S 
HETATM   10  O3  UNL     1      18.229  -8.354 -26.866  1.00  0.00    -0.199 OA
HETATM   11  O4  UNL     1      16.591  -9.848 -25.808  1.00  0.00    -0.199 OA
BRANCH   9  12
HETATM   12  N1  UNL     1      17.703  -8.055 -24.271  1.00  0.00    -0.229 N 
ATOM     13  H1  UNL     1      17.726  -7.108 -23.894  1.00  0.00     0.199 HD
BRANCH  12  14
HETATM   14  N2  UNL     1      18.163  -9.169 -23.580  1.00  0.00    -0.336 N 
ATOM     15  H22 UNL     1      19.095  -9.560 -23.721  1.00  0.00     0.177 HD
ATOM     16  H21 UNL     1      17.474  -9.542 -22.927  1.00  0.00     0.177 HD
ENDBRANCH  12  14
ENDBRANCH   9  12
ENDBRANCH   2   9
BRANCH   1  17
HETATM   17  C5  UNL     1      14.198  -8.949 -27.271  1.00  0.00     0.021 C 
HETATM   18  C4  UNL     1      12.972  -9.412 -27.300  1.00  0.00     0.083 C 
BRANCH  18  19
HETATM   19  C3  UNL     1      12.713 -10.826 -27.644  1.00  0.00     0.282 C 
HETATM   20  O2  UNL     1      12.888 -11.688 -26.759  1.00  0.00    -0.260 OA
BRANCH  19  21
HETATM   21  O1  UNL     1      12.287 -11.241 -28.892  1.00  0.00    -0.319 OA
BRANCH  21  22
HETATM   22  C2  UNL     1      11.362 -12.332 -29.018  1.00  0.00     0.174 C 
HETATM   23  C1  UNL     1       9.938 -11.857 -28.895  1.00  0.00     0.034 C 
ENDBRANCH  21  22
ENDBRANCH  19  21
ENDBRANCH  18  19
ENDBRANCH   1  17
TORSDOF 7
ENDMDL
MODEL 3
REMARK VINA RESULT: -6.959402799      3.738      5.079
REMARK  7 active torsions:
REMARK  status: ('A' for Active; 'I' for Inactive)
REMARK    1  A    between atoms: C2_2  and  O1_3 
REMARK    2  A    between atoms: O1_3  and  C3_4 
REMARK    3  A    between atoms: C3_4  and  C4_6 
REMARK    4  A    between atoms: C5_7  and  C6_8 
REMARK    5  A    between atoms: C7_9  and  S1_10 
REMARK    6  A    between atoms: S1_10  and  N1_13 
REMARK    7  A    between atoms: N1_13  and  N2_15 
ROOT
HETATM    1  C6  UNL     1      15.724  -6.426 -27.665  1.00  0.00     0.012 A 
HETATM    2  C7  UNL     1      15.356  -5.489 -26.693  1.00  0.00     0.115 A 
HETATM    3  C8  UNL     1      14.500  -4.557 -27.260  1.00  0.00     0.032 A 
HETATM    4  C9  UNL     1      13.909  -3.412 -26.515  1.00  0.00     0.070 C 
HETATM    5  N3  UNL     1      14.328  -4.880 -28.540  1.00  0.00    -0.356 N 
HETATM    6  C10 UNL     1      13.497  -4.156 -29.499  1.00  0.00     0.156 C 
HETATM    7  C11 UNL     1      15.061  -6.004 -28.793  1.00  0.00     0.019 A 
HETATM    8  C12 UNL     1      15.109  -6.656 -30.129  1.00  0.00     0.069 C 
ENDROOT
BRANCH   2   9
HETATM    9  S1  UNL     1      15.867  -5.440 -25.029  1.00  0.00     0.278 S 
HETATM   10  O3  UNL     1      15.493  -6.784 -24.392  1.00  0.00    -0.199 OA
HETATM   11  O4  UNL     1      15.215  -4.346 -24.264  1.00  0.00    -0.199 OA
BRANCH   9  12
HETATM   12  N1  UNL     1      17.588  -5.220 -24.908  1.00  0.00    -0.229 N 
ATOM     13  H1  UNL     1      18.267  -5.790 -25.414  1.00  0.00     0.199 HD
BRANCH  12  14
HETATM   14  N2  UNL     1      17.941  -4.187 -24.050  1.00  0.00    -0.336 N 
ATOM     15  H22 UNL     1      17.266  -3.509 -23.698  1.00  0.00     0.177 HD
ATOM     16  H21 UNL     1      18.934  -4.186 -23.818  1.00  0.00     0.177 HD
ENDBRANCH  12  14
ENDBRANCH   9  12
ENDBRANCH   2   9
BRANCH   1  17
HETATM   17  C5  UNL     1      16.597  -7.543 -27.406  1.00  0.00     0.021 C 
HETATM   18  C4  UNL     1      16.264  -8.786 -27.152  1.00  0.00     0.083 C 
BRANCH  18  19
HETATM   19  C3  UNL     1      17.305  -9.806 -26.909  1.00  0.00     0.282 C 
HETATM   20  O2  UNL     1      18.113 -10.052 -27.828  1.00  0.00    -0.260 OA
BRANCH  19  21
HETATM   21  O1  UNL     1      17.431 -10.497 -25.719  1.00  0.00    -0.319 OA
BRANCH  21  22
HETATM   22  C2  UNL     1      18.561 -10.268 -24.862  1.00  0.00     0.174 C 
HETATM   23  C1  UNL     1      18.254  -9.221 -23.824  1.00  0.00     0.034 C 
ENDBRANCH  21  22
ENDBRANCH  19  21
ENDBRANCH  18  19
ENDBRANCH   1  17
TORSDOF 7
ENDMDL
MODEL 4
REMARK VINA RESULT: -6.929523469      4.912      6.824
REMARK  7 active torsions:
REMARK  status: ('A' for Active; 'I' for Inactive)
REMARK    1  A    between atoms: C2_2  and  O1_3 
REMARK    2  A    between atoms: O1_3  and  C3_4 
REMARK    3  A    between atoms: C3_4  and  C4_6 
REMARK    4  A    between atoms: C5_7  and  C6_8 
REMARK    5  A    between atoms: C7_9  and  S1_10 
REMARK    6  A    between atoms: S1_10  and  N1_13 
REMARK    7  A    between atoms: N1_13  and  N2_15 
ROOT
HETATM    1  C6  UNL     1      10.795  -7.873 -28.224  1.00  0.00     0.012 A 
HETATM    2  C7  UNL     1      10.556  -6.629 -28.819  1.00  0.00     0.115 A 
HETATM    3  C8  UNL     1      11.650  -5.805 -28.603  1.00  0.00     0.032 A 
HETATM    4  C9  UNL     1      11.742  -4.403 -29.097  1.00  0.00     0.070 C 
HETATM    5  N3  UNL     1      12.551  -6.488 -27.901  1.00  0.00    -0.356 N 
HETATM    6  C10 UNL     1      13.850  -5.987 -27.461  1.00  0.00     0.156 C 
HETATM    7  C11 UNL     1      12.045  -7.735 -27.668  1.00  0.00     0.019 A 
HETATM    8  C12 UNL     1      12.781  -8.779 -26.906  1.00  0.00     0.069 C 
ENDROOT
BRANCH   2   9
HETATM    9  S1  UNL     1       9.132  -6.132 -29.688  1.00  0.00     0.278 S 
HETATM   10  O3  UNL     1       8.505  -4.964 -28.918  1.00  0.00    -0.199 OA
HETATM   11  O4  UNL     1       8.130  -7.222 -29.811  1.00  0.00    -0.199 OA
BRANCH   9  12
HETATM   12  N1  UNL     1       9.533  -5.596 -31.293  1.00  0.00    -0.229 N 
ATOM     13  H1  UNL     1       9.667  -4.616 -31.544  1.00  0.00     0.199 HD
BRANCH  12  14
HETATM   14  N2  UNL     1       9.651  -6.644 -32.198  1.00  0.00    -0.336 N 
ATOM     15  H22 UNL     1       8.863  -6.993 -32.743  1.00  0.00     0.177 HD
ATOM     16  H21 UNL     1      10.599  -7.015 -32.253  1.00  0.00     0.177 HD
ENDBRANCH  12  14
ENDBRANCH   9  12
ENDBRANCH   2   9
BRANCH   1  17
HETATM   17  C5  UNL     1       9.864  -8.973 -28.272  1.00  0.00     0.021 C 
HETATM   18  C4  UNL     1       9.168  -9.485 -27.285  1.00  0.00     0.083 C 
BRANCH  18  19
HETATM   19  C3  UNL     1       8.255 -10.622 -27.525  1.00  0.00     0.282 C 
HETATM   20  O2  UNL     1       8.618 -11.510 -28.321  1.00  0.00    -0.260 OA
BRANCH  19  21
HETATM   21  O1  UNL     1       7.023 -10.751 -26.911  1.00  0.00    -0.319 OA
BRANCH  21  22
HETATM   22  C2  UNL     1       6.858 -10.388 -25.532  1.00  0.00     0.174 C 
HETATM   23  C1  UNL     1       6.030  -9.137 -25.393  1.00  0.00     0.034 C 
ENDBRANCH  21  22
ENDBRANCH  19  21
ENDBRANCH  18  19
ENDBRANCH   1  17
TORSDOF 7
ENDMDL
MODEL 5
REMARK VINA RESULT: -6.853418984      6.162      8.421
REMARK  7 active torsions:
REMARK  status: ('A' for Active; 'I' for Inactive)
REMARK    1  A    between atoms: C2_2  and  O1_3 
REMARK    2  A    between atoms: O1_3  and  C3_4 
REMARK    3  A    between atoms: C3_4  and  C4_6 
REMARK    4  A    between atoms: C5_7  and  C6_8 
REMARK    5  A    between atoms: C7_9  and  S1_10 
REMARK    6  A    between atoms: S1_10  and  N1_13 
REMARK    7  A    between atoms: N1_13  and  N2_15 
ROOT
HETATM    1  C6  UNL     1      16.409  -2.155 -23.540  1.00  0.00     0.012 A 
HETATM    2  C7  UNL     1      15.246  -1.819 -22.838  1.00  0.00     0.115 A 
HETATM    3  C8  UNL     1      15.566  -0.922 -21.830  1.00  0.00     0.032 A 
HETATM    4  C9  UNL     1      14.570  -0.349 -20.883  1.00  0.00     0.070 C 
HETATM    5  N3  UNL     1      16.876  -0.693 -21.881  1.00  0.00    -0.356 N 
HETATM    6  C10 UNL     1      17.623   0.194 -20.993  1.00  0.00     0.156 C 
HETATM    7  C11 UNL     1      17.392  -1.431 -22.907  1.00  0.00     0.019 A 
HETATM    8  C12 UNL     1      18.837  -1.426 -23.262  1.00  0.00     0.069 C 
ENDROOT
BRANCH   2   9
HETATM    9  S1  UNL     1      13.633  -2.408 -23.128  1.00  0.00     0.278 S 
HETATM   10  O3  UNL     1      13.356  -3.517 -22.106  1.00  0.00    -0.199 OA
HETATM   11  O4  UNL     1      13.465  -2.960 -24.496  1.00  0.00    -0.199 OA
BRANCH   9  12
HETATM   12  N1  UNL     1      12.457  -1.144 -22.917  1.00  0.00    -0.229 N 
ATOM     13  H1  UNL     1      12.522  -0.231 -23.369  1.00  0.00     0.199 HD
BRANCH  12  14
HETATM   14  N2  UNL     1      11.419  -1.508 -22.068  1.00  0.00    -0.336 N 
ATOM     15  H22 UNL     1      10.969  -2.422 -22.109  1.00  0.00     0.177 HD
ATOM     16  H21 UNL     1      11.166  -0.769 -21.413  1.00  0.00     0.177 HD
ENDBRANCH  12  14
ENDBRANCH   9  12
ENDBRANCH   2   9
BRANCH   1  17
HETATM   17  C5  UNL     1      16.431  -3.057 -24.664  1.00  0.00     0.021 C 
HETATM   18  C4  UNL     1      16.972  -4.250 -24.731  1.00  0.00     0.083 C 
BRANCH  18  19
HETATM   19  C3  UNL     1      16.896  -5.036 -25.980  1.00  0.00     0.282 C 
HETATM   20  O2  UNL     1      15.893  -4.890 -26.707  1.00  0.00    -0.260 OA
BRANCH  19  21
HETATM   21  O1  UNL     1      17.877  -5.923 -26.382  1.00  0.00    -0.319 OA
BRANCH  21  22
HETATM   22  C2  UNL     1      17.568  -7.313 -26.567  1.00  0.00     0.174 C 
HETATM   23  C1  UNL     1      17.099  -7.943 -25.282  1.00  0.00     0.034 C 
ENDBRANCH  21  22
ENDBRANCH  19  21
ENDBRANCH  18  19
ENDBRANCH   1  17
TORSDOF 7
ENDMDL
