MODEL 1
REMARK VINA RESULT: -5.789474969      0.000      0.000
REMARK  8 active torsions:
REMARK  status: ('A' for Active; 'I' for Inactive)
REMARK    1  A    between atoms: C2_2  and  O1_3 
REMARK    2  A    between atoms: O1_3  and  C3_4 
REMARK    3  A    between atoms: C3_4  and  C4_5 
REMARK    4  A    between atoms: C4_5  and  N1_6 
REMARK    5  A    between atoms: N1_6  and  S1_8 
REMARK    6  A    between atoms: S1_8  and  O4_11 
REMARK    7  A    between atoms: O4_11  and  C5_12 
REMARK    8  A    between atoms: C7_17  and  C8_18 
ROOT
HETATM    1  C5  UNL     1     -33.517  -8.327  11.328  1.00  0.00     0.259 C 
HETATM    2  C6  UNL     1     -33.885  -6.936  11.713  1.00  0.00     0.250 C 
HETATM    3  O5  UNL     1     -34.711  -6.450  12.547  1.00  0.00    -0.271 OA
HETATM    4  N2  UNL     1     -32.939  -6.449  10.769  1.00  0.00    -0.350 N 
ATOM      5  H2  UNL     1     -32.702  -5.517  10.430  1.00  0.00     0.163 HD
HETATM    6  C7  UNL     1     -32.440  -7.775  10.466  1.00  0.00     0.132 C 
ENDROOT
BRANCH   1   7
HETATM    7  O4  UNL     1     -34.494  -8.953  10.589  1.00  0.00    -0.242 OA
BRANCH   7   8
HETATM    8  S1  UNL     1     -35.686  -9.644  11.531  1.00  0.00     0.358 S 
HETATM    9  O2  UNL     1     -35.196 -10.127  12.848  1.00  0.00    -0.176 OA
HETATM   10  O3  UNL     1     -36.344 -10.794  10.818  1.00  0.00    -0.176 OA
BRANCH   8  11
HETATM   11  N1  UNL     1     -36.913  -8.465  11.832  1.00  0.00    -0.295 N 
ATOM     12  H1  UNL     1     -37.059  -7.588  11.332  1.00  0.00     0.174 HD
BRANCH  11  13
HETATM   13  C4  UNL     1     -37.704  -8.989  12.963  1.00  0.00     0.160 C 
BRANCH  13  14
HETATM   14  C3  UNL     1     -39.146  -9.015  12.588  1.00  0.00     0.188 C 
BRANCH  14  15
HETATM   15  O1  UNL     1     -39.423  -9.800  11.511  1.00  0.00    -0.390 OA
BRANCH  15  16
HETATM   16  C2  UNL     1     -40.566  -9.355  10.866  1.00  0.00     0.163 C 
HETATM   17  C1  UNL     1     -40.760 -10.209   9.626  1.00  0.00     0.033 C 
ENDBRANCH  15  16
ENDBRANCH  14  15
ENDBRANCH  13  14
ENDBRANCH  11  13
ENDBRANCH   8  11
ENDBRANCH   7   8
ENDBRANCH   1   7
BRANCH   6  18
HETATM   18  C8  UNL     1     -31.025  -7.936  10.973  1.00  0.00    -0.016 C 
HETATM   19  C9  UNL     1     -30.317  -9.045  10.224  1.00  0.00     0.016 C 
HETATM   20  C10 UNL     1     -28.881  -9.102  10.667  1.00  0.00    -0.013 C 
HETATM   21  C11 UNL     1     -28.800  -9.376  12.158  1.00  0.00     0.009 C 
HETATM   22  C15 UNL     1     -28.150  -7.811  10.407  1.00  0.00     0.009 C 
HETATM   23  C12 UNL     1     -29.531  -8.269  12.878  1.00  0.00    -0.013 C 
HETATM   24  C13 UNL     1     -28.907  -6.918  12.621  1.00  0.00     0.009 C 
HETATM   25  C17 UNL     1     -30.962  -8.263  12.440  1.00  0.00     0.016 C 
HETATM   26  C14 UNL     1     -28.848  -6.708  11.134  1.00  0.00    -0.013 C 
HETATM   27  C16 UNL     1     -30.295  -6.647  10.645  1.00  0.00     0.016 C 
ENDBRANCH   6  18
TORSDOF 8
ENDMDL
MODEL 2
REMARK VINA RESULT: -5.663537395      1.192      1.255
REMARK  8 active torsions:
REMARK  status: ('A' for Active; 'I' for Inactive)
REMARK    1  A    between atoms: C2_2  and  O1_3 
REMARK    2  A    between atoms: O1_3  and  C3_4 
REMARK    3  A    between atoms: C3_4  and  C4_5 
REMARK    4  A    between atoms: C4_5  and  N1_6 
REMARK    5  A    between atoms: N1_6  and  S1_8 
REMARK    6  A    between atoms: S1_8  and  O4_11 
REMARK    7  A    between atoms: O4_11  and  C5_12 
REMARK    8  A    between atoms: C7_17  and  C8_18 
ROOT
HETATM    1  C5  UNL     1     -33.484  -8.206  11.354  1.00  0.00     0.259 C 
HETATM    2  C6  UNL     1     -33.815  -6.793  11.691  1.00  0.00     0.250 C 
HETATM    3  O5  UNL     1     -34.614  -6.258  12.522  1.00  0.00    -0.271 OA
HETATM    4  N2  UNL     1     -32.880  -6.364  10.710  1.00  0.00    -0.350 N 
ATOM      5  H2  UNL     1     -32.631  -5.451  10.330  1.00  0.00     0.163 HD
HETATM    6  C7  UNL     1     -32.414  -7.711  10.450  1.00  0.00     0.132 C 
ENDROOT
BRANCH   1   7
HETATM    7  O4  UNL     1     -34.488  -8.839  10.660  1.00  0.00    -0.242 OA
BRANCH   7   8
HETATM    8  S1  UNL     1     -35.610  -9.574  11.655  1.00  0.00     0.358 S 
HETATM    9  O2  UNL     1     -35.013 -10.186  12.871  1.00  0.00    -0.176 OA
HETATM   10  O3  UNL     1     -36.380 -10.635  10.918  1.00  0.00    -0.176 OA
BRANCH   8  11
HETATM   11  N1  UNL     1     -36.753  -8.388  12.177  1.00  0.00    -0.295 N 
ATOM     12  H1  UNL     1     -36.596  -7.385  12.282  1.00  0.00     0.174 HD
BRANCH  11  13
HETATM   13  C4  UNL     1     -38.005  -9.126  12.441  1.00  0.00     0.160 C 
BRANCH  13  14
HETATM   14  C3  UNL     1     -38.315  -9.067  13.898  1.00  0.00     0.188 C 
BRANCH  14  15
HETATM   15  O1  UNL     1     -39.397  -9.809  14.262  1.00  0.00    -0.390 OA
BRANCH  15  16
HETATM   16  C2  UNL     1     -40.571  -9.165  13.904  1.00  0.00     0.163 C 
HETATM   17  C1  UNL     1     -41.686 -10.196  13.917  1.00  0.00     0.033 C 
ENDBRANCH  15  16
ENDBRANCH  14  15
ENDBRANCH  13  14
ENDBRANCH  11  13
ENDBRANCH   8  11
ENDBRANCH   7   8
ENDBRANCH   1   7
BRANCH   6  18
HETATM   18  C8  UNL     1     -30.993  -7.882  10.935  1.00  0.00    -0.016 C 
HETATM   19  C9  UNL     1     -30.301  -8.989  10.167  1.00  0.00     0.016 C 
HETATM   20  C10 UNL     1     -28.859  -9.055  10.588  1.00  0.00    -0.013 C 
HETATM   21  C11 UNL     1     -28.757  -9.340  12.076  1.00  0.00     0.009 C 
HETATM   22  C15 UNL     1     -28.126  -7.765  10.326  1.00  0.00     0.009 C 
HETATM   23  C12 UNL     1     -29.472  -8.234  12.814  1.00  0.00    -0.013 C 
HETATM   24  C13 UNL     1     -28.845  -6.884  12.557  1.00  0.00     0.009 C 
HETATM   25  C17 UNL     1     -30.909  -8.218  12.398  1.00  0.00     0.016 C 
HETATM   26  C14 UNL     1     -28.808  -6.664  11.071  1.00  0.00    -0.013 C 
HETATM   27  C16 UNL     1     -30.261  -6.594  10.604  1.00  0.00     0.016 C 
ENDBRANCH   6  18
TORSDOF 8
ENDMDL
MODEL 3
REMARK VINA RESULT: -5.621201563      0.722      1.549
REMARK  8 active torsions:
REMARK  status: ('A' for Active; 'I' for Inactive)
REMARK    1  A    between atoms: C2_2  and  O1_3 
REMARK    2  A    between atoms: O1_3  and  C3_4 
REMARK    3  A    between atoms: C3_4  and  C4_5 
REMARK    4  A    between atoms: C4_5  and  N1_6 
REMARK    5  A    between atoms: N1_6  and  S1_8 
REMARK    6  A    between atoms: S1_8  and  O4_11 
REMARK    7  A    between atoms: O4_11  and  C5_12 
REMARK    8  A    between atoms: C7_17  and  C8_18 
ROOT
HETATM    1  C5  UNL     1     -33.996  -7.704  11.740  1.00  0.00     0.259 C 
HETATM    2  C6  UNL     1     -34.130  -6.244  12.004  1.00  0.00     0.250 C 
HETATM    3  O5  UNL     1     -34.790  -5.568  12.853  1.00  0.00    -0.271 OA
HETATM    4  N2  UNL     1     -33.233  -5.992  10.930  1.00  0.00    -0.350 N 
ATOM      5  H2  UNL     1     -32.910  -5.140  10.472  1.00  0.00     0.163 HD
HETATM    6  C7  UNL     1     -32.952  -7.398  10.729  1.00  0.00     0.132 C 
ENDROOT
BRANCH   1   7
HETATM    7  O4  UNL     1     -35.121  -8.249  11.167  1.00  0.00    -0.242 OA
BRANCH   7   8
HETATM    8  S1  UNL     1     -35.671  -9.609  11.965  1.00  0.00     0.358 S 
HETATM    9  O2  UNL     1     -34.620 -10.292  12.764  1.00  0.00    -0.176 OA
HETATM   10  O3  UNL     1     -36.258 -10.605  11.002  1.00  0.00    -0.176 OA
BRANCH   8  11
HETATM   11  N1  UNL     1     -36.933  -9.147  13.050  1.00  0.00    -0.295 N 
ATOM     12  H1  UNL     1     -37.017  -9.392  14.036  1.00  0.00     0.174 HD
BRANCH  11  13
HETATM   13  C4  UNL     1     -37.865  -8.323  12.253  1.00  0.00     0.160 C 
BRANCH  13  14
HETATM   14  C3  UNL     1     -39.226  -8.927  12.305  1.00  0.00     0.188 C 
BRANCH  14  15
HETATM   15  O1  UNL     1     -39.434  -9.901  11.377  1.00  0.00    -0.390 OA
BRANCH  15  16
HETATM   16  C2  UNL     1     -40.756  -9.900  10.959  1.00  0.00     0.163 C 
HETATM   17  C1  UNL     1     -40.768 -10.170   9.465  1.00  0.00     0.033 C 
ENDBRANCH  15  16
ENDBRANCH  14  15
ENDBRANCH  13  14
ENDBRANCH  11  13
ENDBRANCH   8  11
ENDBRANCH   7   8
ENDBRANCH   1   7
BRANCH   6  18
HETATM   18  C8  UNL     1     -31.527  -7.714  11.118  1.00  0.00    -0.016 C 
HETATM   19  C9  UNL     1     -31.483  -8.367  12.484  1.00  0.00     0.016 C 
HETATM   20  C10 UNL     1     -30.069  -8.775  12.791  1.00  0.00    -0.013 C 
HETATM   21  C11 UNL     1     -29.157  -7.560  12.789  1.00  0.00     0.009 C 
HETATM   22  C15 UNL     1     -29.521  -9.750  11.781  1.00  0.00     0.009 C 
HETATM   23  C12 UNL     1     -29.237  -6.919  11.426  1.00  0.00    -0.013 C 
HETATM   24  C13 UNL     1     -28.769  -7.850  10.332  1.00  0.00     0.009 C 
HETATM   25  C17 UNL     1     -30.648  -6.494  11.166  1.00  0.00     0.016 C 
HETATM   26  C14 UNL     1     -29.570  -9.118  10.428  1.00  0.00    -0.013 C 
HETATM   27  C16 UNL     1     -31.020  -8.741  10.123  1.00  0.00     0.016 C 
ENDBRANCH   6  18
TORSDOF 8
ENDMDL
MODEL 4
REMARK VINA RESULT: -5.610857028      1.180      1.908
REMARK  8 active torsions:
REMARK  status: ('A' for Active; 'I' for Inactive)
REMARK    1  A    between atoms: C2_2  and  O1_3 
REMARK    2  A    between atoms: O1_3  and  C3_4 
REMARK    3  A    between atoms: C3_4  and  C4_5 
REMARK    4  A    between atoms: C4_5  and  N1_6 
REMARK    5  A    between atoms: N1_6  and  S1_8 
REMARK    6  A    between atoms: S1_8  and  O4_11 
REMARK    7  A    between atoms: O4_11  and  C5_12 
REMARK    8  A    between atoms: C7_17  and  C8_18 
ROOT
HETATM    1  C5  UNL     1     -33.563  -8.149  11.340  1.00  0.00     0.259 C 
HETATM    2  C6  UNL     1     -33.933  -6.742  11.659  1.00  0.00     0.250 C 
HETATM    3  O5  UNL     1     -34.750  -6.219  12.480  1.00  0.00    -0.271 OA
HETATM    4  N2  UNL     1     -33.004  -6.299  10.678  1.00  0.00    -0.350 N 
ATOM      5  H2  UNL     1     -32.777  -5.384  10.290  1.00  0.00     0.163 HD
HETATM    6  C7  UNL     1     -32.501  -7.636  10.436  1.00  0.00     0.132 C 
ENDROOT
BRANCH   1   7
HETATM    7  O4  UNL     1     -34.546  -8.816  10.647  1.00  0.00    -0.242 OA
BRANCH   7   8
HETATM    8  S1  UNL     1     -35.660  -9.560  11.645  1.00  0.00     0.358 S 
HETATM    9  O2  UNL     1     -35.057 -10.159  12.864  1.00  0.00    -0.176 OA
HETATM   10  O3  UNL     1     -36.415 -10.635  10.911  1.00  0.00    -0.176 OA
BRANCH   8  11
HETATM   11  N1  UNL     1     -36.819  -8.387  12.159  1.00  0.00    -0.295 N 
ATOM     12  H1  UNL     1     -36.673  -7.382  12.262  1.00  0.00     0.174 HD
BRANCH  11  13
HETATM   13  C4  UNL     1     -38.063  -9.138  12.420  1.00  0.00     0.160 C 
BRANCH  13  14
HETATM   14  C3  UNL     1     -38.383  -9.075  13.874  1.00  0.00     0.188 C 
BRANCH  14  15
HETATM   15  O1  UNL     1     -39.473  -9.807  14.233  1.00  0.00    -0.390 OA
BRANCH  15  16
HETATM   16  C2  UNL     1     -40.639  -9.150  13.875  1.00  0.00     0.163 C 
HETATM   17  C1  UNL     1     -41.744 -10.187  13.778  1.00  0.00     0.033 C 
ENDBRANCH  15  16
ENDBRANCH  14  15
ENDBRANCH  13  14
ENDBRANCH  11  13
ENDBRANCH   8  11
ENDBRANCH   7   8
ENDBRANCH   1   7
BRANCH   6  18
HETATM   18  C8  UNL     1     -31.079  -7.764  10.930  1.00  0.00    -0.016 C 
HETATM   19  C9  UNL     1     -31.060  -8.162  12.390  1.00  0.00     0.016 C 
HETATM   20  C10 UNL     1     -29.638  -8.397  12.820  1.00  0.00    -0.013 C 
HETATM   21  C11 UNL     1     -28.817  -7.132  12.636  1.00  0.00     0.009 C 
HETATM   22  C15 UNL     1     -28.970  -9.486  12.022  1.00  0.00     0.009 C 
HETATM   23  C12 UNL     1     -28.871  -6.748  11.178  1.00  0.00    -0.013 C 
HETATM   24  C13 UNL     1     -28.281  -7.816  10.288  1.00  0.00     0.009 C 
HETATM   25  C17 UNL     1     -30.293  -6.489  10.793  1.00  0.00     0.016 C 
HETATM   26  C14 UNL     1     -28.994  -9.107  10.577  1.00  0.00    -0.013 C 
HETATM   27  C16 UNL     1     -30.449  -8.906  10.155  1.00  0.00     0.016 C 
ENDBRANCH   6  18
TORSDOF 8
ENDMDL
MODEL 5
REMARK VINA RESULT: -5.515923622     10.417     11.874
REMARK  8 active torsions:
REMARK  status: ('A' for Active; 'I' for Inactive)
REMARK    1  A    between atoms: C2_2  and  O1_3 
REMARK    2  A    between atoms: O1_3  and  C3_4 
REMARK    3  A    between atoms: C3_4  and  C4_5 
REMARK    4  A    between atoms: C4_5  and  N1_6 
REMARK    5  A    between atoms: N1_6  and  S1_8 
REMARK    6  A    between atoms: S1_8  and  O4_11 
REMARK    7  A    between atoms: O4_11  and  C5_12 
REMARK    8  A    between atoms: C7_17  and  C8_18 
ROOT
HETATM    1  C5  UNL     1     -31.662   0.663   5.303  1.00  0.00     0.259 C 
HETATM    2  C6  UNL     1     -30.844   0.910   6.523  1.00  0.00     0.250 C 
HETATM    3  O5  UNL     1     -30.780   0.346   7.660  1.00  0.00    -0.271 OA
HETATM    4  N2  UNL     1     -30.217   1.997   5.855  1.00  0.00    -0.350 N 
ATOM      5  H2  UNL     1     -29.553   2.712   6.149  1.00  0.00     0.163 HD
HETATM    6  C7  UNL     1     -30.876   1.708   4.597  1.00  0.00     0.132 C 
ENDROOT
BRANCH   1   7
HETATM    7  O4  UNL     1     -32.978   1.031   5.459  1.00  0.00    -0.242 OA
BRANCH   7   8
HETATM    8  S1  UNL     1     -34.035   0.063   4.601  1.00  0.00     0.358 S 
HETATM    9  O2  UNL     1     -33.877   0.174   3.127  1.00  0.00    -0.176 OA
HETATM   10  O3  UNL     1     -35.465   0.374   4.951  1.00  0.00    -0.176 OA
BRANCH   8  11
HETATM   11  N1  UNL     1     -33.754  -1.586   5.031  1.00  0.00    -0.295 N 
ATOM     12  H1  UNL     1     -32.855  -2.066   5.081  1.00  0.00     0.174 HD
BRANCH  11  13
HETATM   13  C4  UNL     1     -35.086  -2.160   5.313  1.00  0.00     0.160 C 
BRANCH  13  14
HETATM   14  C3  UNL     1     -35.640  -2.758   4.065  1.00  0.00     0.188 C 
BRANCH  14  15
HETATM   15  O1  UNL     1     -34.701  -3.332   3.263  1.00  0.00    -0.390 OA
BRANCH  15  16
HETATM   16  C2  UNL     1     -34.931  -3.007   1.936  1.00  0.00     0.163 C 
HETATM   17  C1  UNL     1     -36.390  -3.301   1.634  1.00  0.00     0.033 C 
ENDBRANCH  15  16
ENDBRANCH  14  15
ENDBRANCH  13  14
ENDBRANCH  11  13
ENDBRANCH   8  11
ENDBRANCH   7   8
ENDBRANCH   1   7
BRANCH   6  18
HETATM   18  C8  UNL     1     -29.876   1.220   3.575  1.00  0.00    -0.016 C 
HETATM   19  C9  UNL     1     -30.556   0.972   2.246  1.00  0.00     0.016 C 
HETATM   20  C10 UNL     1     -29.518   0.602   1.222  1.00  0.00    -0.013 C 
HETATM   21  C11 UNL     1     -28.781  -0.655   1.648  1.00  0.00     0.009 C 
HETATM   22  C15 UNL     1     -28.488   1.685   1.034  1.00  0.00     0.009 C 
HETATM   23  C12 UNL     1     -28.132  -0.386   2.983  1.00  0.00    -0.013 C 
HETATM   24  C13 UNL     1     -27.125   0.737   2.909  1.00  0.00     0.009 C 
HETATM   25  C17 UNL     1     -29.194  -0.056   3.985  1.00  0.00     0.016 C 
HETATM   26  C14 UNL     1     -27.819   1.945   2.344  1.00  0.00    -0.013 C 
HETATM   27  C16 UNL     1     -28.886   2.350   3.359  1.00  0.00     0.016 C 
ENDBRANCH   6  18
TORSDOF 8
ENDMDL
