MODEL 1
REMARK VINA RESULT: -7.068410510      0.000      0.000
REMARK  0 active torsions:
REMARK  status: ('A' for Active; 'I' for Inactive)
REMARK       I    between atoms: N1_1  and  C1_4 
ROOT
HETATM    1  N1  UNL     1     -37.212 -30.087  -7.254  1.00  0.00    -0.234 N 
ATOM      2  H11 UNL     1     -36.936 -30.871  -7.844  1.00  0.00     0.174 HD
ATOM      3  H12 UNL     1     -38.160 -29.845  -6.965  1.00  0.00     0.174 HD
HETATM    4  C1  UNL     1     -36.311 -29.283  -6.797  1.00  0.00     0.681 C 
HETATM    5  N2  UNL     1     -36.672 -28.257  -6.025  1.00  0.00    -0.163 N 
ATOM      6  H2  UNL     1     -37.675 -28.067  -6.029  1.00  0.00     0.187 HD
HETATM    7  C2  UNL     1     -35.963 -27.427  -5.244  1.00  0.00     0.209 C 
HETATM    8  N3  UNL     1     -36.679 -26.583  -4.347  1.00  0.00    -0.062 NA
HETATM    9  N4  UNL     1     -34.605 -27.328  -5.241  1.00  0.00    -0.292 N 
ATOM     10  H4  UNL     1     -34.228 -26.484  -4.809  1.00  0.00     0.172 HD
HETATM   11  C3  UNL     1     -33.686 -28.188  -5.729  1.00  0.00     0.316 C 
HETATM   12  O1  UNL     1     -32.517 -28.152  -5.263  1.00  0.00    -0.262 OA
HETATM   13  C4  UNL     1     -33.875 -29.132  -6.708  1.00  0.00     0.328 C 
HETATM   14  O2  UNL     1     -32.823 -29.605  -7.213  1.00  0.00    -0.261 OA
HETATM   15  N5  UNL     1     -35.061 -29.602  -7.179  1.00  0.00    -0.152 N 
ATOM     16  H5  UNL     1     -34.994 -30.292  -7.927  1.00  0.00     0.188 HD
ENDROOT
TORSDOF 0
ENDMDL
MODEL 2
REMARK VINA RESULT: -6.863854418      0.344      2.845
REMARK  0 active torsions:
REMARK  status: ('A' for Active; 'I' for Inactive)
REMARK       I    between atoms: N1_1  and  C1_4 
ROOT
HETATM    1  N1  UNL     1     -36.733 -26.614  -4.917  1.00  0.00    -0.234 N 
ATOM      2  H11 UNL     1     -36.270 -25.922  -4.327  1.00  0.00     0.174 HD
ATOM      3  H12 UNL     1     -37.721 -26.637  -5.168  1.00  0.00     0.174 HD
HETATM    4  C1  UNL     1     -36.048 -27.583  -5.424  1.00  0.00     0.681 C 
HETATM    5  N2  UNL     1     -36.654 -28.487  -6.195  1.00  0.00    -0.163 N 
ATOM      6  H2  UNL     1     -37.672 -28.455  -6.150  1.00  0.00     0.187 HD
HETATM    7  C2  UNL     1     -36.173 -29.432  -7.018  1.00  0.00     0.209 C 
HETATM    8  N3  UNL     1     -37.091 -30.079  -7.896  1.00  0.00    -0.062 NA
HETATM    9  N4  UNL     1     -34.870 -29.824  -7.081  1.00  0.00    -0.292 N 
ATOM     10  H4  UNL     1     -34.704 -30.719  -7.542  1.00  0.00     0.172 HD
HETATM   11  C3  UNL     1     -33.768 -29.196  -6.621  1.00  0.00     0.316 C 
HETATM   12  O1  UNL     1     -32.654 -29.474  -7.138  1.00  0.00    -0.262 OA
HETATM   13  C4  UNL     1     -33.708 -28.257  -5.621  1.00  0.00     0.328 C 
HETATM   14  O2  UNL     1     -32.559 -28.037  -5.155  1.00  0.00    -0.261 OA
HETATM   15  N5  UNL     1     -34.744 -27.553  -5.092  1.00  0.00    -0.152 N 
ATOM     16  H5  UNL     1     -34.499 -26.912  -4.338  1.00  0.00     0.188 HD
ENDROOT
TORSDOF 0
ENDMDL
MODEL 3
REMARK VINA RESULT: -6.839714808      2.149      3.158
REMARK  0 active torsions:
REMARK  status: ('A' for Active; 'I' for Inactive)
REMARK       I    between atoms: N1_1  and  C1_4 
ROOT
HETATM    1  N1  UNL     1     -36.480 -30.130  -7.943  1.00  0.00    -0.234 N 
ATOM      2  H11 UNL     1     -37.489 -30.062  -8.078  1.00  0.00     0.174 HD
ATOM      3  H12 UNL     1     -35.836 -30.729  -8.459  1.00  0.00     0.174 HD
HETATM    4  C1  UNL     1     -35.906 -29.408  -7.041  1.00  0.00     0.681 C 
HETATM    5  N2  UNL     1     -34.586 -29.498  -6.865  1.00  0.00    -0.163 N 
ATOM      6  H2  UNL     1     -34.160 -30.300  -7.328  1.00  0.00     0.187 HD
HETATM    7  C2  UNL     1     -33.715 -28.729  -6.192  1.00  0.00     0.209 C 
HETATM    8  N3  UNL     1     -32.325 -28.957  -6.404  1.00  0.00    -0.062 NA
HETATM    9  N4  UNL     1     -34.058 -27.743  -5.317  1.00  0.00    -0.292 N 
ATOM     10  H4  UNL     1     -33.315 -27.438  -4.689  1.00  0.00     0.172 HD
HETATM   11  C3  UNL     1     -35.241 -27.112  -5.164  1.00  0.00     0.316 C 
HETATM   12  O1  UNL     1     -35.253 -25.969  -4.637  1.00  0.00    -0.262 OA
HETATM   13  C4  UNL     1     -36.481 -27.581  -5.526  1.00  0.00     0.328 C 
HETATM   14  O2  UNL     1     -37.458 -26.969  -5.019  1.00  0.00    -0.261 OA
HETATM   15  N5  UNL     1     -36.756 -28.618  -6.361  1.00  0.00    -0.152 N 
ATOM     16  H5  UNL     1     -37.746 -28.826  -6.489  1.00  0.00     0.188 HD
ENDROOT
TORSDOF 0
ENDMDL
MODEL 4
REMARK VINA RESULT: -6.710033012      1.689      1.717
REMARK  0 active torsions:
REMARK  status: ('A' for Active; 'I' for Inactive)
REMARK       I    between atoms: N1_1  and  C1_4 
ROOT
HETATM    1  N1  UNL     1     -35.336 -27.431  -8.927  1.00  0.00    -0.234 N 
ATOM      2  H11 UNL     1     -34.765 -27.895  -9.634  1.00  0.00     0.174 HD
ATOM      3  H12 UNL     1     -36.195 -26.904  -9.086  1.00  0.00     0.174 HD
HETATM    4  C1  UNL     1     -34.983 -27.483  -7.686  1.00  0.00     0.681 C 
HETATM    5  N2  UNL     1     -35.729 -26.877  -6.762  1.00  0.00    -0.163 N 
ATOM      6  H2  UNL     1     -36.421 -26.233  -7.144  1.00  0.00     0.187 HD
HETATM    7  C2  UNL     1     -35.740 -26.957  -5.422  1.00  0.00     0.209 C 
HETATM    8  N3  UNL     1     -36.834 -26.364  -4.728  1.00  0.00    -0.062 NA
HETATM    9  N4  UNL     1     -34.781 -27.564  -4.668  1.00  0.00    -0.292 N 
ATOM     10  H4  UNL     1     -34.777 -27.313  -3.680  1.00  0.00     0.172 HD
HETATM   11  C3  UNL     1     -33.834 -28.450  -5.044  1.00  0.00     0.316 C 
HETATM   12  O1  UNL     1     -33.341 -29.213  -4.173  1.00  0.00    -0.262 OA
HETATM   13  C4  UNL     1     -33.324 -28.628  -6.307  1.00  0.00     0.328 C 
HETATM   14  O2  UNL     1     -32.252 -29.285  -6.367  1.00  0.00    -0.261 OA
HETATM   15  N5  UNL     1     -33.850 -28.178  -7.477  1.00  0.00    -0.152 N 
ATOM     16  H5  UNL     1     -33.309 -28.397  -8.313  1.00  0.00     0.188 HD
ENDROOT
TORSDOF 0
ENDMDL
MODEL 5
REMARK VINA RESULT: -6.186286995      1.623      2.981
REMARK  0 active torsions:
REMARK  status: ('A' for Active; 'I' for Inactive)
REMARK       I    between atoms: N1_1  and  C1_4 
ROOT
HETATM    1  N1  UNL     1     -33.387 -27.208  -4.241  1.00  0.00    -0.234 N 
ATOM      2  H11 UNL     1     -32.459 -27.619  -4.346  1.00  0.00     0.174 HD
ATOM      3  H12 UNL     1     -33.632 -26.389  -3.684  1.00  0.00     0.174 HD
HETATM    4  C1  UNL     1     -34.393 -27.738  -4.852  1.00  0.00     0.681 C 
HETATM    5  N2  UNL     1     -35.606 -27.201  -4.715  1.00  0.00    -0.163 N 
ATOM      6  H2  UNL     1     -35.676 -26.524  -3.955  1.00  0.00     0.187 HD
HETATM    7  C2  UNL     1     -36.752 -27.386  -5.389  1.00  0.00     0.209 C 
HETATM    8  N3  UNL     1     -37.818 -26.470  -5.153  1.00  0.00    -0.062 NA
HETATM    9  N4  UNL     1     -36.977 -28.386  -6.286  1.00  0.00    -0.292 N 
ATOM     10  H4  UNL     1     -37.957 -28.562  -6.508  1.00  0.00     0.172 HD
HETATM   11  C3  UNL     1     -36.088 -29.176  -6.924  1.00  0.00     0.316 C 
HETATM   12  O1  UNL     1     -36.430 -29.720  -8.006  1.00  0.00    -0.262 OA
HETATM   13  C4  UNL     1     -34.807 -29.470  -6.524  1.00  0.00     0.328 C 
HETATM   14  O2  UNL     1     -34.274 -30.453  -7.101  1.00  0.00    -0.261 OA
HETATM   15  N5  UNL     1     -34.069 -28.818  -5.586  1.00  0.00    -0.152 N 
ATOM     16  H5  UNL     1     -33.141 -29.203  -5.414  1.00  0.00     0.188 HD
ENDROOT
TORSDOF 0
ENDMDL
