MODEL 1
REMARK VINA RESULT: -8.100138949      0.000      0.000
REMARK  2 active torsions:
REMARK  status: ('A' for Active; 'I' for Inactive)
REMARK    1  A    between atoms: C5_5  and  N1_6 
REMARK       I    between atoms: N1_6  and  C6_8 
REMARK       I    between atoms: C6_8  and  N2_10 
REMARK    2  A    between atoms: C9_13  and  N3_14 
REMARK       I    between atoms: N3_14  and  C10_16 
REMARK       I    between atoms: C10_16  and  N5_20 
ROOT
HETATM    1  N3  UNL     1      31.989 -10.454 -18.246  1.00  0.00    -0.220 N 
ATOM      2  H3  UNL     1      31.019 -10.197 -18.431  1.00  0.00     0.178 HD
HETATM    3  C10 UNL     1      32.628  -9.851 -17.124  1.00  0.00     0.698 C 
HETATM    4  N4  UNL     1      32.392 -10.298 -15.944  1.00  0.00    -0.131 N 
ATOM      5  H4  UNL     1      31.745 -11.082 -15.847  1.00  0.00     0.199 HD
HETATM    6 CL1  UNL     1      33.099  -9.657 -14.523  1.00  0.00     0.026 Cl
HETATM    7  N5  UNL     1      33.527  -8.764 -17.238  1.00  0.00    -0.125 N 
ATOM      8  H5  UNL     1      33.277  -7.850 -16.861  1.00  0.00     0.197 HD
HETATM    9  C11 UNL     1      34.753  -8.949 -17.869  1.00  0.00     0.196 C 
HETATM   10  N6  UNL     1      35.775  -9.101 -18.381  1.00  0.00    -0.171 NA
ENDROOT
BRANCH   1  11
HETATM   11  C9  UNL     1      32.602 -11.384 -19.124  1.00  0.00     0.102 C 
HETATM   12  C8  UNL     1      32.372 -12.821 -18.765  1.00  0.00     0.045 C 
HETATM   13  C7  UNL     1      31.754 -13.596 -19.931  1.00  0.00     0.129 C 
HETATM   14  N2  UNL     1      30.637 -12.915 -20.498  1.00  0.00    -0.334 N 
HETATM   15  C6  UNL     1      29.506 -13.626 -20.943  1.00  0.00     0.318 C 
HETATM   16  C13 UNL     1      30.665 -11.489 -20.620  1.00  0.00     0.129 C 
HETATM   17  N1  UNL     1      28.363 -13.011 -21.512  1.00  0.00    -0.338 N 
HETATM   18  O1  UNL     1      29.463 -14.904 -20.848  1.00  0.00    -0.247 OA
ATOM     19  H1  UNL     1      28.347 -11.996 -21.609  1.00  0.00     0.164 HD
HETATM   20  C12 UNL     1      32.137 -11.089 -20.552  1.00  0.00     0.045 C 
BRANCH  17  21
HETATM   21  C5  UNL     1      27.229 -13.765 -21.954  1.00  0.00     0.089 C 
HETATM   22  C2  UNL     1      25.920 -13.075 -21.583  1.00  0.00     0.004 C 
HETATM   23  C1  UNL     1      24.783 -14.057 -21.698  1.00  0.00     0.012 C 
HETATM   24  C3  UNL     1      26.071 -12.285 -22.880  1.00  0.00     0.008 C 
HETATM   25  C4  UNL     1      26.863 -13.466 -23.414  1.00  0.00     0.026 C 
ENDBRANCH  17  21
ENDBRANCH   1  11
TORSDOF 2
ENDMDL
MODEL 2
REMARK VINA RESULT: -7.858901715      2.520      3.150
REMARK  2 active torsions:
REMARK  status: ('A' for Active; 'I' for Inactive)
REMARK    1  A    between atoms: C5_5  and  N1_6 
REMARK       I    between atoms: N1_6  and  C6_8 
REMARK       I    between atoms: C6_8  and  N2_10 
REMARK    2  A    between atoms: C9_13  and  N3_14 
REMARK       I    between atoms: N3_14  and  C10_16 
REMARK       I    between atoms: C10_16  and  N5_20 
ROOT
HETATM    1  N3  UNL     1      32.786 -11.413 -18.667  1.00  0.00    -0.220 N 
ATOM      2  H3  UNL     1      32.954 -12.373 -18.968  1.00  0.00     0.178 HD
HETATM    3  C10 UNL     1      33.621 -10.395 -19.213  1.00  0.00     0.698 C 
HETATM    4  N4  UNL     1      33.393  -9.955 -20.397  1.00  0.00    -0.131 N 
ATOM      5  H4  UNL     1      32.610 -10.354 -20.915  1.00  0.00     0.199 HD
HETATM    6 CL1  UNL     1      34.326  -8.738 -21.158  1.00  0.00     0.026 Cl
HETATM    7  N5  UNL     1      34.712  -9.830 -18.510  1.00  0.00    -0.125 N 
ATOM      8  H5  UNL     1      35.667  -9.986 -18.832  1.00  0.00     0.197 HD
HETATM    9  C11 UNL     1      34.474  -9.061 -17.375  1.00  0.00     0.196 C 
HETATM   10  N6  UNL     1      34.281  -8.414 -16.441  1.00  0.00    -0.171 NA
ENDROOT
BRANCH   1  11
HETATM   11  C9  UNL     1      31.740 -11.188 -17.735  1.00  0.00     0.102 C 
HETATM   12  C8  UNL     1      31.003  -9.897 -17.930  1.00  0.00     0.045 C 
HETATM   13  C7  UNL     1      29.500 -10.132 -18.095  1.00  0.00     0.129 C 
HETATM   14  N2  UNL     1      29.216 -11.154 -19.048  1.00  0.00    -0.334 N 
HETATM   15  C6  UNL     1      28.119 -11.043 -19.923  1.00  0.00     0.318 C 
HETATM   16  C13 UNL     1      30.056 -12.310 -19.117  1.00  0.00     0.129 C 
HETATM   17  N1  UNL     1      27.784 -12.019 -20.895  1.00  0.00    -0.338 N 
HETATM   18  O1  UNL     1      27.350 -10.017 -19.875  1.00  0.00    -0.247 OA
ATOM     19  H1  UNL     1      28.365 -12.854 -20.974  1.00  0.00     0.164 HD
HETATM   20  C12 UNL     1      30.784 -12.382 -17.776  1.00  0.00     0.045 C 
BRANCH  17  21
HETATM   21  C5  UNL     1      26.661 -11.875 -21.769  1.00  0.00     0.089 C 
HETATM   22  C2  UNL     1      26.752 -12.825 -22.960  1.00  0.00     0.004 C 
HETATM   23  C1  UNL     1      25.796 -12.378 -24.035  1.00  0.00     0.012 C 
HETATM   24  C3  UNL     1      26.093 -13.869 -22.065  1.00  0.00     0.008 C 
HETATM   25  C4  UNL     1      25.457 -12.711 -21.316  1.00  0.00     0.026 C 
ENDBRANCH  17  21
ENDBRANCH   1  11
TORSDOF 2
ENDMDL
MODEL 3
REMARK VINA RESULT: -7.752351086      3.100      4.390
REMARK  2 active torsions:
REMARK  status: ('A' for Active; 'I' for Inactive)
REMARK    1  A    between atoms: C5_5  and  N1_6 
REMARK       I    between atoms: N1_6  and  C6_8 
REMARK       I    between atoms: C6_8  and  N2_10 
REMARK    2  A    between atoms: C9_13  and  N3_14 
REMARK       I    between atoms: N3_14  and  C10_16 
REMARK       I    between atoms: C10_16  and  N5_20 
ROOT
HETATM    1  N3  UNL     1      33.581  -9.836 -19.018  1.00  0.00    -0.220 N 
ATOM      2  H3  UNL     1      34.177 -10.520 -19.485  1.00  0.00     0.178 HD
HETATM    3  C10 UNL     1      34.168  -9.041 -17.992  1.00  0.00     0.698 C 
HETATM    4  N4  UNL     1      34.900  -8.035 -18.308  1.00  0.00    -0.131 N 
ATOM      5  H4  UNL     1      35.039  -7.835 -19.299  1.00  0.00     0.199 HD
HETATM    6 CL1  UNL     1      35.655  -7.009 -17.165  1.00  0.00     0.026 Cl
HETATM    7  N5  UNL     1      33.986  -9.304 -16.613  1.00  0.00    -0.125 N 
ATOM      8  H5  UNL     1      34.775  -9.602 -16.039  1.00  0.00     0.197 HD
HETATM    9  C11 UNL     1      32.725  -9.153 -16.044  1.00  0.00     0.196 C 
HETATM   10  N6  UNL     1      31.685  -9.018 -15.567  1.00  0.00    -0.171 NA
ENDROOT
BRANCH   1  11
HETATM   11  C9  UNL     1      32.229  -9.746 -19.440  1.00  0.00     0.102 C 
HETATM   12  C8  UNL     1      32.037  -9.807 -20.925  1.00  0.00     0.045 C 
HETATM   13  C7  UNL     1      31.074 -10.931 -21.317  1.00  0.00     0.129 C 
HETATM   14  N2  UNL     1      31.402 -12.166 -20.686  1.00  0.00    -0.334 N 
HETATM   15  C6  UNL     1      31.270 -13.388 -21.373  1.00  0.00     0.318 C 
HETATM   16  C13 UNL     1      31.870 -12.167 -19.333  1.00  0.00     0.129 C 
HETATM   17  N1  UNL     1      31.582 -14.649 -20.806  1.00  0.00    -0.338 N 
HETATM   18  O1  UNL     1      30.847 -13.410 -22.584  1.00  0.00    -0.247 OA
ATOM     19  H1  UNL     1      31.922 -14.685 -19.845  1.00  0.00     0.164 HD
HETATM   20  C12 UNL     1      31.422 -10.837 -18.732  1.00  0.00     0.045 C 
BRANCH  17  21
HETATM   21  C5  UNL     1      31.435 -15.872 -21.534  1.00  0.00     0.089 C 
HETATM   22  C2  UNL     1      32.652 -16.150 -22.412  1.00  0.00     0.004 C 
HETATM   23  C1  UNL     1      32.304 -17.198 -23.437  1.00  0.00     0.012 C 
HETATM   24  C3  UNL     1      33.281 -16.799 -21.183  1.00  0.00     0.008 C 
HETATM   25  C4  UNL     1      31.867 -17.095 -20.714  1.00  0.00     0.026 C 
ENDBRANCH  17  21
ENDBRANCH   1  11
TORSDOF 2
ENDMDL
MODEL 4
REMARK VINA RESULT: -7.662267890      1.498      1.569
REMARK  2 active torsions:
REMARK  status: ('A' for Active; 'I' for Inactive)
REMARK    1  A    between atoms: C5_5  and  N1_6 
REMARK       I    between atoms: N1_6  and  C6_8 
REMARK       I    between atoms: C6_8  and  N2_10 
REMARK    2  A    between atoms: C9_13  and  N3_14 
REMARK       I    between atoms: N3_14  and  C10_16 
REMARK       I    between atoms: C10_16  and  N5_20 
ROOT
HETATM    1  N3  UNL     1      31.485 -10.997 -18.745  1.00  0.00    -0.220 N 
ATOM      2  H3  UNL     1      30.612 -11.440 -18.457  1.00  0.00     0.178 HD
HETATM    3  C10 UNL     1      32.003  -9.961 -17.915  1.00  0.00     0.698 C 
HETATM    4  N4  UNL     1      32.632 -10.265 -16.838  1.00  0.00    -0.131 N 
ATOM      5  H4  UNL     1      32.742 -11.253 -16.610  1.00  0.00     0.199 HD
HETATM    6 CL1  UNL     1      33.298  -9.110 -15.764  1.00  0.00     0.026 Cl
HETATM    7  N5  UNL     1      31.860  -8.585 -18.216  1.00  0.00    -0.125 N 
ATOM      8  H5  UNL     1      31.285  -7.987 -17.622  1.00  0.00     0.197 HD
HETATM    9  C11 UNL     1      32.507  -8.053 -19.327  1.00  0.00     0.196 C 
HETATM   10  N6  UNL     1      33.050  -7.606 -20.240  1.00  0.00    -0.171 NA
ENDROOT
BRANCH   1  11
HETATM   11  C9  UNL     1      32.093 -11.456 -19.942  1.00  0.00     0.102 C 
HETATM   12  C8  UNL     1      32.113 -12.948 -20.094  1.00  0.00     0.045 C 
HETATM   13  C7  UNL     1      31.453 -13.383 -21.404  1.00  0.00     0.129 C 
HETATM   14  N2  UNL     1      30.186 -12.760 -21.602  1.00  0.00    -0.334 N 
HETATM   15  C6  UNL     1      29.112 -13.467 -22.175  1.00  0.00     0.318 C 
HETATM   16  C13 UNL     1      30.001 -11.394 -21.215  1.00  0.00     0.129 C 
HETATM   17  N1  UNL     1      27.829 -12.909 -22.396  1.00  0.00    -0.338 N 
HETATM   18  O1  UNL     1      29.258 -14.690 -22.534  1.00  0.00    -0.247 OA
ATOM     19  H1  UNL     1      27.661 -11.939 -22.127  1.00  0.00     0.164 HD
HETATM   20  C12 UNL     1      31.401 -10.787 -21.131  1.00  0.00     0.045 C 
BRANCH  17  21
HETATM   21  C5  UNL     1      26.758 -13.658 -22.981  1.00  0.00     0.089 C 
HETATM   22  C2  UNL     1      25.426 -12.926 -22.849  1.00  0.00     0.004 C 
HETATM   23  C1  UNL     1      24.296 -13.889 -23.103  1.00  0.00     0.012 C 
HETATM   24  C3  UNL     1      25.799 -12.196 -24.136  1.00  0.00     0.008 C 
HETATM   25  C4  UNL     1      26.634 -13.415 -24.491  1.00  0.00     0.026 C 
ENDBRANCH  17  21
ENDBRANCH   1  11
TORSDOF 2
ENDMDL
MODEL 5
REMARK VINA RESULT: -7.647577290      3.340      8.066
REMARK  2 active torsions:
REMARK  status: ('A' for Active; 'I' for Inactive)
REMARK    1  A    between atoms: C5_5  and  N1_6 
REMARK       I    between atoms: N1_6  and  C6_8 
REMARK       I    between atoms: C6_8  and  N2_10 
REMARK    2  A    between atoms: C9_13  and  N3_14 
REMARK       I    between atoms: N3_14  and  C10_16 
REMARK       I    between atoms: C10_16  and  N5_20 
ROOT
HETATM    1  N3  UNL     1      30.438 -13.159 -19.856  1.00  0.00    -0.220 N 
ATOM      2  H3  UNL     1      31.250 -12.731 -20.301  1.00  0.00     0.178 HD
HETATM    3  C10 UNL     1      30.109 -14.494 -20.228  1.00  0.00     0.698 C 
HETATM    4  N4  UNL     1      30.771 -15.474 -19.729  1.00  0.00    -0.131 N 
ATOM      5  H4  UNL     1      31.521 -15.261 -19.072  1.00  0.00     0.199 HD
HETATM    6 CL1  UNL     1      30.467 -17.117 -20.101  1.00  0.00     0.026 Cl
HETATM    7  N5  UNL     1      29.071 -14.809 -21.138  1.00  0.00    -0.125 N 
ATOM      8  H5  UNL     1      29.291 -15.220 -22.045  1.00  0.00     0.197 HD
HETATM    9  C11 UNL     1      27.748 -14.553 -20.789  1.00  0.00     0.196 C 
HETATM   10  N6  UNL     1      26.651 -14.354 -20.498  1.00  0.00    -0.171 NA
ENDROOT
BRANCH   1  11
HETATM   11  C9  UNL     1      29.720 -12.381 -18.911  1.00  0.00     0.102 C 
HETATM   12  C8  UNL     1      30.219 -12.500 -17.502  1.00  0.00     0.045 C 
HETATM   13  C7  UNL     1      30.570 -11.130 -16.917  1.00  0.00     0.129 C 
HETATM   14  N2  UNL     1      31.386 -10.362 -17.798  1.00  0.00    -0.334 N 
HETATM   15  C6  UNL     1      32.423  -9.549 -17.300  1.00  0.00     0.318 C 
HETATM   16  C13 UNL     1      31.149 -10.414 -19.208  1.00  0.00     0.129 C 
HETATM   17  N1  UNL     1      33.272  -8.765 -18.120  1.00  0.00    -0.338 N 
HETATM   18  O1  UNL     1      32.649  -9.484 -16.039  1.00  0.00    -0.247 OA
ATOM     19  H1  UNL     1      33.134  -8.782 -19.130  1.00  0.00     0.164 HD
HETATM   20  C12 UNL     1      29.719 -10.924 -19.377  1.00  0.00     0.045 C 
BRANCH  17  21
HETATM   21  C5  UNL     1      34.317  -7.949 -17.580  1.00  0.00     0.089 C 
HETATM   22  C2  UNL     1      35.687  -8.591 -17.779  1.00  0.00     0.004 C 
HETATM   23  C1  UNL     1      36.690  -7.927 -16.872  1.00  0.00     0.012 C 
HETATM   24  C3  UNL     1      35.698  -7.931 -19.155  1.00  0.00     0.008 C 
HETATM   25  C4  UNL     1      34.784  -6.870 -18.566  1.00  0.00     0.026 C 
ENDBRANCH  17  21
ENDBRANCH   1  11
TORSDOF 2
ENDMDL
