MODEL 1
REMARK VINA RESULT: -6.986942046      0.000      0.000
REMARK  6 active torsions:
REMARK  status: ('A' for Active; 'I' for Inactive)
REMARK    1  A    between atoms: C3_3  and  N1_6 
REMARK    2  A    between atoms: N1_6  and  C6_8 
REMARK    3  A    between atoms: C7_11  and  N3_12 
REMARK    4  A    between atoms: N3_12  and  C8_14 
REMARK    5  A    between atoms: C8_14  and  C9_15 
REMARK    6  A    between atoms: C9_15  and  O1_16 
ROOT
HETATM    1  C1  UNL     1      27.970 -12.743 -27.147  1.00  0.00     0.015 C 
HETATM    2  C2  UNL     1      28.314 -13.098 -26.048  1.00  0.00    -0.086 C 
HETATM    3  C3  UNL     1      28.741 -13.512 -24.676  1.00  0.00     0.087 C 
HETATM    4  C4  UNL     1      28.686 -15.033 -24.713  1.00  0.00     0.052 C 
HETATM    5  C5  UNL     1      30.157 -13.015 -24.486  1.00  0.00     0.052 C 
ENDROOT
BRANCH   3   6
HETATM    6  N1  UNL     1      27.860 -12.924 -23.739  1.00  0.00    -0.355 N 
ATOM      7  H1  UNL     1      27.559 -11.969 -23.936  1.00  0.00     0.162 HD
BRANCH   6   8
HETATM    8  C6  UNL     1      27.397 -13.458 -22.671  1.00  0.00     0.137 A 
HETATM    9  N2  UNL     1      28.120 -13.854 -21.626  1.00  0.00    -0.176 N 
HETATM   10  C7  UNL     1      27.594 -14.422 -20.500  1.00  0.00     0.680 A 
ATOM     11  H2  UNL     1      29.131 -13.726 -21.668  1.00  0.00     0.186 HD
HETATM   12  N4  UNL     1      26.269 -14.578 -20.474  1.00  0.00    -0.195 N 
HETATM   13  C10 UNL     1      25.461 -14.209 -21.479  1.00  0.00     0.043 A 
ATOM     14  H4  UNL     1      25.849 -14.999 -19.645  1.00  0.00     0.184 HD
HETATM   15  C11 UNL     1      23.988 -14.417 -21.374  1.00  0.00     0.070 C 
HETATM   16  C12 UNL     1      26.001 -13.641 -22.602  1.00  0.00     0.078 A 
HETATM   17 BR1  UNL     1      24.887 -13.095 -24.072  1.00  0.00    -0.045 Br
BRANCH  10  18
HETATM   18  N3  UNL     1      28.414 -14.751 -19.579  1.00  0.00    -0.224 N 
ATOM     19  H3  UNL     1      28.036 -14.824 -18.634  1.00  0.00     0.177 HD
BRANCH  18  20
HETATM   20  C8  UNL     1      29.798 -15.028 -19.733  1.00  0.00     0.164 C 
BRANCH  20  21
HETATM   21  C9  UNL     1      30.088 -16.466 -20.106  1.00  0.00     0.184 C 
BRANCH  21  22
HETATM   22  O1  UNL     1      31.161 -16.973 -19.388  1.00  0.00    -0.399 OA
ATOM     23  H1  UNL     1      31.845 -17.294 -19.963  1.00  0.00     0.209 HD
ENDBRANCH  21  22
ENDBRANCH  20  21
ENDBRANCH  18  20
ENDBRANCH  10  18
ENDBRANCH   6   8
ENDBRANCH   3   6
TORSDOF 6
ENDMDL
MODEL 2
REMARK VINA RESULT: -6.537747451      4.853      6.634
REMARK  6 active torsions:
REMARK  status: ('A' for Active; 'I' for Inactive)
REMARK    1  A    between atoms: C3_3  and  N1_6 
REMARK    2  A    between atoms: N1_6  and  C6_8 
REMARK    3  A    between atoms: C7_11  and  N3_12 
REMARK    4  A    between atoms: N3_12  and  C8_14 
REMARK    5  A    between atoms: C8_14  and  C9_15 
REMARK    6  A    between atoms: C9_15  and  O1_16 
ROOT
HETATM    1  C1  UNL     1      26.337 -10.965 -21.151  1.00  0.00     0.015 C 
HETATM    2  C2  UNL     1      26.193 -11.873 -21.931  1.00  0.00    -0.086 C 
HETATM    3  C3  UNL     1      26.019 -13.016 -22.879  1.00  0.00     0.087 C 
HETATM    4  C4  UNL     1      25.593 -12.356 -24.183  1.00  0.00     0.052 C 
HETATM    5  C5  UNL     1      27.368 -13.686 -23.014  1.00  0.00     0.052 C 
ENDROOT
BRANCH   3   6
HETATM    6  N1  UNL     1      25.057 -13.900 -22.337  1.00  0.00    -0.355 N 
ATOM      7  H1  UNL     1      25.352 -14.455 -21.534  1.00  0.00     0.162 HD
BRANCH   6   8
HETATM    8  C6  UNL     1      23.856 -14.081 -22.744  1.00  0.00     0.137 A 
HETATM    9  N2  UNL     1      23.428 -13.921 -23.994  1.00  0.00    -0.176 N 
HETATM   10  C7  UNL     1      22.137 -14.123 -24.394  1.00  0.00     0.680 A 
ATOM     11  H2  UNL     1      24.106 -13.631 -24.698  1.00  0.00     0.186 HD
HETATM   12  N4  UNL     1      21.272 -14.502 -23.453  1.00  0.00    -0.195 N 
HETATM   13  C10 UNL     1      21.612 -14.687 -22.168  1.00  0.00     0.043 A 
ATOM     14  H4  UNL     1      20.302 -14.660 -23.723  1.00  0.00     0.184 HD
HETATM   15  C11 UNL     1      20.586 -15.113 -21.173  1.00  0.00     0.070 C 
HETATM   16  C12 UNL     1      22.909 -14.482 -21.780  1.00  0.00     0.078 A 
HETATM   17 BR1  UNL     1      23.450 -14.734 -19.950  1.00  0.00    -0.045 Br
BRANCH  10  18
HETATM   18  N3  UNL     1      21.876 -13.930 -25.629  1.00  0.00    -0.224 N 
ATOM     19  H3  UNL     1      20.914 -14.095 -25.925  1.00  0.00     0.177 HD
BRANCH  18  20
HETATM   20  C8  UNL     1      22.787 -13.510 -26.634  1.00  0.00     0.164 C 
BRANCH  20  21
HETATM   21  C9  UNL     1      22.305 -13.793 -28.041  1.00  0.00     0.184 C 
BRANCH  21  22
HETATM   22  O1  UNL     1      20.934 -13.999 -28.079  1.00  0.00    -0.399 OA
ATOM     23  H1  UNL     1      20.664 -14.401 -28.896  1.00  0.00     0.209 HD
ENDBRANCH  21  22
ENDBRANCH  20  21
ENDBRANCH  18  20
ENDBRANCH  10  18
ENDBRANCH   6   8
ENDBRANCH   3   6
TORSDOF 6
ENDMDL
MODEL 3
REMARK VINA RESULT: -6.511439029      3.689      6.067
REMARK  6 active torsions:
REMARK  status: ('A' for Active; 'I' for Inactive)
REMARK    1  A    between atoms: C3_3  and  N1_6 
REMARK    2  A    between atoms: N1_6  and  C6_8 
REMARK    3  A    between atoms: C7_11  and  N3_12 
REMARK    4  A    between atoms: N3_12  and  C8_14 
REMARK    5  A    between atoms: C8_14  and  C9_15 
REMARK    6  A    between atoms: C9_15  and  O1_16 
ROOT
HETATM    1  C1  UNL     1      24.090 -14.249 -21.884  1.00  0.00     0.015 C 
HETATM    2  C2  UNL     1      24.884 -13.710 -22.614  1.00  0.00    -0.086 C 
HETATM    3  C3  UNL     1      25.887 -13.048 -23.502  1.00  0.00     0.087 C 
HETATM    4  C4  UNL     1      25.092 -12.668 -24.743  1.00  0.00     0.052 C 
HETATM    5  C5  UNL     1      26.385 -11.822 -22.769  1.00  0.00     0.052 C 
ENDROOT
BRANCH   3   6
HETATM    6  N1  UNL     1      26.938 -13.963 -23.746  1.00  0.00    -0.355 N 
ATOM      7  H1  UNL     1      26.691 -14.953 -23.730  1.00  0.00     0.162 HD
BRANCH   6   8
HETATM    8  C6  UNL     1      28.165 -13.687 -23.984  1.00  0.00     0.137 A 
HETATM    9  N2  UNL     1      28.637 -13.155 -25.109  1.00  0.00    -0.176 N 
HETATM   10  C7  UNL     1      29.956 -12.872 -25.330  1.00  0.00     0.680 A 
ATOM     11  H2  UNL     1      27.972 -12.944 -25.853  1.00  0.00     0.186 HD
HETATM   12  N4  UNL     1      30.801 -13.158 -24.340  1.00  0.00    -0.195 N 
HETATM   13  C10 UNL     1      30.418 -13.695 -23.172  1.00  0.00     0.043 A 
ATOM     14  H4  UNL     1      31.792 -12.957 -24.478  1.00  0.00     0.184 HD
HETATM   15  C11 UNL     1      31.426 -13.986 -22.112  1.00  0.00     0.070 C 
HETATM   16  C12 UNL     1      29.094 -13.974 -22.963  1.00  0.00     0.078 A 
HETATM   17 BR1  UNL     1      28.491 -14.745 -21.306  1.00  0.00    -0.045 Br
BRANCH  10  18
HETATM   18  N3  UNL     1      30.258 -12.361 -26.461  1.00  0.00    -0.224 N 
ATOM     19  H3  UNL     1      29.554 -12.429 -27.196  1.00  0.00     0.177 HD
BRANCH  18  20
HETATM   20  C8  UNL     1      31.473 -11.710 -26.801  1.00  0.00     0.164 C 
BRANCH  20  21
HETATM   21  C9  UNL     1      31.800 -11.778 -28.278  1.00  0.00     0.184 C 
BRANCH  21  22
HETATM   22  O1  UNL     1      31.786 -10.519 -28.861  1.00  0.00    -0.399 OA
ATOM     23  H1  UNL     1      31.850 -10.572 -29.807  1.00  0.00     0.209 HD
ENDBRANCH  21  22
ENDBRANCH  20  21
ENDBRANCH  18  20
ENDBRANCH  10  18
ENDBRANCH   6   8
ENDBRANCH   3   6
TORSDOF 6
ENDMDL
MODEL 4
REMARK VINA RESULT: -6.501755424      3.780      5.661
REMARK  6 active torsions:
REMARK  status: ('A' for Active; 'I' for Inactive)
REMARK    1  A    between atoms: C3_3  and  N1_6 
REMARK    2  A    between atoms: N1_6  and  C6_8 
REMARK    3  A    between atoms: C7_11  and  N3_12 
REMARK    4  A    between atoms: N3_12  and  C8_14 
REMARK    5  A    between atoms: C8_14  and  C9_15 
REMARK    6  A    between atoms: C9_15  and  O1_16 
ROOT
HETATM    1  C1  UNL     1      24.600 -14.562 -20.676  1.00  0.00     0.015 C 
HETATM    2  C2  UNL     1      25.508 -13.901 -21.112  1.00  0.00    -0.086 C 
HETATM    3  C3  UNL     1      26.638 -13.070 -21.630  1.00  0.00     0.087 C 
HETATM    4  C4  UNL     1      26.906 -13.630 -23.020  1.00  0.00     0.052 C 
HETATM    5  C5  UNL     1      26.140 -11.642 -21.696  1.00  0.00     0.052 C 
ENDROOT
BRANCH   3   6
HETATM    6  N1  UNL     1      27.727 -13.193 -20.736  1.00  0.00    -0.355 N 
ATOM      7  H1  UNL     1      27.498 -13.424 -19.770  1.00  0.00     0.162 HD
BRANCH   6   8
HETATM    8  C6  UNL     1      28.970 -13.047 -21.007  1.00  0.00     0.137 A 
HETATM    9  N2  UNL     1      29.558 -11.908 -21.368  1.00  0.00    -0.176 N 
HETATM   10  C7  UNL     1      30.889 -11.787 -21.651  1.00  0.00     0.680 A 
ATOM     11  H2  UNL     1      28.977 -11.072 -21.437  1.00  0.00     0.186 HD
HETATM   12  N4  UNL     1      31.623 -12.896 -21.553  1.00  0.00    -0.195 N 
HETATM   13  C10 UNL     1      31.119 -14.088 -21.198  1.00  0.00     0.043 A 
ATOM     14  H4  UNL     1      32.620 -12.835 -21.758  1.00  0.00     0.184 HD
HETATM   15  C11 UNL     1      32.006 -15.283 -21.111  1.00  0.00     0.070 C 
HETATM   16  C12 UNL     1      29.783 -14.195 -20.917  1.00  0.00     0.078 A 
HETATM   17 BR1  UNL     1      29.009 -15.880 -20.403  1.00  0.00    -0.045 Br
BRANCH  10  18
HETATM   18  N3  UNL     1      31.309 -10.628 -21.983  1.00  0.00    -0.224 N 
ATOM     19  H3  UNL     1      31.072 -10.307 -22.921  1.00  0.00     0.177 HD
BRANCH  18  20
HETATM   20  C8  UNL     1      32.071  -9.739 -21.179  1.00  0.00     0.164 C 
BRANCH  20  21
HETATM   21  C9  UNL     1      31.331  -8.469 -20.816  1.00  0.00     0.184 C 
BRANCH  21  22
HETATM   22  O1  UNL     1      30.263  -8.239 -21.672  1.00  0.00    -0.399 OA
ATOM     23  H1  UNL     1      29.464  -8.635 -21.347  1.00  0.00     0.209 HD
ENDBRANCH  21  22
ENDBRANCH  20  21
ENDBRANCH  18  20
ENDBRANCH  10  18
ENDBRANCH   6   8
ENDBRANCH   3   6
TORSDOF 6
ENDMDL
MODEL 5
REMARK VINA RESULT: -6.476627993      3.604      6.288
REMARK  6 active torsions:
REMARK  status: ('A' for Active; 'I' for Inactive)
REMARK    1  A    between atoms: C3_3  and  N1_6 
REMARK    2  A    between atoms: N1_6  and  C6_8 
REMARK    3  A    between atoms: C7_11  and  N3_12 
REMARK    4  A    between atoms: N3_12  and  C8_14 
REMARK    5  A    between atoms: C8_14  and  C9_15 
REMARK    6  A    between atoms: C9_15  and  O1_16 
ROOT
HETATM    1  C1  UNL     1      28.762 -15.049 -20.424  1.00  0.00     0.015 C 
HETATM    2  C2  UNL     1      29.513 -14.496 -21.188  1.00  0.00    -0.086 C 
HETATM    3  C3  UNL     1      30.429 -13.816 -22.155  1.00  0.00     0.087 C 
HETATM    4  C4  UNL     1      31.449 -13.115 -21.271  1.00  0.00     0.052 C 
HETATM    5  C5  UNL     1      31.073 -14.901 -22.989  1.00  0.00     0.052 C 
ENDROOT
BRANCH   3   6
HETATM    6  N1  UNL     1      29.659 -12.941 -22.956  1.00  0.00    -0.355 N 
ATOM      7  H1  UNL     1      28.962 -12.376 -22.471  1.00  0.00     0.162 HD
BRANCH   6   8
HETATM    8  C6  UNL     1      29.740 -12.780 -24.224  1.00  0.00     0.137 A 
HETATM    9  N2  UNL     1      30.822 -12.378 -24.888  1.00  0.00    -0.176 N 
HETATM   10  C7  UNL     1      30.875 -12.216 -26.243  1.00  0.00     0.680 A 
ATOM     11  H2  UNL     1      31.665 -12.179 -24.350  1.00  0.00     0.186 HD
HETATM   12  N4  UNL     1      29.757 -12.484 -26.920  1.00  0.00    -0.195 N 
HETATM   13  C10 UNL     1      28.620 -12.893 -26.338  1.00  0.00     0.043 A 
ATOM     14  H4  UNL     1      29.768 -12.372 -27.934  1.00  0.00     0.184 HD
HETATM   15  C11 UNL     1      27.411 -13.173 -27.164  1.00  0.00     0.070 C 
HETATM   16  C12 UNL     1      28.581 -13.052 -24.978  1.00  0.00     0.078 A 
HETATM   17 BR1  UNL     1      26.976 -13.636 -24.093  1.00  0.00    -0.045 Br
BRANCH  10  18
HETATM   18  N3  UNL     1      31.985 -11.825 -26.738  1.00  0.00    -0.224 N 
ATOM     19  H3  UNL     1      32.788 -12.438 -26.602  1.00  0.00     0.177 HD
BRANCH  18  20
HETATM   20  C8  UNL     1      32.216 -10.623 -27.459  1.00  0.00     0.164 C 
BRANCH  20  21
HETATM   21  C9  UNL     1      33.217  -9.704 -26.794  1.00  0.00     0.184 C 
BRANCH  21  22
HETATM   22  O1  UNL     1      32.821  -9.362 -25.509  1.00  0.00    -0.399 OA
ATOM     23  H1  UNL     1      33.391  -9.746 -24.854  1.00  0.00     0.209 HD
ENDBRANCH  21  22
ENDBRANCH  20  21
ENDBRANCH  18  20
ENDBRANCH  10  18
ENDBRANCH   6   8
ENDBRANCH   3   6
TORSDOF 6
ENDMDL
