MODEL 1
REMARK VINA RESULT: -8.142929487      0.000      0.000
REMARK  4 active torsions:
REMARK  status: ('A' for Active; 'I' for Inactive)
REMARK    1  A    between atoms: C3_3  and  C4_4 
REMARK    2  A    between atoms: C8_14  and  N3_15 
REMARK    3  A    between atoms: N4_18  and  C11_19 
REMARK    4  A    between atoms: C11_19  and  C12_20 
ROOT
HETATM    1  C1  UNL     1      -7.792 -11.405  20.562  1.00  0.00     0.112 C 
HETATM    2  C2  UNL     1      -7.155 -10.561  19.551  1.00  0.00    -0.105 C 
HETATM    3  C3  UNL     1      -6.616  -9.856  18.705  1.00  0.00    -0.064 C 
ENDROOT
BRANCH   3   4
HETATM    4  C4  UNL     1      -5.974  -9.017  17.734  1.00  0.00     0.061 A 
HETATM    5  C5  UNL     1      -5.853  -7.640  17.957  1.00  0.00     0.112 A 
HETATM    6  N1  UNL     1      -5.264  -6.824  17.071  1.00  0.00    -0.350 N 
HETATM    7  C6  UNL     1      -4.773  -7.319  15.943  1.00  0.00     0.123 A 
ATOM      8  H1  UNL     1      -5.194  -5.825  17.264  1.00  0.00     0.166 HD
HETATM    9  N2  UNL     1      -4.208  -6.552  15.087  1.00  0.00    -0.384 N 
HETATM   10  C7  UNL     1      -4.878  -8.685  15.694  1.00  0.00     0.105 A 
ATOM     11  H22 UNL     1      -4.131  -5.551  15.269  1.00  0.00     0.157 HD
ATOM     12  H21 UNL     1      -3.830  -6.933  14.220  1.00  0.00     0.157 HD
HETATM   13 CL1  UNL     1      -4.227  -9.323  14.208  1.00  0.00    -0.078 Cl
HETATM   14  C8  UNL     1      -5.474  -9.566  16.571  1.00  0.00     0.081 A 
BRANCH  14  15
HETATM   15  N3  UNL     1      -5.559 -10.957  16.287  1.00  0.00    -0.336 N 
HETATM   16  C9  UNL     1      -4.535 -11.769  16.916  1.00  0.00     0.174 C 
HETATM   17  C10 UNL     1      -4.411 -13.138  16.286  1.00  0.00     0.083 C 
HETATM   18  N4  UNL     1      -5.486 -14.023  16.488  1.00  0.00    -0.367 N 
HETATM   19  C18 UNL     1      -6.466 -14.153  15.475  1.00  0.00     0.171 C 
HETATM   20  C19 UNL     1      -6.219 -13.400  14.226  1.00  0.00     0.082 C 
HETATM   21  N5  UNL     1      -6.225 -12.015  14.291  1.00  0.00    -0.364 N 
HETATM   22  C20 UNL     1      -6.660 -11.318  15.417  1.00  0.00     0.183 C 
ATOM     23  H5  UNL     1      -5.898 -11.485  13.483  1.00  0.00     0.165 HD
BRANCH  18  24
HETATM   24  C11 UNL     1      -5.920 -14.067  17.824  1.00  0.00     0.068 C 
BRANCH  24  25
HETATM   25  C12 UNL     1      -6.647 -15.339  18.210  1.00  0.00     0.026 C 
HETATM   26  C13 UNL     1      -5.627 -16.320  18.714  1.00  0.00     0.012 C 
HETATM   27  C14 UNL     1      -5.750 -16.636  20.168  1.00  0.00     0.027 C 
HETATM   28  C15 UNL     1      -6.835 -17.678  20.337  1.00  0.00     0.167 C 
HETATM   29  O1  UNL     1      -7.834 -17.348  19.392  1.00  0.00    -0.391 OA
HETATM   30  C16 UNL     1      -8.392 -16.147  19.831  1.00  0.00     0.168 C 
HETATM   31  C17 UNL     1      -7.642 -14.959  19.319  1.00  0.00     0.036 C 
ENDBRANCH  24  25
ENDBRANCH  18  24
ENDBRANCH  14  15
ENDBRANCH   3   4
TORSDOF 4
ENDMDL
MODEL 2
REMARK VINA RESULT: -7.482787237      3.919      7.830
REMARK  4 active torsions:
REMARK  status: ('A' for Active; 'I' for Inactive)
REMARK    1  A    between atoms: C3_3  and  C4_4 
REMARK    2  A    between atoms: C8_14  and  N3_15 
REMARK    3  A    between atoms: N4_18  and  C11_19 
REMARK    4  A    between atoms: C11_19  and  C12_20 
ROOT
HETATM    1  C1  UNL     1      -5.571  -6.096  19.436  1.00  0.00     0.112 C 
HETATM    2  C2  UNL     1      -5.979  -7.501  19.398  1.00  0.00    -0.105 C 
HETATM    3  C3  UNL     1      -6.326  -8.677  19.361  1.00  0.00    -0.064 C 
ENDROOT
BRANCH   3   4
HETATM    4  C4  UNL     1      -6.754 -10.046  19.330  1.00  0.00     0.061 A 
HETATM    5  C5  UNL     1      -7.437 -10.599  20.419  1.00  0.00     0.112 A 
HETATM    6  N1  UNL     1      -7.849 -11.876  20.428  1.00  0.00    -0.350 N 
HETATM    7  C6  UNL     1      -7.611 -12.653  19.381  1.00  0.00     0.123 A 
ATOM      8  H1  UNL     1      -8.344 -12.247  21.239  1.00  0.00     0.166 HD
HETATM    9  N2  UNL     1      -7.997 -13.874  19.375  1.00  0.00    -0.384 N 
HETATM   10  C7  UNL     1      -6.933 -12.130  18.282  1.00  0.00     0.105 A 
ATOM     11  H22 UNL     1      -8.493 -14.257  20.179  1.00  0.00     0.157 HD
ATOM     12  H21 UNL     1      -7.813 -14.472  18.569  1.00  0.00     0.157 HD
HETATM   13 CL1  UNL     1      -6.626 -13.162  16.911  1.00  0.00    -0.078 Cl
HETATM   14  C8  UNL     1      -6.488 -10.826  18.223  1.00  0.00     0.081 A 
BRANCH  14  15
HETATM   15  N3  UNL     1      -5.804 -10.323  17.083  1.00  0.00    -0.336 N 
HETATM   16  C9  UNL     1      -6.571  -9.397  16.272  1.00  0.00     0.174 C 
HETATM   17  C10 UNL     1      -5.983  -9.206  14.892  1.00  0.00     0.083 C 
HETATM   18  N4  UNL     1      -4.754  -8.524  14.822  1.00  0.00    -0.367 N 
HETATM   19  C18 UNL     1      -3.559  -9.277  14.724  1.00  0.00     0.171 C 
HETATM   20  C19 UNL     1      -3.717 -10.743  14.609  1.00  0.00     0.082 C 
HETATM   21  N5  UNL     1      -4.258 -11.425  15.688  1.00  0.00    -0.364 N 
HETATM   22  C20 UNL     1      -4.453 -10.827  16.932  1.00  0.00     0.183 C 
ATOM     23  H5  UNL     1      -4.524 -12.402  15.567  1.00  0.00     0.165 HD
BRANCH  18  24
HETATM   24  C11 UNL     1      -4.726  -7.355  15.601  1.00  0.00     0.068 C 
BRANCH  24  25
HETATM   25  C12 UNL     1      -3.447  -6.551  15.487  1.00  0.00     0.026 C 
HETATM   26  C13 UNL     1      -3.444  -5.876  14.145  1.00  0.00     0.012 C 
HETATM   27  C14 UNL     1      -3.550  -4.388  14.210  1.00  0.00     0.027 C 
HETATM   28  C15 UNL     1      -2.174  -3.825  14.497  1.00  0.00     0.167 C 
HETATM   29  O1  UNL     1      -1.569  -4.733  15.398  1.00  0.00    -0.391 OA
HETATM   30  C16 UNL     1      -2.281  -4.616  16.592  1.00  0.00     0.168 C 
HETATM   31  C17 UNL     1      -3.474  -5.518  16.625  1.00  0.00     0.036 C 
ENDBRANCH  24  25
ENDBRANCH  18  24
ENDBRANCH  14  15
ENDBRANCH   3   4
TORSDOF 4
ENDMDL
MODEL 3
REMARK VINA RESULT: -7.382076325      4.035      8.024
REMARK  4 active torsions:
REMARK  status: ('A' for Active; 'I' for Inactive)
REMARK    1  A    between atoms: C3_3  and  C4_4 
REMARK    2  A    between atoms: C8_14  and  N3_15 
REMARK    3  A    between atoms: N4_18  and  C11_19 
REMARK    4  A    between atoms: C11_19  and  C12_20 
ROOT
HETATM    1  C1  UNL     1      -6.976 -14.021  15.352  1.00  0.00     0.112 C 
HETATM    2  C2  UNL     1      -7.018 -13.098  16.488  1.00  0.00    -0.105 C 
HETATM    3  C3  UNL     1      -7.058 -12.330  17.441  1.00  0.00    -0.064 C 
ENDROOT
BRANCH   3   4
HETATM    4  C4  UNL     1      -7.130 -11.421  18.550  1.00  0.00     0.061 A 
HETATM    5  C5  UNL     1      -7.814 -11.779  19.717  1.00  0.00     0.112 A 
HETATM    6  N1  UNL     1      -7.906 -10.955  20.771  1.00  0.00    -0.350 N 
HETATM    7  C6  UNL     1      -7.335  -9.759  20.725  1.00  0.00     0.123 A 
ATOM      8  H1  UNL     1      -8.414 -11.248  21.606  1.00  0.00     0.166 HD
HETATM    9  N2  UNL     1      -7.415  -8.961  21.723  1.00  0.00    -0.384 N 
HETATM   10  C7  UNL     1      -6.646  -9.376  19.577  1.00  0.00     0.105 A 
ATOM     11  H22 UNL     1      -7.919  -9.242  22.563  1.00  0.00     0.157 HD
ATOM     12  H21 UNL     1      -6.976  -8.041  21.687  1.00  0.00     0.157 HD
HETATM   13 CL1  UNL     1      -5.900  -7.801  19.529  1.00  0.00    -0.078 Cl
HETATM   14  C8  UNL     1      -6.523 -10.184  18.467  1.00  0.00     0.081 A 
BRANCH  14  15
HETATM   15  N3  UNL     1      -5.808  -9.762  17.313  1.00  0.00    -0.336 N 
HETATM   16  C9  UNL     1      -6.491  -8.774  16.501  1.00  0.00     0.174 C 
HETATM   17  C10 UNL     1      -5.905  -8.655  15.113  1.00  0.00     0.083 C 
HETATM   18  N4  UNL     1      -4.616  -8.097  15.020  1.00  0.00    -0.367 N 
HETATM   19  C18 UNL     1      -3.501  -8.963  14.918  1.00  0.00     0.171 C 
HETATM   20  C19 UNL     1      -3.802 -10.407  14.821  1.00  0.00     0.082 C 
HETATM   21  N5  UNL     1      -4.393 -11.023  15.913  1.00  0.00    -0.364 N 
HETATM   22  C20 UNL     1      -4.514 -10.396  17.153  1.00  0.00     0.183 C 
ATOM     23  H5  UNL     1      -4.754 -11.971  15.806  1.00  0.00     0.165 HD
BRANCH  18  24
HETATM   24  C11 UNL     1      -4.465  -6.928  15.786  1.00  0.00     0.068 C 
BRANCH  24  25
HETATM   25  C12 UNL     1      -3.192  -6.155  15.513  1.00  0.00     0.026 C 
HETATM   26  C13 UNL     1      -3.367  -5.420  14.214  1.00  0.00     0.012 C 
HETATM   27  C14 UNL     1      -3.413  -3.934  14.355  1.00  0.00     0.027 C 
HETATM   28  C15 UNL     1      -1.991  -3.422  14.453  1.00  0.00     0.167 C 
HETATM   29  O1  UNL     1      -1.288  -4.386  15.214  1.00  0.00    -0.391 OA
HETATM   30  C16 UNL     1      -1.809  -4.303  16.506  1.00  0.00     0.168 C 
HETATM   31  C17 UNL     1      -3.013  -5.173  16.682  1.00  0.00     0.036 C 
ENDBRANCH  24  25
ENDBRANCH  18  24
ENDBRANCH  14  15
ENDBRANCH   3   4
TORSDOF 4
ENDMDL
MODEL 4
REMARK VINA RESULT: -7.247450365      2.225      3.498
REMARK  4 active torsions:
REMARK  status: ('A' for Active; 'I' for Inactive)
REMARK    1  A    between atoms: C3_3  and  C4_4 
REMARK    2  A    between atoms: C8_14  and  N3_15 
REMARK    3  A    between atoms: N4_18  and  C11_19 
REMARK    4  A    between atoms: C11_19  and  C12_20 
ROOT
HETATM    1  C1  UNL     1      -4.033  -6.987  14.431  1.00  0.00     0.112 C 
HETATM    2  C2  UNL     1      -4.681  -7.428  15.667  1.00  0.00    -0.105 C 
HETATM    3  C3  UNL     1      -5.225  -7.791  16.704  1.00  0.00    -0.064 C 
ENDROOT
BRANCH   3   4
HETATM    4  C4  UNL     1      -5.837  -8.213  17.931  1.00  0.00     0.061 A 
HETATM    5  C5  UNL     1      -6.188  -7.274  18.908  1.00  0.00     0.112 A 
HETATM    6  N1  UNL     1      -6.758  -7.631  20.068  1.00  0.00    -0.350 N 
HETATM    7  C6  UNL     1      -7.005  -8.910  20.316  1.00  0.00     0.123 A 
ATOM      8  H1  UNL     1      -7.000  -6.920  20.758  1.00  0.00     0.166 HD
HETATM    9  N2  UNL     1      -7.548  -9.266  21.419  1.00  0.00    -0.384 N 
HETATM   10  C7  UNL     1      -6.667  -9.867  19.362  1.00  0.00     0.105 A 
ATOM     11  H22 UNL     1      -7.795  -8.565  22.117  1.00  0.00     0.157 HD
ATOM     12  H21 UNL     1      -7.738 -10.250  21.609  1.00  0.00     0.157 HD
HETATM   13 CL1  UNL     1      -6.998 -11.545  19.700  1.00  0.00    -0.078 Cl
HETATM   14  C8  UNL     1      -6.080  -9.553  18.155  1.00  0.00     0.081 A 
BRANCH  14  15
HETATM   15  N3  UNL     1      -5.753 -10.556  17.202  1.00  0.00    -0.336 N 
HETATM   16  C9  UNL     1      -4.421 -11.114  17.339  1.00  0.00     0.174 C 
HETATM   17  C10 UNL     1      -3.972 -11.857  16.101  1.00  0.00     0.083 C 
HETATM   18  N4  UNL     1      -4.638 -13.063  15.815  1.00  0.00    -0.367 N 
HETATM   19  C18 UNL     1      -5.691 -13.056  14.869  1.00  0.00     0.171 C 
HETATM   20  C19 UNL     1      -5.941 -11.772  14.179  1.00  0.00     0.082 C 
HETATM   21  N5  UNL     1      -6.391 -10.703  14.939  1.00  0.00    -0.364 N 
HETATM   22  C20 UNL     1      -6.815 -10.847  16.259  1.00  0.00     0.183 C 
ATOM     23  H5  UNL     1      -6.412  -9.775  14.516  1.00  0.00     0.165 HD
BRANCH  18  24
HETATM   24  C11 UNL     1      -4.779 -13.895  16.939  1.00  0.00     0.068 C 
BRANCH  24  25
HETATM   25  C12 UNL     1      -5.641 -15.120  16.713  1.00  0.00     0.026 C 
HETATM   26  C13 UNL     1      -4.734 -16.314  16.628  1.00  0.00     0.012 C 
HETATM   27  C14 UNL     1      -4.883 -17.277  17.760  1.00  0.00     0.027 C 
HETATM   28  C15 UNL     1      -6.076 -18.163  17.475  1.00  0.00     0.167 C 
HETATM   29  O1  UNL     1      -7.038 -17.327  16.861  1.00  0.00    -0.391 OA
HETATM   30  C16 UNL     1      -7.456 -16.438  17.852  1.00  0.00     0.168 C 
HETATM   31  C17 UNL     1      -6.581 -15.227  17.925  1.00  0.00     0.036 C 
ENDBRANCH  24  25
ENDBRANCH  18  24
ENDBRANCH  14  15
ENDBRANCH   3   4
TORSDOF 4
ENDMDL
MODEL 5
REMARK VINA RESULT: -7.187849594      2.828      5.014
REMARK  4 active torsions:
REMARK  status: ('A' for Active; 'I' for Inactive)
REMARK    1  A    between atoms: C3_3  and  C4_4 
REMARK    2  A    between atoms: C8_14  and  N3_15 
REMARK    3  A    between atoms: N4_18  and  C11_19 
REMARK    4  A    between atoms: C11_19  and  C12_20 
ROOT
HETATM    1  C1  UNL     1      -7.678 -11.436  20.517  1.00  0.00     0.112 C 
HETATM    2  C2  UNL     1      -7.063 -10.579  19.503  1.00  0.00    -0.105 C 
HETATM    3  C3  UNL     1      -6.541  -9.863  18.655  1.00  0.00    -0.064 C 
ENDROOT
BRANCH   3   4
HETATM    4  C4  UNL     1      -5.919  -9.011  17.683  1.00  0.00     0.061 A 
HETATM    5  C5  UNL     1      -5.779  -7.640  17.928  1.00  0.00     0.112 A 
HETATM    6  N1  UNL     1      -5.208  -6.812  17.041  1.00  0.00    -0.350 N 
HETATM    7  C6  UNL     1      -4.754  -7.290  15.890  1.00  0.00     0.123 A 
ATOM      8  H1  UNL     1      -5.122  -5.818  17.252  1.00  0.00     0.166 HD
HETATM    9  N2  UNL     1      -4.207  -6.512  15.033  1.00  0.00    -0.384 N 
HETATM   10  C7  UNL     1      -4.880  -8.650  15.619  1.00  0.00     0.105 A 
ATOM     11  H22 UNL     1      -4.115  -5.516  15.232  1.00  0.00     0.157 HD
ATOM     12  H21 UNL     1      -3.858  -6.879  14.148  1.00  0.00     0.157 HD
HETATM   13 CL1  UNL     1      -4.279  -9.265  14.102  1.00  0.00    -0.078 Cl
HETATM   14  C8  UNL     1      -5.459  -9.543  16.496  1.00  0.00     0.081 A 
BRANCH  14  15
HETATM   15  N3  UNL     1      -5.565 -10.926  16.188  1.00  0.00    -0.336 N 
HETATM   16  C9  UNL     1      -6.827 -11.322  15.592  1.00  0.00     0.174 C 
HETATM   17  C10 UNL     1      -7.057 -12.815  15.654  1.00  0.00     0.083 C 
HETATM   18  N4  UNL     1      -6.225 -13.613  14.847  1.00  0.00    -0.367 N 
HETATM   19  C18 UNL     1      -5.092 -14.228  15.431  1.00  0.00     0.171 C 
HETATM   20  C19 UNL     1      -4.931 -14.050  16.890  1.00  0.00     0.082 C 
HETATM   21  N5  UNL     1      -4.691 -12.770  17.366  1.00  0.00    -0.364 N 
HETATM   22  C20 UNL     1      -4.387 -11.701  16.524  1.00  0.00     0.183 C 
ATOM     23  H5  UNL     1      -4.740 -12.603  18.371  1.00  0.00     0.165 HD
BRANCH  18  24
HETATM   24  C11 UNL     1      -6.099 -13.127  13.535  1.00  0.00     0.068 C 
BRANCH  24  25
HETATM   25  C12 UNL     1      -4.799 -13.492  12.849  1.00  0.00     0.026 C 
HETATM   26  C13 UNL     1      -5.127 -14.353  11.663  1.00  0.00     0.012 C 
HETATM   27  C14 UNL     1      -4.834 -13.715  10.345  1.00  0.00     0.027 C 
HETATM   28  C15 UNL     1      -3.357 -13.881  10.056  1.00  0.00     0.167 C 
HETATM   29  O1  UNL     1      -2.703 -13.735  11.302  1.00  0.00    -0.391 OA
HETATM   30  C16 UNL     1      -2.869 -12.397  11.664  1.00  0.00     0.168 C 
HETATM   31  C17 UNL     1      -4.147 -12.172  12.409  1.00  0.00     0.036 C 
ENDBRANCH  24  25
ENDBRANCH  18  24
ENDBRANCH  14  15
ENDBRANCH   3   4
TORSDOF 4
ENDMDL
