MODEL 1
REMARK VINA RESULT: -7.910677703      0.000      0.000
REMARK  6 active torsions:
REMARK  status: ('A' for Active; 'I' for Inactive)
REMARK    1  A    between atoms: C4_8  and  N3_9 
REMARK    2  A    between atoms: N3_9  and  C5_11 
REMARK    3  A    between atoms: C5_11  and  C6_12 
REMARK    4  A    between atoms: C9_15  and  N4_16 
REMARK    5  A    between atoms: C12_24  and  N6_25 
REMARK    6  A    between atoms: N6_25  and  C13_27 
ROOT
HETATM    1  N1  UNL     1      -6.703 -16.570  15.904  1.00  0.00    -0.191 NA
HETATM    2  C1  UNL     1      -6.851 -15.724  16.693  1.00  0.00     0.106 C 
HETATM    3  C2  UNL     1      -7.030 -14.689  17.677  1.00  0.00     0.127 A 
HETATM    4  C3  UNL     1      -7.213 -15.019  19.001  1.00  0.00     0.143 A 
HETATM    5 CL1  UNL     1      -7.220 -16.716  19.426  1.00  0.00    -0.062 Cl
HETATM    6  N2  UNL     1      -7.379 -14.043  19.911  1.00  0.00    -0.180 N 
ATOM      7  H2  UNL     1      -7.514 -14.314  20.884  1.00  0.00     0.185 HD
HETATM    8  C4  UNL     1      -7.379 -12.732  19.614  1.00  0.00     0.680 A 
HETATM    9  N5  UNL     1      -7.197 -12.409  18.304  1.00  0.00    -0.175 N 
ATOM     10  H5  UNL     1      -7.189 -11.426  18.032  1.00  0.00     0.186 HD
HETATM   11  C12 UNL     1      -7.027 -13.349  17.358  1.00  0.00     0.141 A 
ENDROOT
BRANCH  11  12
HETATM   12  N6  UNL     1      -6.862 -12.998  16.154  1.00  0.00    -0.368 N 
ATOM     13  H6  UNL     1      -7.351 -13.552  15.450  1.00  0.00     0.161 HD
BRANCH  12  14
HETATM   14  C13 UNL     1      -6.068 -11.911  15.669  1.00  0.00     0.117 C 
HETATM   15  C14 UNL     1      -5.998 -11.812  14.183  1.00  0.00     0.297 C 
HETATM   16  N7  UNL     1      -4.605 -11.660  13.811  1.00  0.00     0.090 N 
HETATM   17  C15 UNL     1      -4.138 -10.300  13.883  1.00  0.00     0.272 C 
HETATM   18  C19 UNL     1      -3.919 -12.476  14.773  1.00  0.00     0.279 C 
HETATM   19  C16 UNL     1      -3.517  -9.936  15.195  1.00  0.00     0.031 C 
HETATM   20  C17 UNL     1      -4.102 -10.660  16.373  1.00  0.00     0.010 C 
HETATM   21  C18 UNL     1      -4.614 -12.025  16.067  1.00  0.00     0.038 C 
ENDBRANCH  12  14
ENDBRANCH  11  12
BRANCH   8  22
HETATM   22  N3  UNL     1      -7.534 -11.804  20.468  1.00  0.00    -0.226 N 
ATOM     23  H3  UNL     1      -7.332 -12.060  21.434  1.00  0.00     0.177 HD
BRANCH  22  24
HETATM   24  C5  UNL     1      -7.947 -10.466  20.269  1.00  0.00     0.142 C 
BRANCH  24  25
HETATM   25  C6  UNL     1      -6.785  -9.469  20.408  1.00  0.00     0.004 C 
HETATM   26  C7  UNL     1      -6.282  -9.208  19.027  1.00  0.00     0.008 C 
HETATM   27  C8  UNL     1      -6.645  -7.798  18.546  1.00  0.00     0.033 C 
HETATM   28  C9  UNL     1      -5.911  -6.895  19.541  1.00  0.00     0.183 C 
HETATM   29  C10 UNL     1      -6.631  -6.981  20.840  1.00  0.00     0.033 C 
HETATM   30  C11 UNL     1      -7.262  -8.278  21.155  1.00  0.00     0.008 C 
BRANCH  28  31
HETATM   31  N4  UNL     1      -5.964  -5.541  19.019  1.00  0.00    -0.075 N 
ATOM     32  H43 UNL     1      -5.180  -5.321  18.405  1.00  0.00     0.274 HD
ATOM     33  H42 UNL     1      -6.710  -5.407  18.336  1.00  0.00     0.274 HD
ATOM     34  H41 UNL     1      -6.035  -4.909  19.817  1.00  0.00     0.274 HD
ENDBRANCH  28  31
ENDBRANCH  24  25
ENDBRANCH  22  24
ENDBRANCH   8  22
TORSDOF 6
ENDMDL
MODEL 2
REMARK VINA RESULT: -7.818809737      3.634      5.847
REMARK  6 active torsions:
REMARK  status: ('A' for Active; 'I' for Inactive)
REMARK    1  A    between atoms: C4_8  and  N3_9 
REMARK    2  A    between atoms: N3_9  and  C5_11 
REMARK    3  A    between atoms: C5_11  and  C6_12 
REMARK    4  A    between atoms: C9_15  and  N4_16 
REMARK    5  A    between atoms: C12_24  and  N6_25 
REMARK    6  A    between atoms: N6_25  and  C13_27 
ROOT
HETATM    1  N1  UNL     1      -7.652 -10.605  21.469  1.00  0.00    -0.191 NA
HETATM    2  C1  UNL     1      -7.220  -9.951  20.605  1.00  0.00     0.106 C 
HETATM    3  C2  UNL     1      -6.682  -9.135  19.549  1.00  0.00     0.127 A 
HETATM    4  C3  UNL     1      -6.546  -7.776  19.728  1.00  0.00     0.143 A 
HETATM    5 CL1  UNL     1      -7.045  -7.100  21.262  1.00  0.00    -0.062 Cl
HETATM    6  N2  UNL     1      -6.043  -7.024  18.733  1.00  0.00    -0.180 N 
ATOM      7  H2  UNL     1      -5.953  -6.020  18.891  1.00  0.00     0.185 HD
HETATM    8  C4  UNL     1      -5.652  -7.514  17.544  1.00  0.00     0.680 A 
HETATM    9  N5  UNL     1      -5.787  -8.858  17.371  1.00  0.00    -0.175 N 
ATOM     10  H5  UNL     1      -5.502  -9.275  16.485  1.00  0.00     0.186 HD
HETATM   11  C12 UNL     1      -6.286  -9.652  18.336  1.00  0.00     0.141 A 
ENDROOT
BRANCH  11  12
HETATM   12  N6  UNL     1      -6.392 -10.895  18.126  1.00  0.00    -0.368 N 
ATOM     13  H6  UNL     1      -6.667 -11.467  18.924  1.00  0.00     0.161 HD
BRANCH  12  14
HETATM   14  C13 UNL     1      -6.170 -11.588  16.893  1.00  0.00     0.117 C 
HETATM   15  C14 UNL     1      -7.300 -12.461  16.464  1.00  0.00     0.297 C 
HETATM   16  N7  UNL     1      -6.755 -13.757  16.113  1.00  0.00     0.090 N 
HETATM   17  C15 UNL     1      -6.247 -13.820  14.768  1.00  0.00     0.272 C 
HETATM   18  C19 UNL     1      -5.687 -13.928  17.059  1.00  0.00     0.279 C 
HETATM   19  C16 UNL     1      -4.789 -13.508  14.649  1.00  0.00     0.031 C 
HETATM   20  C17 UNL     1      -4.288 -12.520  15.663  1.00  0.00     0.010 C 
HETATM   21  C18 UNL     1      -5.009 -12.553  16.966  1.00  0.00     0.038 C 
ENDBRANCH  12  14
ENDBRANCH  11  12
BRANCH   8  22
HETATM   22  N3  UNL     1      -5.174  -6.811  16.601  1.00  0.00    -0.226 N 
ATOM     23  H3  UNL     1      -5.249  -5.801  16.727  1.00  0.00     0.177 HD
BRANCH  22  24
HETATM   24  C5  UNL     1      -4.553  -7.228  15.400  1.00  0.00     0.142 C 
BRANCH  24  25
HETATM   25  C6  UNL     1      -3.265  -6.442  15.105  1.00  0.00     0.004 C 
HETATM   26  C7  UNL     1      -3.444  -5.827  13.756  1.00  0.00     0.008 C 
HETATM   27  C8  UNL     1      -3.638  -4.309  13.846  1.00  0.00     0.033 C 
HETATM   28  C9  UNL     1      -2.321  -3.828  14.461  1.00  0.00     0.183 C 
HETATM   29  C10 UNL     1      -2.322  -4.230  15.893  1.00  0.00     0.033 C 
HETATM   30  C11 UNL     1      -3.017  -5.492  16.218  1.00  0.00     0.008 C 
BRANCH  28  31
HETATM   31  N4  UNL     1      -2.288  -2.381  14.340  1.00  0.00    -0.075 N 
ATOM     32  H43 UNL     1      -2.827  -2.036  13.546  1.00  0.00     0.274 HD
ATOM     33  H42 UNL     1      -2.814  -1.908  15.075  1.00  0.00     0.274 HD
ATOM     34  H41 UNL     1      -1.307  -2.101  14.308  1.00  0.00     0.274 HD
ENDBRANCH  28  31
ENDBRANCH  24  25
ENDBRANCH  22  24
ENDBRANCH   8  22
TORSDOF 6
ENDMDL
MODEL 3
REMARK VINA RESULT: -7.518949097      3.620      6.282
REMARK  6 active torsions:
REMARK  status: ('A' for Active; 'I' for Inactive)
REMARK    1  A    between atoms: C4_8  and  N3_9 
REMARK    2  A    between atoms: N3_9  and  C5_11 
REMARK    3  A    between atoms: C5_11  and  C6_12 
REMARK    4  A    between atoms: C9_15  and  N4_16 
REMARK    5  A    between atoms: C12_24  and  N6_25 
REMARK    6  A    between atoms: N6_25  and  C13_27 
ROOT
HETATM    1  N1  UNL     1      -6.746 -13.986  16.502  1.00  0.00    -0.191 NA
HETATM    2  C1  UNL     1      -6.299 -12.961  16.172  1.00  0.00     0.106 C 
HETATM    3  C2  UNL     1      -5.753 -11.698  15.751  1.00  0.00     0.127 A 
HETATM    4  C3  UNL     1      -5.589 -11.428  14.411  1.00  0.00     0.143 A 
HETATM    5 CL1  UNL     1      -6.063 -12.663  13.266  1.00  0.00    -0.062 Cl
HETATM    6  N2  UNL     1      -5.078 -10.245  14.030  1.00  0.00    -0.180 N 
ATOM      7  H2  UNL     1      -4.966 -10.070  13.031  1.00  0.00     0.185 HD
HETATM    8  C4  UNL     1      -4.704  -9.277  14.886  1.00  0.00     0.680 A 
HETATM    9  N5  UNL     1      -4.869  -9.547  16.210  1.00  0.00    -0.175 N 
ATOM     10  H5  UNL     1      -4.600  -8.842  16.897  1.00  0.00     0.186 HD
HETATM   11  C12 UNL     1      -5.375 -10.716  16.640  1.00  0.00     0.141 A 
ENDROOT
BRANCH  11  12
HETATM   12  N6  UNL     1      -5.507 -10.919  17.882  1.00  0.00    -0.368 N 
ATOM     13  H6  UNL     1      -4.865 -11.591  18.301  1.00  0.00     0.161 HD
BRANCH  12  14
HETATM   14  C13 UNL     1      -6.456 -10.310  18.764  1.00  0.00     0.117 C 
HETATM   15  C14 UNL     1      -6.032  -8.990  19.311  1.00  0.00     0.297 C 
HETATM   16  N7  UNL     1      -6.244  -9.012  20.744  1.00  0.00     0.090 N 
HETATM   17  C15 UNL     1      -7.594  -8.692  21.129  1.00  0.00     0.272 C 
HETATM   18  C19 UNL     1      -5.931 -10.368  21.100  1.00  0.00     0.279 C 
HETATM   19  C16 UNL     1      -8.486  -9.885  21.280  1.00  0.00     0.031 C 
HETATM   20  C17 UNL     1      -8.148 -11.024  20.362  1.00  0.00     0.010 C 
HETATM   21  C18 UNL     1      -6.704 -11.127  20.011  1.00  0.00     0.038 C 
ENDBRANCH  12  14
ENDBRANCH  11  12
BRANCH   8  22
HETATM   22  N3  UNL     1      -4.222  -8.156  14.534  1.00  0.00    -0.226 N 
ATOM     23  H3  UNL     1      -3.677  -8.166  13.672  1.00  0.00     0.177 HD
BRANCH  22  24
HETATM   24  C5  UNL     1      -4.334  -6.897  15.168  1.00  0.00     0.142 C 
BRANCH  24  25
HETATM   25  C6  UNL     1      -3.112  -6.000  14.906  1.00  0.00     0.004 C 
HETATM   26  C7  UNL     1      -3.357  -5.321  13.599  1.00  0.00     0.008 C 
HETATM   27  C8  UNL     1      -3.662  -3.830  13.783  1.00  0.00     0.033 C 
HETATM   28  C9  UNL     1      -2.374  -3.289  14.411  1.00  0.00     0.183 C 
HETATM   29  C10 UNL     1      -2.323  -3.775  15.816  1.00  0.00     0.033 C 
HETATM   30  C11 UNL     1      -2.917  -5.103  16.071  1.00  0.00     0.008 C 
BRANCH  28  31
HETATM   31  N4  UNL     1      -2.450  -1.840  14.377  1.00  0.00    -0.075 N 
ATOM     32  H43 UNL     1      -3.180  -1.465  14.983  1.00  0.00     0.274 HD
ATOM     33  H42 UNL     1      -1.656  -1.388  14.831  1.00  0.00     0.274 HD
ATOM     34  H41 UNL     1      -2.561  -1.563  13.401  1.00  0.00     0.274 HD
ENDBRANCH  28  31
ENDBRANCH  24  25
ENDBRANCH  22  24
ENDBRANCH   8  22
TORSDOF 6
ENDMDL
MODEL 4
REMARK VINA RESULT: -7.458376632      4.792      6.860
REMARK  6 active torsions:
REMARK  status: ('A' for Active; 'I' for Inactive)
REMARK    1  A    between atoms: C4_8  and  N3_9 
REMARK    2  A    between atoms: N3_9  and  C5_11 
REMARK    3  A    between atoms: C5_11  and  C6_12 
REMARK    4  A    between atoms: C9_15  and  N4_16 
REMARK    5  A    between atoms: C12_24  and  N6_25 
REMARK    6  A    between atoms: N6_25  and  C13_27 
ROOT
HETATM    1  N1  UNL     1      -6.319 -11.322  16.492  1.00  0.00    -0.191 NA
HETATM    2  C1  UNL     1      -5.783 -10.330  16.195  1.00  0.00     0.106 C 
HETATM    3  C2  UNL     1      -5.127  -9.099  15.841  1.00  0.00     0.127 A 
HETATM    4  C3  UNL     1      -5.564  -7.906  16.370  1.00  0.00     0.143 A 
HETATM    5 CL1  UNL     1      -6.924  -7.950  17.469  1.00  0.00    -0.062 Cl
HETATM    6  N2  UNL     1      -4.943  -6.762  16.031  1.00  0.00    -0.180 N 
ATOM      7  H2  UNL     1      -5.287  -5.892  16.437  1.00  0.00     0.185 HD
HETATM    8  C4  UNL     1      -3.897  -6.697  15.189  1.00  0.00     0.680 A 
HETATM    9  N5  UNL     1      -3.467  -7.879  14.668  1.00  0.00    -0.175 N 
ATOM     10  H5  UNL     1      -2.675  -7.878  14.025  1.00  0.00     0.186 HD
HETATM   11  C12 UNL     1      -4.056  -9.048  14.976  1.00  0.00     0.141 A 
ENDROOT
BRANCH  11  12
HETATM   12  N6  UNL     1      -3.619 -10.119  14.465  1.00  0.00    -0.368 N 
ATOM     13  H6  UNL     1      -2.877 -10.596  14.977  1.00  0.00     0.161 HD
BRANCH  12  14
HETATM   14  C13 UNL     1      -4.051 -10.738  13.248  1.00  0.00     0.117 C 
HETATM   15  C14 UNL     1      -4.655 -12.089  13.423  1.00  0.00     0.297 C 
HETATM   16  N7  UNL     1      -4.036 -12.983  12.465  1.00  0.00     0.090 N 
HETATM   17  C15 UNL     1      -4.638 -12.928  11.158  1.00  0.00     0.272 C 
HETATM   18  C19 UNL     1      -2.680 -12.515  12.411  1.00  0.00     0.279 C 
HETATM   19  C16 UNL     1      -3.984 -11.958  10.225  1.00  0.00     0.031 C 
HETATM   20  C17 UNL     1      -3.397 -10.754  10.903  1.00  0.00     0.010 C 
HETATM   21  C18 UNL     1      -2.912 -11.001  12.290  1.00  0.00     0.038 C 
ENDBRANCH  12  14
ENDBRANCH  11  12
BRANCH   8  22
HETATM   22  N3  UNL     1      -3.304  -5.621  14.865  1.00  0.00    -0.226 N 
ATOM     23  H3  UNL     1      -3.399  -5.347  13.887  1.00  0.00     0.177 HD
BRANCH  22  24
HETATM   24  C5  UNL     1      -2.530  -4.751  15.667  1.00  0.00     0.142 C 
BRANCH  24  25
HETATM   25  C6  UNL     1      -2.380  -3.355  15.038  1.00  0.00     0.004 C 
HETATM   26  C7  UNL     1      -2.815  -3.483  13.615  1.00  0.00     0.008 C 
HETATM   27  C8  UNL     1      -4.162  -2.792  13.370  1.00  0.00     0.033 C 
HETATM   28  C9  UNL     1      -3.859  -1.324  13.688  1.00  0.00     0.183 C 
HETATM   29  C10 UNL     1      -3.709  -1.207  15.163  1.00  0.00     0.033 C 
HETATM   30  C11 UNL     1      -3.136  -2.376  15.858  1.00  0.00     0.008 C 
BRANCH  28  31
HETATM   31  N4  UNL     1      -4.990  -0.539  13.227  1.00  0.00    -0.075 N 
ATOM     32  H43 UNL     1      -5.037   0.384  13.660  1.00  0.00     0.274 HD
ATOM     33  H42 UNL     1      -4.892  -0.227  12.261  1.00  0.00     0.274 HD
ATOM     34  H41 UNL     1      -5.831  -1.095  13.384  1.00  0.00     0.274 HD
ENDBRANCH  28  31
ENDBRANCH  24  25
ENDBRANCH  22  24
ENDBRANCH   8  22
TORSDOF 6
ENDMDL
MODEL 5
REMARK VINA RESULT: -7.436212001      4.604      6.577
REMARK  6 active torsions:
REMARK  status: ('A' for Active; 'I' for Inactive)
REMARK    1  A    between atoms: C4_8  and  N3_9 
REMARK    2  A    between atoms: N3_9  and  C5_11 
REMARK    3  A    between atoms: C5_11  and  C6_12 
REMARK    4  A    between atoms: C9_15  and  N4_16 
REMARK    5  A    between atoms: C12_24  and  N6_25 
REMARK    6  A    between atoms: N6_25  and  C13_27 
ROOT
HETATM    1  N1  UNL     1      -6.903 -11.468  16.688  1.00  0.00    -0.191 NA
HETATM    2  C1  UNL     1      -6.344 -10.496  16.368  1.00  0.00     0.106 C 
HETATM    3  C2  UNL     1      -5.651  -9.294  15.986  1.00  0.00     0.127 A 
HETATM    4  C3  UNL     1      -5.561  -8.240  16.867  1.00  0.00     0.143 A 
HETATM    5 CL1  UNL     1      -6.310  -8.421  18.437  1.00  0.00    -0.062 Cl
HETATM    6  N2  UNL     1      -4.911  -7.121  16.499  1.00  0.00    -0.180 N 
ATOM      7  H2  UNL     1      -4.860  -6.355  17.170  1.00  0.00     0.185 HD
HETATM    8  C4  UNL     1      -4.326  -6.952  15.300  1.00  0.00     0.680 A 
HETATM    9  N5  UNL     1      -4.417  -7.997  14.432  1.00  0.00    -0.175 N 
ATOM     10  H5  UNL     1      -3.987  -7.914  13.511  1.00  0.00     0.186 HD
HETATM   11  C12 UNL     1      -5.056  -9.135  14.754  1.00  0.00     0.141 A 
ENDROOT
BRANCH  11  12
HETATM   12  N6  UNL     1      -5.113 -10.077  13.912  1.00  0.00    -0.368 N 
ATOM     13  H6  UNL     1      -5.929 -10.089  13.299  1.00  0.00     0.161 HD
BRANCH  12  14
HETATM   14  C13 UNL     1      -4.161 -11.129  13.720  1.00  0.00     0.117 C 
HETATM   15  C14 UNL     1      -3.431 -11.072  12.422  1.00  0.00     0.297 C 
HETATM   16  N7  UNL     1      -3.482 -12.391  11.823  1.00  0.00     0.090 N 
HETATM   17  C15 UNL     1      -2.463 -13.282  12.312  1.00  0.00     0.272 C 
HETATM   18  C19 UNL     1      -4.784 -12.869  12.198  1.00  0.00     0.279 C 
HETATM   19  C16 UNL     1      -2.889 -14.121  13.475  1.00  0.00     0.031 C 
HETATM   20  C17 UNL     1      -3.891 -13.458  14.375  1.00  0.00     0.010 C 
HETATM   21  C18 UNL     1      -4.799 -12.498  13.688  1.00  0.00     0.038 C 
ENDBRANCH  12  14
ENDBRANCH  11  12
BRANCH   8  22
HETATM   22  N3  UNL     1      -3.710  -5.900  14.945  1.00  0.00    -0.226 N 
ATOM     23  H3  UNL     1      -3.776  -5.668  13.955  1.00  0.00     0.177 HD
BRANCH  22  24
HETATM   24  C5  UNL     1      -2.945  -5.005  15.730  1.00  0.00     0.142 C 
BRANCH  24  25
HETATM   25  C6  UNL     1      -2.509  -3.761  14.938  1.00  0.00     0.004 C 
HETATM   26  C7  UNL     1      -3.045  -3.929  13.554  1.00  0.00     0.008 C 
HETATM   27  C8  UNL     1      -4.203  -2.965  13.273  1.00  0.00     0.033 C 
HETATM   28  C9  UNL     1      -3.546  -1.588  13.407  1.00  0.00     0.183 C 
HETATM   29  C10 UNL     1      -3.286  -1.355  14.853  1.00  0.00     0.033 C 
HETATM   30  C11 UNL     1      -2.964  -2.548  15.661  1.00  0.00     0.008 C 
BRANCH  28  31
HETATM   31  N4  UNL     1      -4.486  -0.607  12.895  1.00  0.00    -0.075 N 
ATOM     32  H43 UNL     1      -4.676   0.145  13.557  1.00  0.00     0.274 HD
ATOM     33  H42 UNL     1      -4.094  -0.032  12.149  1.00  0.00     0.274 HD
ATOM     34  H41 UNL     1      -5.326  -1.110  12.610  1.00  0.00     0.274 HD
ENDBRANCH  28  31
ENDBRANCH  24  25
ENDBRANCH  22  24
ENDBRANCH   8  22
TORSDOF 6
ENDMDL
