MODEL 1
REMARK VINA RESULT: -8.205271120      0.000      0.000
REMARK  5 active torsions:
REMARK  status: ('A' for Active; 'I' for Inactive)
REMARK    1  A    between atoms: C4_7  and  N3_8 
REMARK    2  A    between atoms: N3_8  and  C5_10 
REMARK    3  A    between atoms: N5_20  and  C12_22 
REMARK    4  A    between atoms: C15_25  and  S1_26 
REMARK    5  A    between atoms: S1_26  and  N6_27 
ROOT
HETATM    1  N1  UNL     1      -6.694 -10.874  18.573  1.00  0.00    -0.191 NA
HETATM    2  C1  UNL     1      -6.242 -10.164  17.779  1.00  0.00     0.104 C 
HETATM    3  C2  UNL     1      -5.684  -9.246  16.810  1.00  0.00     0.105 A 
HETATM    4  C3  UNL     1      -5.669  -7.878  17.080  1.00  0.00     0.132 A 
HETATM    5  N2  UNL     1      -5.172  -6.961  16.237  1.00  0.00    -0.200 N 
ATOM      6  H2  UNL     1      -5.182  -5.968  16.474  1.00  0.00     0.183 HD
HETATM    7  C4  UNL     1      -4.662  -7.389  15.070  1.00  0.00     0.684 A 
HETATM    8  N4  UNL     1      -4.664  -8.671  14.789  1.00  0.00    -0.175 N 
ATOM      9  H4  UNL     1      -4.268  -8.958  13.895  1.00  0.00     0.186 HD
HETATM   10  C11 UNL     1      -5.161  -9.661  15.616  1.00  0.00     0.143 A 
HETATM   11  N5  UNL     1      -5.107 -10.834  15.248  1.00  0.00    -0.341 N 
ATOM     12  H5  UNL     1      -4.673 -10.868  14.326  1.00  0.00     0.167 HD
ENDROOT
BRANCH  11  13
HETATM   13  C12 UNL     1      -5.421 -12.103  15.631  1.00  0.00     0.033 A 
HETATM   14  C13 UNL     1      -6.642 -12.646  15.214  1.00  0.00     0.031 A 
HETATM   15  C14 UNL     1      -7.021 -13.916  15.584  1.00  0.00     0.027 A 
HETATM   16  C15 UNL     1      -6.222 -14.707  16.378  1.00  0.00     0.079 A 
HETATM   17  C16 UNL     1      -5.025 -14.159  16.780  1.00  0.00     0.027 A 
HETATM   18  C17 UNL     1      -4.603 -12.903  16.440  1.00  0.00     0.031 A 
BRANCH  16  19
HETATM   19  S1  UNL     1      -6.693 -16.322  16.855  1.00  0.00     0.256 S 
HETATM   20  O1  UNL     1      -5.430 -17.135  17.021  1.00  0.00    -0.201 OA
HETATM   21  O2  UNL     1      -7.439 -16.293  18.154  1.00  0.00    -0.201 OA
BRANCH  19  22
HETATM   22  N6  UNL     1      -7.666 -17.005  15.590  1.00  0.00    -0.324 N 
ATOM     23  H62 UNL     1      -7.399 -17.052  14.606  1.00  0.00     0.169 HD
ATOM     24  H61 UNL     1      -8.537 -17.345  16.000  1.00  0.00     0.169 HD
ENDBRANCH  19  22
ENDBRANCH  16  19
ENDBRANCH  11  13
BRANCH   7  25
HETATM   25  N3  UNL     1      -4.177  -6.490  14.247  1.00  0.00    -0.189 N 
ATOM     26  H3  UNL     1      -4.482  -6.502  13.274  1.00  0.00     0.184 HD
BRANCH  25  27
HETATM   27  C5  UNL     1      -3.255  -5.510  14.650  1.00  0.00     0.087 A 
HETATM   28  C6  UNL     1      -2.331  -5.742  15.639  1.00  0.00     0.033 A 
HETATM   29  C7  UNL     1      -1.441  -4.764  16.011  1.00  0.00     0.002 A 
HETATM   30  C8  UNL     1      -1.430  -3.517  15.423  1.00  0.00     0.003 A 
HETATM   31  C9  UNL     1      -2.372  -3.293  14.422  1.00  0.00     0.044 A 
HETATM   32  C10 UNL     1      -3.263  -4.275  14.050  1.00  0.00     0.143 A 
HETATM   33  F1  UNL     1      -4.148  -3.966  13.061  1.00  0.00    -0.204 F 
ENDBRANCH  25  27
ENDBRANCH   7  25
TORSDOF 5
ENDMDL
MODEL 2
REMARK VINA RESULT: -7.956302957      0.845      1.368
REMARK  5 active torsions:
REMARK  status: ('A' for Active; 'I' for Inactive)
REMARK    1  A    between atoms: C4_7  and  N3_8 
REMARK    2  A    between atoms: N3_8  and  C5_10 
REMARK    3  A    between atoms: N5_20  and  C12_22 
REMARK    4  A    between atoms: C15_25  and  S1_26 
REMARK    5  A    between atoms: S1_26  and  N6_27 
ROOT
HETATM    1  N1  UNL     1      -6.733 -10.574  18.751  1.00  0.00    -0.191 NA
HETATM    2  C1  UNL     1      -6.282  -9.927  17.905  1.00  0.00     0.104 C 
HETATM    3  C2  UNL     1      -5.723  -9.088  16.868  1.00  0.00     0.105 A 
HETATM    4  C3  UNL     1      -5.655  -7.707  17.056  1.00  0.00     0.132 A 
HETATM    5  N2  UNL     1      -5.153  -6.858  16.145  1.00  0.00    -0.200 N 
ATOM      6  H2  UNL     1      -5.123  -5.854  16.323  1.00  0.00     0.183 HD
HETATM    7  C4  UNL     1      -4.692  -7.372  14.993  1.00  0.00     0.684 A 
HETATM    8  N4  UNL     1      -4.743  -8.667  14.789  1.00  0.00    -0.175 N 
ATOM      9  H4  UNL     1      -4.383  -9.020  13.903  1.00  0.00     0.186 HD
HETATM   10  C11 UNL     1      -5.248  -9.589  15.686  1.00  0.00     0.143 A 
HETATM   11  N5  UNL     1      -5.244 -10.783  15.388  1.00  0.00    -0.341 N 
ATOM     12  H5  UNL     1      -4.838 -10.886  14.458  1.00  0.00     0.167 HD
ENDROOT
BRANCH  11  13
HETATM   13  C12 UNL     1      -5.588 -12.016  15.854  1.00  0.00     0.033 A 
HETATM   14  C13 UNL     1      -4.612 -12.783  16.503  1.00  0.00     0.031 A 
HETATM   15  C14 UNL     1      -4.896 -14.042  16.980  1.00  0.00     0.027 A 
HETATM   16  C15 UNL     1      -6.145 -14.604  16.840  1.00  0.00     0.079 A 
HETATM   17  C16 UNL     1      -7.093 -13.838  16.200  1.00  0.00     0.027 A 
HETATM   18  C17 UNL     1      -6.861 -12.583  15.709  1.00  0.00     0.031 A 
BRANCH  16  19
HETATM   19  S1  UNL     1      -6.516 -16.203  17.442  1.00  0.00     0.256 S 
HETATM   20  O1  UNL     1      -7.635 -16.063  18.448  1.00  0.00    -0.201 OA
HETATM   21  O2  UNL     1      -6.962 -17.097  16.326  1.00  0.00    -0.201 OA
BRANCH  19  22
HETATM   22  N6  UNL     1      -5.101 -16.837  18.224  1.00  0.00    -0.324 N 
ATOM     23  H62 UNL     1      -4.212 -17.027  17.761  1.00  0.00     0.169 HD
ATOM     24  H61 UNL     1      -5.316 -16.982  19.211  1.00  0.00     0.169 HD
ENDBRANCH  19  22
ENDBRANCH  16  19
ENDBRANCH  11  13
BRANCH   7  25
HETATM   25  N3  UNL     1      -4.202  -6.539  14.105  1.00  0.00    -0.189 N 
ATOM     26  H3  UNL     1      -4.453  -6.666  13.125  1.00  0.00     0.184 HD
BRANCH  25  27
HETATM   27  C5  UNL     1      -3.345  -5.480  14.448  1.00  0.00     0.087 A 
HETATM   28  C6  UNL     1      -2.434  -5.582  15.471  1.00  0.00     0.033 A 
HETATM   29  C7  UNL     1      -1.609  -4.529  15.782  1.00  0.00     0.002 A 
HETATM   30  C8  UNL     1      -1.651  -3.334  15.097  1.00  0.00     0.003 A 
HETATM   31  C9  UNL     1      -2.578  -3.242  14.062  1.00  0.00     0.044 A 
HETATM   32  C10 UNL     1      -3.404  -4.300  13.751  1.00  0.00     0.143 A 
HETATM   33  F1  UNL     1      -4.280  -4.119  12.722  1.00  0.00    -0.204 F 
ENDBRANCH  25  27
ENDBRANCH   7  25
TORSDOF 5
ENDMDL
MODEL 3
REMARK VINA RESULT: -7.705196316      4.782      6.202
REMARK  5 active torsions:
REMARK  status: ('A' for Active; 'I' for Inactive)
REMARK    1  A    between atoms: C4_7  and  N3_8 
REMARK    2  A    between atoms: N3_8  and  C5_10 
REMARK    3  A    between atoms: N5_20  and  C12_22 
REMARK    4  A    between atoms: C15_25  and  S1_26 
REMARK    5  A    between atoms: S1_26  and  N6_27 
ROOT
HETATM    1  N1  UNL     1      -7.348 -13.438  15.479  1.00  0.00    -0.191 NA
HETATM    2  C1  UNL     1      -6.649 -13.054  14.642  1.00  0.00     0.104 C 
HETATM    3  C2  UNL     1      -5.790 -12.600  13.570  1.00  0.00     0.105 A 
HETATM    4  C3  UNL     1      -5.835 -13.236  12.329  1.00  0.00     0.132 A 
HETATM    5  N2  UNL     1      -5.073 -12.878  11.284  1.00  0.00    -0.200 N 
ATOM      6  H2  UNL     1      -5.137 -13.371  10.394  1.00  0.00     0.183 HD
HETATM    7  C4  UNL     1      -4.223 -11.851  11.448  1.00  0.00     0.684 A 
HETATM    8  N4  UNL     1      -4.159 -11.235  12.605  1.00  0.00    -0.175 N 
ATOM      9  H4  UNL     1      -3.502 -10.459  12.691  1.00  0.00     0.186 HD
HETATM   10  C11 UNL     1      -4.916 -11.557  13.714  1.00  0.00     0.143 A 
HETATM   11  N5  UNL     1      -4.773 -10.906  14.750  1.00  0.00    -0.341 N 
ATOM     12  H5  UNL     1      -4.064 -10.190  14.590  1.00  0.00     0.167 HD
ENDROOT
BRANCH  11  13
HETATM   13  C12 UNL     1      -5.222 -10.800  16.031  1.00  0.00     0.033 A 
HETATM   14  C13 UNL     1      -6.158  -9.803  16.333  1.00  0.00     0.031 A 
HETATM   15  C14 UNL     1      -6.635  -9.636  17.612  1.00  0.00     0.027 A 
HETATM   16  C15 UNL     1      -6.214 -10.436  18.652  1.00  0.00     0.079 A 
HETATM   17  C16 UNL     1      -5.294 -11.411  18.339  1.00  0.00     0.027 A 
HETATM   18  C17 UNL     1      -4.790 -11.617  17.085  1.00  0.00     0.031 A 
BRANCH  16  19
HETATM   19  S1  UNL     1      -6.813 -10.233  20.282  1.00  0.00     0.256 S 
HETATM   20  O1  UNL     1      -5.822 -10.888  21.216  1.00  0.00    -0.201 OA
HETATM   21  O2  UNL     1      -6.930  -8.780  20.624  1.00  0.00    -0.201 OA
BRANCH  19  22
HETATM   22  N6  UNL     1      -8.350 -11.031  20.405  1.00  0.00    -0.324 N 
ATOM     23  H62 UNL     1      -8.516 -11.908  20.900  1.00  0.00     0.169 HD
ATOM     24  H61 UNL     1      -9.043 -10.476  19.903  1.00  0.00     0.169 HD
ENDBRANCH  19  22
ENDBRANCH  16  19
ENDBRANCH  11  13
BRANCH   7  25
HETATM   25  N3  UNL     1      -3.478 -11.504  10.424  1.00  0.00    -0.189 N 
ATOM     26  H3  UNL     1      -2.669 -12.079  10.191  1.00  0.00     0.184 HD
BRANCH  25  27
HETATM   27  C5  UNL     1      -3.750 -10.373   9.637  1.00  0.00     0.087 A 
HETATM   28  C6  UNL     1      -3.110  -9.175   9.837  1.00  0.00     0.033 A 
HETATM   29  C7  UNL     1      -3.396  -8.087   9.049  1.00  0.00     0.002 A 
HETATM   30  C8  UNL     1      -4.327  -8.138   8.034  1.00  0.00     0.003 A 
HETATM   31  C9  UNL     1      -4.969  -9.358   7.840  1.00  0.00     0.044 A 
HETATM   32  C10 UNL     1      -4.680 -10.449   8.630  1.00  0.00     0.143 A 
HETATM   33  F1  UNL     1      -5.358 -11.601   8.367  1.00  0.00    -0.204 F 
ENDBRANCH  25  27
ENDBRANCH   7  25
TORSDOF 5
ENDMDL
MODEL 4
REMARK VINA RESULT: -7.700311640      1.033      1.420
REMARK  5 active torsions:
REMARK  status: ('A' for Active; 'I' for Inactive)
REMARK    1  A    between atoms: C4_7  and  N3_8 
REMARK    2  A    between atoms: N3_8  and  C5_10 
REMARK    3  A    between atoms: N5_20  and  C12_22 
REMARK    4  A    between atoms: C15_25  and  S1_26 
REMARK    5  A    between atoms: S1_26  and  N6_27 
ROOT
HETATM    1  N1  UNL     1      -6.712 -10.431  18.066  1.00  0.00    -0.191 NA
HETATM    2  C1  UNL     1      -6.137  -9.806  17.279  1.00  0.00     0.104 C 
HETATM    3  C2  UNL     1      -5.427  -8.994  16.316  1.00  0.00     0.105 A 
HETATM    4  C3  UNL     1      -5.392  -7.608  16.470  1.00  0.00     0.132 A 
HETATM    5  N2  UNL     1      -4.757  -6.783  15.623  1.00  0.00    -0.200 N 
ATOM      6  H2  UNL     1      -4.757  -5.774  15.773  1.00  0.00     0.183 HD
HETATM    7  C4  UNL     1      -4.123  -7.327  14.572  1.00  0.00     0.684 A 
HETATM    8  N4  UNL     1      -4.139  -8.628  14.401  1.00  0.00    -0.175 N 
ATOM      9  H4  UNL     1      -3.646  -9.005  13.592  1.00  0.00     0.186 HD
HETATM   10  C11 UNL     1      -4.775  -9.527  15.238  1.00  0.00     0.143 A 
HETATM   11  N5  UNL     1      -4.722 -10.729  14.979  1.00  0.00    -0.341 N 
ATOM     12  H5  UNL     1      -4.177 -10.857  14.127  1.00  0.00     0.167 HD
ENDROOT
BRANCH  11  13
HETATM   13  C12 UNL     1      -5.131 -11.950  15.424  1.00  0.00     0.033 A 
HETATM   14  C13 UNL     1      -6.327 -12.479  14.925  1.00  0.00     0.031 A 
HETATM   15  C14 UNL     1      -6.799 -13.699  15.350  1.00  0.00     0.027 A 
HETATM   16  C15 UNL     1      -6.122 -14.453  16.282  1.00  0.00     0.079 A 
HETATM   17  C16 UNL     1      -4.948 -13.919  16.764  1.00  0.00     0.027 A 
HETATM   18  C17 UNL     1      -4.436 -12.712  16.374  1.00  0.00     0.031 A 
BRANCH  16  19
HETATM   19  S1  UNL     1      -6.712 -16.004  16.830  1.00  0.00     0.256 S 
HETATM   20  O1  UNL     1      -5.518 -16.917  16.989  1.00  0.00    -0.201 OA
HETATM   21  O2  UNL     1      -7.411 -15.868  18.148  1.00  0.00    -0.201 OA
BRANCH  19  22
HETATM   22  N6  UNL     1      -7.780 -16.643  15.619  1.00  0.00    -0.324 N 
ATOM     23  H62 UNL     1      -7.491 -16.962  14.694  1.00  0.00     0.169 HD
ATOM     24  H61 UNL     1      -8.729 -16.642  15.992  1.00  0.00     0.169 HD
ENDBRANCH  19  22
ENDBRANCH  16  19
ENDBRANCH  11  13
BRANCH   7  25
HETATM   25  N3  UNL     1      -3.503  -6.518  13.745  1.00  0.00    -0.189 N 
ATOM     26  H3  UNL     1      -3.143  -6.896  12.868  1.00  0.00     0.184 HD
BRANCH  25  27
HETATM   27  C5  UNL     1      -3.316  -5.152  14.016  1.00  0.00     0.087 A 
HETATM   28  C6  UNL     1      -3.877  -4.171  13.237  1.00  0.00     0.033 A 
HETATM   29  C7  UNL     1      -3.676  -2.844  13.529  1.00  0.00     0.002 A 
HETATM   30  C8  UNL     1      -2.912  -2.433  14.600  1.00  0.00     0.003 A 
HETATM   31  C9  UNL     1      -2.347  -3.437  15.383  1.00  0.00     0.044 A 
HETATM   32  C10 UNL     1      -2.551  -4.768  15.089  1.00  0.00     0.143 A 
HETATM   33  F1  UNL     1      -1.959  -5.681  15.910  1.00  0.00    -0.204 F 
ENDBRANCH  25  27
ENDBRANCH   7  25
TORSDOF 5
ENDMDL
MODEL 5
REMARK VINA RESULT: -7.668219284      5.385      8.328
REMARK  5 active torsions:
REMARK  status: ('A' for Active; 'I' for Inactive)
REMARK    1  A    between atoms: C4_7  and  N3_8 
REMARK    2  A    between atoms: N3_8  and  C5_10 
REMARK    3  A    between atoms: N5_20  and  C12_22 
REMARK    4  A    between atoms: C15_25  and  S1_26 
REMARK    5  A    between atoms: S1_26  and  N6_27 
ROOT
HETATM    1  N1  UNL     1      -3.403  -8.386  15.449  1.00  0.00    -0.191 NA
HETATM    2  C1  UNL     1      -3.914  -9.286  14.932  1.00  0.00     0.104 C 
HETATM    3  C2  UNL     1      -4.522 -10.414  14.261  1.00  0.00     0.105 A 
HETATM    4  C3  UNL     1      -3.885 -10.994  13.164  1.00  0.00     0.132 A 
HETATM    5  N2  UNL     1      -4.381 -12.040  12.486  1.00  0.00    -0.200 N 
ATOM      6  H2  UNL     1      -3.882 -12.434  11.688  1.00  0.00     0.183 HD
HETATM    7  C4  UNL     1      -5.555 -12.553  12.890  1.00  0.00     0.684 A 
HETATM    8  N4  UNL     1      -6.177 -12.026  13.919  1.00  0.00    -0.175 N 
ATOM      9  H4  UNL     1      -7.066 -12.443  14.196  1.00  0.00     0.186 HD
HETATM   10  C11 UNL     1      -5.718 -10.951  14.654  1.00  0.00     0.143 A 
HETATM   11  N5  UNL     1      -6.387 -10.542  15.603  1.00  0.00    -0.341 N 
ATOM     12  H5  UNL     1      -7.227 -11.114  15.682  1.00  0.00     0.167 HD
ENDROOT
BRANCH  11  13
HETATM   13  C12 UNL     1      -6.407  -9.599  16.586  1.00  0.00     0.033 A 
HETATM   14  C13 UNL     1      -6.018  -9.970  17.879  1.00  0.00     0.031 A 
HETATM   15  C14 UNL     1      -6.034  -9.066  18.915  1.00  0.00     0.027 A 
HETATM   16  C15 UNL     1      -6.433  -7.760  18.731  1.00  0.00     0.079 A 
HETATM   17  C16 UNL     1      -6.812  -7.411  17.455  1.00  0.00     0.027 A 
HETATM   18  C17 UNL     1      -6.814  -8.272  16.392  1.00  0.00     0.031 A 
BRANCH  16  19
HETATM   19  S1  UNL     1      -6.458  -6.603  20.041  1.00  0.00     0.256 S 
HETATM   20  O1  UNL     1      -6.218  -5.235  19.445  1.00  0.00    -0.201 OA
HETATM   21  O2  UNL     1      -7.786  -6.617  20.733  1.00  0.00    -0.201 OA
BRANCH  19  22
HETATM   22  N6  UNL     1      -5.174  -6.993  21.143  1.00  0.00    -0.324 N 
ATOM     23  H62 UNL     1      -4.188  -6.777  20.993  1.00  0.00     0.169 HD
ATOM     24  H61 UNL     1      -5.576  -7.469  21.951  1.00  0.00     0.169 HD
ENDBRANCH  19  22
ENDBRANCH  16  19
ENDBRANCH  11  13
BRANCH   7  25
HETATM   25  N3  UNL     1      -6.038 -13.576  12.224  1.00  0.00    -0.189 N 
ATOM     26  H3  UNL     1      -6.816 -14.098  12.627  1.00  0.00     0.184 HD
BRANCH  25  27
HETATM   27  C5  UNL     1      -5.529 -13.981  10.979  1.00  0.00     0.087 A 
HETATM   28  C6  UNL     1      -5.979 -13.444   9.798  1.00  0.00     0.033 A 
HETATM   29  C7  UNL     1      -5.459 -13.860   8.597  1.00  0.00     0.002 A 
HETATM   30  C8  UNL     1      -4.477 -14.824   8.513  1.00  0.00     0.003 A 
HETATM   31  C9  UNL     1      -4.029 -15.361   9.717  1.00  0.00     0.044 A 
HETATM   32  C10 UNL     1      -4.550 -14.942  10.922  1.00  0.00     0.143 A 
HETATM   33  F1  UNL     1      -4.050 -15.523  12.049  1.00  0.00    -0.204 F 
ENDBRANCH  25  27
ENDBRANCH   7  25
TORSDOF 5
ENDMDL
