MODEL 1
REMARK VINA RESULT: -7.291969691      0.000      0.000
REMARK  9 active torsions:
REMARK  status: ('A' for Active; 'I' for Inactive)
REMARK    1  A    between atoms: C2_2  and  C3_3 
REMARK    2  A    between atoms: C3_3  and  C4_4 
REMARK    3  A    between atoms: C3_3  and  C6_6 
REMARK    4  A    between atoms: C9_11  and  C10_12 
REMARK    5  A    between atoms: C10_12  and  N2_13 
REMARK    6  A    between atoms: N3_16  and  C13_17 
REMARK    7  A    between atoms: C13_17  and  C14_18 
REMARK    8  A    between atoms: C14_18  and  O1_19 
REMARK    9  A    between atoms: C17_23  and  C18_24 
ROOT
HETATM    1  C18 UNL     1      -4.938   9.592 -21.174  1.00  0.00     0.165 C 
HETATM    2  C19 UNL     1      -6.381   9.953 -20.853  1.00  0.00     0.063 C 
HETATM    3  N4  UNL     1      -7.487  10.225 -20.557  1.00  0.00    -0.197 NA
ENDROOT
BRANCH   1   4
HETATM    4  C17 UNL     1      -4.801   8.226 -20.665  1.00  0.00    -0.008 A 
HETATM    5  C6  UNL     1      -4.873   7.055 -21.438  1.00  0.00     0.042 A 
HETATM    6  N1  UNL     1      -4.439   6.112 -20.537  1.00  0.00    -0.359 N 
HETATM    7  C7  UNL     1      -4.134   6.563 -19.360  1.00  0.00     0.014 A 
ATOM      8  H1  UNL     1      -4.363   5.124 -20.779  1.00  0.00     0.166 HD
HETATM    9  C8  UNL     1      -3.628   5.852 -18.137  1.00  0.00     0.068 C 
HETATM   10  C9  UNL     1      -4.364   7.932 -19.389  1.00  0.00     0.002 A 
BRANCH   5  11
HETATM   11  C3  UNL     1      -5.519   6.755 -22.713  1.00  0.00    -0.053 C 
BRANCH  11  12
HETATM   12  C2  UNL     1      -7.007   6.765 -22.779  1.00  0.00     0.032 C 
HETATM   13  C1  UNL     1      -7.544   7.471 -24.045  1.00  0.00     0.010 C 
ENDBRANCH  11  12
BRANCH  11  14
HETATM   14  C4  UNL     1      -4.754   6.165 -23.840  1.00  0.00     0.032 C 
HETATM   15  C5  UNL     1      -3.266   6.145 -23.736  1.00  0.00     0.010 C 
ENDBRANCH  11  14
ENDBRANCH   5  11
BRANCH  10  16
HETATM   16  C10 UNL     1      -4.371   8.839 -18.243  1.00  0.00     0.313 C 
BRANCH  16  17
HETATM   17  N2  UNL     1      -3.239   9.665 -18.034  1.00  0.00     0.096 N 
HETATM   18  C11 UNL     1      -3.453  11.073 -18.264  1.00  0.00     0.303 C 
HETATM   19  C12 UNL     1      -3.074  11.908 -17.029  1.00  0.00     0.302 C 
HETATM   20  N3  UNL     1      -3.812  11.454 -15.904  1.00  0.00     0.093 N 
HETATM   21  C15 UNL     1      -3.664  10.020 -15.666  1.00  0.00     0.302 C 
HETATM   22  C16 UNL     1      -2.697   9.429 -16.677  1.00  0.00     0.303 C 
BRANCH  20  23
HETATM   23  C13 UNL     1      -3.696  12.203 -14.697  1.00  0.00     0.298 C 
BRANCH  23  24
HETATM   24  C14 UNL     1      -2.420  12.982 -14.531  1.00  0.00     0.194 C 
BRANCH  24  25
HETATM   25  O1  UNL     1      -1.470  12.120 -13.945  1.00  0.00    -0.399 OA
ATOM     26  H1  UNL     1      -1.036  11.653 -14.650  1.00  0.00     0.209 HD
ENDBRANCH  24  25
ENDBRANCH  23  24
ENDBRANCH  20  23
ENDBRANCH  16  17
ENDBRANCH  10  16
ENDBRANCH   1   4
TORSDOF 9
ENDMDL
MODEL 2
REMARK VINA RESULT: -7.228984404      0.144      1.495
REMARK  9 active torsions:
REMARK  status: ('A' for Active; 'I' for Inactive)
REMARK    1  A    between atoms: C2_2  and  C3_3 
REMARK    2  A    between atoms: C3_3  and  C4_4 
REMARK    3  A    between atoms: C3_3  and  C6_6 
REMARK    4  A    between atoms: C9_11  and  C10_12 
REMARK    5  A    between atoms: C10_12  and  N2_13 
REMARK    6  A    between atoms: N3_16  and  C13_17 
REMARK    7  A    between atoms: C13_17  and  C14_18 
REMARK    8  A    between atoms: C14_18  and  O1_19 
REMARK    9  A    between atoms: C17_23  and  C18_24 
ROOT
HETATM    1  C18 UNL     1      -5.046   9.545 -21.175  1.00  0.00     0.165 C 
HETATM    2  C19 UNL     1      -6.462   9.927 -20.770  1.00  0.00     0.063 C 
HETATM    3  N4  UNL     1      -7.544  10.218 -20.410  1.00  0.00    -0.197 NA
ENDROOT
BRANCH   1   4
HETATM    4  C17 UNL     1      -4.886   8.191 -20.641  1.00  0.00    -0.008 A 
HETATM    5  C6  UNL     1      -4.975   7.003 -21.387  1.00  0.00     0.042 A 
HETATM    6  N1  UNL     1      -4.510   6.082 -20.480  1.00  0.00    -0.359 N 
HETATM    7  C7  UNL     1      -4.173   6.559 -19.321  1.00  0.00     0.014 A 
ATOM      8  H1  UNL     1      -4.435   5.090 -20.702  1.00  0.00     0.166 HD
HETATM    9  C8  UNL     1      -3.626   5.877 -18.100  1.00  0.00     0.068 C 
HETATM   10  C9  UNL     1      -4.410   7.927 -19.373  1.00  0.00     0.002 A 
BRANCH   5  11
HETATM   11  C3  UNL     1      -5.656   6.673 -22.636  1.00  0.00    -0.053 C 
BRANCH  11  12
HETATM   12  C2  UNL     1      -4.836   6.434 -23.855  1.00  0.00     0.032 C 
HETATM   13  C1  UNL     1      -3.374   6.053 -23.525  1.00  0.00     0.010 C 
ENDBRANCH  11  12
BRANCH  11  14
HETATM   14  C4  UNL     1      -7.122   6.860 -22.781  1.00  0.00     0.032 C 
HETATM   15  C5  UNL     1      -7.647   7.229 -24.128  1.00  0.00     0.010 C 
ENDBRANCH  11  14
ENDBRANCH   5  11
BRANCH  10  16
HETATM   16  C10 UNL     1      -4.389   8.857 -18.247  1.00  0.00     0.313 C 
BRANCH  16  17
HETATM   17  N2  UNL     1      -3.227   9.645 -18.049  1.00  0.00     0.096 N 
HETATM   18  C11 UNL     1      -3.382  11.051 -18.331  1.00  0.00     0.303 C 
HETATM   19  C12 UNL     1      -2.987  11.914 -17.119  1.00  0.00     0.302 C 
HETATM   20  N3  UNL     1      -3.758  11.528 -15.991  1.00  0.00     0.093 N 
HETATM   21  C15 UNL     1      -3.670  10.099 -15.701  1.00  0.00     0.302 C 
HETATM   22  C16 UNL     1      -2.714   9.436 -16.677  1.00  0.00     0.303 C 
BRANCH  20  23
HETATM   23  C13 UNL     1      -3.627  12.313 -14.808  1.00  0.00     0.298 C 
BRANCH  23  24
HETATM   24  C14 UNL     1      -2.338  13.073 -14.666  1.00  0.00     0.194 C 
BRANCH  24  25
HETATM   25  O1  UNL     1      -1.440  12.254 -13.950  1.00  0.00    -0.399 OA
ATOM     26  H1  UNL     1      -0.621  12.730 -13.871  1.00  0.00     0.209 HD
ENDBRANCH  24  25
ENDBRANCH  23  24
ENDBRANCH  20  23
ENDBRANCH  16  17
ENDBRANCH  10  16
ENDBRANCH   1   4
TORSDOF 9
ENDMDL
MODEL 3
REMARK VINA RESULT: -7.178570947      3.737      5.657
REMARK  9 active torsions:
REMARK  status: ('A' for Active; 'I' for Inactive)
REMARK    1  A    between atoms: C2_2  and  C3_3 
REMARK    2  A    between atoms: C3_3  and  C4_4 
REMARK    3  A    between atoms: C3_3  and  C6_6 
REMARK    4  A    between atoms: C9_11  and  C10_12 
REMARK    5  A    between atoms: C10_12  and  N2_13 
REMARK    6  A    between atoms: N3_16  and  C13_17 
REMARK    7  A    between atoms: C13_17  and  C14_18 
REMARK    8  A    between atoms: C14_18  and  O1_19 
REMARK    9  A    between atoms: C17_23  and  C18_24 
ROOT
HETATM    1  C18 UNL     1      -4.698   6.434 -18.920  1.00  0.00     0.165 C 
HETATM    2  C19 UNL     1      -4.303   7.771 -19.528  1.00  0.00     0.063 C 
HETATM    3  N4  UNL     1      -3.950   8.792 -19.996  1.00  0.00    -0.197 NA
ENDROOT
BRANCH   1   4
HETATM    4  C17 UNL     1      -4.039   6.439 -17.613  1.00  0.00    -0.008 A 
HETATM    5  C6  UNL     1      -2.672   6.200 -17.387  1.00  0.00     0.042 A 
HETATM    6  N1  UNL     1      -2.553   6.565 -16.067  1.00  0.00    -0.359 N 
HETATM    7  C7  UNL     1      -3.645   6.970 -15.497  1.00  0.00     0.014 A 
ATOM      8  H1  UNL     1      -1.664   6.519 -15.568  1.00  0.00     0.166 HD
HETATM    9  C8  UNL     1      -3.904   7.447 -14.096  1.00  0.00     0.068 C 
HETATM   10  C9  UNL     1      -4.644   6.896 -16.460  1.00  0.00     0.002 A 
BRANCH   5  11
HETATM   11  C3  UNL     1      -1.661   5.469 -18.145  1.00  0.00    -0.053 C 
BRANCH  11  12
HETATM   12  C2  UNL     1      -2.050   4.193 -18.807  1.00  0.00     0.032 C 
HETATM   13  C1  UNL     1      -2.224   4.343 -20.337  1.00  0.00     0.010 C 
ENDBRANCH  11  12
BRANCH  11  14
HETATM   14  C4  UNL     1      -0.221   5.806 -18.025  1.00  0.00     0.032 C 
HETATM   15  C5  UNL     1       0.180   7.230 -18.218  1.00  0.00     0.010 C 
ENDBRANCH  11  14
ENDBRANCH   5  11
BRANCH  10  16
HETATM   16  C10 UNL     1      -6.080   7.041 -16.237  1.00  0.00     0.313 C 
BRANCH  16  17
HETATM   17  N2  UNL     1      -6.612   8.350 -16.124  1.00  0.00     0.096 N 
HETATM   18  C11 UNL     1      -5.777   9.402 -16.651  1.00  0.00     0.303 C 
HETATM   19  C12 UNL     1      -6.525  10.240 -17.702  1.00  0.00     0.302 C 
HETATM   20  N3  UNL     1      -6.996   9.392 -18.738  1.00  0.00     0.093 N 
HETATM   21  C15 UNL     1      -7.806   8.282 -18.242  1.00  0.00     0.302 C 
HETATM   22  C16 UNL     1      -7.959   8.392 -16.735  1.00  0.00     0.303 C 
BRANCH  20  23
HETATM   23  C13 UNL     1      -7.595  10.012 -19.873  1.00  0.00     0.298 C 
BRANCH  23  24
HETATM   24  C14 UNL     1      -8.387   9.105 -20.773  1.00  0.00     0.194 C 
BRANCH  24  25
HETATM   25  O1  UNL     1      -9.137   9.922 -21.645  1.00  0.00    -0.399 OA
ATOM     26  H1  UNL     1     -10.051   9.686 -21.542  1.00  0.00     0.209 HD
ENDBRANCH  24  25
ENDBRANCH  23  24
ENDBRANCH  20  23
ENDBRANCH  16  17
ENDBRANCH  10  16
ENDBRANCH   1   4
TORSDOF 9
ENDMDL
MODEL 4
REMARK VINA RESULT: -7.054837064      3.734      5.736
REMARK  9 active torsions:
REMARK  status: ('A' for Active; 'I' for Inactive)
REMARK    1  A    between atoms: C2_2  and  C3_3 
REMARK    2  A    between atoms: C3_3  and  C4_4 
REMARK    3  A    between atoms: C3_3  and  C6_6 
REMARK    4  A    between atoms: C9_11  and  C10_12 
REMARK    5  A    between atoms: C10_12  and  N2_13 
REMARK    6  A    between atoms: N3_16  and  C13_17 
REMARK    7  A    between atoms: C13_17  and  C14_18 
REMARK    8  A    between atoms: C14_18  and  O1_19 
REMARK    9  A    between atoms: C17_23  and  C18_24 
ROOT
HETATM    1  C18 UNL     1      -4.689   6.274 -18.842  1.00  0.00     0.165 C 
HETATM    2  C19 UNL     1      -4.272   7.582 -19.496  1.00  0.00     0.063 C 
HETATM    3  N4  UNL     1      -3.902   8.581 -19.999  1.00  0.00    -0.197 NA
ENDROOT
BRANCH   1   4
HETATM    4  C17 UNL     1      -4.054   6.327 -17.524  1.00  0.00    -0.008 A 
HETATM    5  C6  UNL     1      -2.698   6.069 -17.259  1.00  0.00     0.042 A 
HETATM    6  N1  UNL     1      -2.594   6.494 -15.956  1.00  0.00    -0.359 N 
HETATM    7  C7  UNL     1      -3.687   6.953 -15.429  1.00  0.00     0.014 A 
ATOM      8  H1  UNL     1      -1.717   6.452 -15.439  1.00  0.00     0.166 HD
HETATM    9  C8  UNL     1      -3.961   7.503 -14.059  1.00  0.00     0.068 C 
HETATM   10  C9  UNL     1      -4.669   6.855 -16.407  1.00  0.00     0.002 A 
BRANCH   5  11
HETATM   11  C3  UNL     1      -1.692   5.278 -17.961  1.00  0.00    -0.053 C 
BRANCH  11  12
HETATM   12  C2  UNL     1      -0.296   5.794 -18.028  1.00  0.00     0.032 C 
HETATM   13  C1  UNL     1      -0.233   7.339 -18.047  1.00  0.00     0.010 C 
ENDBRANCH  11  12
BRANCH  11  14
HETATM   14  C4  UNL     1      -2.082   4.148 -18.841  1.00  0.00     0.032 C 
HETATM   15  C5  UNL     1      -2.087   4.381 -20.315  1.00  0.00     0.010 C 
ENDBRANCH  11  14
ENDBRANCH   5  11
BRANCH  10  16
HETATM   16  C10 UNL     1      -6.106   7.044 -16.220  1.00  0.00     0.313 C 
BRANCH  16  17
HETATM   17  N2  UNL     1      -6.602   8.370 -16.139  1.00  0.00     0.096 N 
HETATM   18  C11 UNL     1      -5.732   9.387 -16.678  1.00  0.00     0.303 C 
HETATM   19  C12 UNL     1      -6.445  10.224 -17.754  1.00  0.00     0.302 C 
HETATM   20  N3  UNL     1      -6.929   9.368 -18.778  1.00  0.00     0.093 N 
HETATM   21  C15 UNL     1      -7.775   8.291 -18.269  1.00  0.00     0.302 C 
HETATM   22  C16 UNL     1      -7.941   8.437 -16.766  1.00  0.00     0.303 C 
BRANCH  20  23
HETATM   23  C13 UNL     1      -7.497   9.982 -19.932  1.00  0.00     0.298 C 
BRANCH  23  24
HETATM   24  C14 UNL     1      -8.403   9.111 -20.758  1.00  0.00     0.194 C 
BRANCH  24  25
HETATM   25  O1  UNL     1      -9.141   9.956 -21.612  1.00  0.00    -0.399 OA
ATOM     26  H1  UNL     1      -9.554   9.408 -22.269  1.00  0.00     0.209 HD
ENDBRANCH  24  25
ENDBRANCH  23  24
ENDBRANCH  20  23
ENDBRANCH  16  17
ENDBRANCH  10  16
ENDBRANCH   1   4
TORSDOF 9
ENDMDL
MODEL 5
REMARK VINA RESULT: -7.025539501      2.475      3.554
REMARK  9 active torsions:
REMARK  status: ('A' for Active; 'I' for Inactive)
REMARK    1  A    between atoms: C2_2  and  C3_3 
REMARK    2  A    between atoms: C3_3  and  C4_4 
REMARK    3  A    between atoms: C3_3  and  C6_6 
REMARK    4  A    between atoms: C9_11  and  C10_12 
REMARK    5  A    between atoms: C10_12  and  N2_13 
REMARK    6  A    between atoms: N3_16  and  C13_17 
REMARK    7  A    between atoms: C13_17  and  C14_18 
REMARK    8  A    between atoms: C14_18  and  O1_19 
REMARK    9  A    between atoms: C17_23  and  C18_24 
ROOT
HETATM    1  C18 UNL     1      -7.057   7.176 -19.299  1.00  0.00     0.165 C 
HETATM    2  C19 UNL     1      -8.334   7.953 -19.583  1.00  0.00     0.063 C 
HETATM    3  N4  UNL     1      -9.310   8.554 -19.851  1.00  0.00    -0.197 NA
ENDROOT
BRANCH   1   4
HETATM    4  C17 UNL     1      -5.995   8.075 -19.756  1.00  0.00    -0.008 A 
HETATM    5  C6  UNL     1      -5.593   8.250 -21.091  1.00  0.00     0.042 A 
HETATM    6  N1  UNL     1      -4.773   9.348 -20.981  1.00  0.00    -0.359 N 
HETATM    7  C7  UNL     1      -4.638   9.827 -19.783  1.00  0.00     0.014 A 
ATOM      8  H1  UNL     1      -4.303   9.759 -21.787  1.00  0.00     0.166 HD
HETATM    9  C8  UNL     1      -3.847  11.000 -19.277  1.00  0.00     0.068 C 
HETATM   10  C9  UNL     1      -5.406   9.026 -18.948  1.00  0.00     0.002 A 
BRANCH   5  11
HETATM   11  C3  UNL     1      -5.680   7.389 -22.267  1.00  0.00    -0.053 C 
BRANCH  11  12
HETATM   12  C2  UNL     1      -7.026   6.965 -22.744  1.00  0.00     0.032 C 
HETATM   13  C1  UNL     1      -7.377   7.546 -24.133  1.00  0.00     0.010 C 
ENDBRANCH  11  12
BRANCH  11  14
HETATM   14  C4  UNL     1      -4.478   6.703 -22.805  1.00  0.00     0.032 C 
HETATM   15  C5  UNL     1      -3.604   5.972 -21.842  1.00  0.00     0.010 C 
ENDBRANCH  11  14
ENDBRANCH   5  11
BRANCH  10  16
HETATM   16  C10 UNL     1      -5.403   9.036 -17.487  1.00  0.00     0.313 C 
BRANCH  16  17
HETATM   17  N2  UNL     1      -4.714   7.998 -16.811  1.00  0.00     0.096 N 
HETATM   18  C11 UNL     1      -4.132   6.989 -17.662  1.00  0.00     0.303 C 
HETATM   19  C12 UNL     1      -2.624   6.833 -17.400  1.00  0.00     0.302 C 
HETATM   20  N3  UNL     1      -1.981   8.087 -17.577  1.00  0.00     0.093 N 
HETATM   21  C15 UNL     1      -2.572   9.151 -16.770  1.00  0.00     0.302 C 
HETATM   22  C16 UNL     1      -3.692   8.583 -15.915  1.00  0.00     0.303 C 
BRANCH  20  23
HETATM   23  C13 UNL     1      -0.557   8.108 -17.512  1.00  0.00     0.298 C 
BRANCH  23  24
HETATM   24  C14 UNL     1       0.134   6.821 -17.870  1.00  0.00     0.194 C 
BRANCH  24  25
HETATM   25  O1  UNL     1       0.925   6.442 -16.766  1.00  0.00    -0.399 OA
ATOM     26  H1  UNL     1       0.340   6.305 -16.030  1.00  0.00     0.209 HD
ENDBRANCH  24  25
ENDBRANCH  23  24
ENDBRANCH  20  23
ENDBRANCH  16  17
ENDBRANCH  10  16
ENDBRANCH   1   4
TORSDOF 9
ENDMDL
