MODEL 1
REMARK VINA RESULT: -8.193367789      0.000      0.000
REMARK  7 active torsions:
REMARK  status: ('A' for Active; 'I' for Inactive)
REMARK       I    between atoms: N1_2  and  C2_3 
REMARK    1  A    between atoms: N1_2  and  C12_14 
REMARK    2  A    between atoms: C2_3  and  C3_5 
REMARK    3  A    between atoms: C3_5  and  C4_6 
REMARK    4  A    between atoms: C4_6  and  C5_7 
REMARK    5  A    between atoms: C5_7  and  C6_8 
REMARK    6  A    between atoms: C12_14  and  C13_15 
REMARK       I    between atoms: C13_15  and  N2_17 
REMARK    7  A    between atoms: N2_17  and  C14_19 
ROOT
HETATM    1  C12 UNL     1      -5.532   8.016 -15.698  1.00  0.00     0.115 C 
HETATM    2  C18 UNL     1      -6.963   7.787 -15.289  1.00  0.00     0.041 C 
HETATM    3  C19 UNL     1      -6.943   7.346 -13.840  1.00  0.00     0.003 C 
HETATM    4  C20 UNL     1      -5.469   6.994 -13.581  1.00  0.00     0.003 C 
HETATM    5  C21 UNL     1      -4.821   8.059 -14.387  1.00  0.00     0.041 C 
ENDROOT
BRANCH   1   6
HETATM    6  N1  UNL     1      -5.094   6.948 -16.570  1.00  0.00    -0.338 N 
HETATM    7  C1  UNL     1      -5.976   5.979 -17.185  1.00  0.00     0.154 C 
HETATM    8  C2  UNL     1      -3.707   6.808 -16.847  1.00  0.00     0.220 C 
HETATM    9  O1  UNL     1      -2.833   7.589 -16.387  1.00  0.00    -0.273 OA
BRANCH   8  10
HETATM   10  C3  UNL     1      -3.188   5.709 -17.715  1.00  0.00     0.103 C 
BRANCH  10  11
HETATM   11  C4  UNL     1      -2.757   6.191 -19.056  1.00  0.00     0.010 C 
BRANCH  11  12
HETATM   12  C5  UNL     1      -3.705   5.880 -20.158  1.00  0.00     0.005 C 
BRANCH  12  13
HETATM   13  C6  UNL     1      -3.908   6.992 -21.141  1.00  0.00    -0.014 C 
HETATM   14  C7  UNL     1      -4.229   6.557 -22.519  1.00  0.00     0.004 C 
HETATM   15  C8  UNL     1      -5.676   6.377 -22.825  1.00  0.00     0.000 C 
HETATM   16  C9  UNL     1      -6.566   7.457 -22.288  1.00  0.00     0.000 C 
HETATM   17  C10 UNL     1      -6.344   7.489 -20.769  1.00  0.00     0.000 C 
HETATM   18  C11 UNL     1      -4.915   7.945 -20.573  1.00  0.00     0.004 C 
ENDBRANCH  12  13
ENDBRANCH  11  12
ENDBRANCH  10  11
ENDBRANCH   8  10
ENDBRANCH   1   6
BRANCH   1  19
HETATM   19  C13 UNL     1      -5.363   9.295 -16.440  1.00  0.00     0.246 C 
HETATM   20  O2  UNL     1      -6.010   9.439 -17.501  1.00  0.00    -0.271 OA
HETATM   21  N2  UNL     1      -4.500  10.330 -15.971  1.00  0.00    -0.350 N 
ATOM     22  H2  UNL     1      -3.976  10.205 -15.105  1.00  0.00     0.163 HD
BRANCH  21  23
HETATM   23  C14 UNL     1      -4.368  11.553 -16.724  1.00  0.00     0.145 C 
HETATM   24  C15 UNL     1      -3.090  11.581 -17.537  1.00  0.00     0.260 C 
HETATM   25  N3  UNL     1      -2.595  12.951 -17.329  1.00  0.00    -0.070 N 
HETATM   26  C16 UNL     1      -2.770  13.059 -15.878  1.00  0.00     0.271 C 
ATOM     27  H32 UNL     1      -1.658  13.145 -17.681  1.00  0.00     0.277 HD
ATOM     28  H31 UNL     1      -3.042  13.677 -17.889  1.00  0.00     0.277 HD
HETATM   29  C17 UNL     1      -4.236  12.708 -15.741  1.00  0.00     0.220 C 
HETATM   30  F1  UNL     1      -4.558  12.312 -14.458  1.00  0.00    -0.245 F 
ENDBRANCH  21  23
ENDBRANCH   1  19
TORSDOF 7
ENDMDL
MODEL 2
REMARK VINA RESULT: -8.143803935      0.633      1.250
REMARK  7 active torsions:
REMARK  status: ('A' for Active; 'I' for Inactive)
REMARK       I    between atoms: N1_2  and  C2_3 
REMARK    1  A    between atoms: N1_2  and  C12_14 
REMARK    2  A    between atoms: C2_3  and  C3_5 
REMARK    3  A    between atoms: C3_5  and  C4_6 
REMARK    4  A    between atoms: C4_6  and  C5_7 
REMARK    5  A    between atoms: C5_7  and  C6_8 
REMARK    6  A    between atoms: C12_14  and  C13_15 
REMARK       I    between atoms: C13_15  and  N2_17 
REMARK    7  A    between atoms: N2_17  and  C14_19 
ROOT
HETATM    1  C12 UNL     1      -5.550   8.014 -15.439  1.00  0.00     0.115 C 
HETATM    2  C18 UNL     1      -6.981   7.787 -15.028  1.00  0.00     0.041 C 
HETATM    3  C19 UNL     1      -6.966   7.430 -13.555  1.00  0.00     0.003 C 
HETATM    4  C20 UNL     1      -5.489   7.115 -13.266  1.00  0.00     0.003 C 
HETATM    5  C21 UNL     1      -4.851   8.142 -14.127  1.00  0.00     0.041 C 
ENDROOT
BRANCH   1   6
HETATM    6  N1  UNL     1      -5.090   6.904 -16.245  1.00  0.00    -0.338 N 
HETATM    7  C1  UNL     1      -5.954   5.898 -16.823  1.00  0.00     0.154 C 
HETATM    8  C2  UNL     1      -3.697   6.760 -16.490  1.00  0.00     0.220 C 
HETATM    9  O1  UNL     1      -2.836   7.570 -16.056  1.00  0.00    -0.273 OA
BRANCH   8  10
HETATM   10  C3  UNL     1      -3.156   5.621 -17.289  1.00  0.00     0.103 C 
BRANCH  10  11
HETATM   11  C4  UNL     1      -2.151   6.054 -18.299  1.00  0.00     0.010 C 
BRANCH  11  12
HETATM   12  C5  UNL     1      -2.723   6.745 -19.483  1.00  0.00     0.005 C 
BRANCH  12  13
HETATM   13  C6  UNL     1      -3.924   6.075 -20.078  1.00  0.00    -0.014 C 
HETATM   14  C7  UNL     1      -5.087   6.963 -20.303  1.00  0.00     0.004 C 
HETATM   15  C8  UNL     1      -5.140   7.645 -21.626  1.00  0.00     0.000 C 
HETATM   16  C9  UNL     1      -4.786   6.773 -22.793  1.00  0.00     0.000 C 
HETATM   17  C10 UNL     1      -3.371   6.241 -22.525  1.00  0.00     0.000 C 
HETATM   18  C11 UNL     1      -3.492   5.344 -21.313  1.00  0.00     0.004 C 
ENDBRANCH  12  13
ENDBRANCH  11  12
ENDBRANCH  10  11
ENDBRANCH   8  10
ENDBRANCH   1   6
BRANCH   1  19
HETATM   19  C13 UNL     1      -5.394   9.251 -16.251  1.00  0.00     0.246 C 
HETATM   20  O2  UNL     1      -6.079   9.349 -17.294  1.00  0.00    -0.271 OA
HETATM   21  N2  UNL     1      -4.501  10.297 -15.868  1.00  0.00    -0.350 N 
ATOM     22  H2  UNL     1      -3.947  10.209 -15.017  1.00  0.00     0.163 HD
BRANCH  21  23
HETATM   23  C14 UNL     1      -4.384  11.477 -16.687  1.00  0.00     0.145 C 
HETATM   24  C15 UNL     1      -3.109  11.472 -17.507  1.00  0.00     0.260 C 
HETATM   25  N3  UNL     1      -2.625  12.856 -17.376  1.00  0.00    -0.070 N 
HETATM   26  C16 UNL     1      -2.796  13.042 -15.932  1.00  0.00     0.271 C 
ATOM     27  H32 UNL     1      -1.691  13.038 -17.742  1.00  0.00     0.277 HD
ATOM     28  H31 UNL     1      -3.081  13.546 -17.972  1.00  0.00     0.277 HD
HETATM   29  C17 UNL     1      -4.258  12.686 -15.770  1.00  0.00     0.220 C 
HETATM   30  F1  UNL     1      -4.571  12.357 -14.466  1.00  0.00    -0.245 F 
ENDBRANCH  21  23
ENDBRANCH   1  19
TORSDOF 7
ENDMDL
MODEL 3
REMARK VINA RESULT: -8.001802573      2.857      4.549
REMARK  7 active torsions:
REMARK  status: ('A' for Active; 'I' for Inactive)
REMARK       I    between atoms: N1_2  and  C2_3 
REMARK    1  A    between atoms: N1_2  and  C12_14 
REMARK    2  A    between atoms: C2_3  and  C3_5 
REMARK    3  A    between atoms: C3_5  and  C4_6 
REMARK    4  A    between atoms: C4_6  and  C5_7 
REMARK    5  A    between atoms: C5_7  and  C6_8 
REMARK    6  A    between atoms: C12_14  and  C13_15 
REMARK       I    between atoms: C13_15  and  N2_17 
REMARK    7  A    between atoms: N2_17  and  C14_19 
ROOT
HETATM    1  C12 UNL     1      -5.584   7.167 -15.406  1.00  0.00     0.115 C 
HETATM    2  C18 UNL     1      -4.765   8.071 -14.523  1.00  0.00     0.041 C 
HETATM    3  C19 UNL     1      -5.511   8.201 -13.211  1.00  0.00     0.003 C 
HETATM    4  C20 UNL     1      -6.912   7.651 -13.526  1.00  0.00     0.003 C 
HETATM    5  C21 UNL     1      -6.537   6.544 -14.441  1.00  0.00     0.041 C 
ENDROOT
BRANCH   1   6
HETATM    6  N1  UNL     1      -6.224   7.945 -16.444  1.00  0.00    -0.338 N 
HETATM    7  C1  UNL     1      -5.810   9.272 -16.846  1.00  0.00     0.154 C 
HETATM    8  C2  UNL     1      -7.347   7.399 -17.124  1.00  0.00     0.220 C 
HETATM    9  O1  UNL     1      -7.804   6.251 -16.882  1.00  0.00    -0.273 OA
BRANCH   8  10
HETATM   10  C3  UNL     1      -8.069   8.163 -18.184  1.00  0.00     0.103 C 
BRANCH  10  11
HETATM   11  C4  UNL     1      -7.910   7.560 -19.536  1.00  0.00     0.010 C 
BRANCH  11  12
HETATM   12  C5  UNL     1      -6.504   7.458 -20.004  1.00  0.00     0.005 C 
BRANCH  12  13
HETATM   13  C6  UNL     1      -6.216   8.183 -21.284  1.00  0.00    -0.014 C 
HETATM   14  C7  UNL     1      -4.844   8.002 -21.811  1.00  0.00     0.004 C 
HETATM   15  C8  UNL     1      -4.647   6.847 -22.730  1.00  0.00     0.000 C 
HETATM   16  C9  UNL     1      -5.735   6.664 -23.745  1.00  0.00     0.000 C 
HETATM   17  C10 UNL     1      -7.042   6.499 -22.958  1.00  0.00     0.000 C 
HETATM   18  C11 UNL     1      -7.281   7.829 -22.276  1.00  0.00     0.004 C 
ENDBRANCH  12  13
ENDBRANCH  11  12
ENDBRANCH  10  11
ENDBRANCH   8  10
ENDBRANCH   1   6
BRANCH   1  19
HETATM   19  C13 UNL     1      -4.748   6.133 -16.075  1.00  0.00     0.246 C 
HETATM   20  O2  UNL     1      -4.998   4.934 -15.821  1.00  0.00    -0.271 OA
HETATM   21  N2  UNL     1      -3.697   6.480 -16.976  1.00  0.00    -0.350 N 
ATOM     22  H2  UNL     1      -3.501   7.461 -17.178  1.00  0.00     0.163 HD
BRANCH  21  23
HETATM   23  C14 UNL     1      -2.914   5.444 -17.600  1.00  0.00     0.145 C 
HETATM   24  C15 UNL     1      -1.477   5.875 -17.818  1.00  0.00     0.260 C 
HETATM   25  N3  UNL     1      -1.186   5.385 -19.174  1.00  0.00    -0.070 N 
HETATM   26  C16 UNL     1      -2.400   5.831 -19.864  1.00  0.00     0.271 C 
ATOM     27  H32 UNL     1      -0.303   5.693 -19.580  1.00  0.00     0.277 HD
ATOM     28  H31 UNL     1      -0.967   4.391 -19.253  1.00  0.00     0.277 HD
HETATM   29  C17 UNL     1      -3.468   5.200 -18.997  1.00  0.00     0.220 C 
HETATM   30  F1  UNL     1      -4.697   5.810 -19.160  1.00  0.00    -0.245 F 
ENDBRANCH  21  23
ENDBRANCH   1  19
TORSDOF 7
ENDMDL
MODEL 4
REMARK VINA RESULT: -7.950242433      2.423      4.809
REMARK  7 active torsions:
REMARK  status: ('A' for Active; 'I' for Inactive)
REMARK       I    between atoms: N1_2  and  C2_3 
REMARK    1  A    between atoms: N1_2  and  C12_14 
REMARK    2  A    between atoms: C2_3  and  C3_5 
REMARK    3  A    between atoms: C3_5  and  C4_6 
REMARK    4  A    between atoms: C4_6  and  C5_7 
REMARK    5  A    between atoms: C5_7  and  C6_8 
REMARK    6  A    between atoms: C12_14  and  C13_15 
REMARK       I    between atoms: C13_15  and  N2_17 
REMARK    7  A    between atoms: N2_17  and  C14_19 
ROOT
HETATM    1  C12 UNL     1      -3.956  10.335 -16.759  1.00  0.00     0.115 C 
HETATM    2  C18 UNL     1      -2.875  11.327 -17.101  1.00  0.00     0.041 C 
HETATM    3  C19 UNL     1      -3.123  12.560 -16.255  1.00  0.00     0.003 C 
HETATM    4  C20 UNL     1      -4.552  12.361 -15.722  1.00  0.00     0.003 C 
HETATM    5  C21 UNL     1      -4.524  10.894 -15.497  1.00  0.00     0.041 C 
ENDROOT
BRANCH   1   6
HETATM    6  N1  UNL     1      -4.907  10.254 -17.846  1.00  0.00    -0.338 N 
HETATM    7  C1  UNL     1      -4.685  10.792 -19.170  1.00  0.00     0.154 C 
HETATM    8  C2  UNL     1      -6.159   9.619 -17.621  1.00  0.00     0.220 C 
HETATM    9  O1  UNL     1      -6.477   9.097 -16.520  1.00  0.00    -0.273 OA
BRANCH   8  10
HETATM   10  C3  UNL     1      -7.195   9.527 -18.693  1.00  0.00     0.103 C 
BRANCH  10  11
HETATM   11  C4  UNL     1      -7.802   8.171 -18.791  1.00  0.00     0.010 C 
BRANCH  11  12
HETATM   12  C5  UNL     1      -7.223   7.311 -19.854  1.00  0.00     0.005 C 
BRANCH  12  13
HETATM   13  C6  UNL     1      -6.524   8.055 -20.950  1.00  0.00    -0.014 C 
HETATM   14  C7  UNL     1      -5.106   7.680 -21.156  1.00  0.00     0.004 C 
HETATM   15  C8  UNL     1      -4.860   6.568 -22.115  1.00  0.00     0.000 C 
HETATM   16  C9  UNL     1      -5.677   6.633 -23.370  1.00  0.00     0.000 C 
HETATM   17  C10 UNL     1      -7.148   6.641 -22.932  1.00  0.00     0.000 C 
HETATM   18  C11 UNL     1      -7.350   7.946 -22.196  1.00  0.00     0.004 C 
ENDBRANCH  12  13
ENDBRANCH  11  12
ENDBRANCH  10  11
ENDBRANCH   8  10
ENDBRANCH   1   6
BRANCH   1  19
HETATM   19  C13 UNL     1      -3.409   8.968 -16.540  1.00  0.00     0.246 C 
HETATM   20  O2  UNL     1      -3.462   8.503 -15.380  1.00  0.00    -0.271 OA
HETATM   21  N2  UNL     1      -2.845   8.203 -17.604  1.00  0.00    -0.350 N 
ATOM     22  H2  UNL     1      -2.806   8.590 -18.547  1.00  0.00     0.163 HD
BRANCH  21  23
HETATM   23  C14 UNL     1      -2.328   6.883 -17.344  1.00  0.00     0.145 C 
HETATM   24  C15 UNL     1      -1.040   6.621 -18.100  1.00  0.00     0.260 C 
HETATM   25  N3  UNL     1      -1.224   5.251 -18.604  1.00  0.00    -0.070 N 
HETATM   26  C16 UNL     1      -2.593   5.358 -19.117  1.00  0.00     0.271 C 
ATOM     27  H32 UNL     1      -0.523   4.921 -19.267  1.00  0.00     0.277 HD
ATOM     28  H31 UNL     1      -1.057   4.502 -17.932  1.00  0.00     0.277 HD
HETATM   29  C17 UNL     1      -3.319   5.864 -17.890  1.00  0.00     0.220 C 
HETATM   30  F1  UNL     1      -4.524   6.461 -18.207  1.00  0.00    -0.245 F 
ENDBRANCH  21  23
ENDBRANCH   1  19
TORSDOF 7
ENDMDL
MODEL 5
REMARK VINA RESULT: -7.910977052      1.571      3.048
REMARK  7 active torsions:
REMARK  status: ('A' for Active; 'I' for Inactive)
REMARK       I    between atoms: N1_2  and  C2_3 
REMARK    1  A    between atoms: N1_2  and  C12_14 
REMARK    2  A    between atoms: C2_3  and  C3_5 
REMARK    3  A    between atoms: C3_5  and  C4_6 
REMARK    4  A    between atoms: C4_6  and  C5_7 
REMARK    5  A    between atoms: C5_7  and  C6_8 
REMARK    6  A    between atoms: C12_14  and  C13_15 
REMARK       I    between atoms: C13_15  and  N2_17 
REMARK    7  A    between atoms: N2_17  and  C14_19 
ROOT
HETATM    1  C12 UNL     1      -6.219   8.595 -17.090  1.00  0.00     0.115 C 
HETATM    2  C18 UNL     1      -7.531   8.199 -16.463  1.00  0.00     0.041 C 
HETATM    3  C19 UNL     1      -7.293   6.897 -15.726  1.00  0.00     0.003 C 
HETATM    4  C20 UNL     1      -5.936   6.411 -16.262  1.00  0.00     0.003 C 
HETATM    5  C21 UNL     1      -5.242   7.718 -16.380  1.00  0.00     0.041 C 
ENDROOT
BRANCH   1   6
HETATM    6  N1  UNL     1      -6.274   8.378 -18.519  1.00  0.00    -0.338 N 
HETATM    7  C1  UNL     1      -7.448   7.925 -19.234  1.00  0.00     0.154 C 
HETATM    8  C2  UNL     1      -5.106   8.604 -19.297  1.00  0.00     0.220 C 
HETATM    9  O1  UNL     1      -4.021   9.010 -18.804  1.00  0.00    -0.273 OA
BRANCH   8  10
HETATM   10  C3  UNL     1      -5.089   8.371 -20.772  1.00  0.00     0.103 C 
BRANCH  10  11
HETATM   11  C4  UNL     1      -4.902   6.938 -21.126  1.00  0.00     0.010 C 
BRANCH  11  12
HETATM   12  C5  UNL     1      -3.549   6.400 -20.832  1.00  0.00     0.005 C 
BRANCH  12  13
HETATM   13  C6  UNL     1      -3.509   5.356 -19.758  1.00  0.00    -0.014 C 
HETATM   14  C7  UNL     1      -2.895   4.070 -20.158  1.00  0.00     0.004 C 
HETATM   15  C8  UNL     1      -1.424   3.958 -19.953  1.00  0.00     0.000 C 
HETATM   16  C9  UNL     1      -0.933   4.504 -18.646  1.00  0.00     0.000 C 
HETATM   17  C10 UNL     1      -1.366   5.976 -18.598  1.00  0.00     0.000 C 
HETATM   18  C11 UNL     1      -2.878   5.957 -18.539  1.00  0.00     0.004 C 
ENDBRANCH  12  13
ENDBRANCH  11  12
ENDBRANCH  10  11
ENDBRANCH   8  10
ENDBRANCH   1   6
BRANCH   1  19
HETATM   19  C13 UNL     1      -5.907  10.033 -16.868  1.00  0.00     0.246 C 
HETATM   20  O2  UNL     1      -6.762  10.873 -17.227  1.00  0.00    -0.271 OA
HETATM   21  N2  UNL     1      -4.683  10.454 -16.267  1.00  0.00    -0.350 N 
ATOM     22  H2  UNL     1      -3.992   9.763 -15.976  1.00  0.00     0.163 HD
BRANCH  21  23
HETATM   23  C14 UNL     1      -4.425  11.859 -16.071  1.00  0.00     0.145 C 
HETATM   24  C15 UNL     1      -3.158  12.303 -16.775  1.00  0.00     0.260 C 
HETATM   25  N3  UNL     1      -2.513  13.173 -15.779  1.00  0.00    -0.070 N 
HETATM   26  C16 UNL     1      -2.662  12.336 -14.586  1.00  0.00     0.271 C 
ATOM     27  H32 UNL     1      -1.564  13.474 -15.997  1.00  0.00     0.277 HD
ATOM     28  H31 UNL     1      -2.883  14.122 -15.708  1.00  0.00     0.277 HD
HETATM   29  C17 UNL     1      -4.157  12.096 -14.591  1.00  0.00     0.220 C 
HETATM   30  F1  UNL     1      -4.509  10.993 -13.838  1.00  0.00    -0.245 F 
ENDBRANCH  21  23
ENDBRANCH   1  19
TORSDOF 7
ENDMDL
