MODEL 1
REMARK VINA RESULT: -8.070735798      0.000      0.000
REMARK  5 active torsions:
REMARK  status: ('A' for Active; 'I' for Inactive)
REMARK    1  A    between atoms: C2_2  and  O1_3 
REMARK    2  A    between atoms: O1_3  and  C3_4 
REMARK    3  A    between atoms: C3_4  and  C4_6 
REMARK    4  A    between atoms: C5_7  and  O3_8 
REMARK    5  A    between atoms: O3_8  and  C6_9 
REMARK       I    between atoms: C6_9  and  N1_11 
ROOT
HETATM    1  C4  UNL     1       6.724   7.679  24.990  1.00  0.00     0.123 A 
HETATM    2  C5  UNL     1       5.856   7.143  24.086  1.00  0.00     0.178 A 
HETATM    3  N2  UNL     1       4.729   6.634  24.563  1.00  0.00    -0.304 N 
ATOM      4  H2  UNL     1       3.975   6.197  24.034  1.00  0.00     0.176 HD
HETATM    5  S1  UNL     1       4.810   6.863  26.218  1.00  0.00     0.004 SA
HETATM    6  C13 UNL     1       6.323   7.628  26.301  1.00  0.00     0.124 A 
HETATM    7  N3  UNL     1       7.063   8.127  27.441  1.00  0.00    -0.092 NA
ENDROOT
BRANCH   2   8
HETATM    8  O3  UNL     1       6.093   7.101  22.674  1.00  0.00    -0.242 OA
BRANCH   8   9
HETATM    9  C6  UNL     1       6.818   6.059  22.124  1.00  0.00     0.371 C 
HETATM   10  O4  UNL     1       8.060   6.079  22.291  1.00  0.00    -0.238 OA
HETATM   11  N1  UNL     1       6.242   4.994  21.399  1.00  0.00    -0.291 N 
HETATM   12  C7  UNL     1       6.984   3.898  20.818  1.00  0.00     0.140 C 
HETATM   13  C12 UNL     1       4.832   4.785  21.099  1.00  0.00     0.193 C 
HETATM   14  C8  UNL     1       6.021   2.734  20.769  1.00  0.00    -0.027 C 
HETATM   15  C9  UNL     1       6.117   2.002  22.100  1.00  0.00     0.016 C 
HETATM   16  C10 UNL     1       6.415   1.806  19.666  1.00  0.00     0.016 C 
HETATM   17  C11 UNL     1       4.697   3.392  20.582  1.00  0.00     0.076 C 
HETATM   18 CL1  UNL     1       3.833   4.964  22.559  1.00  0.00    -0.078 Cl
HETATM   19 CL2  UNL     1       4.333   5.937  19.841  1.00  0.00    -0.078 Cl
ENDBRANCH   8   9
ENDBRANCH   2   8
BRANCH   1  20
HETATM   20  C3  UNL     1       8.034   8.289  24.593  1.00  0.00     0.300 C 
HETATM   21  O2  UNL     1       9.115   7.926  25.116  1.00  0.00    -0.259 OA
BRANCH  20  22
HETATM   22  O1  UNL     1       8.097   9.275  23.635  1.00  0.00    -0.318 OA
BRANCH  22  23
HETATM   23  C2  UNL     1       9.084   9.317  22.622  1.00  0.00     0.174 C 
HETATM   24  C1  UNL     1      10.161  10.317  22.900  1.00  0.00     0.034 C 
ENDBRANCH  22  23
ENDBRANCH  20  22
ENDBRANCH   1  20
TORSDOF 5
ENDMDL
MODEL 2
REMARK VINA RESULT: -7.966622739      2.127      3.100
REMARK  5 active torsions:
REMARK  status: ('A' for Active; 'I' for Inactive)
REMARK    1  A    between atoms: C2_2  and  O1_3 
REMARK    2  A    between atoms: O1_3  and  C3_4 
REMARK    3  A    between atoms: C3_4  and  C4_6 
REMARK    4  A    between atoms: C5_7  and  O3_8 
REMARK    5  A    between atoms: O3_8  and  C6_9 
REMARK       I    between atoms: C6_9  and  N1_11 
ROOT
HETATM    1  C4  UNL     1       8.036   8.459  23.887  1.00  0.00     0.123 A 
HETATM    2  C5  UNL     1       7.795   7.900  22.668  1.00  0.00     0.178 A 
HETATM    3  N2  UNL     1       8.411   8.440  21.626  1.00  0.00    -0.304 N 
ATOM      4  H2  UNL     1       8.345   8.152  20.650  1.00  0.00     0.176 HD
HETATM    5  S1  UNL     1       9.318   9.697  22.256  1.00  0.00     0.004 SA
HETATM    6  C13 UNL     1       8.898   9.526  23.892  1.00  0.00     0.124 A 
HETATM    7  N3  UNL     1       9.312  10.285  25.053  1.00  0.00    -0.092 NA
ENDROOT
BRANCH   2   8
HETATM    8  O3  UNL     1       6.926   6.781  22.455  1.00  0.00    -0.242 OA
BRANCH   8   9
HETATM    9  C6  UNL     1       7.400   5.646  21.823  1.00  0.00     0.371 C 
HETATM   10  O4  UNL     1       8.645   5.509  21.756  1.00  0.00    -0.238 OA
HETATM   11  N1  UNL     1       6.571   4.653  21.261  1.00  0.00    -0.291 N 
HETATM   12  C7  UNL     1       7.049   3.461  20.597  1.00  0.00     0.140 C 
HETATM   13  C12 UNL     1       5.115   4.622  21.236  1.00  0.00     0.193 C 
HETATM   14  C8  UNL     1       5.958   2.429  20.774  1.00  0.00    -0.027 C 
HETATM   15  C9  UNL     1       6.212   1.713  22.093  1.00  0.00     0.016 C 
HETATM   16  C10 UNL     1       6.018   1.441  19.656  1.00  0.00     0.016 C 
HETATM   17  C11 UNL     1       4.714   3.250  20.809  1.00  0.00     0.076 C 
HETATM   18 CL1  UNL     1       4.439   4.952  22.847  1.00  0.00    -0.078 Cl
HETATM   19 CL2  UNL     1       4.534   5.808  20.046  1.00  0.00    -0.078 Cl
ENDBRANCH   8   9
ENDBRANCH   2   8
BRANCH   1  20
HETATM   20  C3  UNL     1       7.409   7.951  25.150  1.00  0.00     0.300 C 
HETATM   21  O2  UNL     1       8.031   7.946  26.240  1.00  0.00    -0.259 OA
BRANCH  20  22
HETATM   22  O1  UNL     1       6.120   7.468  25.158  1.00  0.00    -0.318 OA
BRANCH  22  23
HETATM   23  C2  UNL     1       5.377   7.247  26.342  1.00  0.00     0.174 C 
HETATM   24  C1  UNL     1       4.077   6.549  26.091  1.00  0.00     0.034 C 
ENDBRANCH  22  23
ENDBRANCH  20  22
ENDBRANCH   1  20
TORSDOF 5
ENDMDL
MODEL 3
REMARK VINA RESULT: -7.567965400      1.434      1.761
REMARK  5 active torsions:
REMARK  status: ('A' for Active; 'I' for Inactive)
REMARK    1  A    between atoms: C2_2  and  O1_3 
REMARK    2  A    between atoms: O1_3  and  C3_4 
REMARK    3  A    between atoms: C3_4  and  C4_6 
REMARK    4  A    between atoms: C5_7  and  O3_8 
REMARK    5  A    between atoms: O3_8  and  C6_9 
REMARK       I    between atoms: C6_9  and  N1_11 
ROOT
HETATM    1  C4  UNL     1       8.094   8.522  23.786  1.00  0.00     0.123 A 
HETATM    2  C5  UNL     1       7.057   7.654  23.617  1.00  0.00     0.178 A 
HETATM    3  N2  UNL     1       6.424   7.253  24.711  1.00  0.00    -0.304 N 
ATOM      4  H2  UNL     1       5.634   6.611  24.769  1.00  0.00     0.176 HD
HETATM    5  S1  UNL     1       7.199   8.028  25.975  1.00  0.00     0.004 SA
HETATM    6  C13 UNL     1       8.362   8.883  25.082  1.00  0.00     0.124 A 
HETATM    7  N3  UNL     1       9.405   9.787  25.519  1.00  0.00    -0.092 NA
ENDROOT
BRANCH   2   8
HETATM    8  O3  UNL     1       6.624   7.158  22.345  1.00  0.00    -0.242 OA
BRANCH   8   9
HETATM    9  C6  UNL     1       7.181   6.004  21.825  1.00  0.00     0.371 C 
HETATM   10  O4  UNL     1       8.431   5.918  21.839  1.00  0.00    -0.238 OA
HETATM   11  N1  UNL     1       6.428   4.938  21.289  1.00  0.00    -0.291 N 
HETATM   12  C7  UNL     1       6.992   3.725  20.740  1.00  0.00     0.140 C 
HETATM   13  C12 UNL     1       4.978   4.841  21.182  1.00  0.00     0.193 C 
HETATM   14  C8  UNL     1       5.935   2.662  20.929  1.00  0.00    -0.027 C 
HETATM   15  C9  UNL     1       6.138   2.051  22.308  1.00  0.00     0.016 C 
HETATM   16  C10 UNL     1       6.103   1.601  19.889  1.00  0.00     0.016 C 
HETATM   17  C11 UNL     1       4.659   3.427  20.833  1.00  0.00     0.076 C 
HETATM   18 CL1  UNL     1       4.193   5.252  22.723  1.00  0.00    -0.078 Cl
HETATM   19 CL2  UNL     1       4.423   5.915  19.879  1.00  0.00    -0.078 Cl
ENDBRANCH   8   9
ENDBRANCH   2   8
BRANCH   1  20
HETATM   20  C3  UNL     1       8.899   9.056  22.640  1.00  0.00     0.300 C 
HETATM   21  O2  UNL     1       8.456   9.053  21.466  1.00  0.00    -0.259 OA
BRANCH  20  22
HETATM   22  O1  UNL     1      10.160   9.571  22.836  1.00  0.00    -0.318 OA
BRANCH  22  23
HETATM   23  C2  UNL     1      10.579  10.825  22.333  1.00  0.00     0.174 C 
HETATM   24  C1  UNL     1      12.065  10.992  22.349  1.00  0.00     0.034 C 
ENDBRANCH  22  23
ENDBRANCH  20  22
ENDBRANCH   1  20
TORSDOF 5
ENDMDL
MODEL 4
REMARK VINA RESULT: -7.521611967      2.967      6.523
REMARK  5 active torsions:
REMARK  status: ('A' for Active; 'I' for Inactive)
REMARK    1  A    between atoms: C2_2  and  O1_3 
REMARK    2  A    between atoms: O1_3  and  C3_4 
REMARK    3  A    between atoms: C3_4  and  C4_6 
REMARK    4  A    between atoms: C5_7  and  O3_8 
REMARK    5  A    between atoms: O3_8  and  C6_9 
REMARK       I    between atoms: C6_9  and  N1_11 
ROOT
HETATM    1  C4  UNL     1       5.887   3.422  21.071  1.00  0.00     0.123 A 
HETATM    2  C5  UNL     1       7.076   4.082  21.164  1.00  0.00     0.178 A 
HETATM    3  N2  UNL     1       8.178   3.348  21.106  1.00  0.00    -0.304 N 
ATOM      4  H2  UNL     1       9.143   3.674  21.161  1.00  0.00     0.176 HD
HETATM    5  S1  UNL     1       7.646   1.772  20.926  1.00  0.00     0.004 SA
HETATM    6  C13 UNL     1       5.973   2.060  20.925  1.00  0.00     0.124 A 
HETATM    7  N3  UNL     1       4.861   1.142  20.804  1.00  0.00    -0.092 NA
ENDROOT
BRANCH   2   8
HETATM    8  O3  UNL     1       7.196   5.501  21.321  1.00  0.00    -0.242 OA
BRANCH   8   9
HETATM    9  C6  UNL     1       8.285   6.035  21.985  1.00  0.00     0.371 C 
HETATM   10  O4  UNL     1       9.393   5.478  21.803  1.00  0.00    -0.238 OA
HETATM   11  N1  UNL     1       8.214   7.154  22.841  1.00  0.00    -0.291 N 
HETATM   12  C7  UNL     1       9.341   7.726  23.544  1.00  0.00     0.140 C 
HETATM   13  C12 UNL     1       7.034   7.939  23.181  1.00  0.00     0.193 C 
HETATM   14  C8  UNL     1       8.999   9.184  23.746  1.00  0.00    -0.027 C 
HETATM   15  C9  UNL     1       9.472   9.942  22.513  1.00  0.00     0.016 C 
HETATM   16  C10 UNL     1       9.716   9.704  24.950  1.00  0.00     0.016 C 
HETATM   17  C11 UNL     1       7.513   9.174  23.866  1.00  0.00     0.076 C 
HETATM   18 CL1  UNL     1       6.127   8.396  21.722  1.00  0.00    -0.078 Cl
HETATM   19 CL2  UNL     1       6.017   6.998  24.295  1.00  0.00    -0.078 Cl
ENDBRANCH   8   9
ENDBRANCH   2   8
BRANCH   1  20
HETATM   20  C3  UNL     1       4.564   4.124  21.121  1.00  0.00     0.300 C 
HETATM   21  O2  UNL     1       3.776   4.115  20.144  1.00  0.00    -0.259 OA
BRANCH  20  22
HETATM   22  O1  UNL     1       4.165   4.808  22.247  1.00  0.00    -0.318 OA
BRANCH  22  23
HETATM   23  C2  UNL     1       3.431   6.016  22.207  1.00  0.00     0.174 C 
HETATM   24  C1  UNL     1       2.082   5.899  22.843  1.00  0.00     0.034 C 
ENDBRANCH  22  23
ENDBRANCH  20  22
ENDBRANCH   1  20
TORSDOF 5
ENDMDL
MODEL 5
REMARK VINA RESULT: -7.500120061      1.999      3.216
REMARK  5 active torsions:
REMARK  status: ('A' for Active; 'I' for Inactive)
REMARK    1  A    between atoms: C2_2  and  O1_3 
REMARK    2  A    between atoms: O1_3  and  C3_4 
REMARK    3  A    between atoms: C3_4  and  C4_6 
REMARK    4  A    between atoms: C5_7  and  O3_8 
REMARK    5  A    between atoms: O3_8  and  C6_9 
REMARK       I    between atoms: C6_9  and  N1_11 
ROOT
HETATM    1  C4  UNL     1       6.645   7.575  25.035  1.00  0.00     0.123 A 
HETATM    2  C5  UNL     1       7.131   7.564  23.761  1.00  0.00     0.178 A 
HETATM    3  N2  UNL     1       8.276   8.196  23.549  1.00  0.00    -0.304 N 
ATOM      4  H2  UNL     1       8.778   8.288  22.667  1.00  0.00     0.176 HD
HETATM    5  S1  UNL     1       8.720   8.811  25.041  1.00  0.00     0.004 SA
HETATM    6  C13 UNL     1       7.408   8.245  25.957  1.00  0.00     0.124 A 
HETATM    7  N3  UNL     1       7.109   8.398  27.365  1.00  0.00    -0.092 NA
ENDROOT
BRANCH   2   8
HETATM    8  O3  UNL     1       6.481   6.919  22.660  1.00  0.00    -0.242 OA
BRANCH   8   9
HETATM    9  C6  UNL     1       7.104   5.873  22.003  1.00  0.00     0.371 C 
HETATM   10  O4  UNL     1       8.357   5.857  22.019  1.00  0.00    -0.238 OA
HETATM   11  N1  UNL     1       6.414   4.843  21.330  1.00  0.00    -0.291 N 
HETATM   12  C7  UNL     1       7.049   3.743  20.638  1.00  0.00     0.140 C 
HETATM   13  C12 UNL     1       4.973   4.678  21.197  1.00  0.00     0.193 C 
HETATM   14  C8  UNL     1       6.054   2.606  20.680  1.00  0.00    -0.027 C 
HETATM   15  C9  UNL     1       6.289   1.838  21.973  1.00  0.00     0.016 C 
HETATM   16  C10 UNL     1       6.285   1.697  19.517  1.00  0.00     0.016 C 
HETATM   17  C11 UNL     1       4.737   3.304  20.670  1.00  0.00     0.076 C 
HETATM   18 CL1  UNL     1       4.162   4.845  22.771  1.00  0.00    -0.078 Cl
HETATM   19 CL2  UNL     1       4.360   5.875  20.035  1.00  0.00    -0.078 Cl
ENDBRANCH   8   9
ENDBRANCH   2   8
BRANCH   1  20
HETATM   20  C3  UNL     1       5.362   6.901  25.419  1.00  0.00     0.300 C 
HETATM   21  O2  UNL     1       4.358   6.916  24.665  1.00  0.00    -0.259 OA
BRANCH  20  22
HETATM   22  O1  UNL     1       5.239   6.239  26.620  1.00  0.00    -0.318 OA
BRANCH  22  23
HETATM   23  C2  UNL     1       4.020   6.134  27.331  1.00  0.00     0.174 C 
HETATM   24  C1  UNL     1       3.805   7.265  28.286  1.00  0.00     0.034 C 
ENDBRANCH  22  23
ENDBRANCH  20  22
ENDBRANCH   1  20
TORSDOF 5
ENDMDL
