MODEL 1
REMARK VINA RESULT: -5.866425630      0.000      0.000
REMARK  4 active torsions:
REMARK  status: ('A' for Active; 'I' for Inactive)
REMARK    1  A    between atoms: C3_3  and  O1_4 
REMARK    2  A    between atoms: O1_4  and  C4_5 
REMARK    3  A    between atoms: C4_5  and  C5_6 
REMARK    4  A    between atoms: C5_6  and  C6_7 
ROOT
HETATM    1  O1  UNL     1     -46.000 -61.344  61.241  1.00  0.00    -0.385 OA
ENDROOT
BRANCH   1   2
HETATM    2  C3  UNL     1     -45.574 -60.207  61.865  1.00  0.00     0.124 C 
HETATM    3  C2  UNL     1     -46.340 -60.003  63.144  1.00  0.00     0.059 C 
HETATM    4  C1  UNL     1     -45.509 -59.305  64.200  1.00  0.00     0.235 C 
HETATM    5  N4  UNL     1     -44.774 -58.252  63.528  1.00  0.00    -0.075 N 
HETATM    6  C8  UNL     1     -43.772 -58.761  62.649  1.00  0.00     0.235 C 
ATOM      7  H42 UNL     1     -45.406 -57.619  63.037  1.00  0.00     0.277 HD
ATOM      8  H41 UNL     1     -44.376 -57.595  64.199  1.00  0.00     0.277 HD
HETATM    9  C7  UNL     1     -44.087 -60.138  62.102  1.00  0.00     0.059 C 
ENDBRANCH   1   2
BRANCH   1  10
HETATM   10  C4  UNL     1     -45.178 -62.392  61.165  1.00  0.00     0.175 C 
BRANCH  10  11
HETATM   11  C5  UNL     1     -45.633 -63.531  62.037  1.00  0.00     0.105 C 
BRANCH  11  12
HETATM   12  C6  UNL     1     -47.102 -63.733  62.028  1.00  0.00     0.114 A 
HETATM   13  N1  UNL     1     -48.164 -63.087  62.579  1.00  0.00    -0.273 N 
HETATM   14  N2  UNL     1     -48.968 -63.994  62.017  1.00  0.00    -0.240 N 
ATOM     15  H1  UNL     1     -48.292 -62.264  63.168  1.00  0.00     0.190 HD
HETATM   16  N3  UNL     1     -47.937 -64.612  61.490  1.00  0.00    -0.273 N 
ATOM     17  H2  UNL     1     -49.976 -64.144  62.003  1.00  0.00     0.208 HD
ATOM     18  H3  UNL     1     -47.823 -65.438  60.902  1.00  0.00     0.190 HD
ENDBRANCH  11  12
ENDBRANCH  10  11
ENDBRANCH   1  10
TORSDOF 4
ENDMDL
MODEL 2
REMARK VINA RESULT: -5.714990713      2.119      2.674
REMARK  4 active torsions:
REMARK  status: ('A' for Active; 'I' for Inactive)
REMARK    1  A    between atoms: C3_3  and  O1_4 
REMARK    2  A    between atoms: O1_4  and  C4_5 
REMARK    3  A    between atoms: C4_5  and  C5_6 
REMARK    4  A    between atoms: C5_6  and  C6_7 
ROOT
HETATM    1  O1  UNL     1     -45.257 -63.854  62.288  1.00  0.00    -0.385 OA
ENDROOT
BRANCH   1   2
HETATM    2  C3  UNL     1     -44.493 -62.973  61.577  1.00  0.00     0.124 C 
HETATM    3  C2  UNL     1     -45.230 -61.671  61.412  1.00  0.00     0.059 C 
HETATM    4  C1  UNL     1     -44.286 -60.488  61.350  1.00  0.00     0.235 C 
HETATM    5  N4  UNL     1     -43.165 -60.887  60.522  1.00  0.00    -0.075 N 
HETATM    6  C8  UNL     1     -42.354 -61.882  61.145  1.00  0.00     0.235 C 
ATOM      7  H42 UNL     1     -43.480 -61.193  59.601  1.00  0.00     0.277 HD
ATOM      8  H41 UNL     1     -42.608 -60.079  60.244  1.00  0.00     0.277 HD
HETATM    9  C7  UNL     1     -43.109 -62.751  62.130  1.00  0.00     0.059 C 
ENDBRANCH   1   2
BRANCH   1  10
HETATM   10  C4  UNL     1     -45.206 -63.833  63.621  1.00  0.00     0.175 C 
BRANCH  10  11
HETATM   11  C5  UNL     1     -46.577 -63.791  64.237  1.00  0.00     0.105 C 
BRANCH  11  12
HETATM   12  C6  UNL     1     -47.676 -63.902  63.247  1.00  0.00     0.114 A 
HETATM   13  N1  UNL     1     -48.356 -63.022  62.465  1.00  0.00    -0.273 N 
HETATM   14  N2  UNL     1     -49.072 -64.045  61.991  1.00  0.00    -0.240 N 
ATOM     15  H1  UNL     1     -48.330 -62.014  62.308  1.00  0.00     0.190 HD
HETATM   16  N3  UNL     1     -48.411 -64.888  62.751  1.00  0.00    -0.273 N 
ATOM     17  H2  UNL     1     -49.828 -64.134  61.313  1.00  0.00     0.208 HD
ATOM     18  H3  UNL     1     -48.449 -65.895  62.900  1.00  0.00     0.190 HD
ENDBRANCH  11  12
ENDBRANCH  10  11
ENDBRANCH   1  10
TORSDOF 4
ENDMDL
MODEL 3
REMARK VINA RESULT: -5.650858710      2.548      3.353
REMARK  4 active torsions:
REMARK  status: ('A' for Active; 'I' for Inactive)
REMARK    1  A    between atoms: C3_3  and  O1_4 
REMARK    2  A    between atoms: O1_4  and  C4_5 
REMARK    3  A    between atoms: C4_5  and  C5_6 
REMARK    4  A    between atoms: C5_6  and  C6_7 
ROOT
HETATM    1  O1  UNL     1     -44.907 -61.923  60.496  1.00  0.00    -0.385 OA
ENDROOT
BRANCH   1   2
HETATM    2  C3  UNL     1     -43.752 -61.373  60.020  1.00  0.00     0.124 C 
HETATM    3  C2  UNL     1     -42.809 -61.091  61.160  1.00  0.00     0.059 C 
HETATM    4  C1  UNL     1     -41.359 -61.214  60.743  1.00  0.00     0.235 C 
HETATM    5  N4  UNL     1     -41.244 -60.599  59.435  1.00  0.00    -0.075 N 
HETATM    6  C8  UNL     1     -41.910 -61.349  58.419  1.00  0.00     0.235 C 
ATOM      7  H42 UNL     1     -41.572 -59.634  59.454  1.00  0.00     0.277 HD
ATOM      8  H41 UNL     1     -40.268 -60.436  59.190  1.00  0.00     0.277 HD
HETATM    9  C7  UNL     1     -43.074 -62.170  58.936  1.00  0.00     0.059 C 
ENDBRANCH   1   2
BRANCH   1  10
HETATM   10  C4  UNL     1     -45.000 -62.226  61.791  1.00  0.00     0.175 C 
BRANCH  10  11
HETATM   11  C5  UNL     1     -45.496 -63.630  62.008  1.00  0.00     0.105 C 
BRANCH  11  12
HETATM   12  C6  UNL     1     -46.974 -63.742  62.015  1.00  0.00     0.114 A 
HETATM   13  N1  UNL     1     -47.872 -64.641  61.529  1.00  0.00    -0.273 N 
HETATM   14  N2  UNL     1     -48.853 -63.882  62.024  1.00  0.00    -0.240 N 
ATOM     15  H1  UNL     1     -47.818 -65.517  61.010  1.00  0.00     0.190 HD
HETATM   16  N3  UNL     1     -47.980 -63.018  62.489  1.00  0.00    -0.273 N 
ATOM     17  H2  UNL     1     -49.870 -63.948  62.036  1.00  0.00     0.208 HD
ATOM     18  H3  UNL     1     -48.047 -62.143  63.007  1.00  0.00     0.190 HD
ENDBRANCH  11  12
ENDBRANCH  10  11
ENDBRANCH   1  10
TORSDOF 4
ENDMDL
MODEL 4
REMARK VINA RESULT: -5.649325687      2.072      2.670
REMARK  4 active torsions:
REMARK  status: ('A' for Active; 'I' for Inactive)
REMARK    1  A    between atoms: C3_3  and  O1_4 
REMARK    2  A    between atoms: O1_4  and  C4_5 
REMARK    3  A    between atoms: C4_5  and  C5_6 
REMARK    4  A    between atoms: C5_6  and  C6_7 
ROOT
HETATM    1  O1  UNL     1     -46.917 -61.118  65.407  1.00  0.00    -0.385 OA
ENDROOT
BRANCH   1   2
HETATM    2  C3  UNL     1     -45.787 -60.522  64.927  1.00  0.00     0.124 C 
HETATM    3  C2  UNL     1     -44.598 -61.418  65.151  1.00  0.00     0.059 C 
HETATM    4  C1  UNL     1     -43.547 -61.248  64.074  1.00  0.00     0.235 C 
HETATM    5  N4  UNL     1     -43.443 -59.827  63.808  1.00  0.00    -0.075 N 
HETATM    6  C8  UNL     1     -44.608 -59.305  63.171  1.00  0.00     0.235 C 
ATOM      7  H42 UNL     1     -43.226 -59.310  64.660  1.00  0.00     0.277 HD
ATOM      8  H41 UNL     1     -42.603 -59.615  63.270  1.00  0.00     0.277 HD
HETATM    9  C7  UNL     1     -45.872 -60.077  63.490  1.00  0.00     0.059 C 
ENDBRANCH   1   2
BRANCH   1  10
HETATM   10  C4  UNL     1     -47.827 -61.578  64.548  1.00  0.00     0.175 C 
BRANCH  10  11
HETATM   11  C5  UNL     1     -47.872 -63.081  64.524  1.00  0.00     0.105 C 
BRANCH  11  12
HETATM   12  C6  UNL     1     -47.849 -63.654  63.157  1.00  0.00     0.114 A 
HETATM   13  N1  UNL     1     -48.791 -63.950  62.223  1.00  0.00    -0.273 N 
HETATM   14  N2  UNL     1     -47.816 -64.383  61.420  1.00  0.00    -0.240 N 
ATOM     15  H1  UNL     1     -49.807 -63.873  62.162  1.00  0.00     0.190 HD
HETATM   16  N3  UNL     1     -46.912 -64.096  62.329  1.00  0.00    -0.273 N 
ATOM     17  H2  UNL     1     -47.786 -64.778  60.481  1.00  0.00     0.208 HD
ATOM     18  H3  UNL     1     -45.897 -64.180  62.377  1.00  0.00     0.190 HD
ENDBRANCH  11  12
ENDBRANCH  10  11
ENDBRANCH   1  10
TORSDOF 4
ENDMDL
MODEL 5
REMARK VINA RESULT: -5.632239760      6.106      7.933
REMARK  4 active torsions:
REMARK  status: ('A' for Active; 'I' for Inactive)
REMARK    1  A    between atoms: C3_3  and  O1_4 
REMARK    2  A    between atoms: O1_4  and  C4_5 
REMARK    3  A    between atoms: C4_5  and  C5_6 
REMARK    4  A    between atoms: C5_6  and  C6_7 
ROOT
HETATM    1  O1  UNL     1     -41.554 -61.071  59.515  1.00  0.00    -0.385 OA
ENDROOT
BRANCH   1   2
HETATM    2  C3  UNL     1     -40.896 -61.682  58.487  1.00  0.00     0.124 C 
HETATM    3  C2  UNL     1     -41.888 -62.210  57.484  1.00  0.00     0.059 C 
HETATM    4  C1  UNL     1     -41.332 -62.198  56.075  1.00  0.00     0.235 C 
HETATM    5  N4  UNL     1     -39.958 -62.651  56.161  1.00  0.00    -0.075 N 
HETATM    6  C8  UNL     1     -39.113 -61.709  56.822  1.00  0.00     0.235 C 
ATOM      7  H42 UNL     1     -39.901 -63.569  56.603  1.00  0.00     0.277 HD
ATOM      8  H41 UNL     1     -39.591 -62.890  55.240  1.00  0.00     0.277 HD
HETATM    9  C7  UNL     1     -39.844 -60.835  57.821  1.00  0.00     0.059 C 
ENDBRANCH   1   2
BRANCH   1  10
HETATM   10  C4  UNL     1     -41.719 -61.726  60.665  1.00  0.00     0.175 C 
BRANCH  10  11
HETATM   11  C5  UNL     1     -41.024 -61.040  61.810  1.00  0.00     0.105 C 
BRANCH  11  12
HETATM   12  C6  UNL     1     -40.297 -59.811  61.411  1.00  0.00     0.114 A 
HETATM   13  N1  UNL     1     -40.643 -58.511  61.213  1.00  0.00    -0.273 N 
HETATM   14  N2  UNL     1     -39.370 -58.251  60.904  1.00  0.00    -0.240 N 
ATOM     15  H1  UNL     1     -41.505 -57.968  61.273  1.00  0.00     0.190 HD
HETATM   16  N3  UNL     1     -39.044 -59.509  61.097  1.00  0.00    -0.273 N 
ATOM     17  H2  UNL     1     -38.858 -57.413  60.630  1.00  0.00     0.208 HD
ATOM     18  H3  UNL     1     -38.176 -60.040  61.031  1.00  0.00     0.190 HD
ENDBRANCH  11  12
ENDBRANCH  10  11
ENDBRANCH   1  10
TORSDOF 4
ENDMDL
