MODEL 1
REMARK VINA RESULT: -4.310913141      0.000      0.000
REMARK  8 active torsions:
REMARK  status: ('A' for Active; 'I' for Inactive)
REMARK    1  A    between atoms: N1_1  and  C1_4 
REMARK    2  A    between atoms: C2_7  and  N3_8 
REMARK    3  A    between atoms: N6_16  and  C4_17 
REMARK    4  A    between atoms: C4_17  and  C5_18 
REMARK    5  A    between atoms: C4_17  and  C6_20 
REMARK    6  A    between atoms: C6_20  and  C7_21 
REMARK    7  A    between atoms: C6_20  and  N7_24 
REMARK    8  A    between atoms: C7_21  and  O1_22 
ROOT
HETATM    1  C1  UNL     1      69.042  69.575 282.604  1.00  0.00     0.679 A 
HETATM    2  N2  UNL     1      69.952  68.776 282.025  1.00  0.00    -0.175 N 
ATOM      3  H2  UNL     1      70.795  68.529 282.545  1.00  0.00     0.186 HD
HETATM    4  C2  UNL     1      69.787  68.291 280.779  1.00  0.00     0.147 A 
HETATM    5  C3  UNL     1      68.651  68.625 280.078  1.00  0.00     0.140 A 
HETATM    6  N4  UNL     1      68.190  68.328 278.853  1.00  0.00    -0.279 N 
ATOM      7  H4  UNL     1      68.651  67.739 278.159  1.00  0.00     0.189 HD
HETATM    8  N5  UNL     1      67.033  68.937 278.714  1.00  0.00    -0.238 N 
ATOM      9  H5  UNL     1      66.458  68.883 277.874  1.00  0.00     0.208 HD
HETATM   10  N6  UNL     1      66.703  69.629 279.795  1.00  0.00    -0.252 N 
HETATM   11  C8  UNL     1      67.713  69.444 280.669  1.00  0.00     0.171 A 
HETATM   12  N12 UNL     1      67.916  69.905 281.911  1.00  0.00    -0.173 N 
ATOM     13  H12 UNL     1      67.220  70.512 282.342  1.00  0.00     0.186 HD
ENDROOT
BRANCH  10  14
HETATM   14  C4  UNL     1      65.481  70.417 279.937  1.00  0.00     0.149 C 
BRANCH  14  15
HETATM   15  C5  UNL     1      64.273  69.542 280.058  1.00  0.00     0.115 C 
HETATM   16  S1  UNL     1      63.610  69.635 281.757  1.00  0.00    -0.095 SA
ENDBRANCH  14  15
BRANCH  14  17
HETATM   17  C6  UNL     1      65.384  71.557 278.989  1.00  0.00     0.175 C 
BRANCH  17  18
HETATM   18  C7  UNL     1      64.036  72.281 279.027  1.00  0.00     0.195 C 
BRANCH  18  19
HETATM   19  O1  UNL     1      63.741  72.907 277.831  1.00  0.00    -0.399 OA
ATOM     20  H1  UNL     1      63.291  72.333 277.223  1.00  0.00     0.209 HD
ENDBRANCH  18  19
ENDBRANCH  17  18
BRANCH  17  21
HETATM   21  N7  UNL     1      65.612  71.217 277.606  1.00  0.00    -0.195 N 
HETATM   22  N8  UNL     1      66.517  71.726 276.676  1.00  0.00    -0.214 N 
HETATM   23  N9  UNL     1      66.061  71.533 275.496  1.00  0.00    -0.213 N 
ATOM     24  H8  UNL     1      67.403  72.180 276.900  1.00  0.00     0.211 HD
HETATM   25  N10 UNL     1      64.828  70.884 275.623  1.00  0.00     0.010 NA
ATOM     26  H9  UNL     1      66.513  71.803 274.622  1.00  0.00     0.207 HD
HETATM   27  N11 UNL     1      64.910  70.224 276.870  1.00  0.00     0.013 NA
ENDBRANCH  17  21
ENDBRANCH  14  17
ENDBRANCH  10  14
BRANCH   4  28
HETATM   28  N3  UNL     1      70.680  67.524 280.246  1.00  0.00    -0.383 N 
ATOM     29  H32 UNL     1      71.070  66.744 280.775  1.00  0.00     0.157 HD
ATOM     30  H31 UNL     1      71.004  67.687 279.292  1.00  0.00     0.157 HD
ENDBRANCH   4  28
BRANCH   1  31
HETATM   31  N1  UNL     1      69.178  70.056 283.805  1.00  0.00    -0.234 N 
ATOM     32  H12 UNL     1      69.321  71.061 283.902  1.00  0.00     0.174 HD
ATOM     33  H11 UNL     1      69.147  69.477 284.644  1.00  0.00     0.174 HD
ENDBRANCH   1  31
TORSDOF 8
ENDMDL
MODEL 2
REMARK VINA RESULT: -4.049620824      0.985      2.362
REMARK  8 active torsions:
REMARK  status: ('A' for Active; 'I' for Inactive)
REMARK    1  A    between atoms: N1_1  and  C1_4 
REMARK    2  A    between atoms: C2_7  and  N3_8 
REMARK    3  A    between atoms: N6_16  and  C4_17 
REMARK    4  A    between atoms: C4_17  and  C5_18 
REMARK    5  A    between atoms: C4_17  and  C6_20 
REMARK    6  A    between atoms: C6_20  and  C7_21 
REMARK    7  A    between atoms: C6_20  and  N7_24 
REMARK    8  A    between atoms: C7_21  and  O1_22 
ROOT
HETATM    1  C1  UNL     1      68.266  67.376 278.530  1.00  0.00     0.679 A 
HETATM    2  N2  UNL     1      69.475  67.370 279.115  1.00  0.00    -0.175 N 
ATOM      3  H2  UNL     1      70.162  66.675 278.823  1.00  0.00     0.186 HD
HETATM    4  C2  UNL     1      69.808  68.254 280.075  1.00  0.00     0.147 A 
HETATM    5  C3  UNL     1      68.881  69.192 280.470  1.00  0.00     0.140 A 
HETATM    6  N4  UNL     1      68.884  70.185 281.374  1.00  0.00    -0.279 N 
ATOM      7  H4  UNL     1      69.658  70.442 281.987  1.00  0.00     0.189 HD
HETATM    8  N5  UNL     1      67.705  70.762 281.322  1.00  0.00    -0.238 N 
ATOM      9  H5  UNL     1      67.431  71.552 281.906  1.00  0.00     0.208 HD
HETATM   10  N6  UNL     1      66.913  70.197 280.421  1.00  0.00    -0.252 N 
HETATM   11  C8  UNL     1      67.639  69.203 279.872  1.00  0.00     0.171 A 
HETATM   12  N12 UNL     1      67.348  68.305 278.920  1.00  0.00    -0.173 N 
ATOM     13  H12 UNL     1      66.428  68.317 278.482  1.00  0.00     0.186 HD
ENDROOT
BRANCH  10  14
HETATM   14  C4  UNL     1      65.541  70.614 280.142  1.00  0.00     0.149 C 
BRANCH  14  15
HETATM   15  C5  UNL     1      64.631  69.436 279.985  1.00  0.00     0.115 C 
HETATM   16  S1  UNL     1      63.503  69.333 281.417  1.00  0.00    -0.095 SA
ENDBRANCH  14  15
BRANCH  14  17
HETATM   17  C6  UNL     1      65.431  71.682 279.115  1.00  0.00     0.175 C 
BRANCH  17  18
HETATM   18  C7  UNL     1      64.015  72.236 278.949  1.00  0.00     0.195 C 
BRANCH  18  19
HETATM   19  O1  UNL     1      63.800  72.762 277.689  1.00  0.00    -0.399 OA
ATOM     20  H1  UNL     1      63.078  73.379 277.672  1.00  0.00     0.209 HD
ENDBRANCH  18  19
ENDBRANCH  17  18
BRANCH  17  21
HETATM   21  N7  UNL     1      65.864  71.300 277.794  1.00  0.00    -0.195 N 
HETATM   22  N8  UNL     1      66.810  71.867 276.941  1.00  0.00    -0.214 N 
HETATM   23  N9  UNL     1      66.527  71.557 275.732  1.00  0.00    -0.213 N 
ATOM     24  H8  UNL     1      67.603  72.439 277.234  1.00  0.00     0.211 HD
HETATM   25  N10 UNL     1      65.372  70.767 275.761  1.00  0.00     0.010 NA
ATOM     26  H9  UNL     1      67.048  71.833 274.900  1.00  0.00     0.207 HD
HETATM   27  N11 UNL     1      65.378  70.189 277.050  1.00  0.00     0.013 NA
ENDBRANCH  17  21
ENDBRANCH  14  17
ENDBRANCH  10  14
BRANCH   4  28
HETATM   28  N3  UNL     1      70.978  68.226 280.622  1.00  0.00    -0.383 N 
ATOM     29  H32 UNL     1      71.815  68.349 280.050  1.00  0.00     0.157 HD
ATOM     30  H31 UNL     1      71.081  68.083 281.627  1.00  0.00     0.157 HD
ENDBRANCH   4  28
BRANCH   1  31
HETATM   31  N1  UNL     1      67.921  66.534 277.602  1.00  0.00    -0.234 N 
ATOM     32  H12 UNL     1      68.424  65.648 277.551  1.00  0.00     0.174 HD
ATOM     33  H11 UNL     1      67.176  66.719 276.930  1.00  0.00     0.174 HD
ENDBRANCH   1  31
TORSDOF 8
ENDMDL
MODEL 3
REMARK VINA RESULT: -3.937472382      2.463      3.937
REMARK  8 active torsions:
REMARK  status: ('A' for Active; 'I' for Inactive)
REMARK    1  A    between atoms: N1_1  and  C1_4 
REMARK    2  A    between atoms: C2_7  and  N3_8 
REMARK    3  A    between atoms: N6_16  and  C4_17 
REMARK    4  A    between atoms: C4_17  and  C5_18 
REMARK    5  A    between atoms: C4_17  and  C6_20 
REMARK    6  A    between atoms: C6_20  and  C7_21 
REMARK    7  A    between atoms: C6_20  and  N7_24 
REMARK    8  A    between atoms: C7_21  and  O1_22 
ROOT
HETATM    1  C1  UNL     1      69.173  67.335 279.017  1.00  0.00     0.679 A 
HETATM    2  N2  UNL     1      69.859  67.510 280.158  1.00  0.00    -0.175 N 
ATOM      3  H2  UNL     1      70.620  66.868 280.381  1.00  0.00     0.186 HD
HETATM    4  C2  UNL     1      69.571  68.506 281.018  1.00  0.00     0.147 A 
HETATM    5  C3  UNL     1      68.544  69.372 280.719  1.00  0.00     0.140 A 
HETATM    6  N4  UNL     1      68.008  70.435 281.339  1.00  0.00    -0.279 N 
ATOM      7  H4  UNL     1      68.304  70.827 282.234  1.00  0.00     0.189 HD
HETATM    8  N5  UNL     1      67.031  70.876 280.580  1.00  0.00    -0.238 N 
ATOM      9  H5  UNL     1      66.448  71.682 280.811  1.00  0.00     0.208 HD
HETATM   10  N6  UNL     1      66.890  70.153 279.478  1.00  0.00    -0.252 N 
HETATM   11  C8  UNL     1      67.838  69.197 279.548  1.00  0.00     0.171 A 
HETATM   12  N12 UNL     1      68.156  68.192 278.720  1.00  0.00    -0.173 N 
ATOM     13  H12 UNL     1      67.630  68.067 277.855  1.00  0.00     0.186 HD
ENDROOT
BRANCH  10  14
HETATM   14  C4  UNL     1      65.884  70.395 278.447  1.00  0.00     0.149 C 
BRANCH  14  15
HETATM   15  C5  UNL     1      66.284  71.518 277.542  1.00  0.00     0.115 C 
HETATM   16  S1  UNL     1      65.419  71.361 275.942  1.00  0.00    -0.095 SA
ENDBRANCH  14  15
BRANCH  14  17
HETATM   17  C6  UNL     1      64.489  70.417 278.957  1.00  0.00     0.175 C 
BRANCH  17  18
HETATM   18  C7  UNL     1      63.875  71.816 279.020  1.00  0.00     0.195 C 
BRANCH  18  19
HETATM   19  O1  UNL     1      62.940  71.936 280.031  1.00  0.00    -0.399 OA
ATOM     20  H1  UNL     1      62.105  72.261 279.715  1.00  0.00     0.209 HD
ENDBRANCH  18  19
ENDBRANCH  17  18
BRANCH  17  21
HETATM   21  N7  UNL     1      64.314  69.848 280.270  1.00  0.00    -0.195 N 
HETATM   22  N8  UNL     1      63.683  68.675 280.683  1.00  0.00    -0.214 N 
HETATM   23  N9  UNL     1      63.315  68.802 281.902  1.00  0.00    -0.213 N 
ATOM     24  H8  UNL     1      63.538  67.847 280.105  1.00  0.00     0.211 HD
HETATM   25  N10 UNL     1      63.699  70.079 282.326  1.00  0.00     0.010 NA
ATOM     26  H9  UNL     1      62.830  68.101 282.462  1.00  0.00     0.207 HD
HETATM   27  N11 UNL     1      64.787  70.410 281.487  1.00  0.00     0.013 NA
ENDBRANCH  17  21
ENDBRANCH  14  17
ENDBRANCH  10  14
BRANCH   4  28
HETATM   28  N3  UNL     1      70.246  68.651 282.110  1.00  0.00    -0.383 N 
ATOM     29  H32 UNL     1      69.763  68.775 283.001  1.00  0.00     0.157 HD
ATOM     30  H31 UNL     1      71.267  68.643 282.097  1.00  0.00     0.157 HD
ENDBRANCH   4  28
BRANCH   1  31
HETATM   31  N1  UNL     1      69.431  66.382 278.171  1.00  0.00    -0.234 N 
ATOM     32  H12 UNL     1      69.718  65.478 278.545  1.00  0.00     0.174 HD
ATOM     33  H11 UNL     1      69.360  66.499 277.160  1.00  0.00     0.174 HD
ENDBRANCH   1  31
TORSDOF 8
ENDMDL
MODEL 4
REMARK VINA RESULT: -3.764263748      1.757      2.939
REMARK  8 active torsions:
REMARK  status: ('A' for Active; 'I' for Inactive)
REMARK    1  A    between atoms: N1_1  and  C1_4 
REMARK    2  A    between atoms: C2_7  and  N3_8 
REMARK    3  A    between atoms: N6_16  and  C4_17 
REMARK    4  A    between atoms: C4_17  and  C5_18 
REMARK    5  A    between atoms: C4_17  and  C6_20 
REMARK    6  A    between atoms: C6_20  and  C7_21 
REMARK    7  A    between atoms: C6_20  and  N7_24 
REMARK    8  A    between atoms: C7_21  and  O1_22 
ROOT
HETATM    1  C1  UNL     1      68.378  67.524 278.938  1.00  0.00     0.679 A 
HETATM    2  N2  UNL     1      69.118  67.561 280.057  1.00  0.00    -0.175 N 
ATOM      3  H2  UNL     1      69.756  66.790 280.254  1.00  0.00     0.186 HD
HETATM    4  C2  UNL     1      69.044  68.587 280.928  1.00  0.00     0.147 A 
HETATM    5  C3  UNL     1      68.183  69.627 280.663  1.00  0.00     0.140 A 
HETATM    6  N4  UNL     1      67.869  70.765 281.302  1.00  0.00    -0.279 N 
ATOM      7  H4  UNL     1      68.259  71.090 282.187  1.00  0.00     0.189 HD
HETATM    8  N5  UNL     1      66.966  71.384 280.575  1.00  0.00    -0.238 N 
ATOM      9  H5  UNL     1      66.548  72.280 280.826  1.00  0.00     0.208 HD
HETATM   10  N6  UNL     1      66.662  70.707 279.476  1.00  0.00    -0.252 N 
HETATM   11  C8  UNL     1      67.421  69.593 279.514  1.00  0.00     0.171 A 
HETATM   12  N12 UNL     1      67.526  68.554 278.674  1.00  0.00    -0.173 N 
ATOM     13  H12 UNL     1      66.959  68.533 277.827  1.00  0.00     0.186 HD
ENDROOT
BRANCH  10  14
HETATM   14  C4  UNL     1      65.686  71.136 278.478  1.00  0.00     0.149 C 
BRANCH  14  15
HETATM   15  C5  UNL     1      64.367  70.455 278.672  1.00  0.00     0.115 C 
HETATM   16  S1  UNL     1      64.142  70.035 280.434  1.00  0.00    -0.095 SA
ENDBRANCH  14  15
BRANCH  14  17
HETATM   17  C6  UNL     1      66.217  71.176 277.091  1.00  0.00     0.175 C 
BRANCH  17  18
HETATM   18  C7  UNL     1      67.380  72.152 276.901  1.00  0.00     0.195 C 
BRANCH  18  19
HETATM   19  O1  UNL     1      67.631  72.418 275.569  1.00  0.00    -0.399 OA
ATOM     20  H1  UNL     1      66.840  72.627 275.086  1.00  0.00     0.209 HD
ENDBRANCH  18  19
ENDBRANCH  17  18
BRANCH  17  21
HETATM   21  N7  UNL     1      65.247  71.513 276.080  1.00  0.00    -0.195 N 
HETATM   22  N8  UNL     1      64.477  70.706 275.243  1.00  0.00    -0.214 N 
HETATM   23  N9  UNL     1      64.159  71.368 274.195  1.00  0.00    -0.213 N 
ATOM     24  H8  UNL     1      64.210  69.740 275.436  1.00  0.00     0.211 HD
HETATM   25  N10 UNL     1      64.719  72.644 274.318  1.00  0.00     0.010 NA
ATOM     26  H9  UNL     1      63.599  71.028 273.413  1.00  0.00     0.207 HD
HETATM   27  N11 UNL     1      64.856  72.830 275.713  1.00  0.00     0.013 NA
ENDBRANCH  17  21
ENDBRANCH  14  17
ENDBRANCH  10  14
BRANCH   4  28
HETATM   28  N3  UNL     1      69.767  68.598 281.998  1.00  0.00    -0.383 N 
ATOM     29  H32 UNL     1      70.492  69.306 282.122  1.00  0.00     0.157 HD
ATOM     30  H31 UNL     1      69.624  67.903 282.731  1.00  0.00     0.157 HD
ENDBRANCH   4  28
BRANCH   1  31
HETATM   31  N1  UNL     1      68.432  66.546 278.082  1.00  0.00    -0.234 N 
ATOM     32  H12 UNL     1      68.875  65.677 278.379  1.00  0.00     0.174 HD
ATOM     33  H11 UNL     1      68.053  66.611 277.137  1.00  0.00     0.174 HD
ENDBRANCH   1  31
TORSDOF 8
ENDMDL
MODEL 5
REMARK VINA RESULT: -3.510451407      2.689      6.003
REMARK  8 active torsions:
REMARK  status: ('A' for Active; 'I' for Inactive)
REMARK    1  A    between atoms: N1_1  and  C1_4 
REMARK    2  A    between atoms: C2_7  and  N3_8 
REMARK    3  A    between atoms: N6_16  and  C4_17 
REMARK    4  A    between atoms: C4_17  and  C5_18 
REMARK    5  A    between atoms: C4_17  and  C6_20 
REMARK    6  A    between atoms: C6_20  and  C7_21 
REMARK    7  A    between atoms: C6_20  and  N7_24 
REMARK    8  A    between atoms: C7_21  and  O1_22 
ROOT
HETATM    1  C1  UNL     1      64.014  69.929 280.800  1.00  0.00     0.679 A 
HETATM    2  N2  UNL     1      63.504  70.967 280.118  1.00  0.00    -0.175 N 
ATOM      3  H2  UNL     1      62.586  71.328 280.380  1.00  0.00     0.186 HD
HETATM    4  C2  UNL     1      64.166  71.546 279.098  1.00  0.00     0.147 A 
HETATM    5  C3  UNL     1      65.404  71.059 278.743  1.00  0.00     0.140 A 
HETATM    6  N4  UNL     1      66.302  71.390 277.802  1.00  0.00    -0.279 N 
ATOM      7  H4  UNL     1      66.212  72.140 277.116  1.00  0.00     0.189 HD
HETATM    8  N5  UNL     1      67.318  70.566 277.927  1.00  0.00    -0.238 N 
ATOM      9  H5  UNL     1      68.149  70.591 277.336  1.00  0.00     0.208 HD
HETATM   10  N6  UNL     1      67.137  69.699 278.913  1.00  0.00    -0.252 N 
HETATM   11  C8  UNL     1      65.932  69.994 279.441  1.00  0.00     0.171 A 
HETATM   12  N12 UNL     1      65.240  69.447 280.449  1.00  0.00    -0.173 N 
ATOM     13  H12 UNL     1      65.635  68.659 280.961  1.00  0.00     0.186 HD
ENDROOT
BRANCH  10  14
HETATM   14  C4  UNL     1      68.088  68.655 279.288  1.00  0.00     0.149 C 
BRANCH  14  15
HETATM   15  C5  UNL     1      67.598  67.298 278.890  1.00  0.00     0.115 C 
HETATM   16  S1  UNL     1      68.698  66.593 277.614  1.00  0.00    -0.095 SA
ENDBRANCH  14  15
BRANCH  14  17
HETATM   17  C6  UNL     1      68.624  68.791 280.667  1.00  0.00     0.175 C 
BRANCH  17  18
HETATM   18  C7  UNL     1      68.555  70.216 281.219  1.00  0.00     0.195 C 
BRANCH  18  19
HETATM   19  O1  UNL     1      68.323  70.243 282.581  1.00  0.00    -0.399 OA
ATOM     20  H1  UNL     1      68.221  71.126 282.913  1.00  0.00     0.209 HD
ENDBRANCH  18  19
ENDBRANCH  17  18
BRANCH  17  21
HETATM   21  N7  UNL     1      69.992  68.368 280.831  1.00  0.00    -0.195 N 
HETATM   22  N8  UNL     1      70.902  67.836 279.918  1.00  0.00    -0.214 N 
HETATM   23  N9  UNL     1      71.777  67.147 280.547  1.00  0.00    -0.213 N 
ATOM     24  H8  UNL     1      70.875  67.975 278.907  1.00  0.00     0.211 HD
HETATM   25  N10 UNL     1      71.460  67.209 281.909  1.00  0.00     0.010 NA
ATOM     26  H9  UNL     1      72.562  66.645 280.133  1.00  0.00     0.207 HD
HETATM   27  N11 UNL     1      70.735  68.415 282.042  1.00  0.00     0.013 NA
ENDBRANCH  17  21
ENDBRANCH  14  17
ENDBRANCH  10  14
BRANCH   4  28
HETATM   28  N3  UNL     1      63.652  72.543 278.458  1.00  0.00    -0.383 N 
ATOM     29  H32 UNL     1      64.138  72.945 277.655  1.00  0.00     0.157 HD
ATOM     30  H31 UNL     1      62.757  72.941 278.745  1.00  0.00     0.157 HD
ENDBRANCH   4  28
BRANCH   1  31
HETATM   31  N1  UNL     1      63.395  69.353 281.788  1.00  0.00    -0.234 N 
ATOM     32  H12 UNL     1      63.531  69.736 282.724  1.00  0.00     0.174 HD
ATOM     33  H11 UNL     1      62.785  68.544 281.669  1.00  0.00     0.174 HD
ENDBRANCH   1  31
TORSDOF 8
ENDMDL
