MODEL 1
REMARK VINA RESULT: -8.421594664      0.000      0.000
REMARK  12 active torsions:
REMARK  status: ('A' for Active; 'I' for Inactive)
REMARK    1  A    between atoms: C2_5  and  C3_6 
REMARK    2  A    between atoms: C2_5  and  N8_21 
REMARK    3  A    between atoms: C3_6  and  C4_7 
REMARK    4  A    between atoms: C4_7  and  C5_8 
REMARK    5  A    between atoms: C5_8  and  C6_9 
REMARK    6  A    between atoms: C6_9  and  N3_10 
REMARK       I    between atoms: C7_12  and  N5_14 
REMARK    7  A    between atoms: N5_14  and  N6_16 
REMARK    8  A    between atoms: N8_21  and  C8_23 
REMARK    9  A    between atoms: C8_23  and  C9_24 
REMARK   10  A    between atoms: C9_24  and  C10_25 
REMARK   11  A    between atoms: C10_25  and  C11_26 
REMARK   12  A    between atoms: C11_26  and  N9_27 
ROOT
HETATM    1  N1  UNL     1     106.269  24.165  50.391  1.00  0.00    -0.172 NA
HETATM    2  C1  UNL     1     105.396  23.419  50.287  1.00  0.00     0.183 C 
HETATM    3  N2  UNL     1     104.334  22.529  50.182  1.00  0.00    -0.283 N 
ATOM      4  H2  UNL     1     103.430  22.852  49.836  1.00  0.00     0.179 HD
HETATM    5  C2  UNL     1     104.488  21.306  50.518  1.00  0.00     0.086 C 
ENDROOT
BRANCH   5   6
HETATM    6  C3  UNL     1     103.479  20.247  50.467  1.00  0.00     0.077 C 
BRANCH   6   7
HETATM    7  C4  UNL     1     102.275  20.544  49.631  1.00  0.00     0.013 C 
BRANCH   7   8
HETATM    8  C5  UNL     1     102.266  19.784  48.325  1.00  0.00     0.045 C 
BRANCH   8   9
HETATM    9  C6  UNL     1     102.437  18.299  48.560  1.00  0.00     0.063 C 
BRANCH   9  10
HETATM   10  N3  UNL     1     102.440  17.576  47.363  1.00  0.00    -0.343 N 
HETATM   11  C7  UNL     1     103.265  17.136  46.558  1.00  0.00     0.207 C 
HETATM   12  N4  UNL     1     104.655  17.289  46.683  1.00  0.00    -0.062 NA
HETATM   13  N5  UNL     1     102.827  16.405  45.387  1.00  0.00    -0.259 N 
ATOM     14  H5  UNL     1     103.348  16.432  44.510  1.00  0.00     0.191 HD
ATOM     15  H3  UNL     1     101.489  17.347  47.073  1.00  0.00     0.167 HD
BRANCH  13  16
HETATM   16  N6  UNL     1     101.664  15.666  45.521  1.00  0.00    -0.247 N 
HETATM   17  N7  UNL     1     101.715  14.412  45.507  1.00  0.00    -0.331 N 
ATOM     18  H72 UNL     1     102.619  13.953  45.396  1.00  0.00     0.178 HD
ATOM     19  H71 UNL     1     100.858  13.867  45.606  1.00  0.00     0.178 HD
ATOM     20  H6  UNL     1     100.767  16.140  45.631  1.00  0.00     0.207 HD
ENDBRANCH  13  16
ENDBRANCH   9  10
ENDBRANCH   8   9
ENDBRANCH   7   8
ENDBRANCH   6   7
ENDBRANCH   5   6
BRANCH   5  21
HETATM   21  N8  UNL     1     105.791  20.932  51.023  1.00  0.00    -0.379 N 
ATOM     22  H8  UNL     1     106.574  21.587  51.028  1.00  0.00     0.160 HD
BRANCH  21  23
HETATM   23  C8  UNL     1     105.926  19.583  51.521  1.00  0.00     0.121 C 
BRANCH  23  24
HETATM   24  C9  UNL     1     106.991  18.858  50.745  1.00  0.00     0.021 C 
BRANCH  24  25
HETATM   25  C10 UNL     1     106.841  17.362  50.765  1.00  0.00     0.021 C 
BRANCH  25  26
HETATM   26  C11 UNL     1     107.654  16.766  49.648  1.00  0.00     0.122 C 
BRANCH  26  27
HETATM   27  N9  UNL     1     108.506  15.685  50.107  1.00  0.00    -0.367 N 
HETATM   28  C12 UNL     1     108.258  14.455  49.768  1.00  0.00     0.196 C 
HETATM   29  N10 UNL     1     107.157  14.100  48.944  1.00  0.00    -0.067 NA
HETATM   30  N11 UNL     1     109.103  13.423  50.229  1.00  0.00    -0.067 NA
ATOM     31  H9  UNL     1     109.308  15.894  50.702  1.00  0.00     0.161 HD
ENDBRANCH  26  27
ENDBRANCH  25  26
ENDBRANCH  24  25
ENDBRANCH  23  24
ENDBRANCH  21  23
ENDBRANCH   5  21
TORSDOF 12
ENDMDL
MODEL 2
REMARK VINA RESULT: -7.912313463      1.101      5.667
REMARK  12 active torsions:
REMARK  status: ('A' for Active; 'I' for Inactive)
REMARK    1  A    between atoms: C2_5  and  C3_6 
REMARK    2  A    between atoms: C2_5  and  N8_21 
REMARK    3  A    between atoms: C3_6  and  C4_7 
REMARK    4  A    between atoms: C4_7  and  C5_8 
REMARK    5  A    between atoms: C5_8  and  C6_9 
REMARK    6  A    between atoms: C6_9  and  N3_10 
REMARK       I    between atoms: C7_12  and  N5_14 
REMARK    7  A    between atoms: N5_14  and  N6_16 
REMARK    8  A    between atoms: N8_21  and  C8_23 
REMARK    9  A    between atoms: C8_23  and  C9_24 
REMARK   10  A    between atoms: C9_24  and  C10_25 
REMARK   11  A    between atoms: C10_25  and  C11_26 
REMARK   12  A    between atoms: C11_26  and  N9_27 
ROOT
HETATM    1  N1  UNL     1     105.552  24.034  49.965  1.00  0.00    -0.172 NA
HETATM    2  C1  UNL     1     105.744  22.974  50.376  1.00  0.00     0.183 C 
HETATM    3  N2  UNL     1     105.990  21.692  50.854  1.00  0.00    -0.283 N 
ATOM      4  H2  UNL     1     106.857  21.492  51.354  1.00  0.00     0.179 HD
HETATM    5  C2  UNL     1     105.132  20.765  50.669  1.00  0.00     0.086 C 
ENDROOT
BRANCH   5   6
HETATM    6  C3  UNL     1     105.236  19.371  51.105  1.00  0.00     0.077 C 
BRANCH   6   7
HETATM    7  C4  UNL     1     106.608  18.920  51.496  1.00  0.00     0.013 C 
BRANCH   7   8
HETATM    8  C5  UNL     1     107.374  18.308  50.347  1.00  0.00     0.045 C 
BRANCH   8   9
HETATM    9  C6  UNL     1     106.729  17.017  49.891  1.00  0.00     0.063 C 
BRANCH   9  10
HETATM   10  N3  UNL     1     107.282  15.902  50.529  1.00  0.00    -0.343 N 
HETATM   11  C7  UNL     1     107.441  14.699  50.301  1.00  0.00     0.207 C 
HETATM   12  N4  UNL     1     107.025  14.052  49.126  1.00  0.00    -0.062 NA
HETATM   13  N5  UNL     1     108.096  13.850  51.275  1.00  0.00    -0.259 N 
ATOM     14  H5  UNL     1     107.855  12.865  51.377  1.00  0.00     0.191 HD
ATOM     15  H3  UNL     1     107.663  16.153  51.441  1.00  0.00     0.167 HD
BRANCH  13  16
HETATM   16  N6  UNL     1     109.067  14.448  52.059  1.00  0.00    -0.247 N 
HETATM   17  N7  UNL     1     110.140  14.837  51.537  1.00  0.00    -0.331 N 
ATOM     18  H72 UNL     1     110.281  14.706  50.536  1.00  0.00     0.178 HD
ATOM     19  H71 UNL     1     110.856  15.278  52.115  1.00  0.00     0.178 HD
ATOM     20  H6  UNL     1     108.911  14.572  53.060  1.00  0.00     0.207 HD
ENDBRANCH  13  16
ENDBRANCH   9  10
ENDBRANCH   8   9
ENDBRANCH   7   8
ENDBRANCH   6   7
ENDBRANCH   5   6
BRANCH   5  21
HETATM   21  N8  UNL     1     103.941  21.122  49.928  1.00  0.00    -0.379 N 
ATOM     22  H8  UNL     1     103.964  21.808  49.174  1.00  0.00     0.160 HD
BRANCH  21  23
HETATM   23  C8  UNL     1     102.720  20.455  50.314  1.00  0.00     0.121 C 
BRANCH  23  24
HETATM   24  C9  UNL     1     101.876  20.194  49.097  1.00  0.00     0.021 C 
BRANCH  24  25
HETATM   25  C10 UNL     1     101.908  18.763  48.635  1.00  0.00     0.021 C 
BRANCH  25  26
HETATM   26  C11 UNL     1     102.651  18.679  47.330  1.00  0.00     0.122 C 
BRANCH  26  27
HETATM   27  N9  UNL     1     102.612  17.345  46.762  1.00  0.00    -0.367 N 
HETATM   28  C12 UNL     1     103.684  16.802  46.266  1.00  0.00     0.196 C 
HETATM   29  N10 UNL     1     104.937  17.472  46.249  1.00  0.00    -0.067 NA
HETATM   30  N11 UNL     1     103.617  15.503  45.719  1.00  0.00    -0.067 NA
ATOM     31  H9  UNL     1     101.733  16.827  46.751  1.00  0.00     0.161 HD
ENDBRANCH  26  27
ENDBRANCH  25  26
ENDBRANCH  24  25
ENDBRANCH  23  24
ENDBRANCH  21  23
ENDBRANCH   5  21
TORSDOF 12
ENDMDL
MODEL 3
REMARK VINA RESULT: -7.784418806      2.813      7.407
REMARK  12 active torsions:
REMARK  status: ('A' for Active; 'I' for Inactive)
REMARK    1  A    between atoms: C2_5  and  C3_6 
REMARK    2  A    between atoms: C2_5  and  N8_21 
REMARK    3  A    between atoms: C3_6  and  C4_7 
REMARK    4  A    between atoms: C4_7  and  C5_8 
REMARK    5  A    between atoms: C5_8  and  C6_9 
REMARK    6  A    between atoms: C6_9  and  N3_10 
REMARK       I    between atoms: C7_12  and  N5_14 
REMARK    7  A    between atoms: N5_14  and  N6_16 
REMARK    8  A    between atoms: N8_21  and  C8_23 
REMARK    9  A    between atoms: C8_23  and  C9_24 
REMARK   10  A    between atoms: C9_24  and  C10_25 
REMARK   11  A    between atoms: C10_25  and  C11_26 
REMARK   12  A    between atoms: C11_26  and  N9_27 
ROOT
HETATM    1  N1  UNL     1     108.191  18.673  46.717  1.00  0.00    -0.172 NA
HETATM    2  C1  UNL     1     108.174  17.762  47.424  1.00  0.00     0.183 C 
HETATM    3  N2  UNL     1     108.132  16.658  48.269  1.00  0.00    -0.283 N 
ATOM      4  H2  UNL     1     108.318  15.726  47.899  1.00  0.00     0.179 HD
HETATM    5  C2  UNL     1     107.862  16.811  49.507  1.00  0.00     0.086 C 
ENDROOT
BRANCH   5   6
HETATM    6  C3  UNL     1     107.779  15.761  50.524  1.00  0.00     0.077 C 
BRANCH   6   7
HETATM    7  C4  UNL     1     107.625  14.368  50.001  1.00  0.00     0.013 C 
BRANCH   7   8
HETATM    8  C5  UNL     1     108.943  13.638  49.879  1.00  0.00     0.045 C 
BRANCH   8   9
HETATM    9  C6  UNL     1     108.762  12.152  50.102  1.00  0.00     0.063 C 
BRANCH   9  10
HETATM   10  N3  UNL     1     108.943  11.421  48.923  1.00  0.00    -0.343 N 
HETATM   11  C7  UNL     1     108.331  11.206  47.873  1.00  0.00     0.207 C 
HETATM   12  N4  UNL     1     107.075  11.751  47.561  1.00  0.00    -0.062 NA
HETATM   13  N5  UNL     1     108.899  10.342  46.859  1.00  0.00    -0.259 N 
ATOM     14  H5  UNL     1     108.313   9.775  46.246  1.00  0.00     0.191 HD
ATOM     15  H3  UNL     1     109.833  10.923  48.935  1.00  0.00     0.167 HD
BRANCH  13  16
HETATM   16  N6  UNL     1     110.280  10.328  46.765  1.00  0.00    -0.247 N 
HETATM   17  N7  UNL     1     110.914   9.281  47.043  1.00  0.00    -0.331 N 
ATOM     18  H72 UNL     1     110.399   8.452  47.336  1.00  0.00     0.178 HD
ATOM     19  H71 UNL     1     111.932   9.270  46.974  1.00  0.00     0.178 HD
ATOM     20  H6  UNL     1     110.781  11.166  46.470  1.00  0.00     0.207 HD
ENDBRANCH  13  16
ENDBRANCH   9  10
ENDBRANCH   8   9
ENDBRANCH   7   8
ENDBRANCH   6   7
ENDBRANCH   5   6
BRANCH   5  21
HETATM   21  N8  UNL     1     107.584  18.160  49.950  1.00  0.00    -0.379 N 
ATOM     22  H8  UNL     1     108.034  18.969  49.520  1.00  0.00     0.160 HD
BRANCH  21  23
HETATM   23  C8  UNL     1     106.636  18.302  51.030  1.00  0.00     0.121 C 
BRANCH  23  24
HETATM   24  C9  UNL     1     106.597  19.733  51.489  1.00  0.00     0.021 C 
BRANCH  24  25
HETATM   25  C10 UNL     1     105.205  20.285  51.630  1.00  0.00     0.021 C 
BRANCH  25  26
HETATM   26  C11 UNL     1     104.746  20.820  50.301  1.00  0.00     0.122 C 
BRANCH  26  27
HETATM   27  N9  UNL     1     103.303  20.941  50.228  1.00  0.00    -0.367 N 
HETATM   28  C12 UNL     1     102.639  20.400  49.248  1.00  0.00     0.196 C 
HETATM   29  N10 UNL     1     103.278  19.673  48.208  1.00  0.00    -0.067 NA
HETATM   30  N11 UNL     1     101.236  20.533  49.202  1.00  0.00    -0.067 NA
ATOM     31  H9  UNL     1     102.802  21.455  50.953  1.00  0.00     0.161 HD
ENDBRANCH  26  27
ENDBRANCH  25  26
ENDBRANCH  24  25
ENDBRANCH  23  24
ENDBRANCH  21  23
ENDBRANCH   5  21
TORSDOF 12
ENDMDL
MODEL 4
REMARK VINA RESULT: -7.751854779      2.858      7.404
REMARK  12 active torsions:
REMARK  status: ('A' for Active; 'I' for Inactive)
REMARK    1  A    between atoms: C2_5  and  C3_6 
REMARK    2  A    between atoms: C2_5  and  N8_21 
REMARK    3  A    between atoms: C3_6  and  C4_7 
REMARK    4  A    between atoms: C4_7  and  C5_8 
REMARK    5  A    between atoms: C5_8  and  C6_9 
REMARK    6  A    between atoms: C6_9  and  N3_10 
REMARK       I    between atoms: C7_12  and  N5_14 
REMARK    7  A    between atoms: N5_14  and  N6_16 
REMARK    8  A    between atoms: N8_21  and  C8_23 
REMARK    9  A    between atoms: C8_23  and  C9_24 
REMARK   10  A    between atoms: C9_24  and  C10_25 
REMARK   11  A    between atoms: C10_25  and  C11_26 
REMARK   12  A    between atoms: C11_26  and  N9_27 
ROOT
HETATM    1  N1  UNL     1     108.545  18.478  46.832  1.00  0.00    -0.172 NA
HETATM    2  C1  UNL     1     108.388  17.542  47.488  1.00  0.00     0.183 C 
HETATM    3  N2  UNL     1     108.178  16.411  48.269  1.00  0.00    -0.283 N 
ATOM      4  H2  UNL     1     108.263  15.482  47.855  1.00  0.00     0.179 HD
HETATM    5  C2  UNL     1     107.878  16.534  49.504  1.00  0.00     0.086 C 
ENDROOT
BRANCH   5   6
HETATM    6  C3  UNL     1     107.627  15.452  50.459  1.00  0.00     0.077 C 
BRANCH   6   7
HETATM    7  C4  UNL     1     108.570  14.294  50.382  1.00  0.00     0.013 C 
BRANCH   7   8
HETATM    8  C5  UNL     1     107.996  13.119  49.625  1.00  0.00     0.045 C 
BRANCH   8   9
HETATM    9  C6  UNL     1     108.977  11.967  49.586  1.00  0.00     0.063 C 
BRANCH   9  10
HETATM   10  N3  UNL     1     109.060  11.393  48.313  1.00  0.00    -0.343 N 
HETATM   11  C7  UNL     1     109.247  10.277  47.820  1.00  0.00     0.207 C 
HETATM   12  N4  UNL     1     109.458   9.106  48.565  1.00  0.00    -0.062 NA
HETATM   13  N5  UNL     1     109.259  10.105  46.382  1.00  0.00    -0.259 N 
ATOM     14  H5  UNL     1     109.834   9.394  45.931  1.00  0.00     0.191 HD
ATOM     15  H3  UNL     1     108.930  12.096  47.586  1.00  0.00     0.167 HD
BRANCH  13  16
HETATM   16  N6  UNL     1     108.448  10.958  45.653  1.00  0.00    -0.247 N 
HETATM   17  N7  UNL     1     107.208  10.959  45.847  1.00  0.00    -0.331 N 
ATOM     18  H72 UNL     1     106.814  10.326  46.543  1.00  0.00     0.178 HD
ATOM     19  H71 UNL     1     106.610  11.586  45.309  1.00  0.00     0.178 HD
ATOM     20  H6  UNL     1     108.858  11.584  44.959  1.00  0.00     0.207 HD
ENDBRANCH  13  16
ENDBRANCH   9  10
ENDBRANCH   8   9
ENDBRANCH   7   8
ENDBRANCH   6   7
ENDBRANCH   5   6
BRANCH   5  21
HETATM   21  N8  UNL     1     107.750  17.883  50.010  1.00  0.00    -0.379 N 
ATOM     22  H8  UNL     1     108.389  18.626  49.725  1.00  0.00     0.160 HD
BRANCH  21  23
HETATM   23  C8  UNL     1     106.670  18.123  50.938  1.00  0.00     0.121 C 
BRANCH  23  24
HETATM   24  C9  UNL     1     106.657  19.572  51.341  1.00  0.00     0.021 C 
BRANCH  24  25
HETATM   25  C10 UNL     1     105.278  20.121  51.582  1.00  0.00     0.021 C 
BRANCH  25  26
HETATM   26  C11 UNL     1     104.777  20.773  50.323  1.00  0.00     0.122 C 
BRANCH  26  27
HETATM   27  N9  UNL     1     103.329  20.860  50.290  1.00  0.00    -0.367 N 
HETATM   28  C12 UNL     1     102.655  20.353  49.301  1.00  0.00     0.196 C 
HETATM   29  N10 UNL     1     103.285  19.696  48.210  1.00  0.00    -0.067 NA
HETATM   30  N11 UNL     1     101.248  20.453  49.295  1.00  0.00    -0.067 NA
ATOM     31  H9  UNL     1     102.835  21.325  51.052  1.00  0.00     0.161 HD
ENDBRANCH  26  27
ENDBRANCH  25  26
ENDBRANCH  24  25
ENDBRANCH  23  24
ENDBRANCH  21  23
ENDBRANCH   5  21
TORSDOF 12
ENDMDL
MODEL 5
REMARK VINA RESULT: -7.715396817      1.474      2.000
REMARK  12 active torsions:
REMARK  status: ('A' for Active; 'I' for Inactive)
REMARK    1  A    between atoms: C2_5  and  C3_6 
REMARK    2  A    between atoms: C2_5  and  N8_21 
REMARK    3  A    between atoms: C3_6  and  C4_7 
REMARK    4  A    between atoms: C4_7  and  C5_8 
REMARK    5  A    between atoms: C5_8  and  C6_9 
REMARK    6  A    between atoms: C6_9  and  N3_10 
REMARK       I    between atoms: C7_12  and  N5_14 
REMARK    7  A    between atoms: N5_14  and  N6_16 
REMARK    8  A    between atoms: N8_21  and  C8_23 
REMARK    9  A    between atoms: C8_23  and  C9_24 
REMARK   10  A    between atoms: C9_24  and  C10_25 
REMARK   11  A    between atoms: C10_25  and  C11_26 
REMARK   12  A    between atoms: C11_26  and  N9_27 
ROOT
HETATM    1  N1  UNL     1     106.310  24.110  50.292  1.00  0.00    -0.172 NA
HETATM    2  C1  UNL     1     105.434  23.361  50.308  1.00  0.00     0.183 C 
HETATM    3  N2  UNL     1     104.373  22.463  50.350  1.00  0.00    -0.283 N 
ATOM      4  H2  UNL     1     103.413  22.803  50.282  1.00  0.00     0.179 HD
HETATM    5  C2  UNL     1     104.598  21.212  50.473  1.00  0.00     0.086 C 
ENDROOT
BRANCH   5   6
HETATM    6  C3  UNL     1     103.602  20.141  50.532  1.00  0.00     0.077 C 
BRANCH   6   7
HETATM    7  C4  UNL     1     102.312  20.422  49.828  1.00  0.00     0.013 C 
BRANCH   7   8
HETATM    8  C5  UNL     1     102.258  19.822  48.442  1.00  0.00     0.045 C 
BRANCH   8   9
HETATM    9  C6  UNL     1     102.161  18.313  48.509  1.00  0.00     0.063 C 
BRANCH   9  10
HETATM   10  N3  UNL     1     102.374  17.719  47.260  1.00  0.00    -0.343 N 
HETATM   11  C7  UNL     1     103.242  17.045  46.700  1.00  0.00     0.207 C 
HETATM   12  N4  UNL     1     104.445  16.642  47.303  1.00  0.00    -0.062 NA
HETATM   13  N5  UNL     1     103.063  16.612  45.330  1.00  0.00    -0.259 N 
ATOM     14  H5  UNL     1     103.853  16.489  44.697  1.00  0.00     0.191 HD
ATOM     15  H3  UNL     1     101.587  17.893  46.634  1.00  0.00     0.167 HD
BRANCH  13  16
HETATM   16  N6  UNL     1     101.761  16.372  44.925  1.00  0.00    -0.247 N 
HETATM   17  N7  UNL     1     101.235  15.253  45.141  1.00  0.00    -0.331 N 
ATOM     18  H72 UNL     1     101.779  14.532  45.614  1.00  0.00     0.178 HD
ATOM     19  H71 UNL     1     100.276  15.076  44.842  1.00  0.00     0.178 HD
ATOM     20  H6  UNL     1     101.229  17.104  44.453  1.00  0.00     0.207 HD
ENDBRANCH  13  16
ENDBRANCH   9  10
ENDBRANCH   8   9
ENDBRANCH   7   8
ENDBRANCH   6   7
ENDBRANCH   5   6
BRANCH   5  21
HETATM   21  N8  UNL     1     105.984  20.811  50.589  1.00  0.00    -0.379 N 
ATOM     22  H8  UNL     1     106.685  21.095  49.903  1.00  0.00     0.160 HD
BRANCH  21  23
HETATM   23  C8  UNL     1     106.322  19.987  51.725  1.00  0.00     0.121 C 
BRANCH  23  24
HETATM   24  C9  UNL     1     106.659  18.596  51.263  1.00  0.00     0.021 C 
BRANCH  24  25
HETATM   25  C10 UNL     1     107.596  18.559  50.087  1.00  0.00     0.021 C 
BRANCH  25  26
HETATM   26  C11 UNL     1     107.466  17.233  49.390  1.00  0.00     0.122 C 
BRANCH  26  27
HETATM   27  N9  UNL     1     108.311  17.147  48.214  1.00  0.00    -0.367 N 
HETATM   28  C12 UNL     1     108.027  17.825  47.141  1.00  0.00     0.196 C 
HETATM   29  N10 UNL     1     106.892  18.675  47.058  1.00  0.00    -0.067 NA
HETATM   30  N11 UNL     1     108.866  17.722  46.012  1.00  0.00    -0.067 NA
ATOM     31  H9  UNL     1     109.136  16.547  48.229  1.00  0.00     0.161 HD
ENDBRANCH  26  27
ENDBRANCH  25  26
ENDBRANCH  24  25
ENDBRANCH  23  24
ENDBRANCH  21  23
ENDBRANCH   5  21
TORSDOF 12
ENDMDL
