MODEL 1
REMARK VINA RESULT: -6.699561356      0.000      0.000
REMARK  12 active torsions:
REMARK  status: ('A' for Active; 'I' for Inactive)
REMARK    1  A    between atoms: N2_5  and  C4_6 
REMARK    2  A    between atoms: C4_6  and  C5_7 
REMARK    3  A    between atoms: C5_7  and  N3_8 
REMARK    4  A    between atoms: N3_8  and  S1_10 
REMARK    5  A    between atoms: S1_10  and  N4_13 
REMARK    6  A    between atoms: N4_13  and  C6_15 
REMARK    7  A    between atoms: C6_15  and  C7_16 
REMARK    8  A    between atoms: C6_15  and  C9_22 
REMARK    9  A    between atoms: C7_16  and  C8_17 
REMARK   10  A    between atoms: C8_17  and  N5_18 
REMARK   11  A    between atoms: C9_22  and  N6_23 
REMARK   12  A    between atoms: N6_23  and  N7_24 
ROOT
HETATM    1  S1  UNL     1     101.874  19.868  49.756  1.00  0.00     0.315 S 
HETATM    2  O1  UNL     1     101.267  20.856  48.814  1.00  0.00    -0.183 OA
HETATM    3  O2  UNL     1     100.664  19.337  50.623  1.00  0.00    -0.183 OA
ENDROOT
BRANCH   1   4
HETATM    4  N3  UNL     1     102.297  18.466  48.840  1.00  0.00    -0.301 N 
ATOM      5  H3  UNL     1     102.466  17.536  49.225  1.00  0.00     0.173 HD
BRANCH   4   6
HETATM    6  C5  UNL     1     102.371  18.822  47.442  1.00  0.00     0.161 C 
BRANCH   6   7
HETATM    7  C4  UNL     1     102.919  17.561  46.786  1.00  0.00     0.260 C 
BRANCH   7   8
HETATM    8  N2  UNL     1     102.674  17.357  45.467  1.00  0.00    -0.038 N 
HETATM    9  C3  UNL     1     101.728  18.239  44.843  1.00  0.00     0.267 C 
HETATM   10  C2  UNL     1     102.017  17.969  43.368  1.00  0.00     0.267 C 
HETATM   11  N1  UNL     1     103.223  17.187  43.361  1.00  0.00    -0.043 N 
HETATM   12  C1  UNL     1     104.061  17.351  42.231  1.00  0.00     0.274 C 
HETATM   13  C11 UNL     1     102.876  15.832  43.689  1.00  0.00     0.267 C 
HETATM   14  C12 UNL     1     103.843  17.612  44.618  1.00  0.00     0.472 C 
HETATM   15  C10 UNL     1     102.409  15.980  45.133  1.00  0.00     0.267 C 
ENDBRANCH   7   8
ENDBRANCH   6   7
ENDBRANCH   4   6
ENDBRANCH   1   4
BRANCH   1  16
HETATM   16  N4  UNL     1     102.966  20.477  50.843  1.00  0.00    -0.297 N 
ATOM     17  H4  UNL     1     102.699  20.838  51.759  1.00  0.00     0.174 HD
BRANCH  16  18
HETATM   18  C6  UNL     1     104.324  20.452  50.376  1.00  0.00     0.112 C 
BRANCH  18  19
HETATM   19  C7  UNL     1     105.223  20.123  51.528  1.00  0.00     0.054 C 
BRANCH  19  20
HETATM   20  C8  UNL     1     106.578  19.715  51.005  1.00  0.00     0.231 C 
BRANCH  20  21
HETATM   21  N5  UNL     1     106.728  18.293  51.306  1.00  0.00    -0.079 N 
ATOM     22  H53 UNL     1     107.134  18.116  52.224  1.00  0.00     0.274 HD
ATOM     23  H52 UNL     1     105.840  17.818  51.465  1.00  0.00     0.274 HD
ATOM     24  H51 UNL     1     107.270  17.891  50.541  1.00  0.00     0.274 HD
ENDBRANCH  20  21
ENDBRANCH  19  20
ENDBRANCH  18  19
BRANCH  18  25
HETATM   25  C9  UNL     1     104.772  21.853  49.895  1.00  0.00     0.160 C 
BRANCH  25  26
HETATM   26  N6  UNL     1     105.105  22.747  50.966  1.00  0.00    -0.146 NA
BRANCH  26  27
HETATM   27  N7  UNL     1     105.629  23.959  50.439  1.00  0.00    -0.348 N 
ATOM     28  H72 UNL     1     106.055  24.047  49.517  1.00  0.00     0.172 HD
ATOM     29  H71 UNL     1     105.511  24.712  51.117  1.00  0.00     0.172 HD
ENDBRANCH  26  27
ENDBRANCH  25  26
ENDBRANCH  18  25
ENDBRANCH  16  18
ENDBRANCH   1  16
TORSDOF 12
ENDMDL
MODEL 2
REMARK VINA RESULT: -6.689252790      0.536      1.257
REMARK  12 active torsions:
REMARK  status: ('A' for Active; 'I' for Inactive)
REMARK    1  A    between atoms: N2_5  and  C4_6 
REMARK    2  A    between atoms: C4_6  and  C5_7 
REMARK    3  A    between atoms: C5_7  and  N3_8 
REMARK    4  A    between atoms: N3_8  and  S1_10 
REMARK    5  A    between atoms: S1_10  and  N4_13 
REMARK    6  A    between atoms: N4_13  and  C6_15 
REMARK    7  A    between atoms: C6_15  and  C7_16 
REMARK    8  A    between atoms: C6_15  and  C9_22 
REMARK    9  A    between atoms: C7_16  and  C8_17 
REMARK   10  A    between atoms: C8_17  and  N5_18 
REMARK   11  A    between atoms: C9_22  and  N6_23 
REMARK   12  A    between atoms: N6_23  and  N7_24 
ROOT
HETATM    1  S1  UNL     1     101.892  19.886  49.764  1.00  0.00     0.315 S 
HETATM    2  O1  UNL     1     101.271  20.861  48.818  1.00  0.00    -0.183 OA
HETATM    3  O2  UNL     1     100.690  19.348  50.639  1.00  0.00    -0.183 OA
ENDROOT
BRANCH   1   4
HETATM    4  N3  UNL     1     102.325  18.482  48.856  1.00  0.00    -0.301 N 
ATOM      5  H3  UNL     1     102.610  17.586  49.250  1.00  0.00     0.173 HD
BRANCH   4   6
HETATM    6  C5  UNL     1     102.220  18.782  47.446  1.00  0.00     0.161 C 
BRANCH   6   7
HETATM    7  C4  UNL     1     102.974  17.638  46.784  1.00  0.00     0.260 C 
BRANCH   7   8
HETATM    8  N2  UNL     1     102.830  17.452  45.448  1.00  0.00    -0.038 N 
HETATM    9  C3  UNL     1     104.008  17.615  44.643  1.00  0.00     0.267 C 
HETATM   10  C2  UNL     1     103.554  16.964  43.338  1.00  0.00     0.267 C 
HETATM   11  N1  UNL     1     102.313  16.314  43.658  1.00  0.00    -0.043 N 
HETATM   12  C1  UNL     1     102.016  15.145  42.915  1.00  0.00     0.274 C 
HETATM   13  C11 UNL     1     101.281  17.315  43.683  1.00  0.00     0.267 C 
HETATM   14  C12 UNL     1     102.481  16.072  45.093  1.00  0.00     0.472 C 
HETATM   15  C10 UNL     1     101.706  18.156  44.883  1.00  0.00     0.267 C 
ENDBRANCH   7   8
ENDBRANCH   6   7
ENDBRANCH   4   6
ENDBRANCH   1   4
BRANCH   1  16
HETATM   16  N4  UNL     1     102.981  20.513  50.843  1.00  0.00    -0.297 N 
ATOM     17  H4  UNL     1     102.711  20.891  51.752  1.00  0.00     0.174 HD
BRANCH  16  18
HETATM   18  C6  UNL     1     104.340  20.476  50.382  1.00  0.00     0.112 C 
BRANCH  18  19
HETATM   19  C7  UNL     1     105.233  20.148  51.539  1.00  0.00     0.054 C 
BRANCH  19  20
HETATM   20  C8  UNL     1     106.584  19.718  51.024  1.00  0.00     0.231 C 
BRANCH  20  21
HETATM   21  N5  UNL     1     106.692  18.285  51.287  1.00  0.00    -0.079 N 
ATOM     22  H53 UNL     1     105.895  17.751  50.941  1.00  0.00     0.274 HD
ATOM     23  H52 UNL     1     107.407  17.824  50.725  1.00  0.00     0.274 HD
ATOM     24  H51 UNL     1     106.840  18.185  52.291  1.00  0.00     0.274 HD
ENDBRANCH  20  21
ENDBRANCH  19  20
ENDBRANCH  18  19
BRANCH  18  25
HETATM   25  C9  UNL     1     104.799  21.872  49.895  1.00  0.00     0.160 C 
BRANCH  25  26
HETATM   26  N6  UNL     1     105.119  22.775  50.962  1.00  0.00    -0.146 NA
BRANCH  26  27
HETATM   27  N7  UNL     1     105.663  23.976  50.432  1.00  0.00    -0.348 N 
ATOM     28  H72 UNL     1     106.019  24.075  49.482  1.00  0.00     0.172 HD
ATOM     29  H71 UNL     1     105.641  24.710  51.141  1.00  0.00     0.172 HD
ENDBRANCH  26  27
ENDBRANCH  25  26
ENDBRANCH  18  25
ENDBRANCH  16  18
ENDBRANCH   1  16
TORSDOF 12
ENDMDL
MODEL 3
REMARK VINA RESULT: -6.530366972      0.758      1.414
REMARK  12 active torsions:
REMARK  status: ('A' for Active; 'I' for Inactive)
REMARK    1  A    between atoms: N2_5  and  C4_6 
REMARK    2  A    between atoms: C4_6  and  C5_7 
REMARK    3  A    between atoms: C5_7  and  N3_8 
REMARK    4  A    between atoms: N3_8  and  S1_10 
REMARK    5  A    between atoms: S1_10  and  N4_13 
REMARK    6  A    between atoms: N4_13  and  C6_15 
REMARK    7  A    between atoms: C6_15  and  C7_16 
REMARK    8  A    between atoms: C6_15  and  C9_22 
REMARK    9  A    between atoms: C7_16  and  C8_17 
REMARK   10  A    between atoms: C8_17  and  N5_18 
REMARK   11  A    between atoms: C9_22  and  N6_23 
REMARK   12  A    between atoms: N6_23  and  N7_24 
ROOT
HETATM    1  S1  UNL     1     102.312  20.103  49.268  1.00  0.00     0.315 S 
HETATM    2  O1  UNL     1     101.097  20.867  48.856  1.00  0.00    -0.183 OA
HETATM    3  O2  UNL     1     101.757  18.759  49.885  1.00  0.00    -0.183 OA
ENDROOT
BRANCH   1   4
HETATM    4  N3  UNL     1     103.086  19.540  47.830  1.00  0.00    -0.301 N 
ATOM      5  H3  UNL     1     104.019  19.807  47.516  1.00  0.00     0.173 HD
BRANCH   4   6
HETATM    6  C5  UNL     1     102.198  18.631  47.142  1.00  0.00     0.161 C 
BRANCH   6   7
HETATM    7  C4  UNL     1     103.121  17.503  46.701  1.00  0.00     0.260 C 
BRANCH   7   8
HETATM    8  N2  UNL     1     103.059  17.080  45.413  1.00  0.00    -0.038 N 
HETATM    9  C3  UNL     1     102.925  15.666  45.205  1.00  0.00     0.267 C 
HETATM   10  C2  UNL     1     102.502  15.632  43.738  1.00  0.00     0.267 C 
HETATM   11  N1  UNL     1     102.215  16.999  43.401  1.00  0.00    -0.043 N 
HETATM   12  C1  UNL     1     101.221  17.198  42.412  1.00  0.00     0.274 C 
HETATM   13  C11 UNL     1     103.465  17.673  43.174  1.00  0.00     0.267 C 
HETATM   14  C12 UNL     1     101.856  17.545  44.713  1.00  0.00     0.472 C 
HETATM   15  C10 UNL     1     104.083  17.642  44.568  1.00  0.00     0.267 C 
ENDBRANCH   7   8
ENDBRANCH   6   7
ENDBRANCH   4   6
ENDBRANCH   1   4
BRANCH   1  16
HETATM   16  N4  UNL     1     103.234  20.792  50.460  1.00  0.00    -0.297 N 
ATOM     17  H4  UNL     1     102.835  21.297  51.251  1.00  0.00     0.174 HD
BRANCH  16  18
HETATM   18  C6  UNL     1     104.646  20.612  50.276  1.00  0.00     0.112 C 
BRANCH  18  19
HETATM   19  C7  UNL     1     105.255  20.213  51.586  1.00  0.00     0.054 C 
BRANCH  19  20
HETATM   20  C8  UNL     1     106.697  19.826  51.370  1.00  0.00     0.231 C 
BRANCH  20  21
HETATM   21  N5  UNL     1     106.727  18.369  51.271  1.00  0.00    -0.079 N 
ATOM     22  H53 UNL     1     105.856  17.972  50.918  1.00  0.00     0.274 HD
ATOM     23  H52 UNL     1     107.333  18.027  50.526  1.00  0.00     0.274 HD
ATOM     24  H51 UNL     1     106.985  18.021  52.194  1.00  0.00     0.274 HD
ENDBRANCH  20  21
ENDBRANCH  19  20
ENDBRANCH  18  19
BRANCH  18  25
HETATM   25  C9  UNL     1     105.331  21.948  49.898  1.00  0.00     0.160 C 
BRANCH  25  26
HETATM   26  N6  UNL     1     105.144  22.984  50.873  1.00  0.00    -0.146 NA
BRANCH  26  27
HETATM   27  N7  UNL     1     105.909  24.127  50.515  1.00  0.00    -0.348 N 
ATOM     28  H72 UNL     1     105.814  24.628  49.632  1.00  0.00     0.172 HD
ATOM     29  H71 UNL     1     106.554  24.363  51.268  1.00  0.00     0.172 HD
ENDBRANCH  26  27
ENDBRANCH  25  26
ENDBRANCH  18  25
ENDBRANCH  16  18
ENDBRANCH   1  16
TORSDOF 12
ENDMDL
MODEL 4
REMARK VINA RESULT: -6.243730074      4.972      7.874
REMARK  12 active torsions:
REMARK  status: ('A' for Active; 'I' for Inactive)
REMARK    1  A    between atoms: N2_5  and  C4_6 
REMARK    2  A    between atoms: C4_6  and  C5_7 
REMARK    3  A    between atoms: C5_7  and  N3_8 
REMARK    4  A    between atoms: N3_8  and  S1_10 
REMARK    5  A    between atoms: S1_10  and  N4_13 
REMARK    6  A    between atoms: N4_13  and  C6_15 
REMARK    7  A    between atoms: C6_15  and  C7_16 
REMARK    8  A    between atoms: C6_15  and  C9_22 
REMARK    9  A    between atoms: C7_16  and  C8_17 
REMARK   10  A    between atoms: C8_17  and  N5_18 
REMARK   11  A    between atoms: C9_22  and  N6_23 
REMARK   12  A    between atoms: N6_23  and  N7_24 
ROOT
HETATM    1  S1  UNL     1     106.795  15.687  49.623  1.00  0.00     0.315 S 
HETATM    2  O1  UNL     1     105.450  15.961  49.035  1.00  0.00    -0.183 OA
HETATM    3  O2  UNL     1     107.824  16.114  48.502  1.00  0.00    -0.183 OA
ENDROOT
BRANCH   1   4
HETATM    4  N3  UNL     1     107.083  16.878  50.841  1.00  0.00    -0.301 N 
ATOM      5  H3  UNL     1     107.117  16.702  51.845  1.00  0.00     0.173 HD
BRANCH   4   6
HETATM    6  C5  UNL     1     107.268  18.164  50.208  1.00  0.00     0.161 C 
BRANCH   6   7
HETATM    7  C4  UNL     1     106.714  19.144  51.233  1.00  0.00     0.260 C 
BRANCH   7   8
HETATM    8  N2  UNL     1     105.738  20.004  50.847  1.00  0.00    -0.038 N 
HETATM    9  C3  UNL     1     106.001  20.795  49.677  1.00  0.00     0.267 C 
HETATM   10  C2  UNL     1     104.597  21.299  49.352  1.00  0.00     0.267 C 
HETATM   11  N1  UNL     1     103.722  20.541  50.205  1.00  0.00    -0.043 N 
HETATM   12  C1  UNL     1     102.423  20.294  49.697  1.00  0.00     0.274 C 
HETATM   13  C11 UNL     1     103.778  21.114  51.521  1.00  0.00     0.267 C 
HETATM   14  C12 UNL     1     104.512  19.325  50.412  1.00  0.00     0.472 C 
HETATM   15  C10 UNL     1     105.219  20.811  51.921  1.00  0.00     0.267 C 
ENDBRANCH   7   8
ENDBRANCH   6   7
ENDBRANCH   4   6
ENDBRANCH   1   4
BRANCH   1  16
HETATM   16  N4  UNL     1     107.133  14.100  49.955  1.00  0.00    -0.297 N 
ATOM     17  H4  UNL     1     106.510  13.498  50.494  1.00  0.00     0.174 HD
BRANCH  16  18
HETATM   18  C6  UNL     1     108.385  13.649  49.415  1.00  0.00     0.112 C 
BRANCH  18  19
HETATM   19  C7  UNL     1     108.205  12.264  48.873  1.00  0.00     0.054 C 
BRANCH  19  20
HETATM   20  C8  UNL     1     109.062  11.303  49.658  1.00  0.00     0.231 C 
BRANCH  20  21
HETATM   21  N5  UNL     1     109.612  10.353  48.694  1.00  0.00    -0.079 N 
ATOM     22  H53 UNL     1     109.996   9.514  49.129  1.00  0.00     0.274 HD
ATOM     23  H52 UNL     1     108.899   9.890  48.132  1.00  0.00     0.274 HD
ATOM     24  H51 UNL     1     110.294  10.867  48.137  1.00  0.00     0.274 HD
ENDBRANCH  20  21
ENDBRANCH  19  20
ENDBRANCH  18  19
BRANCH  18  25
HETATM   25  C9  UNL     1     109.453  13.516  50.527  1.00  0.00     0.160 C 
BRANCH  25  26
HETATM   26  N6  UNL     1     109.632  14.713  51.296  1.00  0.00    -0.146 NA
BRANCH  26  27
HETATM   27  N7  UNL     1     109.085  14.538  52.596  1.00  0.00    -0.348 N 
ATOM     28  H72 UNL     1     108.115  14.734  52.842  1.00  0.00     0.172 HD
ATOM     29  H71 UNL     1     109.804  14.191  53.232  1.00  0.00     0.172 HD
ENDBRANCH  26  27
ENDBRANCH  25  26
ENDBRANCH  18  25
ENDBRANCH  16  18
ENDBRANCH   1  16
TORSDOF 12
ENDMDL
MODEL 5
REMARK VINA RESULT: -6.184802974      0.874      2.578
REMARK  12 active torsions:
REMARK  status: ('A' for Active; 'I' for Inactive)
REMARK    1  A    between atoms: N2_5  and  C4_6 
REMARK    2  A    between atoms: C4_6  and  C5_7 
REMARK    3  A    between atoms: C5_7  and  N3_8 
REMARK    4  A    between atoms: N3_8  and  S1_10 
REMARK    5  A    between atoms: S1_10  and  N4_13 
REMARK    6  A    between atoms: N4_13  and  C6_15 
REMARK    7  A    between atoms: C6_15  and  C7_16 
REMARK    8  A    between atoms: C6_15  and  C9_22 
REMARK    9  A    between atoms: C7_16  and  C8_17 
REMARK   10  A    between atoms: C8_17  and  N5_18 
REMARK   11  A    between atoms: C9_22  and  N6_23 
REMARK   12  A    between atoms: N6_23  and  N7_24 
ROOT
HETATM    1  S1  UNL     1     102.099  20.108  49.379  1.00  0.00     0.315 S 
HETATM    2  O1  UNL     1     101.017  20.899  48.720  1.00  0.00    -0.183 OA
HETATM    3  O2  UNL     1     101.555  19.807  50.831  1.00  0.00    -0.183 OA
ENDROOT
BRANCH   1   4
HETATM    4  N3  UNL     1     102.099  18.534  48.667  1.00  0.00    -0.301 N 
ATOM      5  H3  UNL     1     102.031  17.653  49.177  1.00  0.00     0.173 HD
BRANCH   4   6
HETATM    6  C5  UNL     1     102.213  18.665  47.232  1.00  0.00     0.161 C 
BRANCH   6   7
HETATM    7  C4  UNL     1     103.048  17.457  46.832  1.00  0.00     0.260 C 
BRANCH   7   8
HETATM    8  N2  UNL     1     103.049  17.070  45.531  1.00  0.00    -0.038 N 
HETATM    9  C3  UNL     1     102.946  15.660  45.278  1.00  0.00     0.267 C 
HETATM   10  C2  UNL     1     102.589  15.663  43.793  1.00  0.00     0.267 C 
HETATM   11  N1  UNL     1     102.296  17.036  43.483  1.00  0.00    -0.043 N 
HETATM   12  C1  UNL     1     101.344  17.250  42.456  1.00  0.00     0.274 C 
HETATM   13  C11 UNL     1     103.544  17.733  43.330  1.00  0.00     0.267 C 
HETATM   14  C12 UNL     1     101.872  17.538  44.792  1.00  0.00     0.472 C 
HETATM   15  C10 UNL     1     104.100  17.670  44.749  1.00  0.00     0.267 C 
ENDBRANCH   7   8
ENDBRANCH   6   7
ENDBRANCH   4   6
ENDBRANCH   1   4
BRANCH   1  16
HETATM   16  N4  UNL     1     103.541  20.891  49.597  1.00  0.00    -0.297 N 
ATOM     17  H4  UNL     1     103.952  21.509  48.896  1.00  0.00     0.174 HD
BRANCH  16  18
HETATM   18  C6  UNL     1     104.161  20.622  50.864  1.00  0.00     0.112 C 
BRANCH  18  19
HETATM   19  C7  UNL     1     105.239  21.635  51.098  1.00  0.00     0.054 C 
BRANCH  19  20
HETATM   20  C8  UNL     1     105.178  22.690  50.022  1.00  0.00     0.231 C 
BRANCH  20  21
HETATM   21  N5  UNL     1     105.526  23.957  50.660  1.00  0.00    -0.079 N 
ATOM     22  H53 UNL     1     105.045  24.107  51.547  1.00  0.00     0.274 HD
ATOM     23  H52 UNL     1     106.477  23.975  51.027  1.00  0.00     0.274 HD
ATOM     24  H51 UNL     1     105.344  24.688  49.973  1.00  0.00     0.274 HD
ENDBRANCH  20  21
ENDBRANCH  19  20
ENDBRANCH  18  19
BRANCH  18  25
HETATM   25  C9  UNL     1     104.884  19.253  50.848  1.00  0.00     0.160 C 
BRANCH  25  26
HETATM   26  N6  UNL     1     106.309  19.356  50.973  1.00  0.00    -0.146 NA
BRANCH  26  27
HETATM   27  N7  UNL     1     106.871  18.066  51.176  1.00  0.00    -0.348 N 
ATOM     28  H72 UNL     1     106.885  17.329  50.472  1.00  0.00     0.172 HD
ATOM     29  H71 UNL     1     107.251  17.998  52.120  1.00  0.00     0.172 HD
ENDBRANCH  26  27
ENDBRANCH  25  26
ENDBRANCH  18  25
ENDBRANCH  16  18
ENDBRANCH   1  16
TORSDOF 12
ENDMDL
