MODEL 1
REMARK VINA RESULT: -4.729488814      0.000      0.000
REMARK  2 active torsions:
REMARK  status: ('A' for Active; 'I' for Inactive)
REMARK    1  A    between atoms: C1_2  and  C2_3 
REMARK    2  A    between atoms: C6_7  and  N1_8 
ROOT
HETATM    1  C2  UNL     1     -39.327 -56.961  69.474  1.00  0.00     0.240 C 
HETATM    2  C3  UNL     1     -40.535 -57.660  68.813  1.00  0.00     0.062 A 
HETATM    3  C4  UNL     1     -39.522 -57.318  67.689  1.00  0.00     0.237 A 
HETATM    4  C5  UNL     1     -40.762 -57.844  67.372  1.00  0.00     0.058 A 
HETATM    5  C6  UNL     1     -41.482 -56.782  66.520  1.00  0.00     0.096 C 
HETATM    6  C7  UNL     1     -42.934 -56.664  66.944  1.00  0.00     0.199 C 
HETATM    7  O1  UNL     1     -42.591 -55.501  67.634  1.00  0.00    -0.380 OA
HETATM    8  C8  UNL     1     -41.316 -55.416  67.025  1.00  0.00     0.177 C 
HETATM    9  C9  UNL     1     -40.266 -55.122  68.046  1.00  0.00     0.307 C 
HETATM   10  N2  UNL     1     -39.337 -56.087  68.384  1.00  0.00     0.102 N 
ENDROOT
BRANCH   1  11
HETATM   11  C1  UNL     1     -39.472 -56.593  70.867  1.00  0.00     0.122 C 
HETATM   12  S1  UNL     1     -38.931 -57.722  72.133  1.00  0.00    -0.095 SA
ENDBRANCH   1  11
BRANCH   5  13
HETATM   13  N1  UNL     1     -41.372 -57.020  65.117  1.00  0.00    -0.154 NA
HETATM   14 BR1  UNL     1     -42.889 -56.427  64.199  1.00  0.00     0.030 Br
ENDBRANCH   5  13
TORSDOF 2
ENDMDL
MODEL 2
REMARK VINA RESULT: -4.541962454      1.954      2.140
REMARK  2 active torsions:
REMARK  status: ('A' for Active; 'I' for Inactive)
REMARK    1  A    between atoms: C1_2  and  C2_3 
REMARK    2  A    between atoms: C6_7  and  N1_8 
ROOT
HETATM    1  C2  UNL     1     -37.443 -56.390  67.027  1.00  0.00     0.240 C 
HETATM    2  C3  UNL     1     -38.629 -57.361  67.217  1.00  0.00     0.062 A 
HETATM    3  C4  UNL     1     -38.527 -57.039  65.702  1.00  0.00     0.237 A 
HETATM    4  C5  UNL     1     -39.582 -57.793  66.184  1.00  0.00     0.058 A 
HETATM    5  C6  UNL     1     -40.864 -56.999  65.876  1.00  0.00     0.096 C 
HETATM    6  C7  UNL     1     -41.810 -57.046  67.062  1.00  0.00     0.199 C 
HETATM    7  O1  UNL     1     -41.397 -55.752  67.385  1.00  0.00    -0.380 OA
HETATM    8  C8  UNL     1     -40.741 -55.563  66.145  1.00  0.00     0.177 C 
HETATM    9  C9  UNL     1     -39.391 -54.957  66.352  1.00  0.00     0.307 C 
HETATM   10  N2  UNL     1     -38.252 -55.703  66.119  1.00  0.00     0.102 N 
ENDROOT
BRANCH   1  11
HETATM   11  C1  UNL     1     -36.853 -55.842  68.231  1.00  0.00     0.122 C 
HETATM   12  S1  UNL     1     -37.770 -55.888  69.756  1.00  0.00    -0.095 SA
ENDBRANCH   1  11
BRANCH   5  13
HETATM   13  N1  UNL     1     -41.515 -57.426  64.680  1.00  0.00    -0.154 NA
HETATM   14 BR1  UNL     1     -42.953 -56.313  64.246  1.00  0.00     0.030 Br
ENDBRANCH   5  13
TORSDOF 2
ENDMDL
MODEL 3
REMARK VINA RESULT: -4.509171887      1.996      2.616
REMARK  2 active torsions:
REMARK  status: ('A' for Active; 'I' for Inactive)
REMARK    1  A    between atoms: C1_2  and  C2_3 
REMARK    2  A    between atoms: C6_7  and  N1_8 
ROOT
HETATM    1  C2  UNL     1     -41.101 -55.953  69.668  1.00  0.00     0.240 C 
HETATM    2  C3  UNL     1     -40.778 -55.328  68.293  1.00  0.00     0.062 A 
HETATM    3  C4  UNL     1     -41.737 -56.524  68.049  1.00  0.00     0.237 A 
HETATM    4  C5  UNL     1     -41.182 -55.848  66.977  1.00  0.00     0.058 A 
HETATM    5  C6  UNL     1     -40.325 -56.872  66.210  1.00  0.00     0.096 C 
HETATM    6  C7  UNL     1     -39.009 -56.247  65.790  1.00  0.00     0.199 C 
HETATM    7  O1  UNL     1     -38.401 -56.924  66.849  1.00  0.00    -0.380 OA
HETATM    8  C8  UNL     1     -39.532 -57.742  67.083  1.00  0.00     0.177 C 
HETATM    9  C9  UNL     1     -39.838 -57.810  68.544  1.00  0.00     0.307 C 
HETATM   10  N2  UNL     1     -40.970 -57.197  69.045  1.00  0.00     0.102 N 
ENDROOT
BRANCH   1  11
HETATM   11  C1  UNL     1     -40.327 -55.476  70.795  1.00  0.00     0.122 C 
HETATM   12  S1  UNL     1     -41.159 -54.703  72.166  1.00  0.00    -0.095 SA
ENDBRANCH   1  11
BRANCH   5  13
HETATM   13  N1  UNL     1     -41.004 -57.445  65.093  1.00  0.00    -0.154 NA
HETATM   14 BR1  UNL     1     -42.476 -56.411  64.580  1.00  0.00     0.030 Br
ENDBRANCH   5  13
TORSDOF 2
ENDMDL
MODEL 4
REMARK VINA RESULT: -4.491575781      1.904      2.586
REMARK  2 active torsions:
REMARK  status: ('A' for Active; 'I' for Inactive)
REMARK    1  A    between atoms: C1_2  and  C2_3 
REMARK    2  A    between atoms: C6_7  and  N1_8 
ROOT
HETATM    1  C2  UNL     1     -40.253 -54.721  69.488  1.00  0.00     0.240 C 
HETATM    2  C3  UNL     1     -40.201 -54.862  67.951  1.00  0.00     0.062 A 
HETATM    3  C4  UNL     1     -41.668 -55.108  68.394  1.00  0.00     0.237 A 
HETATM    4  C5  UNL     1     -41.300 -55.292  67.073  1.00  0.00     0.058 A 
HETATM    5  C6  UNL     1     -41.551 -56.777  66.751  1.00  0.00     0.096 C 
HETATM    6  C7  UNL     1     -40.402 -57.340  65.936  1.00  0.00     0.199 C 
HETATM    7  O1  UNL     1     -39.928 -57.942  67.103  1.00  0.00    -0.380 OA
HETATM    8  C8  UNL     1     -41.122 -57.686  67.818  1.00  0.00     0.177 C 
HETATM    9  C9  UNL     1     -40.815 -57.148  69.177  1.00  0.00     0.307 C 
HETATM   10  N2  UNL     1     -41.100 -55.831  69.483  1.00  0.00     0.102 N 
ENDROOT
BRANCH   1  11
HETATM   11  C1  UNL     1     -38.981 -54.618  70.174  1.00  0.00     0.122 C 
HETATM   12  S1  UNL     1     -37.481 -55.026  69.306  1.00  0.00    -0.095 SA
ENDBRANCH   1  11
BRANCH   5  13
HETATM   13  N1  UNL     1     -42.803 -57.006  66.106  1.00  0.00    -0.154 NA
HETATM   14 BR1  UNL     1     -42.783 -56.404  64.336  1.00  0.00     0.030 Br
ENDBRANCH   5  13
TORSDOF 2
ENDMDL
MODEL 5
REMARK VINA RESULT: -4.480417203      1.541      2.098
REMARK  2 active torsions:
REMARK  status: ('A' for Active; 'I' for Inactive)
REMARK    1  A    between atoms: C1_2  and  C2_3 
REMARK    2  A    between atoms: C6_7  and  N1_8 
ROOT
HETATM    1  C2  UNL     1     -40.427 -57.449  69.652  1.00  0.00     0.240 C 
HETATM    2  C3  UNL     1     -40.926 -56.408  68.625  1.00  0.00     0.062 A 
HETATM    3  C4  UNL     1     -41.279 -57.816  68.073  1.00  0.00     0.237 A 
HETATM    4  C5  UNL     1     -41.500 -56.689  67.301  1.00  0.00     0.058 A 
HETATM    5  C6  UNL     1     -40.618 -56.838  66.047  1.00  0.00     0.096 C 
HETATM    6  C7  UNL     1     -39.957 -55.515  65.710  1.00  0.00     0.199 C 
HETATM    7  O1  UNL     1     -38.781 -56.010  66.277  1.00  0.00    -0.380 OA
HETATM    8  C8  UNL     1     -39.271 -57.337  66.337  1.00  0.00     0.177 C 
HETATM    9  C9  UNL     1     -38.972 -57.947  67.667  1.00  0.00     0.307 C 
HETATM   10  N2  UNL     1     -39.995 -58.204  68.558  1.00  0.00     0.102 N 
ENDROOT
BRANCH   1  11
HETATM   11  C1  UNL     1     -39.596 -56.951  70.729  1.00  0.00     0.122 C 
HETATM   12  S1  UNL     1     -38.849 -58.102  71.864  1.00  0.00    -0.095 SA
ENDBRANCH   1  11
BRANCH   5  13
HETATM   13  N1  UNL     1     -41.325 -57.363  64.924  1.00  0.00    -0.154 NA
HETATM   14 BR1  UNL     1     -42.813 -56.313  64.499  1.00  0.00     0.030 Br
ENDBRANCH   5  13
TORSDOF 2
ENDMDL
