MODEL 1
REMARK VINA RESULT: -8.998981652      0.000      0.000
REMARK  12 active torsions:
REMARK  status: ('A' for Active; 'I' for Inactive)
REMARK    1  A    between atoms: C2_2  and  C4_4 
REMARK    2  A    between atoms: C4_4  and  N1_5 
REMARK       I    between atoms: N1_5  and  C5_6 
REMARK    3  A    between atoms: N1_5  and  C25_37 
REMARK    4  A    between atoms: C5_6  and  O2_8 
REMARK    5  A    between atoms: O2_8  and  C6_9 
REMARK    6  A    between atoms: C10_13  and  N2_14 
REMARK       I    between atoms: N2_14  and  C11_16 
REMARK    7  A    between atoms: C11_16  and  O4_18 
REMARK    8  A    between atoms: O4_18  and  C12_19 
REMARK    9  A    between atoms: C16_23  and  N3_24 
REMARK       I    between atoms: N3_24  and  C17_26 
REMARK   10  A    between atoms: C17_26  and  C18_28 
REMARK   11  A    between atoms: C24_34  and  O6_35 
REMARK   12  A    between atoms: C28_40  and  C29_41 
ROOT
HETATM    1  C6  UNL     1      -7.468 -17.811  -7.265  1.00  0.00     0.156 C 
HETATM    2  C7  UNL     1      -6.370 -17.418  -6.270  1.00  0.00     0.035 C 
HETATM    3  C8  UNL     1      -5.223 -18.360  -6.549  1.00  0.00     0.005 C 
HETATM    4  C9  UNL     1      -5.330 -18.522  -8.073  1.00  0.00     0.028 C 
HETATM    5  C10 UNL     1      -6.840 -18.813  -8.166  1.00  0.00     0.116 C 
ENDROOT
BRANCH   5   6
HETATM    6  N2  UNL     1      -7.189 -18.676  -9.565  1.00  0.00    -0.330 N 
HETATM    7  C11 UNL     1      -7.366 -19.842 -10.381  1.00  0.00     0.361 C 
HETATM    8  O3  UNL     1      -7.212 -20.980  -9.866  1.00  0.00    -0.238 OA
ATOM      9  H2  UNL     1      -7.309 -17.748  -9.971  1.00  0.00     0.165 HD
BRANCH   7  10
HETATM   10  O4  UNL     1      -7.700 -19.792 -11.723  1.00  0.00    -0.296 OA
BRANCH  10  11
HETATM   11  C12 UNL     1      -8.622 -18.850 -12.228  1.00  0.00     0.164 C 
HETATM   12  C13 UNL     1      -8.799 -18.944 -13.716  1.00  0.00     0.035 C 
HETATM   13  C14 UNL     1      -9.357 -17.599 -14.183  1.00  0.00     0.005 C 
HETATM   14  C15 UNL     1     -10.522 -17.215 -13.318  1.00  0.00     0.028 C 
HETATM   15  C16 UNL     1     -11.027 -18.371 -12.484  1.00  0.00     0.115 C 
HETATM   16  C24 UNL     1      -9.960 -18.916 -11.569  1.00  0.00     0.170 C 
BRANCH  15  17
HETATM   17  N3  UNL     1     -12.235 -17.988 -11.803  1.00  0.00    -0.354 N 
HETATM   18  C17 UNL     1     -13.530 -18.375 -12.257  1.00  0.00     0.222 C 
HETATM   19  O5  UNL     1     -13.622 -19.087 -13.306  1.00  0.00    -0.273 OA
ATOM     20  H3  UNL     1     -12.161 -17.417 -10.961  1.00  0.00     0.163 HD
BRANCH  18  21
HETATM   21  C18 UNL     1     -14.772 -17.991 -11.572  1.00  0.00     0.078 C 
HETATM   22  C19 UNL     1     -14.537 -16.953 -10.516  1.00  0.00     0.014 C 
HETATM   23  C20 UNL     1     -14.755 -17.493  -9.111  1.00  0.00     0.001 C 
HETATM   24  C21 UNL     1     -16.170 -17.988  -8.915  1.00  0.00     0.000 C 
HETATM   25  C22 UNL     1     -16.621 -18.726 -10.170  1.00  0.00     0.001 C 
HETATM   26  C23 UNL     1     -15.402 -19.207 -10.923  1.00  0.00     0.014 C 
ENDBRANCH  18  21
ENDBRANCH  15  17
BRANCH  16  27
HETATM   27  O6  UNL     1      -9.979 -18.098 -10.416  1.00  0.00    -0.391 OA
ATOM     28  H6  UNL     1      -9.579 -18.551  -9.683  1.00  0.00     0.210 HD
ENDBRANCH  16  27
ENDBRANCH  10  11
ENDBRANCH   7  10
ENDBRANCH   5   6
BRANCH   1  29
HETATM   29  O2  UNL     1      -8.567 -18.281  -6.516  1.00  0.00    -0.296 OA
BRANCH  29  30
HETATM   30  C5  UNL     1      -9.227 -17.482  -5.584  1.00  0.00     0.368 C 
HETATM   31  N1  UNL     1     -10.342 -16.669  -5.847  1.00  0.00    -0.290 N 
HETATM   32  O1  UNL     1      -8.748 -17.527  -4.426  1.00  0.00    -0.238 OA
BRANCH  31  33
HETATM   33  C4  UNL     1     -10.832 -16.576  -7.195  1.00  0.00     0.138 C 
BRANCH  33  34
HETATM   34  C2  UNL     1     -10.780 -15.238  -7.832  1.00  0.00    -0.004 C 
HETATM   35  C1  UNL     1     -11.788 -15.047  -8.943  1.00  0.00     0.011 C 
HETATM   36  C3  UNL     1      -9.418 -14.810  -8.313  1.00  0.00     0.011 C 
ENDBRANCH  33  34
ENDBRANCH  31  33
BRANCH  31  37
HETATM   37  C25 UNL     1     -10.940 -15.955  -4.800  1.00  0.00     0.078 A 
HETATM   38  C26 UNL     1     -12.010 -16.512  -4.132  1.00  0.00     0.034 A 
HETATM   39  C27 UNL     1     -12.653 -15.885  -3.096  1.00  0.00     0.017 A 
HETATM   40  C28 UNL     1     -12.236 -14.626  -2.672  1.00  0.00     0.008 A 
HETATM   41  C30 UNL     1     -11.175 -14.058  -3.323  1.00  0.00     0.059 A 
HETATM   42  C31 UNL     1     -10.540 -14.714  -4.369  1.00  0.00     0.144 A 
HETATM   43  F1  UNL     1      -9.504 -14.125  -4.985  1.00  0.00    -0.204 F 
BRANCH  40  44
HETATM   44  C29 UNL     1     -12.944 -13.979  -1.562  1.00  0.00     0.120 C 
HETATM   45  N4  UNL     1     -13.581 -14.687  -0.722  1.00  0.00    -0.387 N 
ATOM     46  H42 UNL     1     -13.598 -15.702  -0.822  1.00  0.00     0.157 HD
ATOM     47  H41 UNL     1     -14.073 -14.237   0.050  1.00  0.00     0.157 HD
HETATM   48  N5  UNL     1     -12.922 -12.573  -1.423  1.00  0.00    -0.082 NA
ENDBRANCH  40  44
ENDBRANCH  31  37
ENDBRANCH  29  30
ENDBRANCH   1  29
TORSDOF 12
ENDMDL
MODEL 2
REMARK VINA RESULT: -8.518593287      3.114      8.957
REMARK  12 active torsions:
REMARK  status: ('A' for Active; 'I' for Inactive)
REMARK    1  A    between atoms: C2_2  and  C4_4 
REMARK    2  A    between atoms: C4_4  and  N1_5 
REMARK       I    between atoms: N1_5  and  C5_6 
REMARK    3  A    between atoms: N1_5  and  C25_37 
REMARK    4  A    between atoms: C5_6  and  O2_8 
REMARK    5  A    between atoms: O2_8  and  C6_9 
REMARK    6  A    between atoms: C10_13  and  N2_14 
REMARK       I    between atoms: N2_14  and  C11_16 
REMARK    7  A    between atoms: C11_16  and  O4_18 
REMARK    8  A    between atoms: O4_18  and  C12_19 
REMARK    9  A    between atoms: C16_23  and  N3_24 
REMARK       I    between atoms: N3_24  and  C17_26 
REMARK   10  A    between atoms: C17_26  and  C18_28 
REMARK   11  A    between atoms: C24_34  and  O6_35 
REMARK   12  A    between atoms: C28_40  and  C29_41 
ROOT
HETATM    1  C6  UNL     1      -9.695 -13.926  -8.046  1.00  0.00     0.156 C 
HETATM    2  C7  UNL     1     -10.305 -12.562  -7.704  1.00  0.00     0.035 C 
HETATM    3  C8  UNL     1     -11.146 -12.800  -6.472  1.00  0.00     0.005 C 
HETATM    4  C9  UNL     1     -10.307 -13.854  -5.734  1.00  0.00     0.028 C 
HETATM    5  C10 UNL     1     -10.060 -14.814  -6.913  1.00  0.00     0.116 C 
ENDROOT
BRANCH   5   6
HETATM    6  N2  UNL     1      -9.009 -15.714  -6.482  1.00  0.00    -0.330 N 
HETATM    7  C11 UNL     1      -9.317 -17.076  -6.153  1.00  0.00     0.361 C 
HETATM    8  O3  UNL     1     -10.508 -17.474  -6.242  1.00  0.00    -0.238 OA
ATOM      9  H2  UNL     1      -8.049 -15.379  -6.413  1.00  0.00     0.165 HD
BRANCH   7  10
HETATM   10  O4  UNL     1      -8.370 -17.994  -5.737  1.00  0.00    -0.296 OA
BRANCH  10  11
HETATM   11  C12 UNL     1      -7.336 -18.439  -6.588  1.00  0.00     0.164 C 
HETATM   12  C13 UNL     1      -7.498 -17.964  -8.004  1.00  0.00     0.035 C 
HETATM   13  C14 UNL     1      -6.682 -18.910  -8.886  1.00  0.00     0.005 C 
HETATM   14  C15 UNL     1      -5.306 -19.068  -8.307  1.00  0.00     0.028 C 
HETATM   15  C16 UNL     1      -4.999 -18.026  -7.255  1.00  0.00     0.115 C 
HETATM   16  C24 UNL     1      -5.971 -18.082  -6.103  1.00  0.00     0.170 C 
BRANCH  15  17
HETATM   17  N3  UNL     1      -3.621 -18.128  -6.857  1.00  0.00    -0.354 N 
HETATM   18  C17 UNL     1      -2.784 -16.987  -6.679  1.00  0.00     0.222 C 
HETATM   19  O5  UNL     1      -3.276 -15.832  -6.879  1.00  0.00    -0.273 OA
ATOM     20  H3  UNL     1      -3.226 -19.054  -6.696  1.00  0.00     0.163 HD
BRANCH  18  21
HETATM   21  C18 UNL     1      -1.374 -17.077  -6.273  1.00  0.00     0.078 C 
HETATM   22  C19 UNL     1      -0.595 -18.014  -7.146  1.00  0.00     0.014 C 
HETATM   23  C20 UNL     1      -0.159 -19.270  -6.408  1.00  0.00     0.001 C 
HETATM   24  C21 UNL     1       0.729 -18.946  -5.228  1.00  0.00     0.000 C 
HETATM   25  C22 UNL     1       0.191 -17.708  -4.520  1.00  0.00     0.001 C 
HETATM   26  C23 UNL     1      -1.278 -17.559  -4.839  1.00  0.00     0.014 C 
ENDBRANCH  18  21
ENDBRANCH  15  17
BRANCH  16  27
HETATM   27  O6  UNL     1      -5.483 -19.083  -5.230  1.00  0.00    -0.391 OA
ATOM     28  H6  UNL     1      -6.206 -19.548  -4.826  1.00  0.00     0.210 HD
ENDBRANCH  16  27
ENDBRANCH  10  11
ENDBRANCH   7  10
ENDBRANCH   5   6
BRANCH   1  29
HETATM   29  O2  UNL     1     -10.205 -14.313  -9.304  1.00  0.00    -0.296 OA
BRANCH  29  30
HETATM   30  C5  UNL     1     -11.404 -15.012  -9.436  1.00  0.00     0.368 C 
HETATM   31  N1  UNL     1     -11.526 -16.401  -9.603  1.00  0.00    -0.290 N 
HETATM   32  O1  UNL     1     -12.433 -14.296  -9.395  1.00  0.00    -0.238 OA
BRANCH  31  33
HETATM   33  C4  UNL     1     -10.334 -17.195  -9.718  1.00  0.00     0.138 C 
BRANCH  33  34
HETATM   34  C2  UNL     1      -9.844 -17.466 -11.091  1.00  0.00    -0.004 C 
HETATM   35  C1  UNL     1      -9.681 -18.936 -11.407  1.00  0.00     0.011 C 
HETATM   36  C3  UNL     1      -8.589 -16.729 -11.480  1.00  0.00     0.011 C 
ENDBRANCH  33  34
ENDBRANCH  31  33
BRANCH  31  37
HETATM   37  C25 UNL     1     -12.801 -16.979  -9.671  1.00  0.00     0.078 A 
HETATM   38  C26 UNL     1     -13.249 -17.476 -10.877  1.00  0.00     0.034 A 
HETATM   39  C27 UNL     1     -14.480 -18.058 -11.035  1.00  0.00     0.017 A 
HETATM   40  C28 UNL     1     -15.346 -18.170  -9.950  1.00  0.00     0.008 A 
HETATM   41  C30 UNL     1     -14.918 -17.682  -8.745  1.00  0.00     0.059 A 
HETATM   42  C31 UNL     1     -13.665 -17.097  -8.612  1.00  0.00     0.144 A 
HETATM   43  F1  UNL     1     -13.281 -16.629  -7.415  1.00  0.00    -0.204 F 
BRANCH  40  44
HETATM   44  C29 UNL     1     -16.658 -18.796 -10.149  1.00  0.00     0.120 C 
HETATM   45  N4  UNL     1     -17.489 -18.836  -9.189  1.00  0.00    -0.387 N 
ATOM     46  H42 UNL     1     -17.241 -18.433  -8.286  1.00  0.00     0.157 HD
ATOM     47  H41 UNL     1     -18.401 -19.271  -9.327  1.00  0.00     0.157 HD
HETATM   48  N5  UNL     1     -17.002 -19.355 -11.400  1.00  0.00    -0.082 NA
ENDBRANCH  40  44
ENDBRANCH  31  37
ENDBRANCH  29  30
ENDBRANCH   1  29
TORSDOF 12
ENDMDL
MODEL 3
REMARK VINA RESULT: -8.483102235      1.798      3.061
REMARK  12 active torsions:
REMARK  status: ('A' for Active; 'I' for Inactive)
REMARK    1  A    between atoms: C2_2  and  C4_4 
REMARK    2  A    between atoms: C4_4  and  N1_5 
REMARK       I    between atoms: N1_5  and  C5_6 
REMARK    3  A    between atoms: N1_5  and  C25_37 
REMARK    4  A    between atoms: C5_6  and  O2_8 
REMARK    5  A    between atoms: O2_8  and  C6_9 
REMARK    6  A    between atoms: C10_13  and  N2_14 
REMARK       I    between atoms: N2_14  and  C11_16 
REMARK    7  A    between atoms: C11_16  and  O4_18 
REMARK    8  A    between atoms: O4_18  and  C12_19 
REMARK    9  A    between atoms: C16_23  and  N3_24 
REMARK       I    between atoms: N3_24  and  C17_26 
REMARK   10  A    between atoms: C17_26  and  C18_28 
REMARK   11  A    between atoms: C24_34  and  O6_35 
REMARK   12  A    between atoms: C28_40  and  C29_41 
ROOT
HETATM    1  C6  UNL     1      -6.640 -17.440  -6.909  1.00  0.00     0.156 C 
HETATM    2  C7  UNL     1      -5.488 -17.542  -5.904  1.00  0.00     0.035 C 
HETATM    3  C8  UNL     1      -4.984 -18.961  -6.017  1.00  0.00     0.005 C 
HETATM    4  C9  UNL     1      -5.170 -19.228  -7.518  1.00  0.00     0.028 C 
HETATM    5  C10 UNL     1      -6.618 -18.722  -7.662  1.00  0.00     0.116 C 
ENDROOT
BRANCH   5   6
HETATM    6  N2  UNL     1      -6.859 -18.596  -9.084  1.00  0.00    -0.330 N 
HETATM    7  C11 UNL     1      -7.348 -19.716  -9.834  1.00  0.00     0.361 C 
HETATM    8  O3  UNL     1      -7.561 -20.805  -9.240  1.00  0.00    -0.238 OA
ATOM      9  H2  UNL     1      -6.681 -17.708  -9.554  1.00  0.00     0.165 HD
BRANCH   7  10
HETATM   10  O4  UNL     1      -7.603 -19.673 -11.193  1.00  0.00    -0.296 OA
BRANCH  10  11
HETATM   11  C12 UNL     1      -8.496 -18.737 -11.756  1.00  0.00     0.164 C 
HETATM   12  C13 UNL     1      -8.578 -18.831 -13.252  1.00  0.00     0.035 C 
HETATM   13  C14 UNL     1      -9.111 -17.489 -13.754  1.00  0.00     0.005 C 
HETATM   14  C15 UNL     1     -10.331 -17.111 -12.964  1.00  0.00     0.028 C 
HETATM   15  C16 UNL     1     -10.882 -18.270 -12.165  1.00  0.00     0.115 C 
HETATM   16  C24 UNL     1      -9.873 -18.810 -11.183  1.00  0.00     0.170 C 
BRANCH  15  17
HETATM   17  N3  UNL     1     -12.133 -17.895 -11.563  1.00  0.00    -0.354 N 
HETATM   18  C17 UNL     1     -13.395 -18.294 -12.094  1.00  0.00     0.222 C 
HETATM   19  O5  UNL     1     -13.415 -19.013 -13.143  1.00  0.00    -0.273 OA
ATOM     20  H3  UNL     1     -12.117 -17.319 -10.721  1.00  0.00     0.163 HD
BRANCH  18  21
HETATM   21  C18 UNL     1     -14.680 -17.918 -11.490  1.00  0.00     0.078 C 
HETATM   22  C19 UNL     1     -14.510 -16.949 -10.358  1.00  0.00     0.014 C 
HETATM   23  C20 UNL     1     -14.853 -17.563  -9.010  1.00  0.00     0.001 C 
HETATM   24  C21 UNL     1     -16.290 -18.031  -8.958  1.00  0.00     0.000 C 
HETATM   25  C22 UNL     1     -16.652 -18.684 -10.287  1.00  0.00     0.001 C 
HETATM   26  C23 UNL     1     -15.387 -19.152 -10.967  1.00  0.00     0.014 C 
ENDBRANCH  18  21
ENDBRANCH  15  17
BRANCH  16  27
HETATM   27  O6  UNL     1      -9.970 -17.993 -10.034  1.00  0.00    -0.391 OA
ATOM     28  H6  UNL     1      -9.249 -18.171  -9.441  1.00  0.00     0.210 HD
ENDBRANCH  16  27
ENDBRANCH  10  11
ENDBRANCH   7  10
ENDBRANCH   5   6
BRANCH   1  29
HETATM   29  O2  UNL     1      -7.819 -17.193  -6.175  1.00  0.00    -0.296 OA
BRANCH  29  30
HETATM   30  C5  UNL     1      -8.847 -16.391  -6.668  1.00  0.00     0.368 C 
HETATM   31  N1  UNL     1      -9.860 -15.794  -5.899  1.00  0.00    -0.290 N 
HETATM   32  O1  UNL     1      -8.823 -16.218  -7.910  1.00  0.00    -0.238 OA
BRANCH  31  33
HETATM   33  C4  UNL     1      -9.911 -16.063  -4.488  1.00  0.00     0.138 C 
BRANCH  33  34
HETATM   34  C2  UNL     1     -11.228 -15.899  -3.827  1.00  0.00    -0.004 C 
HETATM   35  C1  UNL     1     -11.318 -14.686  -2.929  1.00  0.00     0.011 C 
HETATM   36  C3  UNL     1     -11.724 -17.111  -3.081  1.00  0.00     0.011 C 
ENDBRANCH  33  34
ENDBRANCH  31  33
BRANCH  31  37
HETATM   37  C25 UNL     1     -10.804 -14.967  -6.522  1.00  0.00     0.078 A 
HETATM   38  C26 UNL     1     -11.886 -15.542  -7.154  1.00  0.00     0.034 A 
HETATM   39  C27 UNL     1     -12.858 -14.810  -7.787  1.00  0.00     0.017 A 
HETATM   40  C28 UNL     1     -12.781 -13.420  -7.815  1.00  0.00     0.008 A 
HETATM   41  C30 UNL     1     -11.713 -12.832  -7.193  1.00  0.00     0.059 A 
HETATM   42  C31 UNL     1     -10.743 -13.596  -6.558  1.00  0.00     0.144 A 
HETATM   43  F1  UNL     1      -9.709 -12.985  -5.960  1.00  0.00    -0.204 F 
BRANCH  40  44
HETATM   44  C29 UNL     1     -13.834 -12.662  -8.502  1.00  0.00     0.120 C 
HETATM   45  N4  UNL     1     -13.838 -11.394  -8.442  1.00  0.00    -0.387 N 
ATOM     46  H42 UNL     1     -13.110 -10.907  -7.918  1.00  0.00     0.157 HD
ATOM     47  H41 UNL     1     -14.570 -10.867  -8.920  1.00  0.00     0.157 HD
HETATM   48  N5  UNL     1     -14.841 -13.336  -9.227  1.00  0.00    -0.082 NA
ENDBRANCH  40  44
ENDBRANCH  31  37
ENDBRANCH  29  30
ENDBRANCH   1  29
TORSDOF 12
ENDMDL
MODEL 4
REMARK VINA RESULT: -8.438987251      3.302      8.748
REMARK  12 active torsions:
REMARK  status: ('A' for Active; 'I' for Inactive)
REMARK    1  A    between atoms: C2_2  and  C4_4 
REMARK    2  A    between atoms: C4_4  and  N1_5 
REMARK       I    between atoms: N1_5  and  C5_6 
REMARK    3  A    between atoms: N1_5  and  C25_37 
REMARK    4  A    between atoms: C5_6  and  O2_8 
REMARK    5  A    between atoms: O2_8  and  C6_9 
REMARK    6  A    between atoms: C10_13  and  N2_14 
REMARK       I    between atoms: N2_14  and  C11_16 
REMARK    7  A    between atoms: C11_16  and  O4_18 
REMARK    8  A    between atoms: O4_18  and  C12_19 
REMARK    9  A    between atoms: C16_23  and  N3_24 
REMARK       I    between atoms: N3_24  and  C17_26 
REMARK   10  A    between atoms: C17_26  and  C18_28 
REMARK   11  A    between atoms: C24_34  and  O6_35 
REMARK   12  A    between atoms: C28_40  and  C29_41 
ROOT
HETATM    1  C6  UNL     1     -10.594 -12.932  -5.110  1.00  0.00     0.156 C 
HETATM    2  C7  UNL     1     -11.295 -11.947  -4.168  1.00  0.00     0.035 C 
HETATM    3  C8  UNL     1     -12.070 -12.806  -3.197  1.00  0.00     0.005 C 
HETATM    4  C9  UNL     1     -11.127 -14.009  -3.040  1.00  0.00     0.028 C 
HETATM    5  C10 UNL     1     -10.849 -14.277  -4.531  1.00  0.00     0.116 C 
ENDROOT
BRANCH   5   6
HETATM    6  N2  UNL     1      -9.717 -15.180  -4.571  1.00  0.00    -0.330 N 
HETATM    7  C11 UNL     1      -9.914 -16.568  -4.877  1.00  0.00     0.361 C 
HETATM    8  O3  UNL     1     -11.079 -16.986  -5.106  1.00  0.00    -0.238 OA
ATOM      9  H2  UNL     1      -8.779 -14.830  -4.382  1.00  0.00     0.165 HD
BRANCH   7  10
HETATM   10  O4  UNL     1      -8.885 -17.491  -4.935  1.00  0.00    -0.296 OA
BRANCH  10  11
HETATM   11  C12 UNL     1      -8.206 -17.777  -6.138  1.00  0.00     0.164 C 
HETATM   12  C13 UNL     1      -8.456 -16.755  -7.209  1.00  0.00     0.035 C 
HETATM   13  C14 UNL     1      -8.140 -17.426  -8.546  1.00  0.00     0.005 C 
HETATM   14  C15 UNL     1      -6.802 -18.102  -8.461  1.00  0.00     0.028 C 
HETATM   15  C16 UNL     1      -6.009 -17.661  -7.251  1.00  0.00     0.115 C 
HETATM   16  C24 UNL     1      -6.734 -17.955  -5.962  1.00  0.00     0.170 C 
BRANCH  15  17
HETATM   17  N3  UNL     1      -4.683 -18.215  -7.311  1.00  0.00    -0.354 N 
HETATM   18  C17 UNL     1      -3.523 -17.481  -6.928  1.00  0.00     0.222 C 
HETATM   19  O5  UNL     1      -3.665 -16.286  -6.517  1.00  0.00    -0.273 OA
ATOM     20  H3  UNL     1      -4.569 -19.174  -7.640  1.00  0.00     0.163 HD
BRANCH  18  21
HETATM   21  C18 UNL     1      -2.163 -18.034  -6.984  1.00  0.00     0.078 C 
HETATM   22  C19 UNL     1      -1.744 -18.636  -5.677  1.00  0.00     0.014 C 
HETATM   23  C20 UNL     1      -0.640 -17.843  -4.997  1.00  0.00     0.001 C 
HETATM   24  C21 UNL     1       0.605 -17.771  -5.852  1.00  0.00     0.000 C 
HETATM   25  C22 UNL     1       0.202 -17.560  -7.307  1.00  0.00     0.001 C 
HETATM   26  C23 UNL     1      -1.176 -16.943  -7.352  1.00  0.00     0.014 C 
ENDBRANCH  18  21
ENDBRANCH  15  17
BRANCH  16  27
HETATM   27  O6  UNL     1      -6.437 -19.301  -5.646  1.00  0.00    -0.391 OA
ATOM     28  H6  UNL     1      -5.761 -19.634  -6.224  1.00  0.00     0.210 HD
ENDBRANCH  16  27
ENDBRANCH  10  11
ENDBRANCH   7  10
ENDBRANCH   5   6
BRANCH   1  29
HETATM   29  O2  UNL     1     -11.118 -12.723  -6.403  1.00  0.00    -0.296 OA
BRANCH  29  30
HETATM   30  C5  UNL     1     -12.043 -13.592  -6.979  1.00  0.00     0.368 C 
HETATM   31  N1  UNL     1     -11.824 -14.381  -8.121  1.00  0.00    -0.290 N 
HETATM   32  O1  UNL     1     -13.150 -13.639  -6.392  1.00  0.00    -0.238 OA
BRANCH  31  33
HETATM   33  C4  UNL     1     -10.575 -14.259  -8.821  1.00  0.00     0.138 C 
BRANCH  33  34
HETATM   34  C2  UNL     1     -10.634 -14.291 -10.302  1.00  0.00    -0.004 C 
HETATM   35  C1  UNL     1      -9.388 -14.844 -10.955  1.00  0.00     0.011 C 
HETATM   36  C3  UNL     1     -11.004 -12.985 -10.956  1.00  0.00     0.011 C 
ENDBRANCH  33  34
ENDBRANCH  31  33
BRANCH  31  37
HETATM   37  C25 UNL     1     -12.829 -15.252  -8.563  1.00  0.00     0.078 A 
HETATM   38  C26 UNL     1     -12.739 -16.592  -8.253  1.00  0.00     0.034 A 
HETATM   39  C27 UNL     1     -13.676 -17.514  -8.643  1.00  0.00     0.017 A 
HETATM   40  C28 UNL     1     -14.783 -17.116  -9.389  1.00  0.00     0.008 A 
HETATM   41  C30 UNL     1     -14.888 -15.788  -9.706  1.00  0.00     0.059 A 
HETATM   42  C31 UNL     1     -13.925 -14.874  -9.297  1.00  0.00     0.144 A 
HETATM   43  F1  UNL     1     -14.062 -13.582  -9.628  1.00  0.00    -0.204 F 
BRANCH  40  44
HETATM   44  C29 UNL     1     -15.769 -18.124  -9.793  1.00  0.00     0.120 C 
HETATM   45  N4  UNL     1     -16.753 -18.383  -9.034  1.00  0.00    -0.387 N 
ATOM     46  H42 UNL     1     -16.855 -17.889  -8.147  1.00  0.00     0.157 HD
ATOM     47  H41 UNL     1     -17.439 -19.083  -9.316  1.00  0.00     0.157 HD
HETATM   48  N5  UNL     1     -15.629 -18.808 -11.021  1.00  0.00    -0.082 NA
ENDBRANCH  40  44
ENDBRANCH  31  37
ENDBRANCH  29  30
ENDBRANCH   1  29
TORSDOF 12
ENDMDL
MODEL 5
REMARK VINA RESULT: -8.401509919      1.084      1.475
REMARK  12 active torsions:
REMARK  status: ('A' for Active; 'I' for Inactive)
REMARK    1  A    between atoms: C2_2  and  C4_4 
REMARK    2  A    between atoms: C4_4  and  N1_5 
REMARK       I    between atoms: N1_5  and  C5_6 
REMARK    3  A    between atoms: N1_5  and  C25_37 
REMARK    4  A    between atoms: C5_6  and  O2_8 
REMARK    5  A    between atoms: O2_8  and  C6_9 
REMARK    6  A    between atoms: C10_13  and  N2_14 
REMARK       I    between atoms: N2_14  and  C11_16 
REMARK    7  A    between atoms: C11_16  and  O4_18 
REMARK    8  A    between atoms: O4_18  and  C12_19 
REMARK    9  A    between atoms: C16_23  and  N3_24 
REMARK       I    between atoms: N3_24  and  C17_26 
REMARK   10  A    between atoms: C17_26  and  C18_28 
REMARK   11  A    between atoms: C24_34  and  O6_35 
REMARK   12  A    between atoms: C28_40  and  C29_41 
ROOT
HETATM    1  C6  UNL     1      -7.208 -17.796  -7.609  1.00  0.00     0.156 C 
HETATM    2  C7  UNL     1      -6.361 -17.050  -6.573  1.00  0.00     0.035 C 
HETATM    3  C8  UNL     1      -5.054 -17.805  -6.507  1.00  0.00     0.005 C 
HETATM    4  C9  UNL     1      -4.884 -18.241  -7.970  1.00  0.00     0.028 C 
HETATM    5  C10 UNL     1      -6.297 -18.808  -8.204  1.00  0.00     0.116 C 
ENDROOT
BRANCH   5   6
HETATM    6  N2  UNL     1      -6.429 -18.976  -9.637  1.00  0.00    -0.330 N 
HETATM    7  C11 UNL     1      -6.901 -20.219 -10.177  1.00  0.00     0.361 C 
HETATM    8  O3  UNL     1      -7.195 -21.156  -9.390  1.00  0.00    -0.238 OA
ATOM      9  H2  UNL     1      -6.185 -18.210 -10.264  1.00  0.00     0.165 HD
BRANCH   7  10
HETATM   10  O4  UNL     1      -7.053 -20.454 -11.531  1.00  0.00    -0.296 OA
BRANCH  10  11
HETATM   11  C12 UNL     1      -7.948 -19.703 -12.323  1.00  0.00     0.164 C 
HETATM   12  C13 UNL     1      -8.392 -20.433 -13.558  1.00  0.00     0.035 C 
HETATM   13  C14 UNL     1      -8.881 -19.376 -14.548  1.00  0.00     0.005 C 
HETATM   14  C15 UNL     1      -9.831 -18.444 -13.853  1.00  0.00     0.028 C 
HETATM   15  C16 UNL     1     -10.298 -18.984 -12.520  1.00  0.00     0.115 C 
HETATM   16  C24 UNL     1      -9.149 -19.228 -11.575  1.00  0.00     0.170 C 
BRANCH  15  17
HETATM   17  N3  UNL     1     -11.322 -18.131 -11.981  1.00  0.00    -0.354 N 
HETATM   18  C17 UNL     1     -12.696 -18.253 -12.342  1.00  0.00     0.222 C 
HETATM   19  O5  UNL     1     -13.031 -19.153 -13.174  1.00  0.00    -0.273 OA
ATOM     20  H3  UNL     1     -11.054 -17.408 -11.313  1.00  0.00     0.163 HD
BRANCH  18  21
HETATM   21  C18 UNL     1     -13.753 -17.387 -11.799  1.00  0.00     0.078 C 
HETATM   22  C19 UNL     1     -13.825 -16.071 -12.513  1.00  0.00     0.014 C 
HETATM   23  C20 UNL     1     -13.392 -14.908 -11.635  1.00  0.00     0.001 C 
HETATM   24  C21 UNL     1     -14.266 -14.777 -10.407  1.00  0.00     0.000 C 
HETATM   25  C22 UNL     1     -14.571 -16.166  -9.859  1.00  0.00     0.001 C 
HETATM   26  C23 UNL     1     -13.502 -17.125 -10.327  1.00  0.00     0.014 C 
ENDBRANCH  18  21
ENDBRANCH  15  17
BRANCH  16  27
HETATM   27  O6  UNL     1      -8.881 -17.984 -10.958  1.00  0.00    -0.391 OA
ATOM     28  H6  UNL     1      -9.472 -17.844 -10.227  1.00  0.00     0.210 HD
ENDBRANCH  16  27
ENDBRANCH  10  11
ENDBRANCH   7  10
ENDBRANCH   5   6
BRANCH   1  29
HETATM   29  O2  UNL     1      -8.332 -18.320  -6.935  1.00  0.00    -0.296 OA
BRANCH  29  30
HETATM   30  C5  UNL     1      -8.996 -17.612  -5.935  1.00  0.00     0.368 C 
HETATM   31  N1  UNL     1     -10.147 -16.826  -6.116  1.00  0.00    -0.290 N 
HETATM   32  O1  UNL     1      -8.486 -17.717  -4.794  1.00  0.00    -0.238 OA
BRANCH  31  33
HETATM   33  C4  UNL     1     -10.674 -16.660  -7.442  1.00  0.00     0.138 C 
BRANCH  33  34
HETATM   34  C2  UNL     1     -10.683 -15.282  -7.989  1.00  0.00    -0.004 C 
HETATM   35  C1  UNL     1     -11.951 -14.512  -7.693  1.00  0.00     0.011 C 
HETATM   36  C3  UNL     1     -10.364 -15.173  -9.457  1.00  0.00     0.011 C 
ENDBRANCH  33  34
ENDBRANCH  31  33
BRANCH  31  37
HETATM   37  C25 UNL     1     -10.742 -16.208  -5.008  1.00  0.00     0.078 A 
HETATM   38  C26 UNL     1     -11.811 -16.822  -4.391  1.00  0.00     0.034 A 
HETATM   39  C27 UNL     1     -12.453 -16.289  -3.303  1.00  0.00     0.017 A 
HETATM   40  C28 UNL     1     -12.035 -15.073  -2.769  1.00  0.00     0.008 A 
HETATM   41  C30 UNL     1     -10.975 -14.449  -3.369  1.00  0.00     0.059 A 
HETATM   42  C31 UNL     1     -10.342 -15.010  -4.470  1.00  0.00     0.144 A 
HETATM   43  F1  UNL     1      -9.307 -14.368  -5.033  1.00  0.00    -0.204 F 
BRANCH  40  44
HETATM   44  C29 UNL     1     -12.741 -14.527  -1.604  1.00  0.00     0.120 C 
HETATM   45  N4  UNL     1     -12.587 -13.306  -1.289  1.00  0.00    -0.387 N 
ATOM     46  H42 UNL     1     -11.973 -12.712  -1.846  1.00  0.00     0.157 HD
ATOM     47  H41 UNL     1     -13.078 -12.926  -0.480  1.00  0.00     0.157 HD
HETATM   48  N5  UNL     1     -13.591 -15.350  -0.833  1.00  0.00    -0.082 NA
ENDBRANCH  40  44
ENDBRANCH  31  37
ENDBRANCH  29  30
ENDBRANCH   1  29
TORSDOF 12
ENDMDL
