MODEL 1
REMARK VINA RESULT: -9.454664007      0.000      0.000
REMARK  13 active torsions:
REMARK  status: ('A' for Active; 'I' for Inactive)
REMARK    1  A    between atoms: C4_6  and  C5_7 
REMARK    2  A    between atoms: C5_7  and  O1_8 
REMARK    3  A    between atoms: C5_7  and  C6_10 
REMARK    4  A    between atoms: C6_10  and  C7_11 
REMARK    5  A    between atoms: C7_11  and  O2_12 
REMARK    6  A    between atoms: C7_11  and  C8_14 
REMARK    7  A    between atoms: C8_14  and  C9_15 
REMARK    8  A    between atoms: C15_21  and  O3_22 
REMARK    9  A    between atoms: C18_27  and  O5_28 
REMARK   10  A    between atoms: C18_27  and  N2_30 
REMARK   11  A    between atoms: N2_30  and  C19_32 
REMARK   12  A    between atoms: C19_32  and  C20_33 
REMARK   13  A    between atoms: C20_33  and  C21_34 
ROOT
HETATM    1  C9  UNL     1     -11.750 -15.485  -7.398  1.00  0.00    -0.030 C 
HETATM    2  C10 UNL     1     -11.624 -16.764  -8.090  1.00  0.00     0.042 C 
HETATM    3  C11 UNL     1     -10.421 -16.924  -8.996  1.00  0.00     0.130 C 
HETATM    4  C12 UNL     1     -10.733 -16.477 -10.415  1.00  0.00     0.067 C 
HETATM    5  C13 UNL     1     -10.471 -15.064 -10.740  1.00  0.00    -0.061 C 
HETATM    6  C14 UNL     1      -9.529 -14.372  -9.772  1.00  0.00     0.103 C 
HETATM    7  C15 UNL     1      -9.452 -14.979  -8.413  1.00  0.00     0.166 C 
HETATM    8  C16 UNL     1     -10.481 -14.626  -7.425  1.00  0.00     0.078 C 
HETATM    9  O4  UNL     1      -9.274 -16.348  -8.564  1.00  0.00    -0.349 OA
HETATM   10  C17 UNL     1     -11.603 -14.177 -11.161  1.00  0.00    -0.000 C 
HETATM   11  C18 UNL     1     -12.053 -14.415 -12.513  1.00  0.00     0.146 C 
HETATM   12  C27 UNL     1     -12.564 -13.711 -10.144  1.00  0.00     0.027 C 
HETATM   13  C28 UNL     1     -13.429 -12.619 -10.798  1.00  0.00     0.010 C 
HETATM   14  C29 UNL     1     -13.946 -11.764  -9.645  1.00  0.00     0.001 C 
HETATM   15  C30 UNL     1     -14.823 -12.692  -8.820  1.00  0.00     0.000 C 
HETATM   16  C31 UNL     1     -14.780 -14.098  -9.290  1.00  0.00     0.005 C 
HETATM   17  C32 UNL     1     -13.314 -14.659  -9.301  1.00  0.00    -0.005 C 
HETATM   18  C33 UNL     1     -12.933 -14.641  -7.881  1.00  0.00     0.015 C 
ENDROOT
BRANCH   1  19
HETATM   19  C8  UNL     1     -12.081 -15.621  -5.945  1.00  0.00     0.041 C 
BRANCH  19  20
HETATM   20  C7  UNL     1     -11.341 -16.527  -5.045  1.00  0.00     0.121 C 
BRANCH  20  21
HETATM   21  C6  UNL     1     -11.047 -15.876  -3.719  1.00  0.00     0.071 C 
BRANCH  21  22
HETATM   22  C5  UNL     1     -11.999 -15.914  -2.608  1.00  0.00     0.188 C 
BRANCH  22  23
HETATM   23  C4  UNL     1     -12.511 -14.669  -2.016  1.00  0.00     0.110 A 
HETATM   24  N1  UNL     1     -12.047 -13.493  -2.501  1.00  0.00    -0.353 N 
HETATM   25  C3  UNL     1     -12.515 -12.326  -2.034  1.00  0.00     0.097 A 
ATOM     26  H1  UNL     1     -11.334 -13.494  -3.229  1.00  0.00     0.166 HD
HETATM   27  C2  UNL     1     -13.479 -12.302  -1.049  1.00  0.00    -0.031 A 
HETATM   28  C1  UNL     1     -14.006 -11.009  -0.524  1.00  0.00     0.051 C 
HETATM   29  C34 UNL     1     -13.932 -13.524  -0.575  1.00  0.00     0.097 A 
HETATM   30  N3  UNL     1     -13.452 -14.666  -1.055  1.00  0.00    -0.353 N 
ATOM     31  H3  UNL     1     -13.801 -15.552  -0.690  1.00  0.00     0.166 HD
ENDBRANCH  22  23
BRANCH  22  32
HETATM   32  O1  UNL     1     -13.212 -16.567  -3.072  1.00  0.00    -0.388 OA
ATOM     33  H1  UNL     1     -13.189 -16.408  -4.008  1.00  0.00     0.210 HD
ENDBRANCH  22  32
ENDBRANCH  21  22
ENDBRANCH  20  21
BRANCH  20  34
HETATM   34  O2  UNL     1     -11.941 -17.721  -4.876  1.00  0.00    -0.395 OA
ATOM     35  H2  UNL     1     -11.363 -18.335  -4.440  1.00  0.00     0.210 HD
ENDBRANCH  20  34
ENDBRANCH  19  20
ENDBRANCH   1  19
BRANCH   7  36
HETATM   36  O3  UNL     1      -8.195 -14.549  -7.884  1.00  0.00    -0.365 OA
ATOM     37  H3  UNL     1      -8.377 -13.719  -7.458  1.00  0.00     0.213 HD
ENDBRANCH   7  36
BRANCH  11  38
HETATM   38  O5  UNL     1     -12.088 -13.390 -13.324  1.00  0.00    -0.346 OA
ATOM     39  H5  UNL     1     -12.399 -13.543 -14.209  1.00  0.00     0.219 HD
ENDBRANCH  11  38
BRANCH  11  40
HETATM   40  N2  UNL     1     -12.486 -15.564 -13.186  1.00  0.00    -0.347 N 
ATOM     41  H2  UNL     1     -11.904 -15.872 -13.965  1.00  0.00     0.167 HD
BRANCH  40  42
HETATM   42  C19 UNL     1     -13.627 -16.349 -12.921  1.00  0.00     0.091 C 
BRANCH  42  43
HETATM   43  C20 UNL     1     -13.617 -17.578 -12.153  1.00  0.00     0.031 C 
BRANCH  43  44
HETATM   44  C21 UNL     1     -14.728 -18.008 -11.344  1.00  0.00     0.004 A 
HETATM   45  C22 UNL     1     -14.772 -17.639  -9.982  1.00  0.00     0.014 A 
HETATM   46  C23 UNL     1     -15.795 -18.064  -9.175  1.00  0.00     0.001 A 
HETATM   47  C24 UNL     1     -16.823 -18.860  -9.642  1.00  0.00     0.003 A 
HETATM   48  C25 UNL     1     -16.785 -19.220 -10.961  1.00  0.00     0.043 A 
HETATM   49  C26 UNL     1     -15.740 -18.793 -11.812  1.00  0.00     0.126 A 
HETATM   50  F1  UNL     1     -15.860 -19.193 -13.105  1.00  0.00    -0.205 F 
ENDBRANCH  43  44
ENDBRANCH  42  43
ENDBRANCH  40  42
ENDBRANCH  11  40
TORSDOF 13
ENDMDL
MODEL 2
REMARK VINA RESULT: -8.980487703      1.125      1.463
REMARK  13 active torsions:
REMARK  status: ('A' for Active; 'I' for Inactive)
REMARK    1  A    between atoms: C4_6  and  C5_7 
REMARK    2  A    between atoms: C5_7  and  O1_8 
REMARK    3  A    between atoms: C5_7  and  C6_10 
REMARK    4  A    between atoms: C6_10  and  C7_11 
REMARK    5  A    between atoms: C7_11  and  O2_12 
REMARK    6  A    between atoms: C7_11  and  C8_14 
REMARK    7  A    between atoms: C8_14  and  C9_15 
REMARK    8  A    between atoms: C15_21  and  O3_22 
REMARK    9  A    between atoms: C18_27  and  O5_28 
REMARK   10  A    between atoms: C18_27  and  N2_30 
REMARK   11  A    between atoms: N2_30  and  C19_32 
REMARK   12  A    between atoms: C19_32  and  C20_33 
REMARK   13  A    between atoms: C20_33  and  C21_34 
ROOT
HETATM    1  C9  UNL     1     -11.690 -15.559  -8.082  1.00  0.00    -0.030 C 
HETATM    2  C10 UNL     1     -11.583 -16.868  -8.721  1.00  0.00     0.042 C 
HETATM    3  C11 UNL     1     -10.461 -17.040  -9.724  1.00  0.00     0.130 C 
HETATM    4  C12 UNL     1     -10.914 -16.675 -11.128  1.00  0.00     0.067 C 
HETATM    5  C13 UNL     1     -10.729 -15.274 -11.543  1.00  0.00    -0.061 C 
HETATM    6  C14 UNL     1      -9.727 -14.506 -10.700  1.00  0.00     0.103 C 
HETATM    7  C15 UNL     1      -9.509 -15.041  -9.326  1.00  0.00     0.166 C 
HETATM    8  C16 UNL     1     -10.457 -14.667  -8.267  1.00  0.00     0.078 C 
HETATM    9  O4  UNL     1      -9.300 -16.410  -9.426  1.00  0.00    -0.349 OA
HETATM   10  C17 UNL     1     -11.922 -14.442 -11.902  1.00  0.00    -0.000 C 
HETATM   11  C18 UNL     1     -12.483 -14.761 -13.195  1.00  0.00     0.146 C 
HETATM   12  C27 UNL     1     -12.803 -13.952 -10.826  1.00  0.00     0.027 C 
HETATM   13  C28 UNL     1     -13.759 -12.920 -11.450  1.00  0.00     0.010 C 
HETATM   14  C29 UNL     1     -14.199 -12.023 -10.298  1.00  0.00     0.001 C 
HETATM   15  C30 UNL     1     -14.967 -12.932  -9.353  1.00  0.00     0.000 C 
HETATM   16  C31 UNL     1     -14.920 -14.358  -9.756  1.00  0.00     0.005 C 
HETATM   17  C32 UNL     1     -13.443 -14.877  -9.873  1.00  0.00    -0.005 C 
HETATM   18  C33 UNL     1     -12.938 -14.775  -8.497  1.00  0.00     0.015 C 
ENDROOT
BRANCH   1  19
HETATM   19  C8  UNL     1     -11.884 -15.631  -6.601  1.00  0.00     0.041 C 
BRANCH  19  20
HETATM   20  C7  UNL     1     -11.068 -16.503  -5.734  1.00  0.00     0.121 C 
BRANCH  20  21
HETATM   21  C6  UNL     1     -10.295 -15.709  -4.715  1.00  0.00     0.071 C 
BRANCH  21  22
HETATM   22  C5  UNL     1     -10.836 -14.494  -4.105  1.00  0.00     0.188 C 
BRANCH  22  23
HETATM   23  C4  UNL     1     -11.798 -14.576  -2.996  1.00  0.00     0.110 A 
HETATM   24  N1  UNL     1     -12.026 -15.787  -2.436  1.00  0.00    -0.353 N 
HETATM   25  C3  UNL     1     -12.855 -15.914  -1.389  1.00  0.00     0.097 A 
ATOM     26  H1  UNL     1     -11.563 -16.613  -2.814  1.00  0.00     0.166 HD
HETATM   27  C2  UNL     1     -13.492 -14.811  -0.862  1.00  0.00    -0.031 A 
HETATM   28  C1  UNL     1     -14.414 -14.943   0.303  1.00  0.00     0.051 C 
HETATM   29  C34 UNL     1     -13.235 -13.586  -1.459  1.00  0.00     0.097 A 
HETATM   30  N3  UNL     1     -12.410 -13.488  -2.496  1.00  0.00    -0.353 N 
ATOM     31  H3  UNL     1     -12.238 -12.575  -2.918  1.00  0.00     0.166 HD
ENDBRANCH  22  23
BRANCH  22  32
HETATM   32  O1  UNL     1      -9.734 -13.752  -3.516  1.00  0.00    -0.388 OA
ATOM     33  H1  UNL     1      -8.981 -14.287  -3.739  1.00  0.00     0.210 HD
ENDBRANCH  22  32
ENDBRANCH  21  22
ENDBRANCH  20  21
BRANCH  20  34
HETATM   34  O2  UNL     1     -11.777 -17.486  -5.147  1.00  0.00    -0.395 OA
ATOM     35  H2  UNL     1     -11.210 -18.067  -4.652  1.00  0.00     0.210 HD
ENDBRANCH  20  34
ENDBRANCH  19  20
ENDBRANCH   1  19
BRANCH   7  36
HETATM   36  O3  UNL     1      -8.225 -14.549  -8.934  1.00  0.00    -0.365 OA
ATOM     37  H3  UNL     1      -8.404 -13.880  -8.282  1.00  0.00     0.213 HD
ENDBRANCH   7  36
BRANCH  11  38
HETATM   38  O5  UNL     1     -12.624 -13.781 -14.048  1.00  0.00    -0.346 OA
ATOM     39  H5  UNL     1     -13.416 -13.769 -14.574  1.00  0.00     0.219 HD
ENDBRANCH  11  38
BRANCH  11  40
HETATM   40  N2  UNL     1     -12.937 -15.955 -13.769  1.00  0.00    -0.347 N 
ATOM     41  H2  UNL     1     -12.424 -16.279 -14.590  1.00  0.00     0.167 HD
BRANCH  40  42
HETATM   42  C19 UNL     1     -14.013 -16.767 -13.355  1.00  0.00     0.091 C 
BRANCH  42  43
HETATM   43  C20 UNL     1     -13.900 -17.856 -12.405  1.00  0.00     0.031 C 
BRANCH  43  44
HETATM   44  C21 UNL     1     -14.953 -18.211 -11.490  1.00  0.00     0.004 A 
HETATM   45  C22 UNL     1     -14.848 -17.825 -10.135  1.00  0.00     0.014 A 
HETATM   46  C23 UNL     1     -15.814 -18.180  -9.229  1.00  0.00     0.001 A 
HETATM   47  C24 UNL     1     -16.925 -18.921  -9.586  1.00  0.00     0.003 A 
HETATM   48  C25 UNL     1     -17.031 -19.297 -10.897  1.00  0.00     0.043 A 
HETATM   49  C26 UNL     1     -16.048 -18.941 -11.848  1.00  0.00     0.126 A 
HETATM   50  F1  UNL     1     -16.311 -19.348 -13.118  1.00  0.00    -0.205 F 
ENDBRANCH  43  44
ENDBRANCH  42  43
ENDBRANCH  40  42
ENDBRANCH  11  40
TORSDOF 13
ENDMDL
MODEL 3
REMARK VINA RESULT: -8.875968472      4.284      7.630
REMARK  13 active torsions:
REMARK  status: ('A' for Active; 'I' for Inactive)
REMARK    1  A    between atoms: C4_6  and  C5_7 
REMARK    2  A    between atoms: C5_7  and  O1_8 
REMARK    3  A    between atoms: C5_7  and  C6_10 
REMARK    4  A    between atoms: C6_10  and  C7_11 
REMARK    5  A    between atoms: C7_11  and  O2_12 
REMARK    6  A    between atoms: C7_11  and  C8_14 
REMARK    7  A    between atoms: C8_14  and  C9_15 
REMARK    8  A    between atoms: C15_21  and  O3_22 
REMARK    9  A    between atoms: C18_27  and  O5_28 
REMARK   10  A    between atoms: C18_27  and  N2_30 
REMARK   11  A    between atoms: N2_30  and  C19_32 
REMARK   12  A    between atoms: C19_32  and  C20_33 
REMARK   13  A    between atoms: C20_33  and  C21_34 
ROOT
HETATM    1  C9  UNL     1     -10.069 -16.738  -8.441  1.00  0.00    -0.030 C 
HETATM    2  C10 UNL     1     -10.421 -16.806  -7.025  1.00  0.00     0.042 C 
HETATM    3  C11 UNL     1     -11.888 -16.644  -6.686  1.00  0.00     0.130 C 
HETATM    4  C12 UNL     1     -12.242 -15.186  -6.443  1.00  0.00     0.067 C 
HETATM    5  C13 UNL     1     -12.688 -14.407  -7.610  1.00  0.00    -0.061 C 
HETATM    6  C14 UNL     1     -13.151 -15.255  -8.780  1.00  0.00     0.103 C 
HETATM    7  C15 UNL     1     -12.602 -16.640  -8.819  1.00  0.00     0.166 C 
HETATM    8  C16 UNL     1     -11.266 -16.852  -9.393  1.00  0.00     0.078 C 
HETATM    9  O4  UNL     1     -12.761 -17.201  -7.558  1.00  0.00    -0.349 OA
HETATM   10  C17 UNL     1     -11.895 -13.215  -8.054  1.00  0.00    -0.000 C 
HETATM   11  C18 UNL     1     -12.063 -12.058  -7.205  1.00  0.00     0.146 C 
HETATM   12  C27 UNL     1     -10.613 -13.427  -8.750  1.00  0.00     0.027 C 
HETATM   13  C28 UNL     1     -10.170 -12.068  -9.320  1.00  0.00     0.010 C 
HETATM   14  C29 UNL     1      -9.247 -12.397 -10.489  1.00  0.00     0.001 C 
HETATM   15  C30 UNL     1      -8.056 -13.110  -9.871  1.00  0.00     0.000 C 
HETATM   16  C31 UNL     1      -8.229 -13.377  -8.423  1.00  0.00     0.005 C 
HETATM   17  C32 UNL     1      -9.526 -14.216  -8.141  1.00  0.00    -0.005 C 
HETATM   18  C33 UNL     1      -9.255 -15.495  -8.812  1.00  0.00     0.015 C 
ENDROOT
BRANCH   1  19
HETATM   19  C8  UNL     1      -9.136 -17.823  -8.878  1.00  0.00     0.041 C 
BRANCH  19  20
HETATM   20  C7  UNL     1      -7.789 -17.992  -8.299  1.00  0.00     0.121 C 
BRANCH  20  21
HETATM   21  C6  UNL     1      -7.708 -19.214  -7.425  1.00  0.00     0.071 C 
BRANCH  21  22
HETATM   22  C5  UNL     1      -6.962 -19.221  -6.166  1.00  0.00     0.188 C 
BRANCH  22  23
HETATM   23  C4  UNL     1      -5.579 -18.728  -6.111  1.00  0.00     0.110 A 
HETATM   24  N1  UNL     1      -5.357 -17.416  -6.368  1.00  0.00    -0.353 N 
HETATM   25  C3  UNL     1      -4.122 -16.900  -6.283  1.00  0.00     0.097 A 
ATOM     26  H1  UNL     1      -6.137 -16.815  -6.630  1.00  0.00     0.166 HD
HETATM   27  C2  UNL     1      -3.053 -17.695  -5.931  1.00  0.00    -0.031 A 
HETATM   28  C1  UNL     1      -1.677 -17.129  -5.832  1.00  0.00     0.051 C 
HETATM   29  C34 UNL     1      -3.315 -19.032  -5.673  1.00  0.00     0.097 A 
HETATM   30  N3  UNL     1      -4.548 -19.519  -5.765  1.00  0.00    -0.353 N 
ATOM     31  H3  UNL     1      -4.715 -20.506  -5.571  1.00  0.00     0.166 HD
ENDBRANCH  22  23
BRANCH  22  32
HETATM   32  O1  UNL     1      -7.649 -18.349  -5.228  1.00  0.00    -0.388 OA
ATOM     33  H1  UNL     1      -7.441 -18.741  -4.388  1.00  0.00     0.210 HD
ENDBRANCH  22  32
ENDBRANCH  21  22
ENDBRANCH  20  21
BRANCH  20  34
HETATM   34  O2  UNL     1      -6.808 -17.989  -9.222  1.00  0.00    -0.395 OA
ATOM     35  H2  UNL     1      -6.779 -17.163  -9.689  1.00  0.00     0.210 HD
ENDBRANCH  20  34
ENDBRANCH  19  20
ENDBRANCH   1  19
BRANCH   7  36
HETATM   36  O3  UNL     1     -13.525 -17.384  -9.619  1.00  0.00    -0.365 OA
ATOM     37  H3  UNL     1     -13.075 -17.534 -10.442  1.00  0.00     0.213 HD
ENDBRANCH   7  36
BRANCH  11  38
HETATM   38  O5  UNL     1     -12.433 -10.942  -7.775  1.00  0.00    -0.346 OA
ATOM     39  H5  UNL     1     -11.897 -10.172  -7.619  1.00  0.00     0.219 HD
ENDBRANCH  11  38
BRANCH  11  40
HETATM   40  N2  UNL     1     -11.908 -11.855  -5.827  1.00  0.00    -0.347 N 
ATOM     41  H2  UNL     1     -12.761 -11.651  -5.307  1.00  0.00     0.167 HD
BRANCH  40  42
HETATM   42  C19 UNL     1     -10.720 -11.899  -5.070  1.00  0.00     0.091 C 
BRANCH  42  43
HETATM   43  C20 UNL     1     -10.284 -13.041  -4.292  1.00  0.00     0.031 C 
BRANCH  43  44
HETATM   44  C21 UNL     1     -11.146 -13.741  -3.375  1.00  0.00     0.004 A 
HETATM   45  C22 UNL     1     -12.101 -13.011  -2.633  1.00  0.00     0.014 A 
HETATM   46  C23 UNL     1     -12.910 -13.641  -1.723  1.00  0.00     0.001 A 
HETATM   47  C24 UNL     1     -12.840 -15.001  -1.488  1.00  0.00     0.003 A 
HETATM   48  C25 UNL     1     -11.917 -15.712  -2.206  1.00  0.00     0.043 A 
HETATM   49  C26 UNL     1     -11.073 -15.084  -3.149  1.00  0.00     0.126 A 
HETATM   50  F1  UNL     1     -10.238 -15.925  -3.815  1.00  0.00    -0.205 F 
ENDBRANCH  43  44
ENDBRANCH  42  43
ENDBRANCH  40  42
ENDBRANCH  11  40
TORSDOF 13
ENDMDL
MODEL 4
REMARK VINA RESULT: -8.875122185      4.694      7.605
REMARK  13 active torsions:
REMARK  status: ('A' for Active; 'I' for Inactive)
REMARK    1  A    between atoms: C4_6  and  C5_7 
REMARK    2  A    between atoms: C5_7  and  O1_8 
REMARK    3  A    between atoms: C5_7  and  C6_10 
REMARK    4  A    between atoms: C6_10  and  C7_11 
REMARK    5  A    between atoms: C7_11  and  O2_12 
REMARK    6  A    between atoms: C7_11  and  C8_14 
REMARK    7  A    between atoms: C8_14  and  C9_15 
REMARK    8  A    between atoms: C15_21  and  O3_22 
REMARK    9  A    between atoms: C18_27  and  O5_28 
REMARK   10  A    between atoms: C18_27  and  N2_30 
REMARK   11  A    between atoms: N2_30  and  C19_32 
REMARK   12  A    between atoms: C19_32  and  C20_33 
REMARK   13  A    between atoms: C20_33  and  C21_34 
ROOT
HETATM    1  C9  UNL     1      -9.836 -16.252  -6.633  1.00  0.00    -0.030 C 
HETATM    2  C10 UNL     1      -9.350 -14.883  -6.784  1.00  0.00     0.042 C 
HETATM    3  C11 UNL     1      -9.413 -14.296  -8.179  1.00  0.00     0.130 C 
HETATM    4  C12 UNL     1      -8.133 -14.565  -8.951  1.00  0.00     0.067 C 
HETATM    5  C13 UNL     1      -8.086 -15.802  -9.750  1.00  0.00    -0.061 C 
HETATM    6  C14 UNL     1      -9.449 -16.400 -10.044  1.00  0.00     0.103 C 
HETATM    7  C15 UNL     1     -10.529 -16.024  -9.089  1.00  0.00     0.166 C 
HETATM    8  C16 UNL     1     -10.645 -16.768  -7.828  1.00  0.00     0.078 C 
HETATM    9  O4  UNL     1     -10.492 -14.645  -8.919  1.00  0.00    -0.349 OA
HETATM   10  C17 UNL     1      -7.063 -16.851  -9.434  1.00  0.00    -0.000 C 
HETATM   11  C18 UNL     1      -5.729 -16.508  -9.868  1.00  0.00     0.146 C 
HETATM   12  C27 UNL     1      -7.247 -17.692  -8.237  1.00  0.00     0.027 C 
HETATM   13  C28 UNL     1      -6.221 -18.836  -8.319  1.00  0.00     0.010 C 
HETATM   14  C29 UNL     1      -6.801 -19.966  -7.475  1.00  0.00     0.001 C 
HETATM   15  C30 UNL     1      -6.855 -19.421  -6.057  1.00  0.00     0.000 C 
HETATM   16  C31 UNL     1      -6.484 -17.988  -5.974  1.00  0.00     0.005 C 
HETATM   17  C32 UNL     1      -7.395 -17.101  -6.895  1.00  0.00    -0.005 C 
HETATM   18  C33 UNL     1      -8.732 -17.261  -6.305  1.00  0.00     0.015 C 
ENDROOT
BRANCH   1  19
HETATM   19  C8  UNL     1     -10.741 -16.438  -5.456  1.00  0.00     0.041 C 
BRANCH  19  20
HETATM   20  C7  UNL     1     -10.276 -16.281  -4.064  1.00  0.00     0.121 C 
BRANCH  20  21
HETATM   21  C6  UNL     1     -10.939 -15.113  -3.385  1.00  0.00     0.071 C 
BRANCH  21  22
HETATM   22  C5  UNL     1     -11.901 -15.292  -2.296  1.00  0.00     0.188 C 
BRANCH  22  23
HETATM   23  C4  UNL     1     -12.595 -14.136  -1.710  1.00  0.00     0.110 A 
HETATM   24  N1  UNL     1     -12.189 -12.896  -2.072  1.00  0.00    -0.353 N 
HETATM   25  C3  UNL     1     -12.817 -11.806  -1.609  1.00  0.00     0.097 A 
ATOM     26  H1  UNL     1     -11.395 -12.789  -2.703  1.00  0.00     0.166 HD
HETATM   27  C2  UNL     1     -13.892 -11.927  -0.754  1.00  0.00    -0.031 A 
HETATM   28  C1  UNL     1     -14.597 -10.720  -0.235  1.00  0.00     0.051 C 
HETATM   29  C34 UNL     1     -14.282 -13.211  -0.404  1.00  0.00     0.097 A 
HETATM   30  N3  UNL     1     -13.642 -14.274  -0.877  1.00  0.00    -0.353 N 
ATOM     31  H3  UNL     1     -13.948 -15.208  -0.605  1.00  0.00     0.166 HD
ENDBRANCH  22  23
BRANCH  22  32
HETATM   32  O1  UNL     1     -12.998 -16.107  -2.789  1.00  0.00    -0.388 OA
ATOM     33  H1  UNL     1     -13.007 -16.835  -2.180  1.00  0.00     0.210 HD
ENDBRANCH  22  32
ENDBRANCH  21  22
ENDBRANCH  20  21
BRANCH  20  34
HETATM   34  O2  UNL     1     -10.401 -17.404  -3.330  1.00  0.00    -0.395 OA
ATOM     35  H2  UNL     1      -9.616 -17.936  -3.385  1.00  0.00     0.210 HD
ENDBRANCH  20  34
ENDBRANCH  19  20
ENDBRANCH   1  19
BRANCH   7  36
HETATM   36  O3  UNL     1     -11.749 -16.224  -9.809  1.00  0.00    -0.365 OA
ATOM     37  H3  UNL     1     -12.019 -15.355 -10.085  1.00  0.00     0.213 HD
ENDBRANCH   7  36
BRANCH  11  38
HETATM   38  O5  UNL     1      -5.108 -17.364 -10.636  1.00  0.00    -0.346 OA
ATOM     39  H5  UNL     1      -5.504 -17.565 -11.477  1.00  0.00     0.219 HD
ENDBRANCH  11  38
BRANCH  11  40
HETATM   40  N2  UNL     1      -4.904 -15.400  -9.634  1.00  0.00    -0.347 N 
ATOM     41  H2  UNL     1      -4.957 -14.651 -10.324  1.00  0.00     0.167 HD
BRANCH  40  42
HETATM   42  C19 UNL     1      -4.012 -15.190  -8.563  1.00  0.00     0.091 C 
BRANCH  42  43
HETATM   43  C20 UNL     1      -2.957 -16.109  -8.182  1.00  0.00     0.031 C 
BRANCH  43  44
HETATM   44  C21 UNL     1      -2.986 -16.875  -6.963  1.00  0.00     0.004 A 
HETATM   45  C22 UNL     1      -3.032 -18.284  -7.035  1.00  0.00     0.014 A 
HETATM   46  C23 UNL     1      -3.099 -19.042  -5.894  1.00  0.00     0.001 A 
HETATM   47  C24 UNL     1      -3.123 -18.477  -4.633  1.00  0.00     0.003 A 
HETATM   48  C25 UNL     1      -3.078 -17.112  -4.558  1.00  0.00     0.043 A 
HETATM   49  C26 UNL     1      -3.008 -16.312  -5.721  1.00  0.00     0.126 A 
HETATM   50  F1  UNL     1      -2.926 -14.976  -5.488  1.00  0.00    -0.205 F 
ENDBRANCH  43  44
ENDBRANCH  42  43
ENDBRANCH  40  42
ENDBRANCH  11  40
TORSDOF 13
ENDMDL
MODEL 5
REMARK VINA RESULT: -8.846303603      3.443      6.851
REMARK  13 active torsions:
REMARK  status: ('A' for Active; 'I' for Inactive)
REMARK    1  A    between atoms: C4_6  and  C5_7 
REMARK    2  A    between atoms: C5_7  and  O1_8 
REMARK    3  A    between atoms: C5_7  and  C6_10 
REMARK    4  A    between atoms: C6_10  and  C7_11 
REMARK    5  A    between atoms: C7_11  and  O2_12 
REMARK    6  A    between atoms: C7_11  and  C8_14 
REMARK    7  A    between atoms: C8_14  and  C9_15 
REMARK    8  A    between atoms: C15_21  and  O3_22 
REMARK    9  A    between atoms: C18_27  and  O5_28 
REMARK   10  A    between atoms: C18_27  and  N2_30 
REMARK   11  A    between atoms: N2_30  and  C19_32 
REMARK   12  A    between atoms: C19_32  and  C20_33 
REMARK   13  A    between atoms: C20_33  and  C21_34 
ROOT
HETATM    1  C9  UNL     1      -8.095 -16.964  -7.126  1.00  0.00    -0.030 C 
HETATM    2  C10 UNL     1      -8.763 -17.514  -8.303  1.00  0.00     0.042 C 
HETATM    3  C11 UNL     1      -8.880 -16.596  -9.502  1.00  0.00     0.130 C 
HETATM    4  C12 UNL     1     -10.171 -15.793  -9.459  1.00  0.00     0.067 C 
HETATM    5  C13 UNL     1     -10.119 -14.486  -8.783  1.00  0.00    -0.061 C 
HETATM    6  C14 UNL     1      -8.716 -13.931  -8.617  1.00  0.00     0.103 C 
HETATM    7  C15 UNL     1      -7.624 -14.945  -8.632  1.00  0.00     0.166 C 
HETATM    8  C16 UNL     1      -7.319 -15.669  -7.391  1.00  0.00     0.078 C 
HETATM    9  O4  UNL     1      -7.825 -15.777  -9.726  1.00  0.00    -0.349 OA
HETATM   10  C17 UNL     1     -10.971 -14.241  -7.576  1.00  0.00    -0.000 C 
HETATM   11  C18 UNL     1     -12.368 -14.037  -7.884  1.00  0.00     0.146 C 
HETATM   12  C27 UNL     1     -10.591 -14.861  -6.293  1.00  0.00     0.027 C 
HETATM   13  C28 UNL     1     -11.466 -14.223  -5.199  1.00  0.00     0.010 C 
HETATM   14  C29 UNL     1     -10.682 -14.393  -3.901  1.00  0.00     0.001 C 
HETATM   15  C30 UNL     1     -10.592 -15.894  -3.680  1.00  0.00     0.000 C 
HETATM   16  C31 UNL     1     -11.137 -16.679  -4.814  1.00  0.00     0.005 C 
HETATM   17  C32 UNL     1     -10.420 -16.319  -6.163  1.00  0.00    -0.005 C 
HETATM   18  C33 UNL     1      -9.033 -16.749  -5.935  1.00  0.00     0.015 C 
ENDROOT
BRANCH   1  19
HETATM   19  C8  UNL     1      -7.087 -17.891  -6.524  1.00  0.00     0.041 C 
BRANCH  19  20
HETATM   20  C7  UNL     1      -7.329 -19.340  -6.377  1.00  0.00     0.121 C 
BRANCH  20  21
HETATM   21  C6  UNL     1      -6.406 -20.148  -7.250  1.00  0.00     0.071 C 
BRANCH  21  22
HETATM   22  C5  UNL     1      -6.855 -20.752  -8.505  1.00  0.00     0.188 C 
BRANCH  22  23
HETATM   23  C4  UNL     1      -6.800 -19.995  -9.764  1.00  0.00     0.110 A 
HETATM   24  N1  UNL     1      -7.752 -20.235 -10.697  1.00  0.00    -0.353 N 
HETATM   25  C3  UNL     1      -7.782 -19.539 -11.842  1.00  0.00     0.097 A 
ATOM     26  H1  UNL     1      -8.455 -20.954 -10.526  1.00  0.00     0.166 HD
HETATM   27  C2  UNL     1      -6.841 -18.563 -12.093  1.00  0.00    -0.031 A 
HETATM   28  C1  UNL     1      -6.868 -17.783 -13.364  1.00  0.00     0.051 C 
HETATM   29  C34 UNL     1      -5.881 -18.342 -11.117  1.00  0.00     0.097 A 
HETATM   30  N3  UNL     1      -5.875 -19.046  -9.991  1.00  0.00    -0.353 N 
ATOM     31  H3  UNL     1      -5.158 -18.864  -9.288  1.00  0.00     0.166 HD
ENDBRANCH  22  23
BRANCH  22  32
HETATM   32  O1  UNL     1      -6.008 -21.899  -8.786  1.00  0.00    -0.388 OA
ATOM     33  H1  UNL     1      -6.297 -22.534  -8.141  1.00  0.00     0.210 HD
ENDBRANCH  22  32
ENDBRANCH  21  22
ENDBRANCH  20  21
BRANCH  20  34
HETATM   34  O2  UNL     1      -7.281 -19.762  -5.099  1.00  0.00    -0.395 OA
ATOM     35  H2  UNL     1      -8.074 -19.527  -4.632  1.00  0.00     0.210 HD
ENDBRANCH  20  34
ENDBRANCH  19  20
ENDBRANCH   1  19
BRANCH   7  36
HETATM   36  O3  UNL     1      -6.447 -14.219  -8.996  1.00  0.00    -0.365 OA
ATOM     37  H3  UNL     1      -5.823 -14.881  -9.272  1.00  0.00     0.213 HD
ENDBRANCH   7  36
BRANCH  11  38
HETATM   38  O5  UNL     1     -12.930 -12.945  -7.434  1.00  0.00    -0.346 OA
ATOM     39  H5  UNL     1     -13.825 -13.011  -7.122  1.00  0.00     0.219 HD
ENDBRANCH  11  38
BRANCH  11  40
HETATM   40  N2  UNL     1     -13.307 -14.792  -8.597  1.00  0.00    -0.347 N 
ATOM     41  H2  UNL     1     -13.823 -14.293  -9.323  1.00  0.00     0.167 HD
BRANCH  40  42
HETATM   42  C19 UNL     1     -13.629 -16.155  -8.438  1.00  0.00     0.091 C 
BRANCH  42  43
HETATM   43  C20 UNL     1     -13.568 -17.141  -9.499  1.00  0.00     0.031 C 
BRANCH  43  44
HETATM   44  C21 UNL     1     -14.726 -17.852  -9.978  1.00  0.00     0.004 A 
HETATM   45  C22 UNL     1     -15.843 -18.001  -9.127  1.00  0.00     0.014 A 
HETATM   46  C23 UNL     1     -16.946 -18.705  -9.538  1.00  0.00     0.001 A 
HETATM   47  C24 UNL     1     -17.023 -19.295 -10.785  1.00  0.00     0.003 A 
HETATM   48  C25 UNL     1     -15.943 -19.153 -11.612  1.00  0.00     0.043 A 
HETATM   49  C26 UNL     1     -14.796 -18.431 -11.210  1.00  0.00     0.126 A 
HETATM   50  F1  UNL     1     -13.822 -18.338 -12.153  1.00  0.00    -0.205 F 
ENDBRANCH  43  44
ENDBRANCH  42  43
ENDBRANCH  40  42
ENDBRANCH  11  40
TORSDOF 13
ENDMDL
