MODEL 1
REMARK VINA RESULT: -9.437138269      0.000      0.000
REMARK  5 active torsions:
REMARK  status: ('A' for Active; 'I' for Inactive)
REMARK    1  A    between atoms: C5_8  and  C6_9 
REMARK    2  A    between atoms: C6_9  and  N2_10 
REMARK    3  A    between atoms: C8_12  and  C9_13 
REMARK    4  A    between atoms: C9_13  and  N3_14 
REMARK    5  A    between atoms: N3_14  and  C10_16 
ROOT
HETATM    1  N2  UNL     1      18.208 223.694  46.350  1.00  0.00    -0.298 N 
HETATM    2  C7  UNL     1      17.833 222.952  45.286  1.00  0.00     0.124 A 
HETATM    3  C8  UNL     1      17.663 223.761  44.184  1.00  0.00     0.013 A 
HETATM    4  C22 UNL     1      17.953 225.034  44.626  1.00  0.00     0.121 A 
HETATM    5  N4  UNL     1      18.269 224.937  45.919  1.00  0.00    -0.309 N 
ATOM      6  H4  UNL     1      18.529 225.732  46.505  1.00  0.00     0.186 HD
ENDROOT
BRANCH   3   7
HETATM    7  C9  UNL     1      17.246 223.345  42.797  1.00  0.00     0.097 C 
BRANCH   7   8
HETATM    8  N3  UNL     1      17.310 224.421  41.902  1.00  0.00    -0.389 N 
ATOM      9  H3  UNL     1      18.171 224.630  41.395  1.00  0.00     0.159 HD
BRANCH   8  10
HETATM   10  C10 UNL     1      16.147 225.214  41.716  1.00  0.00     0.031 C 
HETATM   11  C11 UNL     1      16.425 226.697  41.711  1.00  0.00     0.035 C 
HETATM   12  C12 UNL     1      15.142 227.475  41.565  1.00  0.00    -0.012 C 
HETATM   13  C13 UNL     1      14.479 227.539  42.902  1.00  0.00     0.005 C 
HETATM   14  C19 UNL     1      14.269 227.024  40.453  1.00  0.00     0.014 C 
HETATM   15  C14 UNL     1      13.404 226.526  43.116  1.00  0.00     0.005 C 
HETATM   16  C15 UNL     1      13.768 225.152  42.598  1.00  0.00    -0.012 C 
HETATM   17  C16 UNL     1      13.292 224.921  41.187  1.00  0.00     0.014 C 
HETATM   18  C21 UNL     1      15.191 224.828  42.826  1.00  0.00     0.035 C 
HETATM   19  C17 UNL     1      14.233 225.558  40.203  1.00  0.00    -0.041 C 
HETATM   20  C18 UNL     1      13.726 225.260  38.805  1.00  0.00     0.015 C 
HETATM   21  C20 UNL     1      15.573 224.882  40.352  1.00  0.00     0.040 C 
ENDBRANCH   8  10
ENDBRANCH   7   8
ENDBRANCH   3   7
BRANCH   1  22
HETATM   22  C6  UNL     1      18.475 223.162  47.675  1.00  0.00     0.191 C 
BRANCH  22  23
HETATM   23  C5  UNL     1      17.196 222.947  48.393  1.00  0.00     0.017 A 
HETATM   24  C2  UNL     1      16.592 223.828  49.265  1.00  0.00     0.039 A 
HETATM   25  C1  UNL     1      17.052 225.189  49.691  1.00  0.00     0.071 C 
HETATM   26  N1  UNL     1      15.456 223.198  49.670  1.00  0.00    -0.265 N 
HETATM   27  O1  UNL     1      15.381 222.037  49.093  1.00  0.00    -0.242 OA
ATOM     28  H1  UNL     1      14.771 223.577  50.323  1.00  0.00     0.194 HD
HETATM   29  C3  UNL     1      16.399 221.813  48.304  1.00  0.00     0.082 A 
HETATM   30  C4  UNL     1      16.690 220.613  47.466  1.00  0.00     0.079 C 
ENDBRANCH  22  23
ENDBRANCH   1  22
TORSDOF 5
ENDMDL
MODEL 2
REMARK VINA RESULT: -9.277115712      1.401      2.223
REMARK  5 active torsions:
REMARK  status: ('A' for Active; 'I' for Inactive)
REMARK    1  A    between atoms: C5_8  and  C6_9 
REMARK    2  A    between atoms: C6_9  and  N2_10 
REMARK    3  A    between atoms: C8_12  and  C9_13 
REMARK    4  A    between atoms: C9_13  and  N3_14 
REMARK    5  A    between atoms: N3_14  and  C10_16 
ROOT
HETATM    1  N2  UNL     1      18.045 223.910  46.152  1.00  0.00    -0.298 N 
HETATM    2  C7  UNL     1      17.776 223.249  45.006  1.00  0.00     0.124 A 
HETATM    3  C8  UNL     1      17.445 224.144  44.012  1.00  0.00     0.013 A 
HETATM    4  C22 UNL     1      17.526 225.385  44.607  1.00  0.00     0.121 A 
HETATM    5  N4  UNL     1      17.885 225.188  45.878  1.00  0.00    -0.309 N 
ATOM      6  H4  UNL     1      18.020 225.938  46.556  1.00  0.00     0.186 HD
ENDROOT
BRANCH   3   7
HETATM    7  C9  UNL     1      17.071 223.834  42.586  1.00  0.00     0.097 C 
BRANCH   7   8
HETATM    8  N3  UNL     1      17.337 224.920  41.742  1.00  0.00    -0.389 N 
ATOM      9  H3  UNL     1      18.070 225.593  41.970  1.00  0.00     0.159 HD
BRANCH   8  10
HETATM   10  C10 UNL     1      16.562 225.061  40.560  1.00  0.00     0.031 C 
HETATM   11  C11 UNL     1      15.860 226.393  40.458  1.00  0.00     0.035 C 
HETATM   12  C12 UNL     1      15.016 226.450  39.210  1.00  0.00    -0.012 C 
HETATM   13  C13 UNL     1      13.737 225.725  39.476  1.00  0.00     0.005 C 
HETATM   14  C19 UNL     1      15.720 226.045  37.968  1.00  0.00     0.014 C 
HETATM   15  C14 UNL     1      13.704 224.316  38.986  1.00  0.00     0.005 C 
HETATM   16  C15 UNL     1      14.988 223.562  39.252  1.00  0.00    -0.012 C 
HETATM   17  C16 UNL     1      15.949 223.627  38.094  1.00  0.00     0.014 C 
HETATM   18  C21 UNL     1      15.578 223.909  40.561  1.00  0.00     0.035 C 
HETATM   19  C17 UNL     1      16.696 224.931  38.104  1.00  0.00    -0.041 C 
HETATM   20  C18 UNL     1      17.673 224.924  36.943  1.00  0.00     0.015 C 
HETATM   21  C20 UNL     1      17.505 224.983  39.376  1.00  0.00     0.040 C 
ENDBRANCH   8  10
ENDBRANCH   7   8
ENDBRANCH   3   7
BRANCH   1  22
HETATM   22  C6  UNL     1      18.431 223.275  47.400  1.00  0.00     0.191 C 
BRANCH  22  23
HETATM   23  C5  UNL     1      17.218 222.950  48.189  1.00  0.00     0.017 A 
HETATM   24  C2  UNL     1      16.639 223.743  49.158  1.00  0.00     0.039 A 
HETATM   25  C1  UNL     1      17.065 225.095  49.642  1.00  0.00     0.071 C 
HETATM   26  N1  UNL     1      15.565 223.031  49.597  1.00  0.00    -0.265 N 
HETATM   27  O1  UNL     1      15.502 221.907  48.951  1.00  0.00    -0.242 OA
ATOM     28  H1  UNL     1      14.912 223.332  50.321  1.00  0.00     0.194 HD
HETATM   29  C3  UNL     1      16.469 221.785  48.080  1.00  0.00     0.082 A 
HETATM   30  C4  UNL     1      16.754 220.657  47.146  1.00  0.00     0.079 C 
ENDBRANCH  22  23
ENDBRANCH   1  22
TORSDOF 5
ENDMDL
MODEL 3
REMARK VINA RESULT: -9.088249252      0.615      1.995
REMARK  5 active torsions:
REMARK  status: ('A' for Active; 'I' for Inactive)
REMARK    1  A    between atoms: C5_8  and  C6_9 
REMARK    2  A    between atoms: C6_9  and  N2_10 
REMARK    3  A    between atoms: C8_12  and  C9_13 
REMARK    4  A    between atoms: C9_13  and  N3_14 
REMARK    5  A    between atoms: N3_14  and  C10_16 
ROOT
HETATM    1  N2  UNL     1      18.146 223.724  46.336  1.00  0.00    -0.298 N 
HETATM    2  C7  UNL     1      17.755 222.964  45.291  1.00  0.00     0.124 A 
HETATM    3  C8  UNL     1      17.552 223.755  44.182  1.00  0.00     0.013 A 
HETATM    4  C22 UNL     1      17.838 225.038  44.599  1.00  0.00     0.121 A 
HETATM    5  N4  UNL     1      18.185 224.962  45.886  1.00  0.00    -0.309 N 
ATOM      6  H4  UNL     1      18.449 225.767  46.455  1.00  0.00     0.186 HD
ENDROOT
BRANCH   3   7
HETATM    7  C9  UNL     1      17.108 223.316  42.811  1.00  0.00     0.097 C 
BRANCH   7   8
HETATM    8  N3  UNL     1      17.190 224.367  41.887  1.00  0.00    -0.389 N 
ATOM      9  H3  UNL     1      18.091 224.658  41.505  1.00  0.00     0.159 HD
BRANCH   8  10
HETATM   10  C10 UNL     1      15.990 225.016  41.495  1.00  0.00     0.031 C 
HETATM   11  C11 UNL     1      14.809 224.674  42.369  1.00  0.00     0.035 C 
HETATM   12  C12 UNL     1      13.563 225.354  41.863  1.00  0.00    -0.012 C 
HETATM   13  C13 UNL     1      13.027 224.558  40.718  1.00  0.00     0.005 C 
HETATM   14  C19 UNL     1      13.714 226.807  41.599  1.00  0.00     0.014 C 
HETATM   15  C14 UNL     1      13.406 225.070  39.369  1.00  0.00     0.005 C 
HETATM   16  C15 UNL     1      14.851 225.508  39.282  1.00  0.00    -0.012 C 
HETATM   17  C16 UNL     1      15.029 226.978  39.560  1.00  0.00     0.014 C 
HETATM   18  C21 UNL     1      15.750 224.624  40.051  1.00  0.00     0.035 C 
HETATM   19  C17 UNL     1      15.024 227.237  41.041  1.00  0.00    -0.041 C 
HETATM   20  C18 UNL     1      15.245 228.722  41.261  1.00  0.00     0.015 C 
HETATM   21  C20 UNL     1      16.206 226.511  41.634  1.00  0.00     0.040 C 
ENDBRANCH   8  10
ENDBRANCH   7   8
ENDBRANCH   3   7
BRANCH   1  22
HETATM   22  C6  UNL     1      18.448 223.214  47.661  1.00  0.00     0.191 C 
BRANCH  22  23
HETATM   23  C5  UNL     1      17.188 222.987  48.408  1.00  0.00     0.017 A 
HETATM   24  C2  UNL     1      16.589 223.868  49.284  1.00  0.00     0.039 A 
HETATM   25  C1  UNL     1      17.038 225.238  49.690  1.00  0.00     0.071 C 
HETATM   26  N1  UNL     1      15.470 223.225  49.718  1.00  0.00    -0.265 N 
HETATM   27  O1  UNL     1      15.400 222.058  49.153  1.00  0.00    -0.242 OA
ATOM     28  H1  UNL     1      14.794 223.600  50.383  1.00  0.00     0.194 HD
HETATM   29  C3  UNL     1      16.405 221.841  48.345  1.00  0.00     0.082 A 
HETATM   30  C4  UNL     1      16.695 220.638  47.512  1.00  0.00     0.079 C 
ENDBRANCH  22  23
ENDBRANCH   1  22
TORSDOF 5
ENDMDL
MODEL 4
REMARK VINA RESULT: -8.749466215      0.370      1.560
REMARK  5 active torsions:
REMARK  status: ('A' for Active; 'I' for Inactive)
REMARK    1  A    between atoms: C5_8  and  C6_9 
REMARK    2  A    between atoms: C6_9  and  N2_10 
REMARK    3  A    between atoms: C8_12  and  C9_13 
REMARK    4  A    between atoms: C9_13  and  N3_14 
REMARK    5  A    between atoms: N3_14  and  C10_16 
ROOT
HETATM    1  N2  UNL     1      18.201 223.809  46.319  1.00  0.00    -0.298 N 
HETATM    2  C7  UNL     1      17.826 223.013  45.294  1.00  0.00     0.124 A 
HETATM    3  C8  UNL     1      17.603 223.771  44.166  1.00  0.00     0.013 A 
HETATM    4  C22 UNL     1      17.860 225.070  44.550  1.00  0.00     0.121 A 
HETATM    5  N4  UNL     1      18.211 225.035  45.838  1.00  0.00    -0.309 N 
ATOM      6  H4  UNL     1      18.457 225.860  46.386  1.00  0.00     0.186 HD
ENDROOT
BRANCH   3   7
HETATM    7  C9  UNL     1      17.167 223.287  42.808  1.00  0.00     0.097 C 
BRANCH   7   8
HETATM    8  N3  UNL     1      17.224 224.316  41.858  1.00  0.00    -0.389 N 
ATOM      9  H3  UNL     1      18.067 224.470  41.303  1.00  0.00     0.159 HD
BRANCH   8  10
HETATM   10  C10 UNL     1      16.079 225.138  41.685  1.00  0.00     0.031 C 
HETATM   11  C11 UNL     1      16.396 226.613  41.671  1.00  0.00     0.035 C 
HETATM   12  C12 UNL     1      15.131 227.423  41.540  1.00  0.00    -0.012 C 
HETATM   13  C13 UNL     1      14.487 227.509  42.885  1.00  0.00     0.005 C 
HETATM   14  C19 UNL     1      14.232 226.992  40.440  1.00  0.00     0.014 C 
HETATM   15  C14 UNL     1      13.390 226.524  43.117  1.00  0.00     0.005 C 
HETATM   16  C15 UNL     1      13.712 225.141  42.598  1.00  0.00    -0.012 C 
HETATM   17  C16 UNL     1      13.211 224.917  41.195  1.00  0.00     0.014 C 
HETATM   18  C21 UNL     1      15.129 224.780  42.809  1.00  0.00     0.035 C 
HETATM   19  C17 UNL     1      14.155 225.527  40.196  1.00  0.00    -0.041 C 
HETATM   20  C18 UNL     1      13.621 225.238  38.806  1.00  0.00     0.015 C 
HETATM   21  C20 UNL     1      15.479 224.817  40.330  1.00  0.00     0.040 C 
ENDBRANCH   8  10
ENDBRANCH   7   8
ENDBRANCH   3   7
BRANCH   1  22
HETATM   22  C6  UNL     1      18.517 223.340  47.656  1.00  0.00     0.191 C 
BRANCH  22  23
HETATM   23  C5  UNL     1      17.264 223.046  48.391  1.00  0.00     0.017 A 
HETATM   24  C2  UNL     1      16.542 221.871  48.335  1.00  0.00     0.039 A 
HETATM   25  C1  UNL     1      16.833 220.628  47.551  1.00  0.00     0.071 C 
HETATM   26  N1  UNL     1      15.482 222.071  49.165  1.00  0.00    -0.265 N 
HETATM   27  O1  UNL     1      15.557 223.262  49.677  1.00  0.00    -0.242 OA
ATOM     28  H1  UNL     1      14.745 221.393  49.355  1.00  0.00     0.194 HD
HETATM   29  C3  UNL     1      16.609 223.914  49.256  1.00  0.00     0.082 A 
HETATM   30  C4  UNL     1      17.057 225.295  49.599  1.00  0.00     0.079 C 
ENDBRANCH  22  23
ENDBRANCH   1  22
TORSDOF 5
ENDMDL
MODEL 5
REMARK VINA RESULT: -8.731848975      1.542      2.809
REMARK  5 active torsions:
REMARK  status: ('A' for Active; 'I' for Inactive)
REMARK    1  A    between atoms: C5_8  and  C6_9 
REMARK    2  A    between atoms: C6_9  and  N2_10 
REMARK    3  A    between atoms: C8_12  and  C9_13 
REMARK    4  A    between atoms: C9_13  and  N3_14 
REMARK    5  A    between atoms: N3_14  and  C10_16 
ROOT
HETATM    1  N2  UNL     1      17.852 223.838  45.769  1.00  0.00    -0.298 N 
HETATM    2  C7  UNL     1      17.990 224.966  45.041  1.00  0.00     0.124 A 
HETATM    3  C8  UNL     1      17.323 224.838  43.842  1.00  0.00     0.013 A 
HETATM    4  C22 UNL     1      16.770 223.575  43.873  1.00  0.00     0.121 A 
HETATM    5  N4  UNL     1      17.116 223.025  45.040  1.00  0.00    -0.309 N 
ATOM      6  H4  UNL     1      16.841 222.087  45.331  1.00  0.00     0.186 HD
ENDROOT
BRANCH   3   7
HETATM    7  C9  UNL     1      17.224 225.854  42.735  1.00  0.00     0.097 C 
BRANCH   7   8
HETATM    8  N3  UNL     1      17.612 225.307  41.504  1.00  0.00    -0.389 N 
ATOM      9  H3  UNL     1      18.554 224.936  41.371  1.00  0.00     0.159 HD
BRANCH   8  10
HETATM   10  C10 UNL     1      16.663 225.282  40.448  1.00  0.00     0.031 C 
HETATM   11  C11 UNL     1      15.810 226.523  40.378  1.00  0.00     0.035 C 
HETATM   12  C12 UNL     1      14.793 226.403  39.271  1.00  0.00    -0.012 C 
HETATM   13  C13 UNL     1      13.656 225.572  39.769  1.00  0.00     0.005 C 
HETATM   14  C19 UNL     1      15.351 225.983  37.961  1.00  0.00     0.014 C 
HETATM   15  C14 UNL     1      13.710 224.135  39.369  1.00  0.00     0.005 C 
HETATM   16  C15 UNL     1      15.095 223.538  39.481  1.00  0.00    -0.012 C 
HETATM   17  C16 UNL     1      15.865 223.617  38.188  1.00  0.00     0.014 C 
HETATM   18  C21 UNL     1      15.826 224.038  40.663  1.00  0.00     0.035 C 
HETATM   19  C17 UNL     1      16.455 224.988  38.011  1.00  0.00    -0.041 C 
HETATM   20  C18 UNL     1      17.249 224.996  36.718  1.00  0.00     0.015 C 
HETATM   21  C20 UNL     1      17.429 225.214  39.141  1.00  0.00     0.040 C 
ENDBRANCH   8  10
ENDBRANCH   7   8
ENDBRANCH   3   7
BRANCH   1  22
HETATM   22  C6  UNL     1      18.425 223.630  47.087  1.00  0.00     0.191 C 
BRANCH  22  23
HETATM   23  C5  UNL     1      17.397 223.066  47.995  1.00  0.00     0.017 A 
HETATM   24  C2  UNL     1      16.893 221.783  47.956  1.00  0.00     0.039 A 
HETATM   25  C1  UNL     1      17.245 220.663  47.025  1.00  0.00     0.071 C 
HETATM   26  N1  UNL     1      15.984 221.733  48.969  1.00  0.00    -0.265 N 
HETATM   27  O1  UNL     1      15.944 222.885  49.566  1.00  0.00    -0.242 OA
ATOM     28  H1  UNL     1      15.423 220.919  49.219  1.00  0.00     0.194 HD
HETATM   29  C3  UNL     1      16.773 223.745  49.033  1.00  0.00     0.082 A 
HETATM   30  C4  UNL     1      17.030 225.163  49.418  1.00  0.00     0.079 C 
ENDBRANCH  22  23
ENDBRANCH   1  22
TORSDOF 5
ENDMDL
