MODEL 1
REMARK VINA RESULT: -8.816609055      0.000      0.000
REMARK  20 active torsions:
REMARK  status: ('A' for Active; 'I' for Inactive)
REMARK    1  A    between atoms: C2_3  and  O1_4 
REMARK    2  A    between atoms: C3_6  and  C4_7 
REMARK    3  A    between atoms: C4_7  and  C5_8 
REMARK    4  A    between atoms: C7_15  and  O3_16 
REMARK    5  A    between atoms: C9_19  and  C10_20 
REMARK    6  A    between atoms: C10_20  and  O5_22 
REMARK    7  A    between atoms: O5_22  and  C11_23 
REMARK    8  A    between atoms: C12_25  and  C13_26 
REMARK    9  A    between atoms: C13_26  and  N4_27 
REMARK   10  A    between atoms: C15_29  and  C16_30 
REMARK   11  A    between atoms: C16_30  and  N5_31 
REMARK       I    between atoms: N5_31  and  C17_33 
REMARK   12  A    between atoms: C17_33  and  O8_35 
REMARK   13  A    between atoms: O8_35  and  C18_36 
REMARK   14  A    between atoms: C22_45  and  C23_46 
REMARK   15  A    between atoms: C23_46  and  O10_47 
REMARK   16  A    between atoms: C23_46  and  C24_49 
REMARK   17  A    between atoms: C24_49  and  C25_50 
REMARK   18  A    between atoms: C24_49  and  C26_53 
REMARK   19  A    between atoms: C25_50  and  O11_51 
REMARK   20  A    between atoms: C26_53  and  O12_54 
ROOT
HETATM    1  C11 UNL     1      40.080 -17.949  29.734  1.00  0.00     0.426 C 
HETATM    2  O6  UNL     1      39.973 -16.584  29.547  1.00  0.00    -0.306 OA
HETATM    3  C12 UNL     1      39.068 -15.936  30.331  1.00  0.00     0.288 C 
HETATM    4  O9  UNL     1      39.245 -16.238  31.683  1.00  0.00    -0.327 OA
HETATM    5  C22 UNL     1      39.881 -17.423  31.891  1.00  0.00     0.297 C 
HETATM    6  O13 UNL     1      39.426 -18.322  30.905  1.00  0.00    -0.305 OA
ENDROOT
BRANCH   1   7
HETATM    7  O5  UNL     1      41.424 -18.368  29.890  1.00  0.00    -0.261 OA
BRANCH   7   8
HETATM    8  C10 UNL     1      41.946 -19.572  29.543  1.00  0.00     0.302 C 
HETATM    9  O4  UNL     1      42.781 -19.588  28.574  1.00  0.00    -0.259 OA
BRANCH   8  10
HETATM   10  C9  UNL     1      41.653 -20.860  30.166  1.00  0.00     0.108 A 
HETATM   11  C8  UNL     1      40.492 -21.551  29.882  1.00  0.00     0.035 A 
HETATM   12  C3  UNL     1      40.278 -22.752  30.488  1.00  0.00    -0.000 A 
HETATM   13  C2  UNL     1      41.209 -23.249  31.363  1.00  0.00     0.151 A 
HETATM   14  N1  UNL     1      42.331 -22.592  31.642  1.00  0.00    -0.298 N 
HETATM   15  C1  UNL     1      43.330 -23.109  32.570  1.00  0.00     0.161 C 
HETATM   16  C27 UNL     1      42.543 -21.415  31.049  1.00  0.00     0.265 A 
HETATM   17  O14 UNL     1      43.624 -20.800  31.330  1.00  0.00    -0.267 OA
BRANCH  12  18
HETATM   18  C4  UNL     1      39.068 -23.568  30.256  1.00  0.00     0.104 C 
BRANCH  18  19
HETATM   19  C5  UNL     1      38.364 -23.278  29.011  1.00  0.00     0.069 A 
HETATM   20  N2  UNL     1      37.389 -22.373  28.847  1.00  0.00    -0.308 N 
HETATM   21  C6  UNL     1      36.996 -22.409  27.549  1.00  0.00     0.326 A 
ATOM     22  H2  UNL     1      37.009 -21.764  29.572  1.00  0.00     0.170 HD
HETATM   23  O2  UNL     1      36.100 -21.702  27.017  1.00  0.00    -0.247 OA
HETATM   24  N3  UNL     1      37.726 -23.337  26.907  1.00  0.00    -0.287 N 
HETATM   25  C7  UNL     1      38.579 -23.883  27.799  1.00  0.00     0.167 A 
ATOM     26  H3  UNL     1      37.648 -23.584  25.921  1.00  0.00     0.172 HD
BRANCH  25  27
HETATM   27  O3  UNL     1      39.481 -24.881  27.453  1.00  0.00    -0.345 OA
ATOM     28  H3  UNL     1      39.862 -25.088  26.608  1.00  0.00     0.219 HD
ENDBRANCH  25  27
ENDBRANCH  18  19
ENDBRANCH  12  18
BRANCH  13  29
HETATM   29  O1  UNL     1      41.006 -24.484  31.995  1.00  0.00    -0.345 OA
ATOM     30  H1  UNL     1      40.139 -24.665  32.340  1.00  0.00     0.219 HD
ENDBRANCH  13  29
ENDBRANCH   8  10
ENDBRANCH   7   8
ENDBRANCH   1   7
BRANCH   3  31
HETATM   31  C13 UNL     1      37.628 -16.139  30.002  1.00  0.00     0.210 C 
BRANCH  31  32
HETATM   32  N4  UNL     1      36.825 -16.737  31.028  1.00  0.00    -0.282 N 
HETATM   33  C14 UNL     1      36.259 -17.967  30.928  1.00  0.00     0.140 A 
HETATM   34  C15 UNL     1      35.551 -18.182  32.065  1.00  0.00     0.062 A 
HETATM   35  N6  UNL     1      35.731 -17.048  32.808  1.00  0.00    -0.287 N 
HETATM   36  N7  UNL     1      36.495 -16.191  32.178  1.00  0.00    -0.241 N 
ATOM     37  H6  UNL     1      35.324 -16.890  33.729  1.00  0.00     0.188 HD
ATOM     38  H7  UNL     1      36.780 -15.272  32.516  1.00  0.00     0.208 HD
BRANCH  34  39
HETATM   39  C16 UNL     1      34.728 -19.339  32.509  1.00  0.00     0.185 C 
BRANCH  39  40
HETATM   40  N5  UNL     1      35.551 -20.276  33.221  1.00  0.00    -0.331 N 
HETATM   41  C17 UNL     1      34.981 -21.094  34.225  1.00  0.00     0.361 C 
HETATM   42  O7  UNL     1      33.770 -21.061  34.535  1.00  0.00    -0.238 OA
ATOM     43  H5  UNL     1      36.544 -20.352  33.002  1.00  0.00     0.165 HD
BRANCH  41  44
HETATM   44  O8  UNL     1      35.771 -21.994  34.934  1.00  0.00    -0.294 OA
BRANCH  44  45
HETATM   45  C18 UNL     1      36.100 -23.235  34.359  1.00  0.00     0.061 C 
HETATM   46  C19 UNL     1      36.102 -24.348  35.390  1.00  0.00     0.046 C 
HETATM   47  C20 UNL     1      35.249 -23.631  33.196  1.00  0.00     0.046 C 
HETATM   48  C21 UNL     1      37.531 -23.147  33.855  1.00  0.00     0.046 C 
ENDBRANCH  44  45
ENDBRANCH  41  44
ENDBRANCH  39  40
ENDBRANCH  34  39
ENDBRANCH  31  32
ENDBRANCH   3  31
BRANCH   5  49
HETATM   49  C23 UNL     1      39.835 -18.009  33.250  1.00  0.00     0.181 C 
BRANCH  49  50
HETATM   50  O10 UNL     1      38.608 -17.547  33.813  1.00  0.00    -0.390 OA
ATOM     51  H10 UNL     1      38.852 -17.132  34.633  1.00  0.00     0.210 HD
ENDBRANCH  49  50
BRANCH  49  52
HETATM   52  C24 UNL     1      40.879 -17.591  34.217  1.00  0.00     0.066 C 
BRANCH  52  53
HETATM   53  C25 UNL     1      41.218 -18.552  35.307  1.00  0.00     0.173 C 
BRANCH  53  54
HETATM   54  O11 UNL     1      40.211 -19.471  35.577  1.00  0.00    -0.400 OA
ATOM     55  H11 UNL     1      40.516 -20.258  36.014  1.00  0.00     0.209 HD
ENDBRANCH  53  54
ENDBRANCH  52  53
BRANCH  52  56
HETATM   56  C26 UNL     1      40.362 -16.324  34.914  1.00  0.00     0.173 C 
BRANCH  56  57
HETATM   57  O12 UNL     1      40.092 -16.698  36.246  1.00  0.00    -0.400 OA
ATOM     58  H12 UNL     1      39.797 -15.908  36.684  1.00  0.00     0.209 HD
ENDBRANCH  56  57
ENDBRANCH  52  56
ENDBRANCH  49  52
ENDBRANCH   5  49
TORSDOF 20
ENDMDL
MODEL 2
REMARK VINA RESULT: -8.686103342      3.223      7.026
REMARK  20 active torsions:
REMARK  status: ('A' for Active; 'I' for Inactive)
REMARK    1  A    between atoms: C2_3  and  O1_4 
REMARK    2  A    between atoms: C3_6  and  C4_7 
REMARK    3  A    between atoms: C4_7  and  C5_8 
REMARK    4  A    between atoms: C7_15  and  O3_16 
REMARK    5  A    between atoms: C9_19  and  C10_20 
REMARK    6  A    between atoms: C10_20  and  O5_22 
REMARK    7  A    between atoms: O5_22  and  C11_23 
REMARK    8  A    between atoms: C12_25  and  C13_26 
REMARK    9  A    between atoms: C13_26  and  N4_27 
REMARK   10  A    between atoms: C15_29  and  C16_30 
REMARK   11  A    between atoms: C16_30  and  N5_31 
REMARK       I    between atoms: N5_31  and  C17_33 
REMARK   12  A    between atoms: C17_33  and  O8_35 
REMARK   13  A    between atoms: O8_35  and  C18_36 
REMARK   14  A    between atoms: C22_45  and  C23_46 
REMARK   15  A    between atoms: C23_46  and  O10_47 
REMARK   16  A    between atoms: C23_46  and  C24_49 
REMARK   17  A    between atoms: C24_49  and  C25_50 
REMARK   18  A    between atoms: C24_49  and  C26_53 
REMARK   19  A    between atoms: C25_50  and  O11_51 
REMARK   20  A    between atoms: C26_53  and  O12_54 
ROOT
HETATM    1  C11 UNL     1      40.195 -18.186  30.473  1.00  0.00     0.426 C 
HETATM    2  O6  UNL     1      39.638 -19.451  30.488  1.00  0.00    -0.306 OA
HETATM    3  C12 UNL     1      39.824 -20.179  31.624  1.00  0.00     0.288 C 
HETATM    4  O9  UNL     1      39.456 -19.461  32.765  1.00  0.00    -0.327 OA
HETATM    5  C22 UNL     1      39.486 -18.112  32.585  1.00  0.00     0.297 C 
HETATM    6  O13 UNL     1      40.590 -17.824  31.757  1.00  0.00    -0.305 OA
ENDROOT
BRANCH   1   7
HETATM    7  O5  UNL     1      39.274 -17.195  30.056  1.00  0.00    -0.261 OA
BRANCH   7   8
HETATM    8  C10 UNL     1      37.992 -17.392  29.657  1.00  0.00     0.302 C 
HETATM    9  O4  UNL     1      37.773 -17.435  28.398  1.00  0.00    -0.259 OA
BRANCH   8  10
HETATM   10  C9  UNL     1      36.827 -17.563  30.522  1.00  0.00     0.108 A 
HETATM   11  C8  UNL     1      36.431 -18.812  30.960  1.00  0.00     0.035 A 
HETATM   12  C3  UNL     1      35.341 -18.907  31.771  1.00  0.00    -0.000 A 
HETATM   13  C2  UNL     1      34.661 -17.774  32.135  1.00  0.00     0.151 A 
HETATM   14  N1  UNL     1      35.036 -16.567  31.719  1.00  0.00    -0.298 N 
HETATM   15  C1  UNL     1      34.322 -15.353  32.098  1.00  0.00     0.161 C 
HETATM   16  C27 UNL     1      36.103 -16.471  30.924  1.00  0.00     0.265 A 
HETATM   17  O14 UNL     1      36.445 -15.306  30.535  1.00  0.00    -0.267 OA
BRANCH  12  18
HETATM   18  C4  UNL     1      34.833 -20.193  32.291  1.00  0.00     0.104 C 
BRANCH  18  19
HETATM   19  C5  UNL     1      35.545 -20.705  33.459  1.00  0.00     0.069 A 
HETATM   20  N2  UNL     1      36.833 -20.488  33.756  1.00  0.00    -0.308 N 
HETATM   21  C6  UNL     1      37.111 -21.134  34.916  1.00  0.00     0.326 A 
ATOM     22  H2  UNL     1      37.489 -19.933  33.207  1.00  0.00     0.170 HD
HETATM   23  O2  UNL     1      38.220 -21.162  35.513  1.00  0.00    -0.247 OA
HETATM   24  N3  UNL     1      35.996 -21.754  35.338  1.00  0.00    -0.287 N 
HETATM   25  C7  UNL     1      35.016 -21.497  34.447  1.00  0.00     0.167 A 
ATOM     26  H3  UNL     1      35.907 -22.318  36.183  1.00  0.00     0.172 HD
BRANCH  25  27
HETATM   27  O3  UNL     1      33.728 -21.993  34.591  1.00  0.00    -0.345 OA
ATOM     28  H3  UNL     1      33.281 -22.674  34.102  1.00  0.00     0.219 HD
ENDBRANCH  25  27
ENDBRANCH  18  19
ENDBRANCH  12  18
BRANCH  13  29
HETATM   29  O1  UNL     1      33.538 -17.852  32.970  1.00  0.00    -0.345 OA
ATOM     30  H1  UNL     1      33.307 -18.706  33.319  1.00  0.00     0.219 HD
ENDBRANCH  13  29
ENDBRANCH   8  10
ENDBRANCH   7   8
ENDBRANCH   1   7
BRANCH   3  31
HETATM   31  C13 UNL     1      41.190 -20.730  31.852  1.00  0.00     0.210 C 
BRANCH  31  32
HETATM   32  N4  UNL     1      41.500 -21.112  33.199  1.00  0.00    -0.282 N 
HETATM   33  C14 UNL     1      42.740 -21.025  33.745  1.00  0.00     0.140 A 
HETATM   34  C15 UNL     1      42.659 -21.502  35.013  1.00  0.00     0.062 A 
HETATM   35  N6  UNL     1      41.348 -21.859  35.168  1.00  0.00    -0.287 N 
HETATM   36  N7  UNL     1      40.664 -21.621  34.077  1.00  0.00    -0.241 N 
ATOM     37  H6  UNL     1      40.956 -22.258  36.020  1.00  0.00     0.188 HD
ATOM     38  H7  UNL     1      39.670 -21.797  33.936  1.00  0.00     0.208 HD
BRANCH  34  39
HETATM   39  C16 UNL     1      43.689 -21.656  36.075  1.00  0.00     0.185 C 
BRANCH  39  40
HETATM   40  N5  UNL     1      43.163 -22.448  37.150  1.00  0.00    -0.331 N 
HETATM   41  C17 UNL     1      43.090 -21.905  38.455  1.00  0.00     0.361 C 
HETATM   42  O7  UNL     1      43.453 -20.742  38.739  1.00  0.00    -0.238 OA
ATOM     43  H5  UNL     1      42.842 -23.399  36.974  1.00  0.00     0.165 HD
BRANCH  41  44
HETATM   44  O8  UNL     1      42.597 -22.667  39.510  1.00  0.00    -0.294 OA
BRANCH  44  45
HETATM   45  C18 UNL     1      43.419 -23.635  40.114  1.00  0.00     0.061 C 
HETATM   46  C19 UNL     1      43.206 -25.010  39.509  1.00  0.00     0.046 C 
HETATM   47  C20 UNL     1      44.877 -23.307  40.113  1.00  0.00     0.046 C 
HETATM   48  C21 UNL     1      42.992 -23.762  41.568  1.00  0.00     0.046 C 
ENDBRANCH  44  45
ENDBRANCH  41  44
ENDBRANCH  39  40
ENDBRANCH  34  39
ENDBRANCH  31  32
ENDBRANCH   3  31
BRANCH   5  49
HETATM   49  C23 UNL     1      39.442 -17.249  33.786  1.00  0.00     0.181 C 
BRANCH  49  50
HETATM   50  O10 UNL     1      39.029 -15.969  33.310  1.00  0.00    -0.390 OA
ATOM     51  H10 UNL     1      39.821 -15.560  32.980  1.00  0.00     0.210 HD
ENDBRANCH  49  50
BRANCH  49  52
HETATM   52  C24 UNL     1      40.717 -16.995  34.502  1.00  0.00     0.066 C 
BRANCH  52  53
HETATM   53  C25 UNL     1      41.192 -18.056  35.437  1.00  0.00     0.173 C 
BRANCH  53  54
HETATM   54  O11 UNL     1      40.242 -19.033  35.706  1.00  0.00    -0.400 OA
ATOM     55  H11 UNL     1      39.595 -18.772  36.351  1.00  0.00     0.209 HD
ENDBRANCH  53  54
ENDBRANCH  52  53
BRANCH  52  56
HETATM   56  C26 UNL     1      40.507 -15.737  35.357  1.00  0.00     0.173 C 
BRANCH  56  57
HETATM   57  O12 UNL     1      39.658 -16.125  36.413  1.00  0.00    -0.400 OA
ATOM     58  H12 UNL     1      39.153 -15.353  36.639  1.00  0.00     0.209 HD
ENDBRANCH  56  57
ENDBRANCH  52  56
ENDBRANCH  49  52
ENDBRANCH   5  49
TORSDOF 20
ENDMDL
MODEL 3
REMARK VINA RESULT: -8.671268659      2.597      7.412
REMARK  20 active torsions:
REMARK  status: ('A' for Active; 'I' for Inactive)
REMARK    1  A    between atoms: C2_3  and  O1_4 
REMARK    2  A    between atoms: C3_6  and  C4_7 
REMARK    3  A    between atoms: C4_7  and  C5_8 
REMARK    4  A    between atoms: C7_15  and  O3_16 
REMARK    5  A    between atoms: C9_19  and  C10_20 
REMARK    6  A    between atoms: C10_20  and  O5_22 
REMARK    7  A    between atoms: O5_22  and  C11_23 
REMARK    8  A    between atoms: C12_25  and  C13_26 
REMARK    9  A    between atoms: C13_26  and  N4_27 
REMARK   10  A    between atoms: C15_29  and  C16_30 
REMARK   11  A    between atoms: C16_30  and  N5_31 
REMARK       I    between atoms: N5_31  and  C17_33 
REMARK   12  A    between atoms: C17_33  and  O8_35 
REMARK   13  A    between atoms: O8_35  and  C18_36 
REMARK   14  A    between atoms: C22_45  and  C23_46 
REMARK   15  A    between atoms: C23_46  and  O10_47 
REMARK   16  A    between atoms: C23_46  and  C24_49 
REMARK   17  A    between atoms: C24_49  and  C25_50 
REMARK   18  A    between atoms: C24_49  and  C26_53 
REMARK   19  A    between atoms: C25_50  and  O11_51 
REMARK   20  A    between atoms: C26_53  and  O12_54 
ROOT
HETATM    1  C11 UNL     1      37.010 -21.515  31.664  1.00  0.00     0.426 C 
HETATM    2  O6  UNL     1      38.388 -21.572  31.568  1.00  0.00    -0.306 OA
HETATM    3  C12 UNL     1      38.925 -21.219  30.367  1.00  0.00     0.288 C 
HETATM    4  O9  UNL     1      38.448 -19.980  29.932  1.00  0.00    -0.327 OA
HETATM    5  C22 UNL     1      37.248 -19.643  30.477  1.00  0.00     0.297 C 
HETATM    6  O13 UNL     1      36.485 -20.823  30.575  1.00  0.00    -0.305 OA
ENDROOT
BRANCH   1   7
HETATM    7  O5  UNL     1      36.578 -20.811  32.815  1.00  0.00    -0.261 OA
BRANCH   7   8
HETATM    8  C10 UNL     1      37.320 -20.509  33.910  1.00  0.00     0.302 C 
HETATM    9  O4  UNL     1      36.877 -20.904  35.042  1.00  0.00    -0.259 OA
BRANCH   8  10
HETATM   10  C9  UNL     1      38.582 -19.773  33.930  1.00  0.00     0.108 A 
HETATM   11  C8  UNL     1      38.686 -18.504  33.396  1.00  0.00     0.035 A 
HETATM   12  C3  UNL     1      39.888 -17.865  33.452  1.00  0.00    -0.000 A 
HETATM   13  C2  UNL     1      40.964 -18.487  34.029  1.00  0.00     0.151 A 
HETATM   14  N1  UNL     1      40.874 -19.709  34.547  1.00  0.00    -0.298 N 
HETATM   15  C1  UNL     1      42.010 -20.383  35.164  1.00  0.00     0.161 C 
HETATM   16  C27 UNL     1      39.698 -20.337  34.494  1.00  0.00     0.265 A 
HETATM   17  O14 UNL     1      39.631 -21.508  34.994  1.00  0.00    -0.267 OA
BRANCH  12  18
HETATM   18  C4  UNL     1      40.105 -16.509  32.908  1.00  0.00     0.104 C 
BRANCH  18  19
HETATM   19  C5  UNL     1      39.884 -16.383  31.470  1.00  0.00     0.069 A 
HETATM   20  N2  UNL     1      39.210 -15.400  30.859  1.00  0.00    -0.308 N 
HETATM   21  C6  UNL     1      39.227 -15.646  29.524  1.00  0.00     0.326 A 
ATOM     22  H2  UNL     1      38.763 -14.605  31.316  1.00  0.00     0.170 HD
HETATM   23  O2  UNL     1      38.698 -14.941  28.625  1.00  0.00    -0.247 OA
HETATM   24  N3  UNL     1      39.911 -16.782  29.308  1.00  0.00    -0.287 N 
HETATM   25  C7  UNL     1      40.325 -17.251  30.504  1.00  0.00     0.167 A 
ATOM     26  H3  UNL     1      40.085 -17.214  28.401  1.00  0.00     0.172 HD
BRANCH  25  27
HETATM   27  O3  UNL     1      41.065 -18.419  30.631  1.00  0.00    -0.345 OA
ATOM     28  H3  UNL     1      41.754 -18.765  30.075  1.00  0.00     0.219 HD
ENDBRANCH  25  27
ENDBRANCH  18  19
ENDBRANCH  12  18
BRANCH  13  29
HETATM   29  O1  UNL     1      42.208 -17.845  34.096  1.00  0.00    -0.345 OA
ATOM     30  H1  UNL     1      42.344 -17.221  34.800  1.00  0.00     0.219 HD
ENDBRANCH  13  29
ENDBRANCH   8  10
ENDBRANCH   7   8
ENDBRANCH   1   7
BRANCH   3  31
HETATM   31  C13 UNL     1      38.762 -22.190  29.248  1.00  0.00     0.210 C 
BRANCH  31  32
HETATM   32  N4  UNL     1      39.773 -23.200  29.135  1.00  0.00    -0.282 N 
HETATM   33  C14 UNL     1      41.000 -23.111  29.711  1.00  0.00     0.140 A 
HETATM   34  C15 UNL     1      41.692 -24.225  29.364  1.00  0.00     0.062 A 
HETATM   35  N6  UNL     1      40.830 -24.943  28.582  1.00  0.00    -0.287 N 
HETATM   36  N7  UNL     1      39.685 -24.320  28.453  1.00  0.00    -0.241 N 
ATOM     37  H6  UNL     1      41.049 -25.842  28.155  1.00  0.00     0.188 HD
ATOM     38  H7  UNL     1      38.877 -24.643  27.922  1.00  0.00     0.208 HD
BRANCH  34  39
HETATM   39  C16 UNL     1      43.074 -24.668  29.692  1.00  0.00     0.185 C 
BRANCH  39  40
HETATM   40  N5  UNL     1      43.684 -23.730  30.591  1.00  0.00    -0.331 N 
HETATM   41  C17 UNL     1      44.723 -22.885  30.130  1.00  0.00     0.361 C 
HETATM   42  O7  UNL     1      45.148 -22.895  28.954  1.00  0.00    -0.238 OA
ATOM     43  H5  UNL     1      43.370 -23.672  31.559  1.00  0.00     0.165 HD
BRANCH  41  44
HETATM   44  O8  UNL     1      45.334 -21.983  30.996  1.00  0.00    -0.294 OA
BRANCH  44  45
HETATM   45  C18 UNL     1      44.788 -20.697  31.162  1.00  0.00     0.061 C 
HETATM   46  C19 UNL     1      45.614 -19.855  32.116  1.00  0.00     0.046 C 
HETATM   47  C20 UNL     1      44.565 -19.943  29.891  1.00  0.00     0.046 C 
HETATM   48  C21 UNL     1      43.431 -20.854  31.830  1.00  0.00     0.046 C 
ENDBRANCH  44  45
ENDBRANCH  41  44
ENDBRANCH  39  40
ENDBRANCH  34  39
ENDBRANCH  31  32
ENDBRANCH   3  31
BRANCH   5  49
HETATM   49  C23 UNL     1      36.490 -18.532  29.858  1.00  0.00     0.181 C 
BRANCH  49  50
HETATM   50  O10 UNL     1      37.382 -17.959  28.903  1.00  0.00    -0.390 OA
ATOM     51  H10 UNL     1      37.424 -18.590  28.193  1.00  0.00     0.210 HD
ENDBRANCH  49  50
BRANCH  49  52
HETATM   52  C24 UNL     1      36.088 -17.401  30.729  1.00  0.00     0.066 C 
BRANCH  52  53
HETATM   53  C25 UNL     1      35.093 -17.692  31.802  1.00  0.00     0.173 C 
BRANCH  53  54
HETATM   54  O11 UNL     1      34.395 -18.879  31.614  1.00  0.00    -0.400 OA
ATOM     55  H11 UNL     1      33.459 -18.760  31.510  1.00  0.00     0.209 HD
ENDBRANCH  53  54
ENDBRANCH  52  53
BRANCH  52  56
HETATM   56  C26 UNL     1      35.437 -16.347  29.821  1.00  0.00     0.173 C 
BRANCH  56  57
HETATM   57  O12 UNL     1      36.113 -15.139  30.086  1.00  0.00    -0.400 OA
ATOM     58  H12 UNL     1      37.037 -15.327  29.974  1.00  0.00     0.209 HD
ENDBRANCH  56  57
ENDBRANCH  52  56
ENDBRANCH  49  52
ENDBRANCH   5  49
TORSDOF 20
ENDMDL
MODEL 4
REMARK VINA RESULT: -8.554732348      2.832      7.074
REMARK  20 active torsions:
REMARK  status: ('A' for Active; 'I' for Inactive)
REMARK    1  A    between atoms: C2_3  and  O1_4 
REMARK    2  A    between atoms: C3_6  and  C4_7 
REMARK    3  A    between atoms: C4_7  and  C5_8 
REMARK    4  A    between atoms: C7_15  and  O3_16 
REMARK    5  A    between atoms: C9_19  and  C10_20 
REMARK    6  A    between atoms: C10_20  and  O5_22 
REMARK    7  A    between atoms: O5_22  and  C11_23 
REMARK    8  A    between atoms: C12_25  and  C13_26 
REMARK    9  A    between atoms: C13_26  and  N4_27 
REMARK   10  A    between atoms: C15_29  and  C16_30 
REMARK   11  A    between atoms: C16_30  and  N5_31 
REMARK       I    between atoms: N5_31  and  C17_33 
REMARK   12  A    between atoms: C17_33  and  O8_35 
REMARK   13  A    between atoms: O8_35  and  C18_36 
REMARK   14  A    between atoms: C22_45  and  C23_46 
REMARK   15  A    between atoms: C23_46  and  O10_47 
REMARK   16  A    between atoms: C23_46  and  C24_49 
REMARK   17  A    between atoms: C24_49  and  C25_50 
REMARK   18  A    between atoms: C24_49  and  C26_53 
REMARK   19  A    between atoms: C25_50  and  O11_51 
REMARK   20  A    between atoms: C26_53  and  O12_54 
ROOT
HETATM    1  C11 UNL     1      41.072 -19.227  33.832  1.00  0.00     0.426 C 
HETATM    2  O6  UNL     1      42.158 -19.645  34.579  1.00  0.00    -0.306 OA
HETATM    3  C12 UNL     1      42.714 -20.835  34.221  1.00  0.00     0.288 C 
HETATM    4  O9  UNL     1      43.004 -20.880  32.855  1.00  0.00    -0.327 OA
HETATM    5  C22 UNL     1      42.255 -20.017  32.116  1.00  0.00     0.297 C 
HETATM    6  O13 UNL     1      40.963 -19.996  32.678  1.00  0.00    -0.305 OA
ENDROOT
BRANCH   1   7
HETATM    7  O5  UNL     1      41.202 -17.886  33.394  1.00  0.00    -0.261 OA
BRANCH   7   8
HETATM    8  C10 UNL     1      40.213 -16.962  33.295  1.00  0.00     0.302 C 
HETATM    9  O4  UNL     1      40.352 -15.885  33.970  1.00  0.00    -0.259 OA
BRANCH   8  10
HETATM   10  C9  UNL     1      38.998 -17.070  32.492  1.00  0.00     0.108 A 
HETATM   11  C8  UNL     1      37.752 -17.175  33.079  1.00  0.00     0.035 A 
HETATM   12  C3  UNL     1      36.655 -17.265  32.277  1.00  0.00    -0.000 A 
HETATM   13  C2  UNL     1      36.803 -17.252  30.915  1.00  0.00     0.151 A 
HETATM   14  N1  UNL     1      37.999 -17.150  30.340  1.00  0.00    -0.298 N 
HETATM   15  C1  UNL     1      38.172 -17.135  28.892  1.00  0.00     0.161 C 
HETATM   16  C27 UNL     1      39.075 -17.062  31.123  1.00  0.00     0.265 A 
HETATM   17  O14 UNL     1      40.212 -16.967  30.553  1.00  0.00    -0.267 OA
BRANCH  12  18
HETATM   18  C4  UNL     1      35.280 -17.384  32.804  1.00  0.00     0.104 C 
BRANCH  18  19
HETATM   19  C5  UNL     1      34.636 -16.114  33.127  1.00  0.00     0.069 A 
HETATM   20  N2  UNL     1      34.638 -15.510  34.322  1.00  0.00    -0.308 N 
HETATM   21  C6  UNL     1      33.931 -14.357  34.212  1.00  0.00     0.326 A 
ATOM     22  H2  UNL     1      35.092 -15.856  35.168  1.00  0.00     0.170 HD
HETATM   23  O2  UNL     1      33.713 -13.519  35.127  1.00  0.00    -0.247 OA
HETATM   24  N3  UNL     1      33.489 -14.246  32.948  1.00  0.00    -0.287 N 
HETATM   25  C7  UNL     1      33.919 -15.326  32.262  1.00  0.00     0.167 A 
ATOM     26  H3  UNL     1      32.929 -13.481  32.573  1.00  0.00     0.172 HD
BRANCH  25  27
HETATM   27  O3  UNL     1      33.632 -15.518  30.917  1.00  0.00    -0.345 OA
ATOM     28  H3  UNL     1      33.050 -15.031  30.345  1.00  0.00     0.219 HD
ENDBRANCH  25  27
ENDBRANCH  18  19
ENDBRANCH  12  18
BRANCH  13  29
HETATM   29  O1  UNL     1      35.685 -17.342  30.074  1.00  0.00    -0.345 OA
ATOM     30  H1  UNL     1      34.849 -17.056  30.422  1.00  0.00     0.219 HD
ENDBRANCH  13  29
ENDBRANCH   8  10
ENDBRANCH   7   8
ENDBRANCH   1   7
BRANCH   3  31
HETATM   31  C13 UNL     1      41.946 -22.065  34.566  1.00  0.00     0.210 C 
BRANCH  31  32
HETATM   32  N4  UNL     1      40.971 -21.930  35.608  1.00  0.00    -0.282 N 
HETATM   33  C14 UNL     1      39.662 -22.265  35.471  1.00  0.00     0.140 A 
HETATM   34  C15 UNL     1      39.043 -21.972  36.642  1.00  0.00     0.062 A 
HETATM   35  N6  UNL     1      40.030 -21.465  37.441  1.00  0.00    -0.287 N 
HETATM   36  N7  UNL     1      41.179 -21.445  36.813  1.00  0.00    -0.241 N 
ATOM     37  H6  UNL     1      39.891 -21.145  38.399  1.00  0.00     0.188 HD
ATOM     38  H7  UNL     1      42.069 -21.116  37.188  1.00  0.00     0.208 HD
BRANCH  34  39
HETATM   39  C16 UNL     1      37.626 -22.117  37.070  1.00  0.00     0.185 C 
BRANCH  39  40
HETATM   40  N5  UNL     1      36.755 -21.606  36.050  1.00  0.00    -0.331 N 
HETATM   41  C17 UNL     1      36.116 -22.498  35.156  1.00  0.00     0.361 C 
HETATM   42  O7  UNL     1      36.255 -23.739  35.205  1.00  0.00    -0.238 OA
ATOM     43  H5  UNL     1      36.598 -20.601  35.969  1.00  0.00     0.165 HD
BRANCH  41  44
HETATM   44  O8  UNL     1      35.283 -22.014  34.152  1.00  0.00    -0.294 OA
BRANCH  44  45
HETATM   45  C18 UNL     1      35.808 -21.762  32.871  1.00  0.00     0.061 C 
HETATM   46  C19 UNL     1      37.076 -20.932  32.937  1.00  0.00     0.046 C 
HETATM   47  C20 UNL     1      36.049 -22.982  32.043  1.00  0.00     0.046 C 
HETATM   48  C21 UNL     1      34.801 -20.906  32.119  1.00  0.00     0.046 C 
ENDBRANCH  44  45
ENDBRANCH  41  44
ENDBRANCH  39  40
ENDBRANCH  34  39
ENDBRANCH  31  32
ENDBRANCH   3  31
BRANCH   5  49
HETATM   49  C23 UNL     1      42.229 -20.199  30.648  1.00  0.00     0.181 C 
BRANCH  49  50
HETATM   50  O10 UNL     1      41.896 -21.572  30.449  1.00  0.00    -0.390 OA
ATOM     51  H10 UNL     1      42.407 -22.047  31.094  1.00  0.00     0.210 HD
ENDBRANCH  49  50
BRANCH  49  52
HETATM   52  C24 UNL     1      43.498 -20.004  29.904  1.00  0.00     0.066 C 
BRANCH  52  53
HETATM   53  C25 UNL     1      43.416 -19.278  28.604  1.00  0.00     0.173 C 
BRANCH  53  54
HETATM   54  O11 UNL     1      42.193 -19.416  27.960  1.00  0.00    -0.400 OA
ATOM     55  H11 UNL     1      41.463 -19.560  28.550  1.00  0.00     0.209 HD
ENDBRANCH  53  54
ENDBRANCH  52  53
BRANCH  52  56
HETATM   56  C26 UNL     1      44.044 -21.401  29.578  1.00  0.00     0.173 C 
BRANCH  56  57
HETATM   57  O12 UNL     1      43.942 -21.539  28.179  1.00  0.00    -0.400 OA
ATOM     58  H12 UNL     1      43.109 -21.149  27.938  1.00  0.00     0.209 HD
ENDBRANCH  56  57
ENDBRANCH  52  56
ENDBRANCH  49  52
ENDBRANCH   5  49
TORSDOF 20
ENDMDL
MODEL 5
REMARK VINA RESULT: -8.503724423      2.451      6.784
REMARK  20 active torsions:
REMARK  status: ('A' for Active; 'I' for Inactive)
REMARK    1  A    between atoms: C2_3  and  O1_4 
REMARK    2  A    between atoms: C3_6  and  C4_7 
REMARK    3  A    between atoms: C4_7  and  C5_8 
REMARK    4  A    between atoms: C7_15  and  O3_16 
REMARK    5  A    between atoms: C9_19  and  C10_20 
REMARK    6  A    between atoms: C10_20  and  O5_22 
REMARK    7  A    between atoms: O5_22  and  C11_23 
REMARK    8  A    between atoms: C12_25  and  C13_26 
REMARK    9  A    between atoms: C13_26  and  N4_27 
REMARK   10  A    between atoms: C15_29  and  C16_30 
REMARK   11  A    between atoms: C16_30  and  N5_31 
REMARK       I    between atoms: N5_31  and  C17_33 
REMARK   12  A    between atoms: C17_33  and  O8_35 
REMARK   13  A    between atoms: O8_35  and  C18_36 
REMARK   14  A    between atoms: C22_45  and  C23_46 
REMARK   15  A    between atoms: C23_46  and  O10_47 
REMARK   16  A    between atoms: C23_46  and  C24_49 
REMARK   17  A    between atoms: C24_49  and  C25_50 
REMARK   18  A    between atoms: C24_49  and  C26_53 
REMARK   19  A    between atoms: C25_50  and  O11_51 
REMARK   20  A    between atoms: C26_53  and  O12_54 
ROOT
HETATM    1  C11 UNL     1      39.839 -21.723  31.143  1.00  0.00     0.426 C 
HETATM    2  O6  UNL     1      40.873 -22.609  31.381  1.00  0.00    -0.306 OA
HETATM    3  C12 UNL     1      41.601 -22.396  32.512  1.00  0.00     0.288 C 
HETATM    4  O9  UNL     1      40.784 -22.273  33.638  1.00  0.00    -0.327 OA
HETATM    5  C22 UNL     1      39.512 -21.889  33.341  1.00  0.00     0.297 C 
HETATM    6  O13 UNL     1      39.590 -20.963  32.282  1.00  0.00    -0.305 OA
ENDROOT
BRANCH   1   7
HETATM    7  O5  UNL     1      38.622 -22.382  30.842  1.00  0.00    -0.261 OA
BRANCH   7   8
HETATM    8  C10 UNL     1      37.421 -21.801  30.597  1.00  0.00     0.302 C 
HETATM    9  O4  UNL     1      37.143 -21.526  29.380  1.00  0.00    -0.259 OA
BRANCH   8  10
HETATM   10  C9  UNL     1      36.403 -21.455  31.587  1.00  0.00     0.108 A 
HETATM   11  C8  UNL     1      35.949 -20.159  31.732  1.00  0.00     0.035 A 
HETATM   12  C3  UNL     1      34.993 -19.901  32.667  1.00  0.00    -0.000 A 
HETATM   13  C2  UNL     1      34.504 -20.919  33.442  1.00  0.00     0.151 A 
HETATM   14  N1  UNL     1      34.935 -22.171  33.310  1.00  0.00    -0.298 N 
HETATM   15  C1  UNL     1      34.424 -23.265  34.128  1.00  0.00     0.161 C 
HETATM   16  C27 UNL     1      35.871 -22.427  32.395  1.00  0.00     0.265 A 
HETATM   17  O14 UNL     1      36.272 -23.633  32.283  1.00  0.00    -0.267 OA
BRANCH  12  18
HETATM   18  C4  UNL     1      34.442 -18.550  32.903  1.00  0.00     0.104 C 
BRANCH  18  19
HETATM   19  C5  UNL     1      34.878 -17.535  31.949  1.00  0.00     0.069 A 
HETATM   20  N2  UNL     1      34.682 -17.561  30.624  1.00  0.00    -0.308 N 
HETATM   21  C6  UNL     1      35.238 -16.443  30.094  1.00  0.00     0.326 A 
ATOM     22  H2  UNL     1      34.198 -18.294  30.104  1.00  0.00     0.170 HD
HETATM   23  O2  UNL     1      35.254 -16.116  28.878  1.00  0.00    -0.247 OA
HETATM   24  N3  UNL     1      35.780 -15.723  31.091  1.00  0.00    -0.287 N 
HETATM   25  C7  UNL     1      35.565 -16.386  32.246  1.00  0.00     0.167 A 
ATOM     26  H3  UNL     1      36.269 -14.833  30.991  1.00  0.00     0.172 HD
BRANCH  25  27
HETATM   27  O3  UNL     1      36.003 -15.906  33.474  1.00  0.00    -0.345 OA
ATOM     28  H3  UNL     1      35.502 -15.657  34.242  1.00  0.00     0.219 HD
ENDBRANCH  25  27
ENDBRANCH  18  19
ENDBRANCH  12  18
BRANCH  13  29
HETATM   29  O1  UNL     1      33.519 -20.671  34.409  1.00  0.00    -0.345 OA
ATOM     30  H1  UNL     1      32.809 -20.086  34.174  1.00  0.00     0.219 HD
ENDBRANCH  13  29
ENDBRANCH   8  10
ENDBRANCH   7   8
ENDBRANCH   1   7
BRANCH   3  31
HETATM   31  C13 UNL     1      42.538 -21.236  32.499  1.00  0.00     0.210 C 
BRANCH  31  32
HETATM   32  N4  UNL     1      42.208 -20.149  33.373  1.00  0.00    -0.282 N 
HETATM   33  C14 UNL     1      41.764 -18.939  32.945  1.00  0.00     0.140 A 
HETATM   34  C15 UNL     1      41.589 -18.159  34.041  1.00  0.00     0.062 A 
HETATM   35  N6  UNL     1      41.944 -18.955  35.095  1.00  0.00    -0.287 N 
HETATM   36  N7  UNL     1      42.311 -20.143  34.684  1.00  0.00    -0.241 N 
ATOM     37  H6  UNL     1      41.924 -18.662  36.072  1.00  0.00     0.188 HD
ATOM     38  H7  UNL     1      42.619 -20.918  35.271  1.00  0.00     0.208 HD
BRANCH  34  39
HETATM   39  C16 UNL     1      41.131 -16.751  34.185  1.00  0.00     0.185 C 
BRANCH  39  40
HETATM   40  N5  UNL     1      40.648 -16.266  32.924  1.00  0.00    -0.331 N 
HETATM   41  C17 UNL     1      39.372 -16.664  32.457  1.00  0.00     0.361 C 
HETATM   42  O7  UNL     1      38.612 -17.424  33.095  1.00  0.00    -0.238 OA
ATOM     43  H5  UNL     1      41.222 -15.636  32.365  1.00  0.00     0.165 HD
BRANCH  41  44
HETATM   44  O8  UNL     1      38.899 -16.215  31.228  1.00  0.00    -0.294 OA
BRANCH  44  45
HETATM   45  C18 UNL     1      39.090 -17.000  30.077  1.00  0.00     0.061 C 
HETATM   46  C19 UNL     1      40.538 -17.427  29.923  1.00  0.00     0.046 C 
HETATM   47  C20 UNL     1      38.201 -18.197  29.982  1.00  0.00     0.046 C 
HETATM   48  C21 UNL     1      38.794 -16.128  28.867  1.00  0.00     0.046 C 
ENDBRANCH  44  45
ENDBRANCH  41  44
ENDBRANCH  39  40
ENDBRANCH  34  39
ENDBRANCH  31  32
ENDBRANCH   3  31
BRANCH   5  49
HETATM   49  C23 UNL     1      38.654 -21.410  34.447  1.00  0.00     0.181 C 
BRANCH  49  50
HETATM   50  O10 UNL     1      39.114 -20.089  34.730  1.00  0.00    -0.390 OA
ATOM     51  H10 UNL     1      38.936 -19.957  35.654  1.00  0.00     0.210 HD
ENDBRANCH  49  50
BRANCH  49  52
HETATM   52  C24 UNL     1      38.733 -22.125  35.744  1.00  0.00     0.066 C 
BRANCH  52  53
HETATM   53  C25 UNL     1      37.456 -22.313  36.494  1.00  0.00     0.173 C 
BRANCH  53  54
HETATM   54  O11 UNL     1      36.534 -21.293  36.295  1.00  0.00    -0.400 OA
ATOM     55  H11 UNL     1      35.932 -21.174  37.020  1.00  0.00     0.209 HD
ENDBRANCH  53  54
ENDBRANCH  52  53
BRANCH  52  56
HETATM   56  C26 UNL     1      39.645 -21.296  36.658  1.00  0.00     0.173 C 
BRANCH  56  57
HETATM   57  O12 UNL     1      38.837 -20.877  37.734  1.00  0.00    -0.400 OA
ATOM     58  H12 UNL     1      38.798 -19.930  37.678  1.00  0.00     0.209 HD
ENDBRANCH  56  57
ENDBRANCH  52  56
ENDBRANCH  49  52
ENDBRANCH   5  49
TORSDOF 20
ENDMDL
