MODEL 1
REMARK VINA RESULT: -6.588644869      0.000      0.000
REMARK  12 active torsions:
REMARK  status: ('A' for Active; 'I' for Inactive)
REMARK    1  A    between atoms: N3_4  and  C2_6 
REMARK    2  A    between atoms: C2_6  and  C3_7 
REMARK    3  A    between atoms: C3_7  and  C4_8 
REMARK    4  A    between atoms: C4_8  and  C5_9 
REMARK    5  A    between atoms: C5_9  and  N4_10 
REMARK    6  A    between atoms: N4_10  and  C6_12 
REMARK    7  A    between atoms: C8_19  and  N8_20 
REMARK    8  A    between atoms: N8_20  and  C9_22 
REMARK    9  A    between atoms: C9_22  and  C10_23 
REMARK   10  A    between atoms: C10_23  and  C11_24 
REMARK   11  A    between atoms: C11_24  and  C12_25 
REMARK   12  A    between atoms: C12_25  and  O1_26 
ROOT
HETATM    1  C6  UNL     1      18.036 -13.461  33.063  1.00  0.00     0.695 A 
HETATM    2  N5  UNL     1      17.830 -13.413  34.391  1.00  0.00    -0.162 N 
ATOM      3  H5  UNL     1      16.942 -13.057  34.745  1.00  0.00     0.187 HD
HETATM    4  C7  UNL     1      18.769 -13.826  35.263  1.00  0.00     0.221 A 
HETATM    5  N6  UNL     1      18.535 -13.770  36.675  1.00  0.00    -0.062 NA
HETATM    6  N7  UNL     1      19.929 -14.289  34.765  1.00  0.00    -0.162 N 
ATOM      7  H7  UNL     1      20.646 -14.603  35.420  1.00  0.00     0.187 HD
HETATM    8  C8  UNL     1      20.195 -14.361  33.450  1.00  0.00     0.695 A 
HETATM    9  N9  UNL     1      19.204 -13.929  32.620  1.00  0.00    -0.022 N 
ATOM     10  H9  UNL     1      19.362 -13.965  31.613  1.00  0.00     0.203 HD
ENDROOT
BRANCH   1  11
HETATM   11  N4  UNL     1      17.140 -13.067  32.202  1.00  0.00    -0.225 N 
ATOM     12  H4  UNL     1      17.357 -13.012  31.207  1.00  0.00     0.177 HD
BRANCH  11  13
HETATM   13  C5  UNL     1      15.829 -12.711  32.700  1.00  0.00     0.138 C 
BRANCH  13  14
HETATM   14  C4  UNL     1      14.802 -13.393  31.819  1.00  0.00     0.022 C 
BRANCH  14  15
HETATM   15  C3  UNL     1      13.775 -14.129  32.659  1.00  0.00     0.021 C 
BRANCH  15  16
HETATM   16  C2  UNL     1      13.488 -13.255  33.876  1.00  0.00     0.122 C 
BRANCH  16  17
HETATM   17  N3  UNL     1      13.203 -14.105  35.014  1.00  0.00    -0.367 N 
HETATM   18  C1  UNL     1      13.985 -14.146  36.043  1.00  0.00     0.196 C 
HETATM   19  N1  UNL     1      13.744 -14.956  37.167  1.00  0.00    -0.067 NA
HETATM   20  N2  UNL     1      15.138 -13.336  36.035  1.00  0.00    -0.067 NA
ATOM     21  H3  UNL     1      12.364 -14.685  35.004  1.00  0.00     0.161 HD
ENDBRANCH  16  17
ENDBRANCH  15  16
ENDBRANCH  14  15
ENDBRANCH  13  14
ENDBRANCH  11  13
ENDBRANCH   1  11
BRANCH   8  22
HETATM   22  N8  UNL     1      21.295 -14.800  32.958  1.00  0.00    -0.225 N 
ATOM     23  H8  UNL     1      21.539 -14.617  31.985  1.00  0.00     0.177 HD
BRANCH  22  24
HETATM   24  C9  UNL     1      22.171 -15.552  33.799  1.00  0.00     0.138 C 
BRANCH  24  25
HETATM   25  C10 UNL     1      22.342 -16.986  33.357  1.00  0.00     0.022 C 
BRANCH  25  26
HETATM   26  C11 UNL     1      22.747 -17.106  31.922  1.00  0.00     0.028 C 
BRANCH  26  27
HETATM   27  C12 UNL     1      21.799 -17.924  31.101  1.00  0.00     0.164 C 
BRANCH  27  28
HETATM   28  O1  UNL     1      20.548 -17.325  31.160  1.00  0.00    -0.401 OA
ATOM     29  H1  UNL     1      19.907 -17.998  31.358  1.00  0.00     0.209 HD
ENDBRANCH  27  28
ENDBRANCH  26  27
ENDBRANCH  25  26
ENDBRANCH  24  25
ENDBRANCH  22  24
ENDBRANCH   8  22
TORSDOF 12
ENDMDL
MODEL 2
REMARK VINA RESULT: -6.454876828     13.131     15.910
REMARK  12 active torsions:
REMARK  status: ('A' for Active; 'I' for Inactive)
REMARK    1  A    between atoms: N3_4  and  C2_6 
REMARK    2  A    between atoms: C2_6  and  C3_7 
REMARK    3  A    between atoms: C3_7  and  C4_8 
REMARK    4  A    between atoms: C4_8  and  C5_9 
REMARK    5  A    between atoms: C5_9  and  N4_10 
REMARK    6  A    between atoms: N4_10  and  C6_12 
REMARK    7  A    between atoms: C8_19  and  N8_20 
REMARK    8  A    between atoms: N8_20  and  C9_22 
REMARK    9  A    between atoms: C9_22  and  C10_23 
REMARK   10  A    between atoms: C10_23  and  C11_24 
REMARK   11  A    between atoms: C11_24  and  C12_25 
REMARK   12  A    between atoms: C12_25  and  O1_26 
ROOT
HETATM    1  C6  UNL     1      27.800 -17.490  20.791  1.00  0.00     0.695 A 
HETATM    2  N5  UNL     1      28.082 -16.942  21.986  1.00  0.00    -0.162 N 
ATOM      3  H5  UNL     1      27.872 -15.956  22.144  1.00  0.00     0.187 HD
HETATM    4  C7  UNL     1      28.635 -17.664  22.978  1.00  0.00     0.221 A 
HETATM    5  N6  UNL     1      28.930 -17.066  24.245  1.00  0.00    -0.062 NA
HETATM    6  N7  UNL     1      28.901 -18.961  22.738  1.00  0.00    -0.162 N 
ATOM      7  H7  UNL     1      29.321 -19.515  23.485  1.00  0.00     0.187 HD
HETATM    8  C8  UNL     1      28.644 -19.565  21.566  1.00  0.00     0.695 A 
HETATM    9  N9  UNL     1      28.083 -18.780  20.604  1.00  0.00    -0.022 N 
ATOM     10  H9  UNL     1      27.870 -19.198  19.698  1.00  0.00     0.203 HD
ENDROOT
BRANCH   1  11
HETATM   11  N4  UNL     1      27.263 -16.809  19.818  1.00  0.00    -0.225 N 
ATOM     12  H4  UNL     1      27.839 -16.410  19.077  1.00  0.00     0.177 HD
BRANCH  11  13
HETATM   13  C5  UNL     1      25.827 -16.634  19.821  1.00  0.00     0.138 C 
BRANCH  13  14
HETATM   14  C4  UNL     1      25.544 -15.167  20.072  1.00  0.00     0.022 C 
BRANCH  14  15
HETATM   15  C3  UNL     1      24.189 -14.776  19.513  1.00  0.00     0.021 C 
BRANCH  15  16
HETATM   16  C2  UNL     1      23.205 -14.791  20.680  1.00  0.00     0.122 C 
BRANCH  16  17
HETATM   17  N3  UNL     1      22.396 -15.990  20.604  1.00  0.00    -0.367 N 
HETATM   18  C1  UNL     1      21.853 -16.510  21.656  1.00  0.00     0.196 C 
HETATM   19  N1  UNL     1      21.062 -17.671  21.625  1.00  0.00    -0.067 NA
HETATM   20  N2  UNL     1      22.067 -15.877  22.897  1.00  0.00    -0.067 NA
ATOM     21  H3  UNL     1      22.251 -16.436  19.698  1.00  0.00     0.161 HD
ENDBRANCH  16  17
ENDBRANCH  15  16
ENDBRANCH  14  15
ENDBRANCH  13  14
ENDBRANCH  11  13
ENDBRANCH   1  11
BRANCH   8  22
HETATM   22  N8  UNL     1      28.890 -20.800  21.322  1.00  0.00    -0.225 N 
ATOM     23  H8  UNL     1      28.143 -21.494  21.348  1.00  0.00     0.177 HD
BRANCH  22  24
HETATM   24  C9  UNL     1      30.230 -21.185  21.012  1.00  0.00     0.138 C 
BRANCH  24  25
HETATM   25  C10 UNL     1      30.664 -22.456  21.703  1.00  0.00     0.022 C 
BRANCH  25  26
HETATM   26  C11 UNL     1      29.511 -23.313  22.118  1.00  0.00     0.028 C 
BRANCH  26  27
HETATM   27  C12 UNL     1      29.053 -24.256  21.048  1.00  0.00     0.164 C 
BRANCH  27  28
HETATM   28  O1  UNL     1      27.825 -23.812  20.576  1.00  0.00    -0.401 OA
ATOM     29  H1  UNL     1      27.206 -24.530  20.641  1.00  0.00     0.209 HD
ENDBRANCH  27  28
ENDBRANCH  26  27
ENDBRANCH  25  26
ENDBRANCH  24  25
ENDBRANCH  22  24
ENDBRANCH   8  22
TORSDOF 12
ENDMDL
MODEL 3
REMARK VINA RESULT: -6.444627966      9.923     12.391
REMARK  12 active torsions:
REMARK  status: ('A' for Active; 'I' for Inactive)
REMARK    1  A    between atoms: N3_4  and  C2_6 
REMARK    2  A    between atoms: C2_6  and  C3_7 
REMARK    3  A    between atoms: C3_7  and  C4_8 
REMARK    4  A    between atoms: C4_8  and  C5_9 
REMARK    5  A    between atoms: C5_9  and  N4_10 
REMARK    6  A    between atoms: N4_10  and  C6_12 
REMARK    7  A    between atoms: C8_19  and  N8_20 
REMARK    8  A    between atoms: N8_20  and  C9_22 
REMARK    9  A    between atoms: C9_22  and  C10_23 
REMARK   10  A    between atoms: C10_23  and  C11_24 
REMARK   11  A    between atoms: C11_24  and  C12_25 
REMARK   12  A    between atoms: C12_25  and  O1_26 
ROOT
HETATM    1  C6  UNL     1      22.021 -15.312  23.504  1.00  0.00     0.695 A 
HETATM    2  N5  UNL     1      21.518 -16.496  23.111  1.00  0.00    -0.162 N 
ATOM      3  H5  UNL     1      20.959 -17.042  23.766  1.00  0.00     0.187 HD
HETATM    4  C7  UNL     1      21.738 -16.977  21.873  1.00  0.00     0.221 A 
HETATM    5  N6  UNL     1      21.196 -18.239  21.469  1.00  0.00    -0.062 NA
HETATM    6  N7  UNL     1      22.481 -16.234  21.033  1.00  0.00    -0.162 N 
ATOM      7  H7  UNL     1      22.652 -16.592  20.093  1.00  0.00     0.187 HD
HETATM    8  C8  UNL     1      23.011 -15.045  21.366  1.00  0.00     0.695 A 
HETATM    9  N9  UNL     1      22.751 -14.614  22.633  1.00  0.00    -0.022 N 
ATOM     10  H9  UNL     1      23.134 -13.716  22.929  1.00  0.00     0.203 HD
ENDROOT
BRANCH   1  11
HETATM   11  N4  UNL     1      21.820 -14.829  24.697  1.00  0.00    -0.225 N 
ATOM     12  H4  UNL     1      22.258 -13.956  24.991  1.00  0.00     0.177 HD
BRANCH  11  13
HETATM   13  C5  UNL     1      20.955 -15.567  25.593  1.00  0.00     0.138 C 
BRANCH  13  14
HETATM   14  C4  UNL     1      21.829 -16.199  26.657  1.00  0.00     0.022 C 
BRANCH  14  15
HETATM   15  C3  UNL     1      21.049 -17.227  27.455  1.00  0.00     0.021 C 
BRANCH  15  16
HETATM   16  C2  UNL     1      19.659 -17.314  26.828  1.00  0.00     0.122 C 
BRANCH  16  17
HETATM   17  N3  UNL     1      19.266 -18.705  26.738  1.00  0.00    -0.367 N 
HETATM   18  C1  UNL     1      19.202 -19.320  25.603  1.00  0.00     0.196 C 
HETATM   19  N1  UNL     1      18.826 -20.668  25.472  1.00  0.00    -0.067 NA
HETATM   20  N2  UNL     1      19.529 -18.599  24.436  1.00  0.00    -0.067 NA
ATOM     21  H3  UNL     1      19.032 -19.213  27.592  1.00  0.00     0.161 HD
ENDBRANCH  16  17
ENDBRANCH  15  16
ENDBRANCH  14  15
ENDBRANCH  13  14
ENDBRANCH  11  13
ENDBRANCH   1  11
BRANCH   8  22
HETATM   22  N8  UNL     1      23.720 -14.324  20.578  1.00  0.00    -0.225 N 
ATOM     23  H8  UNL     1      23.833 -13.325  20.748  1.00  0.00     0.177 HD
BRANCH  22  24
HETATM   24  C9  UNL     1      24.349 -14.947  19.457  1.00  0.00     0.138 C 
BRANCH  24  25
HETATM   25  C10 UNL     1      25.836 -15.142  19.635  1.00  0.00     0.022 C 
BRANCH  25  26
HETATM   26  C11 UNL     1      26.198 -16.550  19.988  1.00  0.00     0.028 C 
BRANCH  26  27
HETATM   27  C12 UNL     1      27.670 -16.759  20.173  1.00  0.00     0.164 C 
BRANCH  27  28
HETATM   28  O1  UNL     1      28.340 -15.778  19.454  1.00  0.00    -0.401 OA
ATOM     29  H1  UNL     1      28.338 -16.030  18.538  1.00  0.00     0.209 HD
ENDBRANCH  27  28
ENDBRANCH  26  27
ENDBRANCH  25  26
ENDBRANCH  24  25
ENDBRANCH  22  24
ENDBRANCH   8  22
TORSDOF 12
ENDMDL
MODEL 4
REMARK VINA RESULT: -6.440476339      2.223      3.947
REMARK  12 active torsions:
REMARK  status: ('A' for Active; 'I' for Inactive)
REMARK    1  A    between atoms: N3_4  and  C2_6 
REMARK    2  A    between atoms: C2_6  and  C3_7 
REMARK    3  A    between atoms: C3_7  and  C4_8 
REMARK    4  A    between atoms: C4_8  and  C5_9 
REMARK    5  A    between atoms: C5_9  and  N4_10 
REMARK    6  A    between atoms: N4_10  and  C6_12 
REMARK    7  A    between atoms: C8_19  and  N8_20 
REMARK    8  A    between atoms: N8_20  and  C9_22 
REMARK    9  A    between atoms: C9_22  and  C10_23 
REMARK   10  A    between atoms: C10_23  and  C11_24 
REMARK   11  A    between atoms: C11_24  and  C12_25 
REMARK   12  A    between atoms: C12_25  and  O1_26 
ROOT
HETATM    1  C6  UNL     1      20.214 -15.238  32.778  1.00  0.00     0.695 A 
HETATM    2  N5  UNL     1      20.073 -14.251  31.875  1.00  0.00    -0.162 N 
ATOM      3  H5  UNL     1      19.418 -13.491  32.065  1.00  0.00     0.187 HD
HETATM    4  C7  UNL     1      20.775 -14.242  30.726  1.00  0.00     0.221 A 
HETATM    5  N6  UNL     1      20.614 -13.184  29.775  1.00  0.00    -0.062 NA
HETATM    6  N7  UNL     1      21.628 -15.258  30.504  1.00  0.00    -0.162 N 
ATOM      7  H7  UNL     1      22.164 -15.259  29.636  1.00  0.00     0.187 HD
HETATM    8  C8  UNL     1      21.813 -16.272  31.366  1.00  0.00     0.695 A 
HETATM    9  N9  UNL     1      21.073 -16.222  32.509  1.00  0.00    -0.022 N 
ATOM     10  H9  UNL     1      21.182 -16.972  33.193  1.00  0.00     0.203 HD
ENDROOT
BRANCH   1  11
HETATM   11  N4  UNL     1      19.545 -15.264  33.895  1.00  0.00    -0.225 N 
ATOM     12  H4  UNL     1      19.509 -16.108  34.466  1.00  0.00     0.177 HD
BRANCH  11  13
HETATM   13  C5  UNL     1      18.854 -14.059  34.302  1.00  0.00     0.138 C 
BRANCH  13  14
HETATM   14  C4  UNL     1      19.171 -13.820  35.765  1.00  0.00     0.022 C 
BRANCH  14  15
HETATM   15  C3  UNL     1      17.911 -13.489  36.542  1.00  0.00     0.021 C 
BRANCH  15  16
HETATM   16  C2  UNL     1      16.838 -13.128  35.517  1.00  0.00     0.122 C 
BRANCH  16  17
HETATM   17  N3  UNL     1      15.532 -13.268  36.128  1.00  0.00    -0.367 N 
HETATM   18  C1  UNL     1      14.475 -13.502  35.422  1.00  0.00     0.196 C 
HETATM   19  N1  UNL     1      13.190 -13.645  35.974  1.00  0.00    -0.067 NA
HETATM   20  N2  UNL     1      14.621 -13.621  34.024  1.00  0.00    -0.067 NA
ATOM     21  H3  UNL     1      15.444 -13.178  37.140  1.00  0.00     0.161 HD
ENDBRANCH  16  17
ENDBRANCH  15  16
ENDBRANCH  14  15
ENDBRANCH  13  14
ENDBRANCH  11  13
ENDBRANCH   1  11
BRANCH   8  22
HETATM   22  N8  UNL     1      22.623 -17.248  31.170  1.00  0.00    -0.225 N 
ATOM     23  H8  UNL     1      22.283 -18.142  30.816  1.00  0.00     0.177 HD
BRANCH  22  24
HETATM   24  C9  UNL     1      24.009 -17.058  31.457  1.00  0.00     0.138 C 
BRANCH  24  25
HETATM   25  C10 UNL     1      24.915 -17.423  30.306  1.00  0.00     0.022 C 
BRANCH  25  26
HETATM   26  C11 UNL     1      25.011 -18.900  30.090  1.00  0.00     0.028 C 
BRANCH  26  27
HETATM   27  C12 UNL     1      24.431 -19.352  28.785  1.00  0.00     0.164 C 
BRANCH  27  28
HETATM   28  O1  UNL     1      23.047 -19.324  28.895  1.00  0.00    -0.401 OA
ATOM     29  H1  UNL     1      22.776 -20.072  29.415  1.00  0.00     0.209 HD
ENDBRANCH  27  28
ENDBRANCH  26  27
ENDBRANCH  25  26
ENDBRANCH  24  25
ENDBRANCH  22  24
ENDBRANCH   8  22
TORSDOF 12
ENDMDL
MODEL 5
REMARK VINA RESULT: -6.431682345      3.060      7.259
REMARK  12 active torsions:
REMARK  status: ('A' for Active; 'I' for Inactive)
REMARK    1  A    between atoms: N3_4  and  C2_6 
REMARK    2  A    between atoms: C2_6  and  C3_7 
REMARK    3  A    between atoms: C3_7  and  C4_8 
REMARK    4  A    between atoms: C4_8  and  C5_9 
REMARK    5  A    between atoms: C5_9  and  N4_10 
REMARK    6  A    between atoms: N4_10  and  C6_12 
REMARK    7  A    between atoms: C8_19  and  N8_20 
REMARK    8  A    between atoms: N8_20  and  C9_22 
REMARK    9  A    between atoms: C9_22  and  C10_23 
REMARK   10  A    between atoms: C10_23  and  C11_24 
REMARK   11  A    between atoms: C11_24  and  C12_25 
REMARK   12  A    between atoms: C12_25  and  O1_26 
ROOT
HETATM    1  C6  UNL     1      18.994 -13.833  34.301  1.00  0.00     0.695 A 
HETATM    2  N5  UNL     1      18.537 -13.707  35.559  1.00  0.00    -0.162 N 
ATOM      3  H5  UNL     1      19.173 -13.872  36.340  1.00  0.00     0.187 HD
HETATM    4  C7  UNL     1      17.259 -13.369  35.813  1.00  0.00     0.221 A 
HETATM    5  N6  UNL     1      16.786 -13.239  37.158  1.00  0.00    -0.062 NA
HETATM    6  N7  UNL     1      16.444 -13.160  34.762  1.00  0.00    -0.162 N 
ATOM      7  H7  UNL     1      15.474 -12.904  34.946  1.00  0.00     0.187 HD
HETATM    8  C8  UNL     1      16.841 -13.272  33.484  1.00  0.00     0.695 A 
HETATM    9  N9  UNL     1      18.146 -13.615  33.295  1.00  0.00    -0.022 N 
ATOM     10  H9  UNL     1      18.491 -13.711  32.339  1.00  0.00     0.203 HD
ENDROOT
BRANCH   1  11
HETATM   11  N4  UNL     1      20.227 -14.159  34.035  1.00  0.00    -0.225 N 
ATOM     12  H4  UNL     1      20.963 -14.043  34.732  1.00  0.00     0.177 HD
BRANCH  11  13
HETATM   13  C5  UNL     1      20.522 -14.691  32.722  1.00  0.00     0.138 C 
BRANCH  13  14
HETATM   14  C4  UNL     1      22.019 -14.582  32.508  1.00  0.00     0.022 C 
BRANCH  14  15
HETATM   15  C3  UNL     1      22.328 -14.001  31.141  1.00  0.00     0.021 C 
BRANCH  15  16
HETATM   16  C2  UNL     1      21.019 -13.995  30.355  1.00  0.00     0.122 C 
BRANCH  16  17
HETATM   17  N3  UNL     1      21.158 -13.122  29.208  1.00  0.00    -0.367 N 
HETATM   18  C1  UNL     1      20.339 -12.145  28.995  1.00  0.00     0.196 C 
HETATM   19  N1  UNL     1      20.439 -11.275  27.896  1.00  0.00    -0.067 NA
HETATM   20  N2  UNL     1      19.291 -11.943  29.917  1.00  0.00    -0.067 NA
ATOM     21  H3  UNL     1      21.922 -13.282  28.550  1.00  0.00     0.161 HD
ENDBRANCH  16  17
ENDBRANCH  15  16
ENDBRANCH  14  15
ENDBRANCH  13  14
ENDBRANCH  11  13
ENDBRANCH   1  11
BRANCH   8  22
HETATM   22  N8  UNL     1      16.078 -13.075  32.471  1.00  0.00    -0.225 N 
ATOM     23  H8  UNL     1      16.319 -12.379  31.767  1.00  0.00     0.177 HD
BRANCH  22  24
HETATM   24  C9  UNL     1      14.884 -13.850  32.350  1.00  0.00     0.138 C 
BRANCH  24  25
HETATM   25  C10 UNL     1      13.647 -13.121  32.818  1.00  0.00     0.022 C 
BRANCH  25  26
HETATM   26  C11 UNL     1      12.929 -13.843  33.914  1.00  0.00     0.028 C 
BRANCH  26  27
HETATM   27  C12 UNL     1      13.004 -13.145  35.237  1.00  0.00     0.164 C 
BRANCH  27  28
HETATM   28  O1  UNL     1      13.825 -13.891  36.073  1.00  0.00    -0.401 OA
ATOM     29  H1  UNL     1      13.274 -14.465  36.593  1.00  0.00     0.209 HD
ENDBRANCH  27  28
ENDBRANCH  26  27
ENDBRANCH  25  26
ENDBRANCH  24  25
ENDBRANCH  22  24
ENDBRANCH   8  22
TORSDOF 12
ENDMDL
