MODEL 1
REMARK VINA RESULT: -10.693717327      0.000      0.000
REMARK  2 active torsions:
REMARK  status: ('A' for Active; 'I' for Inactive)
REMARK    1  A    between atoms: N1_1  and  C1_4 
REMARK    2  A    between atoms: C2_7  and  N3_8 
ROOT
HETATM    1  C1  UNL     1      -9.269  -1.165   0.735  1.00  0.00     0.111 C 
HETATM    2  N2  UNL     1      -9.265  -2.132   1.705  1.00  0.00    -0.328 N 
ATOM      3  H2  UNL     1      -9.011  -3.074   1.407  1.00  0.00     0.169 HD
HETATM    4  C2  UNL     1      -9.565  -1.973   3.027  1.00  0.00     0.120 C 
HETATM    5  C3  UNL     1      -9.430  -0.766   3.758  1.00  0.00     0.080 A 
HETATM    6  S1  UNL     1      -8.934  -0.613   5.355  1.00  0.00    -0.047 SA
HETATM    7  C4  UNL     1      -8.816   1.118   5.381  1.00  0.00     0.157 A 
HETATM    8  N4  UNL     1      -8.426   2.111   6.184  1.00  0.00    -0.334 N 
ATOM      9  H4  UNL     1      -8.130   2.046   7.157  1.00  0.00     0.168 HD
HETATM   10  C5  UNL     1      -8.512   3.218   5.423  1.00  0.00     0.061 A 
HETATM   11  C6  UNL     1      -8.147   4.500   5.753  1.00  0.00     0.032 A 
HETATM   12  C7  UNL     1      -8.197   5.516   4.857  1.00  0.00     0.002 A 
HETATM   13  C8  UNL     1      -8.630   5.214   3.589  1.00  0.00     0.002 A 
HETATM   14  C9  UNL     1      -8.997   3.932   3.259  1.00  0.00     0.032 A 
HETATM   15  C10 UNL     1      -8.963   2.881   4.152  1.00  0.00     0.068 A 
HETATM   16  N5  UNL     1      -9.175   1.514   4.127  1.00  0.00    -0.287 N 
HETATM   17  C11 UNL     1      -9.500   0.556   3.303  1.00  0.00     0.074 A 
HETATM   18  C12 UNL     1     -10.128   0.782   2.055  1.00  0.00     0.007 A 
HETATM   19  C13 UNL     1     -10.993   1.835   2.065  1.00  0.00     0.015 A 
HETATM   20  C14 UNL     1     -11.642   2.148   0.866  1.00  0.00     0.001 A 
HETATM   21  C15 UNL     1     -11.446   1.438  -0.307  1.00  0.00     0.001 A 
HETATM   22  C16 UNL     1     -10.577   0.370  -0.305  1.00  0.00     0.016 A 
HETATM   23  C17 UNL     1      -9.935   0.055   0.869  1.00  0.00     0.020 A 
ENDROOT
BRANCH   1  24
HETATM   24  N1  UNL     1      -8.678  -1.397  -0.342  1.00  0.00    -0.385 N 
ATOM     25  H12 UNL     1      -8.882  -0.796  -1.140  1.00  0.00     0.157 HD
ATOM     26  H11 UNL     1      -8.041  -2.192  -0.386  1.00  0.00     0.157 HD
ENDBRANCH   1  24
BRANCH   4  27
HETATM   27  N3  UNL     1      -9.967  -2.933   3.733  1.00  0.00    -0.384 N 
ATOM     28  H32 UNL     1     -10.925  -3.211   3.520  1.00  0.00     0.157 HD
ATOM     29  H31 UNL     1      -9.379  -3.349   4.455  1.00  0.00     0.157 HD
ENDBRANCH   4  27
TORSDOF 2
ENDMDL
MODEL 2
REMARK VINA RESULT: -10.354541794      2.314      6.174
REMARK  2 active torsions:
REMARK  status: ('A' for Active; 'I' for Inactive)
REMARK    1  A    between atoms: N1_1  and  C1_4 
REMARK    2  A    between atoms: C2_7  and  N3_8 
ROOT
HETATM    1  C1  UNL     1      -8.314   3.204   5.513  1.00  0.00     0.111 C 
HETATM    2  N2  UNL     1      -9.194   4.220   5.249  1.00  0.00    -0.328 N 
ATOM      3  H2  UNL     1      -8.990   5.122   5.680  1.00  0.00     0.169 HD
HETATM    4  C2  UNL     1     -10.315   4.157   4.473  1.00  0.00     0.120 C 
HETATM    5  C3  UNL     1     -10.519   3.251   3.402  1.00  0.00     0.080 A 
HETATM    6  S1  UNL     1     -11.309   3.573   1.956  1.00  0.00    -0.047 SA
HETATM    7  C4  UNL     1     -10.918   2.082   1.159  1.00  0.00     0.157 A 
HETATM    8  N4  UNL     1     -11.045   1.485  -0.029  1.00  0.00    -0.334 N 
ATOM      9  H4  UNL     1     -11.560   1.821  -0.843  1.00  0.00     0.168 HD
HETATM   10  C5  UNL     1     -10.344   0.342   0.086  1.00  0.00     0.061 A 
HETATM   11  C6  UNL     1     -10.093  -0.596  -0.884  1.00  0.00     0.032 A 
HETATM   12  C7  UNL     1      -9.287  -1.664  -0.663  1.00  0.00     0.002 A 
HETATM   13  C8  UNL     1      -8.722  -1.774   0.584  1.00  0.00     0.002 A 
HETATM   14  C9  UNL     1      -8.975  -0.837   1.556  1.00  0.00     0.032 A 
HETATM   15  C10 UNL     1      -9.795   0.255   1.360  1.00  0.00     0.068 A 
HETATM   16  N5  UNL     1     -10.179   1.381   2.065  1.00  0.00    -0.287 N 
HETATM   17  C11 UNL     1      -9.987   1.971   3.213  1.00  0.00     0.074 A 
HETATM   18  C12 UNL     1      -9.465   1.309   4.350  1.00  0.00     0.007 A 
HETATM   19  C13 UNL     1      -9.849   0.004   4.443  1.00  0.00     0.015 A 
HETATM   20  C14 UNL     1      -9.360  -0.737   5.524  1.00  0.00     0.001 A 
HETATM   21  C15 UNL     1      -8.521  -0.203   6.488  1.00  0.00     0.001 A 
HETATM   22  C16 UNL     1      -8.146   1.118   6.391  1.00  0.00     0.016 A 
HETATM   23  C17 UNL     1      -8.622   1.854   5.332  1.00  0.00     0.020 A 
ENDROOT
BRANCH   1  24
HETATM   24  N1  UNL     1      -7.188   3.493   5.975  1.00  0.00    -0.385 N 
ATOM     25  H12 UNL     1      -7.147   3.950   6.886  1.00  0.00     0.157 HD
ATOM     26  H11 UNL     1      -6.364   3.290   5.411  1.00  0.00     0.157 HD
ENDBRANCH   1  24
BRANCH   4  27
HETATM   27  N3  UNL     1     -11.275   4.954   4.633  1.00  0.00    -0.384 N 
ATOM     28  H32 UNL     1     -10.996   5.933   4.564  1.00  0.00     0.157 HD
ATOM     29  H31 UNL     1     -12.217   4.622   4.838  1.00  0.00     0.157 HD
ENDBRANCH   4  27
TORSDOF 2
ENDMDL
MODEL 3
REMARK VINA RESULT: -8.819073109      2.254      4.203
REMARK  2 active torsions:
REMARK  status: ('A' for Active; 'I' for Inactive)
REMARK    1  A    between atoms: N1_1  and  C1_4 
REMARK    2  A    between atoms: C2_7  and  N3_8 
ROOT
HETATM    1  C1  UNL     1      -9.639  -1.750   3.890  1.00  0.00     0.111 C 
HETATM    2  N2  UNL     1      -9.662  -2.145   2.578  1.00  0.00    -0.328 N 
ATOM      3  H2  UNL     1      -9.776  -3.143   2.406  1.00  0.00     0.169 HD
HETATM    4  C2  UNL     1      -9.550  -1.346   1.477  1.00  0.00     0.120 C 
HETATM    5  C3  UNL     1      -9.903   0.025   1.420  1.00  0.00     0.080 A 
HETATM    6  S1  UNL     1     -10.608   0.825   0.123  1.00  0.00    -0.047 SA
HETATM    7  C4  UNL     1     -10.911   2.329   0.933  1.00  0.00     0.157 A 
HETATM    8  N4  UNL     1     -11.501   3.509   0.727  1.00  0.00    -0.334 N 
ATOM      9  H4  UNL     1     -11.909   3.859  -0.140  1.00  0.00     0.168 HD
HETATM   10  C5  UNL     1     -11.438   4.135   1.917  1.00  0.00     0.061 A 
HETATM   11  C6  UNL     1     -11.974   5.350   2.261  1.00  0.00     0.032 A 
HETATM   12  C7  UNL     1     -11.920   5.829   3.528  1.00  0.00     0.002 A 
HETATM   13  C8  UNL     1     -11.302   5.043   4.469  1.00  0.00     0.002 A 
HETATM   14  C9  UNL     1     -10.762   3.827   4.125  1.00  0.00     0.032 A 
HETATM   15  C10 UNL     1     -10.798   3.319   2.843  1.00  0.00     0.068 A 
HETATM   16  N5  UNL     1     -10.441   2.147   2.200  1.00  0.00    -0.287 N 
HETATM   17  C11 UNL     1      -9.916   0.978   2.445  1.00  0.00     0.074 A 
HETATM   18  C12 UNL     1      -9.163   0.692   3.609  1.00  0.00     0.007 A 
HETATM   19  C13 UNL     1      -8.422   1.748   4.050  1.00  0.00     0.015 A 
HETATM   20  C14 UNL     1      -7.664   1.563   5.212  1.00  0.00     0.001 A 
HETATM   21  C15 UNL     1      -7.635   0.369   5.913  1.00  0.00     0.001 A 
HETATM   22  C16 UNL     1      -8.380  -0.694   5.455  1.00  0.00     0.016 A 
HETATM   23  C17 UNL     1      -9.127  -0.522   4.314  1.00  0.00     0.020 A 
ENDROOT
BRANCH   1  24
HETATM   24  N1  UNL     1     -10.062  -2.543   4.759  1.00  0.00    -0.385 N 
ATOM     25  H12 UNL     1     -11.063  -2.547   4.958  1.00  0.00     0.157 HD
ATOM     26  H11 UNL     1      -9.390  -3.128   5.253  1.00  0.00     0.157 HD
ENDBRANCH   1  24
BRANCH   4  27
HETATM   27  N3  UNL     1      -9.141  -1.795   0.375  1.00  0.00    -0.384 N 
ATOM     28  H32 UNL     1      -9.898  -2.098  -0.238  1.00  0.00     0.157 HD
ATOM     29  H31 UNL     1      -8.146  -1.861   0.161  1.00  0.00     0.157 HD
ENDBRANCH   4  27
TORSDOF 2
ENDMDL
MODEL 4
REMARK VINA RESULT: -8.713491322      2.361      5.955
REMARK  2 active torsions:
REMARK  status: ('A' for Active; 'I' for Inactive)
REMARK    1  A    between atoms: N1_1  and  C1_4 
REMARK    2  A    between atoms: C2_7  and  N3_8 
ROOT
HETATM    1  C1  UNL     1      -7.442   2.254   6.011  1.00  0.00     0.111 C 
HETATM    2  N2  UNL     1      -8.088   3.453   6.150  1.00  0.00    -0.328 N 
ATOM      3  H2  UNL     1      -7.640   4.144   6.752  1.00  0.00     0.169 HD
HETATM    4  C2  UNL     1      -9.268   3.824   5.572  1.00  0.00     0.120 C 
HETATM    5  C3  UNL     1      -9.784   3.305   4.358  1.00  0.00     0.080 A 
HETATM    6  S1  UNL     1     -10.623   4.160   3.181  1.00  0.00    -0.047 SA
HETATM    7  C4  UNL     1     -10.668   2.900   1.989  1.00  0.00     0.157 A 
HETATM    8  N4  UNL     1     -11.050   2.690   0.727  1.00  0.00    -0.334 N 
ATOM      9  H4  UNL     1     -11.556   3.330   0.114  1.00  0.00     0.168 HD
HETATM   10  C5  UNL     1     -10.621   1.447   0.442  1.00  0.00     0.061 A 
HETATM   11  C6  UNL     1     -10.693   0.782  -0.756  1.00  0.00     0.032 A 
HETATM   12  C7  UNL     1     -10.135  -0.440  -0.937  1.00  0.00     0.002 A 
HETATM   13  C8  UNL     1      -9.484  -0.997   0.136  1.00  0.00     0.002 A 
HETATM   14  C9  UNL     1      -9.414  -0.334   1.337  1.00  0.00     0.032 A 
HETATM   15  C10 UNL     1      -9.978   0.907   1.551  1.00  0.00     0.068 A 
HETATM   16  N5  UNL     1     -10.020   1.848   2.564  1.00  0.00    -0.287 N 
HETATM   17  C11 UNL     1      -9.581   2.049   3.776  1.00  0.00     0.074 A 
HETATM   18  C12 UNL     1      -9.110   1.012   4.616  1.00  0.00     0.007 A 
HETATM   19  C13 UNL     1      -9.770  -0.168   4.444  1.00  0.00     0.015 A 
HETATM   20  C14 UNL     1      -9.355  -1.259   5.216  1.00  0.00     0.001 A 
HETATM   21  C15 UNL     1      -8.321  -1.183   6.135  1.00  0.00     0.001 A 
HETATM   22  C16 UNL     1      -7.666   0.015   6.308  1.00  0.00     0.016 A 
HETATM   23  C17 UNL     1      -8.068   1.092   5.554  1.00  0.00     0.020 A 
ENDROOT
BRANCH   1  24
HETATM   24  N1  UNL     1      -6.238   2.182   6.343  1.00  0.00    -0.385 N 
ATOM     25  H12 UNL     1      -6.022   1.943   7.310  1.00  0.00     0.157 HD
ATOM     26  H11 UNL     1      -5.527   2.393   5.644  1.00  0.00     0.157 HD
ENDBRANCH   1  24
BRANCH   4  27
HETATM   27  N3  UNL     1      -9.998   4.716   6.076  1.00  0.00    -0.384 N 
ATOM     28  H32 UNL     1     -10.895   4.359   6.404  1.00  0.00     0.157 HD
ATOM     29  H31 UNL     1      -9.703   5.691   6.111  1.00  0.00     0.157 HD
ENDBRANCH   4  27
TORSDOF 2
ENDMDL
MODEL 5
REMARK VINA RESULT: -8.602035721      1.996      5.554
REMARK  2 active torsions:
REMARK  status: ('A' for Active; 'I' for Inactive)
REMARK    1  A    between atoms: N1_1  and  C1_4 
REMARK    2  A    between atoms: C2_7  and  N3_8 
ROOT
HETATM    1  C1  UNL     1      -9.066   3.731   6.051  1.00  0.00     0.111 C 
HETATM    2  N2  UNL     1      -8.635   2.446   6.246  1.00  0.00    -0.328 N 
ATOM      3  H2  UNL     1      -8.468   2.163   7.211  1.00  0.00     0.169 HD
HETATM    4  C2  UNL     1      -8.405   1.502   5.287  1.00  0.00     0.120 C 
HETATM    5  C3  UNL     1      -9.028   1.457   4.015  1.00  0.00     0.080 A 
HETATM    6  S1  UNL     1      -9.508   0.079   3.183  1.00  0.00    -0.047 SA
HETATM    7  C4  UNL     1     -10.354   0.884   1.900  1.00  0.00     0.157 A 
HETATM    8  N4  UNL     1     -11.115   0.609   0.837  1.00  0.00    -0.334 N 
ATOM      9  H4  UNL     1     -11.334  -0.308   0.448  1.00  0.00     0.168 HD
HETATM   10  C5  UNL     1     -11.527   1.811   0.393  1.00  0.00     0.061 A 
HETATM   11  C6  UNL     1     -12.398   2.078  -0.634  1.00  0.00     0.032 A 
HETATM   12  C7  UNL     1     -12.807   3.338  -0.923  1.00  0.00     0.002 A 
HETATM   13  C8  UNL     1     -12.313   4.352  -0.139  1.00  0.00     0.002 A 
HETATM   14  C9  UNL     1     -11.439   4.086   0.887  1.00  0.00     0.032 A 
HETATM   15  C10 UNL     1     -11.002   2.815   1.199  1.00  0.00     0.068 A 
HETATM   16  N5  UNL     1     -10.226   2.213   2.173  1.00  0.00    -0.287 N 
HETATM   17  C11 UNL     1      -9.540   2.506   3.243  1.00  0.00     0.074 A 
HETATM   18  C12 UNL     1      -9.095   3.815   3.549  1.00  0.00     0.007 A 
HETATM   19  C13 UNL     1      -8.764   4.547   2.448  1.00  0.00     0.015 A 
HETATM   20  C14 UNL     1      -8.336   5.863   2.653  1.00  0.00     0.001 A 
HETATM   21  C15 UNL     1      -8.234   6.437   3.909  1.00  0.00     0.001 A 
HETATM   22  C16 UNL     1      -8.562   5.687   5.016  1.00  0.00     0.016 A 
HETATM   23  C17 UNL     1      -8.983   4.392   4.824  1.00  0.00     0.020 A 
ENDROOT
BRANCH   1  24
HETATM   24  N1  UNL     1      -9.524   4.362   7.029  1.00  0.00    -0.385 N 
ATOM     25  H12 UNL     1      -9.495   3.914   7.945  1.00  0.00     0.157 HD
ATOM     26  H11 UNL     1      -9.932   5.282   6.867  1.00  0.00     0.157 HD
ENDBRANCH   1  24
BRANCH   4  27
HETATM   27  N3  UNL     1      -7.616   0.541   5.482  1.00  0.00    -0.384 N 
ATOM     28  H32 UNL     1      -7.487   0.326   6.471  1.00  0.00     0.157 HD
ATOM     29  H31 UNL     1      -7.149   0.067   4.710  1.00  0.00     0.157 HD
ENDBRANCH   4  27
TORSDOF 2
ENDMDL
