MODEL 1
REMARK VINA RESULT: -7.655254680      0.000      0.000
REMARK  9 active torsions:
REMARK  status: ('A' for Active; 'I' for Inactive)
REMARK    1  A    between atoms: N1_1  and  C1_4 
REMARK    2  A    between atoms: N3_8  and  C3_10 
REMARK    3  A    between atoms: C3_10  and  N4_11 
REMARK    4  A    between atoms: N7_23  and  C7_24 
REMARK    5  A    between atoms: C7_24  and  C8_25 
REMARK    6  A    between atoms: C8_25  and  O2_26 
REMARK    7  A    between atoms: O2_26  and  C9_27 
REMARK       I    between atoms: C9_27  and  N8_29 
REMARK    8  A    between atoms: N8_29  and  C10_31 
REMARK    9  A    between atoms: C10_31  and  N9_32 
ROOT
HETATM    1  C1  UNL     1       6.776  34.446  -0.067  1.00  0.00     0.679 A 
HETATM    2  N2  UNL     1       7.672  35.384   0.271  1.00  0.00    -0.175 N 
ATOM      3  H2  UNL     1       8.153  35.302   1.166  1.00  0.00     0.186 HD
HETATM    4  C2  UNL     1       7.962  36.427  -0.524  1.00  0.00     0.149 A 
HETATM    5  N3  UNL     1       8.816  37.331  -0.208  1.00  0.00    -0.351 N 
ATOM      6  H3  UNL     1       9.000  38.103  -0.849  1.00  0.00     0.162 HD
HETATM    7  C4  UNL     1       7.306  36.528  -1.735  1.00  0.00     0.128 A 
HETATM    8  C5  UNL     1       6.366  35.546  -2.091  1.00  0.00     0.156 A 
HETATM    9  N5  UNL     1       6.144  34.541  -1.230  1.00  0.00    -0.174 N 
ATOM     10  H5  UNL     1       5.463  33.823  -1.479  1.00  0.00     0.186 HD
HETATM   11  N6  UNL     1       5.856  35.849  -3.304  1.00  0.00    -0.292 N 
ATOM     12  H6  UNL     1       5.152  35.310  -3.808  1.00  0.00     0.172 HD
HETATM   13  C6  UNL     1       6.430  36.979  -3.731  1.00  0.00     0.328 A 
HETATM   14  O1  UNL     1       6.255  37.617  -4.799  1.00  0.00    -0.246 OA
HETATM   15  N7  UNL     1       7.314  37.387  -2.768  1.00  0.00    -0.291 N 
ENDROOT
BRANCH  15  16
HETATM   16  C7  UNL     1       8.131  38.568  -2.873  1.00  0.00     0.161 C 
BRANCH  16  17
HETATM   17  C8  UNL     1       7.331  39.808  -2.573  1.00  0.00     0.200 C 
BRANCH  17  18
HETATM   18  O2  UNL     1       6.314  39.576  -1.629  1.00  0.00    -0.302 OA
BRANCH  18  19
HETATM   19  C9  UNL     1       6.389  39.955  -0.309  1.00  0.00     0.361 C 
HETATM   20  O3  UNL     1       6.947  41.075  -0.085  1.00  0.00    -0.238 OA
HETATM   21  N8  UNL     1       5.890  39.180   0.767  1.00  0.00    -0.313 N 
ATOM     22  H8  UNL     1       5.441  38.282   0.589  1.00  0.00     0.166 HD
BRANCH  21  23
HETATM   23  C10 UNL     1       6.022  39.674   2.119  1.00  0.00     0.356 C 
BRANCH  23  24
HETATM   24  N9  UNL     1       5.090  40.783   2.268  1.00  0.00    -0.063 N 
ATOM     25  H93 UNL     1       4.382  40.811   1.533  1.00  0.00     0.276 HD
ATOM     26  H92 UNL     1       4.455  40.667   3.058  1.00  0.00     0.276 HD
ATOM     27  H91 UNL     1       5.641  41.639   2.323  1.00  0.00     0.276 HD
ENDBRANCH  23  24
ENDBRANCH  21  23
ENDBRANCH  18  19
ENDBRANCH  17  18
ENDBRANCH  16  17
ENDBRANCH  15  16
BRANCH   5  28
HETATM   28  C3  UNL     1       9.520  37.260   1.053  1.00  0.00     0.353 C 
BRANCH  28  29
HETATM   29  N4  UNL     1       9.123  38.307   1.974  1.00  0.00    -0.064 N 
ATOM     30  H43 UNL     1       9.385  39.227   1.619  1.00  0.00     0.276 HD
ATOM     31  H42 UNL     1       8.109  38.417   1.988  1.00  0.00     0.276 HD
ATOM     32  H41 UNL     1       9.488  38.162   2.916  1.00  0.00     0.276 HD
ENDBRANCH  28  29
ENDBRANCH   5  28
BRANCH   1  33
HETATM   33  N1  UNL     1       6.518  33.441   0.734  1.00  0.00    -0.234 N 
ATOM     34  H12 UNL     1       6.372  32.508   0.348  1.00  0.00     0.174 HD
ATOM     35  H11 UNL     1       6.460  33.577   1.743  1.00  0.00     0.174 HD
ENDBRANCH   1  33
TORSDOF 9
ENDMDL
MODEL 2
REMARK VINA RESULT: -7.593914310      2.900      5.546
REMARK  9 active torsions:
REMARK  status: ('A' for Active; 'I' for Inactive)
REMARK    1  A    between atoms: N1_1  and  C1_4 
REMARK    2  A    between atoms: N3_8  and  C3_10 
REMARK    3  A    between atoms: C3_10  and  N4_11 
REMARK    4  A    between atoms: N7_23  and  C7_24 
REMARK    5  A    between atoms: C7_24  and  C8_25 
REMARK    6  A    between atoms: C8_25  and  O2_26 
REMARK    7  A    between atoms: O2_26  and  C9_27 
REMARK       I    between atoms: C9_27  and  N8_29 
REMARK    8  A    between atoms: N8_29  and  C10_31 
REMARK    9  A    between atoms: C10_31  and  N9_32 
ROOT
HETATM    1  C1  UNL     1       8.023  40.342  -2.235  1.00  0.00     0.679 A 
HETATM    2  N2  UNL     1       7.783  40.089  -0.940  1.00  0.00    -0.175 N 
ATOM      3  H2  UNL     1       7.975  40.819  -0.255  1.00  0.00     0.186 HD
HETATM    4  C2  UNL     1       7.299  38.912  -0.511  1.00  0.00     0.149 A 
HETATM    5  N3  UNL     1       7.070  38.661   0.727  1.00  0.00    -0.351 N 
ATOM      6  H3  UNL     1       6.701  37.749   0.999  1.00  0.00     0.162 HD
HETATM    7  C4  UNL     1       7.041  37.931  -1.447  1.00  0.00     0.128 A 
HETATM    8  C5  UNL     1       7.291  38.194  -2.805  1.00  0.00     0.156 A 
HETATM    9  N5  UNL     1       7.775  39.400  -3.137  1.00  0.00    -0.174 N 
ATOM     10  H5  UNL     1       7.961  39.601  -4.120  1.00  0.00     0.186 HD
HETATM   11  N6  UNL     1       6.969  37.100  -3.528  1.00  0.00    -0.292 N 
ATOM     12  H6  UNL     1       7.050  37.008  -4.541  1.00  0.00     0.172 HD
HETATM   13  C6  UNL     1       6.526  36.157  -2.689  1.00  0.00     0.328 A 
HETATM   14  O1  UNL     1       6.123  34.992  -2.929  1.00  0.00    -0.246 OA
HETATM   15  N7  UNL     1       6.573  36.672  -1.421  1.00  0.00    -0.291 N 
ENDROOT
BRANCH  15  16
HETATM   16  C7  UNL     1       6.167  35.950  -0.244  1.00  0.00     0.161 C 
BRANCH  16  17
HETATM   17  C8  UNL     1       7.331  35.221   0.374  1.00  0.00     0.200 C 
BRANCH  17  18
HETATM   18  O2  UNL     1       6.951  33.999   0.958  1.00  0.00    -0.302 OA
BRANCH  18  19
HETATM   19  C9  UNL     1       6.132  33.077   0.349  1.00  0.00     0.361 C 
HETATM   20  O3  UNL     1       5.378  32.407   1.124  1.00  0.00    -0.238 OA
HETATM   21  N8  UNL     1       6.094  32.854  -1.049  1.00  0.00    -0.313 N 
ATOM     22  H8  UNL     1       6.696  33.391  -1.672  1.00  0.00     0.166 HD
BRANCH  21  23
HETATM   23  C10 UNL     1       5.193  31.858  -1.585  1.00  0.00     0.356 C 
BRANCH  23  24
HETATM   24  N9  UNL     1       5.252  31.957  -3.037  1.00  0.00    -0.063 N 
ATOM     25  H93 UNL     1       5.148  32.914  -3.376  1.00  0.00     0.276 HD
ATOM     26  H92 UNL     1       6.185  31.786  -3.410  1.00  0.00     0.276 HD
ATOM     27  H91 UNL     1       4.549  31.321  -3.413  1.00  0.00     0.276 HD
ENDBRANCH  23  24
ENDBRANCH  21  23
ENDBRANCH  18  19
ENDBRANCH  17  18
ENDBRANCH  16  17
ENDBRANCH  15  16
BRANCH   5  28
HETATM   28  C3  UNL     1       7.331  39.662   1.736  1.00  0.00     0.353 C 
BRANCH  28  29
HETATM   29  N4  UNL     1       6.118  40.255   2.263  1.00  0.00    -0.064 N 
ATOM     30  H43 UNL     1       5.475  40.503   1.510  1.00  0.00     0.276 HD
ATOM     31  H42 UNL     1       5.550  39.559   2.743  1.00  0.00     0.276 HD
ATOM     32  H41 UNL     1       6.302  41.057   2.866  1.00  0.00     0.276 HD
ENDBRANCH  28  29
ENDBRANCH   5  28
BRANCH   1  33
HETATM   33  N1  UNL     1       8.495  41.503  -2.618  1.00  0.00    -0.234 N 
ATOM     34  H12 UNL     1       8.525  42.281  -1.959  1.00  0.00     0.174 HD
ATOM     35  H11 UNL     1       8.835  41.642  -3.569  1.00  0.00     0.174 HD
ENDBRANCH   1  33
TORSDOF 9
ENDMDL
MODEL 3
REMARK VINA RESULT: -7.412082365      2.386      6.046
REMARK  9 active torsions:
REMARK  status: ('A' for Active; 'I' for Inactive)
REMARK    1  A    between atoms: N1_1  and  C1_4 
REMARK    2  A    between atoms: N3_8  and  C3_10 
REMARK    3  A    between atoms: C3_10  and  N4_11 
REMARK    4  A    between atoms: N7_23  and  C7_24 
REMARK    5  A    between atoms: C7_24  and  C8_25 
REMARK    6  A    between atoms: C8_25  and  O2_26 
REMARK    7  A    between atoms: O2_26  and  C9_27 
REMARK       I    between atoms: C9_27  and  N8_29 
REMARK    8  A    between atoms: N8_29  and  C10_31 
REMARK    9  A    between atoms: C10_31  and  N9_32 
ROOT
HETATM    1  C1  UNL     1       6.081  40.743  -0.984  1.00  0.00     0.679 A 
HETATM    2  N2  UNL     1       6.205  39.691  -1.806  1.00  0.00    -0.175 N 
ATOM      3  H2  UNL     1       5.777  39.739  -2.730  1.00  0.00     0.186 HD
HETATM    4  C2  UNL     1       6.872  38.578  -1.461  1.00  0.00     0.149 A 
HETATM    5  N3  UNL     1       6.993  37.565  -2.240  1.00  0.00    -0.351 N 
ATOM      6  H3  UNL     1       7.512  36.744  -1.929  1.00  0.00     0.162 HD
HETATM    7  C4  UNL     1       7.450  38.524  -0.208  1.00  0.00     0.128 A 
HETATM    8  C5  UNL     1       7.322  39.626   0.655  1.00  0.00     0.156 A 
HETATM    9  N5  UNL     1       6.636  40.693   0.221  1.00  0.00    -0.174 N 
ATOM     10  H5  UNL     1       6.536  41.498   0.840  1.00  0.00     0.186 HD
HETATM   11  N6  UNL     1       7.958  39.349   1.813  1.00  0.00    -0.292 N 
ATOM     12  H6  UNL     1       8.027  39.969   2.621  1.00  0.00     0.172 HD
HETATM   13  C6  UNL     1       8.484  38.122   1.722  1.00  0.00     0.328 A 
HETATM   14  O1  UNL     1       9.154  37.469   2.560  1.00  0.00    -0.246 OA
HETATM   15  N7  UNL     1       8.170  37.626   0.485  1.00  0.00    -0.291 N 
ENDROOT
BRANCH  15  16
HETATM   16  C7  UNL     1       8.571  36.326   0.014  1.00  0.00     0.161 C 
BRANCH  16  17
HETATM   17  C8  UNL     1       7.617  35.260   0.488  1.00  0.00     0.200 C 
BRANCH  17  18
HETATM   18  O2  UNL     1       6.328  35.414  -0.054  1.00  0.00    -0.302 OA
BRANCH  18  19
HETATM   19  C9  UNL     1       5.730  34.499  -0.888  1.00  0.00     0.361 C 
HETATM   20  O3  UNL     1       4.887  34.970  -1.715  1.00  0.00    -0.238 OA
HETATM   21  N8  UNL     1       6.006  33.110  -0.868  1.00  0.00    -0.313 N 
ATOM     22  H8  UNL     1       6.684  32.730  -0.206  1.00  0.00     0.166 HD
BRANCH  21  23
HETATM   23  C10 UNL     1       5.320  32.236  -1.791  1.00  0.00     0.356 C 
BRANCH  23  24
HETATM   24  N9  UNL     1       5.653  32.680  -3.137  1.00  0.00    -0.063 N 
ATOM     25  H93 UNL     1       5.368  32.017  -3.859  1.00  0.00     0.276 HD
ATOM     26  H92 UNL     1       5.084  33.468  -3.450  1.00  0.00     0.276 HD
ATOM     27  H91 UNL     1       6.653  32.881  -3.153  1.00  0.00     0.276 HD
ENDBRANCH  23  24
ENDBRANCH  21  23
ENDBRANCH  18  19
ENDBRANCH  17  18
ENDBRANCH  16  17
ENDBRANCH  15  16
BRANCH   5  28
HETATM   28  C3  UNL     1       6.399  37.584  -3.558  1.00  0.00     0.353 C 
BRANCH  28  29
HETATM   29  N4  UNL     1       6.279  36.260  -4.135  1.00  0.00    -0.064 N 
ATOM     30  H43 UNL     1       5.625  35.686  -3.602  1.00  0.00     0.276 HD
ATOM     31  H42 UNL     1       5.782  36.293  -5.025  1.00  0.00     0.276 HD
ATOM     32  H41 UNL     1       7.179  35.791  -4.236  1.00  0.00     0.276 HD
ENDBRANCH  28  29
ENDBRANCH   5  28
BRANCH   1  33
HETATM   33  N1  UNL     1       5.422  41.814  -1.355  1.00  0.00    -0.234 N 
ATOM     34  H12 UNL     1       4.996  42.416  -0.651  1.00  0.00     0.174 HD
ATOM     35  H11 UNL     1       5.328  42.055  -2.341  1.00  0.00     0.174 HD
ENDBRANCH   1  33
TORSDOF 9
ENDMDL
MODEL 4
REMARK VINA RESULT: -7.382585492      1.807      4.494
REMARK  9 active torsions:
REMARK  status: ('A' for Active; 'I' for Inactive)
REMARK    1  A    between atoms: N1_1  and  C1_4 
REMARK    2  A    between atoms: N3_8  and  C3_10 
REMARK    3  A    between atoms: C3_10  and  N4_11 
REMARK    4  A    between atoms: N7_23  and  C7_24 
REMARK    5  A    between atoms: C7_24  and  C8_25 
REMARK    6  A    between atoms: C8_25  and  O2_26 
REMARK    7  A    between atoms: O2_26  and  C9_27 
REMARK       I    between atoms: C9_27  and  N8_29 
REMARK    8  A    between atoms: N8_29  and  C10_31 
REMARK    9  A    between atoms: C10_31  and  N9_32 
ROOT
HETATM    1  C1  UNL     1       6.907  35.150   0.622  1.00  0.00     0.679 A 
HETATM    2  N2  UNL     1       7.771  35.444  -0.360  1.00  0.00    -0.175 N 
ATOM      3  H2  UNL     1       8.285  34.683  -0.803  1.00  0.00     0.186 HD
HETATM    4  C2  UNL     1       7.985  36.700  -0.783  1.00  0.00     0.149 A 
HETATM    5  N3  UNL     1       8.812  36.991  -1.720  1.00  0.00    -0.351 N 
ATOM      6  H3  UNL     1       8.936  37.963  -2.005  1.00  0.00     0.162 HD
HETATM    7  C4  UNL     1       7.282  37.722  -0.177  1.00  0.00     0.128 A 
HETATM    8  C5  UNL     1       6.376  37.417   0.852  1.00  0.00     0.156 A 
HETATM    9  N5  UNL     1       6.230  36.131   1.207  1.00  0.00    -0.174 N 
ATOM     10  H5  UNL     1       5.575  35.899   1.953  1.00  0.00     0.186 HD
HETATM   11  N6  UNL     1       5.812  38.562   1.292  1.00  0.00    -0.292 N 
ATOM     12  H6  UNL     1       5.117  38.640   2.035  1.00  0.00     0.172 HD
HETATM   13  C6  UNL     1       6.320  39.579   0.587  1.00  0.00     0.328 A 
HETATM   14  O1  UNL     1       6.080  40.810   0.661  1.00  0.00    -0.246 OA
HETATM   15  N7  UNL     1       7.217  39.058  -0.308  1.00  0.00    -0.291 N 
ENDROOT
BRANCH  15  16
HETATM   16  C7  UNL     1       7.965  39.849  -1.249  1.00  0.00     0.161 C 
BRANCH  16  17
HETATM   17  C8  UNL     1       7.156  40.127  -2.489  1.00  0.00     0.200 C 
BRANCH  17  18
HETATM   18  O2  UNL     1       6.472  38.987  -2.951  1.00  0.00    -0.302 OA
BRANCH  18  19
HETATM   19  C9  UNL     1       6.841  38.269  -4.064  1.00  0.00     0.361 C 
HETATM   20  O3  UNL     1       8.068  38.342  -4.391  1.00  0.00    -0.238 OA
HETATM   21  N8  UNL     1       5.947  37.482  -4.830  1.00  0.00    -0.313 N 
ATOM     22  H8  UNL     1       4.962  37.420  -4.569  1.00  0.00     0.166 HD
BRANCH  21  23
HETATM   23  C10 UNL     1       6.441  36.766  -5.984  1.00  0.00     0.356 C 
BRANCH  23  24
HETATM   24  N9  UNL     1       5.496  36.989  -7.070  1.00  0.00    -0.063 N 
ATOM     25  H93 UNL     1       4.702  36.349  -7.046  1.00  0.00     0.276 HD
ATOM     26  H92 UNL     1       4.970  37.857  -6.968  1.00  0.00     0.276 HD
ATOM     27  H91 UNL     1       6.021  36.942  -7.944  1.00  0.00     0.276 HD
ENDBRANCH  23  24
ENDBRANCH  21  23
ENDBRANCH  18  19
ENDBRANCH  17  18
ENDBRANCH  16  17
ENDBRANCH  15  16
BRANCH   5  28
HETATM   28  C3  UNL     1       9.568  35.948  -2.376  1.00  0.00     0.353 C 
BRANCH  28  29
HETATM   29  N4  UNL     1       9.786  36.215  -3.783  1.00  0.00    -0.064 N 
ATOM     30  H43 UNL     1      10.777  36.153  -4.019  1.00  0.00     0.276 HD
ATOM     31  H42 UNL     1       9.431  35.453  -4.360  1.00  0.00     0.276 HD
ATOM     32  H41 UNL     1       9.396  37.110  -4.079  1.00  0.00     0.276 HD
ENDBRANCH  28  29
ENDBRANCH   5  28
BRANCH   1  33
HETATM   33  N1  UNL     1       6.723  33.911   1.010  1.00  0.00    -0.234 N 
ATOM     34  H12 UNL     1       6.588  33.704   1.999  1.00  0.00     0.174 HD
ATOM     35  H11 UNL     1       6.715  33.147   0.335  1.00  0.00     0.174 HD
ENDBRANCH   1  33
TORSDOF 9
ENDMDL
MODEL 5
REMARK VINA RESULT: -7.331800204      1.773      4.954
REMARK  9 active torsions:
REMARK  status: ('A' for Active; 'I' for Inactive)
REMARK    1  A    between atoms: N1_1  and  C1_4 
REMARK    2  A    between atoms: N3_8  and  C3_10 
REMARK    3  A    between atoms: C3_10  and  N4_11 
REMARK    4  A    between atoms: N7_23  and  C7_24 
REMARK    5  A    between atoms: C7_24  and  C8_25 
REMARK    6  A    between atoms: C8_25  and  O2_26 
REMARK    7  A    between atoms: O2_26  and  C9_27 
REMARK       I    between atoms: C9_27  and  N8_29 
REMARK    8  A    between atoms: N8_29  and  C10_31 
REMARK    9  A    between atoms: C10_31  and  N9_32 
ROOT
HETATM    1  C1  UNL     1       5.799  39.968   2.026  1.00  0.00     0.679 A 
HETATM    2  N2  UNL     1       6.319  38.795   1.638  1.00  0.00    -0.175 N 
ATOM      3  H2  UNL     1       6.311  38.015   2.294  1.00  0.00     0.186 HD
HETATM    4  C2  UNL     1       6.851  38.607   0.419  1.00  0.00     0.149 A 
HETATM    5  N3  UNL     1       7.353  37.489   0.040  1.00  0.00    -0.351 N 
ATOM      6  H3  UNL     1       7.744  37.399  -0.898  1.00  0.00     0.162 HD
HETATM    7  C4  UNL     1       6.855  39.670  -0.463  1.00  0.00     0.128 A 
HETATM    8  C5  UNL     1       6.310  40.900  -0.058  1.00  0.00     0.156 A 
HETATM    9  N5  UNL     1       5.803  40.991   1.180  1.00  0.00    -0.174 N 
ATOM     10  H5  UNL     1       5.405  41.880   1.484  1.00  0.00     0.186 HD
HETATM   11  N6  UNL     1       6.425  41.783  -1.073  1.00  0.00    -0.292 N 
ATOM     12  H6  UNL     1       6.114  42.755  -1.059  1.00  0.00     0.172 HD
HETATM   13  C6  UNL     1       7.019  41.167  -2.102  1.00  0.00     0.328 A 
HETATM   14  O1  UNL     1       7.321  41.608  -3.238  1.00  0.00    -0.246 OA
HETATM   15  N7  UNL     1       7.278  39.877  -1.721  1.00  0.00    -0.291 N 
ENDROOT
BRANCH  15  16
HETATM   16  C7  UNL     1       7.908  38.900  -2.569  1.00  0.00     0.161 C 
BRANCH  16  17
HETATM   17  C8  UNL     1       6.910  38.272  -3.507  1.00  0.00     0.200 C 
BRANCH  17  18
HETATM   18  O2  UNL     1       6.011  37.419  -2.841  1.00  0.00    -0.302 OA
BRANCH  18  19
HETATM   19  C9  UNL     1       6.278  36.105  -2.538  1.00  0.00     0.361 C 
HETATM   20  O3  UNL     1       7.500  35.757  -2.610  1.00  0.00    -0.238 OA
HETATM   21  N8  UNL     1       5.291  35.161  -2.163  1.00  0.00    -0.313 N 
ATOM     22  H8  UNL     1       4.311  35.439  -2.104  1.00  0.00     0.166 HD
BRANCH  21  23
HETATM   23  C10 UNL     1       5.683  33.803  -1.865  1.00  0.00     0.356 C 
BRANCH  23  24
HETATM   24  N9  UNL     1       5.800  33.097  -3.134  1.00  0.00    -0.063 N 
ATOM     25  H93 UNL     1       5.769  33.720  -3.941  1.00  0.00     0.276 HD
ATOM     26  H92 UNL     1       6.732  32.717  -3.295  1.00  0.00     0.276 HD
ATOM     27  H91 UNL     1       5.070  32.384  -3.152  1.00  0.00     0.276 HD
ENDBRANCH  23  24
ENDBRANCH  21  23
ENDBRANCH  18  19
ENDBRANCH  17  18
ENDBRANCH  16  17
ENDBRANCH  15  16
BRANCH   5  28
HETATM   28  C3  UNL     1       7.369  36.355   0.937  1.00  0.00     0.353 C 
BRANCH  28  29
HETATM   29  N4  UNL     1       8.098  35.225   0.396  1.00  0.00    -0.064 N 
ATOM     30  H43 UNL     1       7.463  34.465   0.148  1.00  0.00     0.276 HD
ATOM     31  H42 UNL     1       8.470  35.438  -0.529  1.00  0.00     0.276 HD
ATOM     32  H41 UNL     1       8.835  34.896   1.020  1.00  0.00     0.276 HD
ENDBRANCH  28  29
ENDBRANCH   5  28
BRANCH   1  33
HETATM   33  N1  UNL     1       5.288  40.115   3.224  1.00  0.00    -0.234 N 
ATOM     34  H12 UNL     1       4.442  39.606   3.481  1.00  0.00     0.174 HD
ATOM     35  H11 UNL     1       5.725  40.733   3.907  1.00  0.00     0.174 HD
ENDBRANCH   1  33
TORSDOF 9
ENDMDL
