MODEL 1
REMARK VINA RESULT: -7.530777475      0.000      0.000
REMARK  6 active torsions:
REMARK  status: ('A' for Active; 'I' for Inactive)
REMARK    1  A    between atoms: N1_2  and  C2_4 
REMARK    2  A    between atoms: C3_9  and  N4_10 
REMARK    3  A    between atoms: N4_10  and  C4_12 
REMARK    4  A    between atoms: C4_12  and  C5_13 
REMARK    5  A    between atoms: C14_24  and  C15_25 
REMARK    6  A    between atoms: C15_25  and  O2_26 
ROOT
HETATM    1  C2  UNL     1     -29.114 -12.889  -1.089  1.00  0.00     0.132 A 
HETATM    2  N2  UNL     1     -29.930 -13.937  -1.064  1.00  0.00    -0.283 N 
ATOM      3  H2  UNL     1     -30.796 -13.872  -0.529  1.00  0.00     0.188 HD
HETATM    4  N3  UNL     1     -29.667 -15.057  -1.705  1.00  0.00    -0.283 N 
ATOM      5  H3  UNL     1     -30.333 -15.827  -1.647  1.00  0.00     0.188 HD
HETATM    6  C3  UNL     1     -28.522 -15.223  -2.449  1.00  0.00     0.128 A 
HETATM    7  C8  UNL     1     -27.669 -14.176  -2.496  1.00  0.00     0.046 A 
HETATM    8  C9  UNL     1     -27.963 -12.979  -1.803  1.00  0.00     0.092 A 
HETATM    9  C10 UNL     1     -27.085 -11.914  -1.855  1.00  0.00     0.262 A 
HETATM   10  O1  UNL     1     -27.419 -10.877  -1.209  1.00  0.00    -0.267 OA
HETATM   11  N5  UNL     1     -25.952 -11.981  -2.549  1.00  0.00    -0.317 N 
HETATM   12  C11 UNL     1     -25.030 -10.875  -2.608  1.00  0.00     0.159 C 
HETATM   13  C12 UNL     1     -25.655 -13.111  -3.213  1.00  0.00     0.055 A 
HETATM   14  C13 UNL     1     -24.471 -13.170  -3.934  1.00  0.00     0.058 A 
HETATM   15  C14 UNL     1     -24.149 -14.310  -4.619  1.00  0.00     0.038 A 
HETATM   16  N6  UNL     1     -24.960 -15.363  -4.602  1.00  0.00    -0.324 N 
ATOM     17  H6  UNL     1     -24.695 -16.200  -5.121  1.00  0.00     0.169 HD
HETATM   18  C16 UNL     1     -26.144 -15.359  -3.905  1.00  0.00     0.259 A 
HETATM   19  O3  UNL     1     -26.740 -16.390  -4.004  1.00  0.00    -0.267 OA
HETATM   20  C17 UNL     1     -26.483 -14.249  -3.222  1.00  0.00     0.074 A 
ENDROOT
BRANCH   6  21
HETATM   21  N4  UNL     1     -28.415 -16.333  -2.990  1.00  0.00    -0.374 N 
ATOM     22  H4  UNL     1     -27.739 -16.420  -3.748  1.00  0.00     0.161 HD
BRANCH  21  23
HETATM   23  C4  UNL     1     -29.178 -17.531  -2.631  1.00  0.00     0.125 C 
BRANCH  23  24
HETATM   24  C5  UNL     1     -29.510 -18.410  -3.780  1.00  0.00    -0.005 C 
HETATM   25  C6  UNL     1     -29.792 -17.572  -5.038  1.00  0.00     0.011 C 
HETATM   26  C7  UNL     1     -30.815 -19.130  -3.444  1.00  0.00     0.011 C 
ENDBRANCH  23  24
ENDBRANCH  21  23
ENDBRANCH   6  21
BRANCH   1  27
HETATM   27  N1  UNL     1     -29.390 -11.804  -0.455  1.00  0.00    -0.379 N 
HETATM   28  C1  UNL     1     -29.635 -11.721   0.953  1.00  0.00     0.147 C 
ATOM     29  H1  UNL     1     -29.438 -10.940  -0.995  1.00  0.00     0.160 HD
ENDBRANCH   1  27
BRANCH  15  30
HETATM   30  C15 UNL     1     -22.885 -14.342  -5.376  1.00  0.00     0.221 C 
BRANCH  30  31
HETATM   31  O2  UNL     1     -22.892 -15.321  -6.363  1.00  0.00    -0.395 OA
ATOM     32  H2  UNL     1     -22.517 -15.008  -7.178  1.00  0.00     0.209 HD
ENDBRANCH  30  31
ENDBRANCH  15  30
TORSDOF 6
ENDMDL
MODEL 2
REMARK VINA RESULT: -7.197429031      1.608      5.005
REMARK  6 active torsions:
REMARK  status: ('A' for Active; 'I' for Inactive)
REMARK    1  A    between atoms: N1_2  and  C2_4 
REMARK    2  A    between atoms: C3_9  and  N4_10 
REMARK    3  A    between atoms: N4_10  and  C4_12 
REMARK    4  A    between atoms: C4_12  and  C5_13 
REMARK    5  A    between atoms: C14_24  and  C15_25 
REMARK    6  A    between atoms: C15_25  and  O2_26 
ROOT
HETATM    1  C2  UNL     1     -25.030 -14.540  -4.169  1.00  0.00     0.132 A 
HETATM    2  N2  UNL     1     -25.501 -15.735  -4.509  1.00  0.00    -0.283 N 
ATOM      3  H2  UNL     1     -24.940 -16.327  -5.121  1.00  0.00     0.188 HD
HETATM    4  N3  UNL     1     -26.665 -16.185  -4.087  1.00  0.00    -0.283 N 
ATOM      5  H3  UNL     1     -26.973 -17.111  -4.384  1.00  0.00     0.188 HD
HETATM    6  C3  UNL     1     -27.479 -15.447  -3.260  1.00  0.00     0.128 A 
HETATM    7  C8  UNL     1     -27.030 -14.226  -2.893  1.00  0.00     0.046 A 
HETATM    8  C9  UNL     1     -25.780 -13.754  -3.354  1.00  0.00     0.092 A 
HETATM    9  C10 UNL     1     -25.328 -12.505  -2.976  1.00  0.00     0.262 A 
HETATM   10  O1  UNL     1     -24.198 -12.152  -3.428  1.00  0.00    -0.267 OA
HETATM   11  N5  UNL     1     -26.046 -11.718  -2.179  1.00  0.00    -0.317 N 
HETATM   12  C11 UNL     1     -25.584 -10.413  -1.779  1.00  0.00     0.159 C 
HETATM   13  C12 UNL     1     -27.238 -12.149  -1.731  1.00  0.00     0.055 A 
HETATM   14  C13 UNL     1     -27.979 -11.322  -0.900  1.00  0.00     0.058 A 
HETATM   15  C14 UNL     1     -29.194 -11.742  -0.432  1.00  0.00     0.038 A 
HETATM   16  N6  UNL     1     -29.674 -12.935  -0.766  1.00  0.00    -0.324 N 
ATOM     17  H6  UNL     1     -30.583 -13.223  -0.403  1.00  0.00     0.169 HD
HETATM   18  C16 UNL     1     -28.982 -13.795  -1.586  1.00  0.00     0.259 A 
HETATM   19  O3  UNL     1     -29.567 -14.820  -1.776  1.00  0.00    -0.267 OA
HETATM   20  C17 UNL     1     -27.783 -13.405  -2.060  1.00  0.00     0.074 A 
ENDROOT
BRANCH   6  21
HETATM   21  N4  UNL     1     -28.542 -16.005  -2.952  1.00  0.00    -0.374 N 
ATOM     22  H4  UNL     1     -29.338 -15.405  -2.736  1.00  0.00     0.161 HD
BRANCH  21  23
HETATM   23  C4  UNL     1     -28.752 -17.452  -2.874  1.00  0.00     0.125 C 
BRANCH  23  24
HETATM   24  C5  UNL     1     -29.902 -17.946  -3.670  1.00  0.00    -0.005 C 
HETATM   25  C6  UNL     1     -30.561 -19.151  -2.978  1.00  0.00     0.011 C 
HETATM   26  C7  UNL     1     -29.351 -18.465  -4.998  1.00  0.00     0.011 C 
ENDBRANCH  23  24
ENDBRANCH  21  23
ENDBRANCH   6  21
BRANCH   1  27
HETATM   27  N1  UNL     1     -23.890 -14.119  -4.592  1.00  0.00    -0.379 N 
HETATM   28  C1  UNL     1     -23.209 -14.628  -5.745  1.00  0.00     0.147 C 
ATOM     29  H1  UNL     1     -23.439 -13.368  -4.070  1.00  0.00     0.160 HD
ENDBRANCH   1  27
BRANCH  15  30
HETATM   30  C15 UNL     1     -29.957 -10.840   0.449  1.00  0.00     0.221 C 
BRANCH  30  31
HETATM   31  O2  UNL     1     -30.049  -9.554  -0.073  1.00  0.00    -0.395 OA
ATOM     32  H2  UNL     1     -30.829  -9.103   0.227  1.00  0.00     0.209 HD
ENDBRANCH  30  31
ENDBRANCH  15  30
TORSDOF 6
ENDMDL
MODEL 3
REMARK VINA RESULT: -7.163760506      2.713      2.937
REMARK  6 active torsions:
REMARK  status: ('A' for Active; 'I' for Inactive)
REMARK    1  A    between atoms: N1_2  and  C2_4 
REMARK    2  A    between atoms: C3_9  and  N4_10 
REMARK    3  A    between atoms: N4_10  and  C4_12 
REMARK    4  A    between atoms: C4_12  and  C5_13 
REMARK    5  A    between atoms: C14_24  and  C15_25 
REMARK    6  A    between atoms: C15_25  and  O2_26 
ROOT
HETATM    1  C2  UNL     1     -27.843 -16.165   1.343  1.00  0.00     0.132 A 
HETATM    2  N2  UNL     1     -28.798 -17.008   0.968  1.00  0.00    -0.283 N 
ATOM      3  H2  UNL     1     -29.407 -17.408   1.682  1.00  0.00     0.188 HD
HETATM    4  N3  UNL     1     -28.991 -17.348  -0.290  1.00  0.00    -0.283 N 
ATOM      5  H3  UNL     1     -29.742 -18.001  -0.515  1.00  0.00     0.188 HD
HETATM    6  C3  UNL     1     -28.213 -16.852  -1.309  1.00  0.00     0.128 A 
HETATM    7  C8  UNL     1     -27.231 -15.990  -0.964  1.00  0.00     0.046 A 
HETATM    8  C9  UNL     1     -27.034 -15.633   0.390  1.00  0.00     0.092 A 
HETATM    9  C10 UNL     1     -26.028 -14.753   0.736  1.00  0.00     0.262 A 
HETATM   10  O1  UNL     1     -25.914 -14.482   1.969  1.00  0.00    -0.267 OA
HETATM   11  N5  UNL     1     -25.224 -14.222  -0.181  1.00  0.00    -0.317 N 
HETATM   12  C11 UNL     1     -24.171 -13.303   0.171  1.00  0.00     0.159 C 
HETATM   13  C12 UNL     1     -25.395 -14.549  -1.473  1.00  0.00     0.055 A 
HETATM   14  C13 UNL     1     -24.553 -13.989  -2.422  1.00  0.00     0.058 A 
HETATM   15  C14 UNL     1     -24.710 -14.307  -3.743  1.00  0.00     0.038 A 
HETATM   16  N6  UNL     1     -25.664 -15.149  -4.128  1.00  0.00    -0.324 N 
ATOM     17  H6  UNL     1     -25.758 -15.368  -5.120  1.00  0.00     0.169 HD
HETATM   18  C16 UNL     1     -26.526 -15.732  -3.231  1.00  0.00     0.259 A 
HETATM   19  O3  UNL     1     -27.316 -16.459  -3.758  1.00  0.00    -0.267 OA
HETATM   20  C17 UNL     1     -26.391 -15.436  -1.925  1.00  0.00     0.074 A 
ENDROOT
BRANCH   6  21
HETATM   21  N4  UNL     1     -28.515 -17.267  -2.438  1.00  0.00    -0.374 N 
ATOM     22  H4  UNL     1     -28.211 -16.711  -3.237  1.00  0.00     0.161 HD
BRANCH  21  23
HETATM   23  C4  UNL     1     -29.272 -18.489  -2.719  1.00  0.00     0.125 C 
BRANCH  23  24
HETATM   24  C5  UNL     1     -30.292 -18.344  -3.786  1.00  0.00    -0.005 C 
HETATM   25  C6  UNL     1     -31.405 -19.391  -3.617  1.00  0.00     0.011 C 
HETATM   26  C7  UNL     1     -29.611 -18.655  -5.118  1.00  0.00     0.011 C 
ENDBRANCH  23  24
ENDBRANCH  21  23
ENDBRANCH   6  21
BRANCH   1  27
HETATM   27  N1  UNL     1     -27.671 -15.845   2.578  1.00  0.00    -0.379 N 
HETATM   28  C1  UNL     1     -28.378 -16.432   3.677  1.00  0.00     0.147 C 
ATOM     29  H1  UNL     1     -26.983 -15.123   2.789  1.00  0.00     0.160 HD
ENDBRANCH   1  27
BRANCH  15  30
HETATM   30  C15 UNL     1     -23.799 -13.695  -4.727  1.00  0.00     0.221 C 
BRANCH  30  31
HETATM   31  O2  UNL     1     -24.159 -14.005  -6.034  1.00  0.00    -0.395 OA
ATOM     32  H2  UNL     1     -23.525 -14.577  -6.451  1.00  0.00     0.209 HD
ENDBRANCH  30  31
ENDBRANCH  15  30
TORSDOF 6
ENDMDL
MODEL 4
REMARK VINA RESULT: -6.832603309      3.558      4.562
REMARK  6 active torsions:
REMARK  status: ('A' for Active; 'I' for Inactive)
REMARK    1  A    between atoms: N1_2  and  C2_4 
REMARK    2  A    between atoms: C3_9  and  N4_10 
REMARK    3  A    between atoms: N4_10  and  C4_12 
REMARK    4  A    between atoms: C4_12  and  C5_13 
REMARK    5  A    between atoms: C14_24  and  C15_25 
REMARK    6  A    between atoms: C15_25  and  O2_26 
ROOT
HETATM    1  C2  UNL     1     -29.323 -13.278   0.003  1.00  0.00     0.132 A 
HETATM    2  N2  UNL     1     -29.838 -13.550  -1.191  1.00  0.00    -0.283 N 
ATOM      3  H2  UNL     1     -30.471 -12.874  -1.617  1.00  0.00     0.188 HD
HETATM    4  N3  UNL     1     -29.563 -14.659  -1.847  1.00  0.00    -0.283 N 
ATOM      5  H3  UNL     1     -29.991 -14.810  -2.761  1.00  0.00     0.188 HD
HETATM    6  C3  UNL     1     -28.719 -15.619  -1.340  1.00  0.00     0.128 A 
HETATM    7  C8  UNL     1     -28.176 -15.375  -0.127  1.00  0.00     0.046 A 
HETATM    8  C9  UNL     1     -28.480 -14.181   0.567  1.00  0.00     0.092 A 
HETATM    9  C10 UNL     1     -27.922 -13.939   1.807  1.00  0.00     0.262 A 
HETATM   10  O1  UNL     1     -28.241 -12.848   2.366  1.00  0.00    -0.267 OA
HETATM   11  N5  UNL     1     -27.094 -14.810   2.378  1.00  0.00    -0.317 N 
HETATM   12  C11 UNL     1     -26.508 -14.566   3.672  1.00  0.00     0.159 C 
HETATM   13  C12 UNL     1     -26.794 -15.950   1.734  1.00  0.00     0.055 A 
HETATM   14  C13 UNL     1     -25.929 -16.852   2.338  1.00  0.00     0.058 A 
HETATM   15  C14 UNL     1     -25.609 -18.018   1.699  1.00  0.00     0.038 A 
HETATM   16  N6  UNL     1     -26.119 -18.299   0.504  1.00  0.00    -0.324 N 
ATOM     17  H6  UNL     1     -25.863 -19.176   0.051  1.00  0.00     0.169 HD
HETATM   18  C16 UNL     1     -26.980 -17.442  -0.140  1.00  0.00     0.259 A 
HETATM   19  O3  UNL     1     -27.335 -17.860  -1.202  1.00  0.00    -0.267 OA
HETATM   20  C17 UNL     1     -27.311 -16.287   0.469  1.00  0.00     0.074 A 
ENDROOT
BRANCH   6  21
HETATM   21  N4  UNL     1     -28.562 -16.606  -2.073  1.00  0.00    -0.374 N 
ATOM     22  H4  UNL     1     -28.039 -17.393  -1.691  1.00  0.00     0.161 HD
BRANCH  21  23
HETATM   23  C4  UNL     1     -29.065 -16.737  -3.443  1.00  0.00     0.125 C 
BRANCH  23  24
HETATM   24  C5  UNL     1     -29.359 -18.132  -3.854  1.00  0.00    -0.005 C 
HETATM   25  C6  UNL     1     -30.206 -18.150  -5.138  1.00  0.00     0.011 C 
HETATM   26  C7  UNL     1     -30.224 -18.760  -2.763  1.00  0.00     0.011 C 
ENDBRANCH  23  24
ENDBRANCH  21  23
ENDBRANCH   6  21
BRANCH   1  27
HETATM   27  N1  UNL     1     -29.604 -12.189   0.627  1.00  0.00    -0.379 N 
HETATM   28  C1  UNL     1     -29.635 -10.889   0.026  1.00  0.00     0.147 C 
ATOM     29  H1  UNL     1     -29.821 -12.255   1.621  1.00  0.00     0.160 HD
ENDBRANCH   1  27
BRANCH  15  30
HETATM   30  C15 UNL     1     -24.688 -18.955   2.366  1.00  0.00     0.221 C 
BRANCH  30  31
HETATM   31  O2  UNL     1     -23.516 -19.141   1.640  1.00  0.00    -0.395 OA
ATOM     32  H2  UNL     1     -23.531 -18.671   0.815  1.00  0.00     0.209 HD
ENDBRANCH  30  31
ENDBRANCH  15  30
TORSDOF 6
ENDMDL
MODEL 5
REMARK VINA RESULT: -6.661763991      2.909      5.892
REMARK  6 active torsions:
REMARK  status: ('A' for Active; 'I' for Inactive)
REMARK    1  A    between atoms: N1_2  and  C2_4 
REMARK    2  A    between atoms: C3_9  and  N4_10 
REMARK    3  A    between atoms: N4_10  and  C4_12 
REMARK    4  A    between atoms: C4_12  and  C5_13 
REMARK    5  A    between atoms: C14_24  and  C15_25 
REMARK    6  A    between atoms: C15_25  and  O2_26 
ROOT
HETATM    1  C2  UNL     1     -24.584 -14.464   0.390  1.00  0.00     0.132 A 
HETATM    2  N2  UNL     1     -23.842 -13.599  -0.292  1.00  0.00    -0.283 N 
ATOM      3  H2  UNL     1     -23.127 -13.068   0.205  1.00  0.00     0.188 HD
HETATM    4  N3  UNL     1     -23.991 -13.401  -1.585  1.00  0.00    -0.283 N 
ATOM      5  H3  UNL     1     -23.390 -12.723  -2.053  1.00  0.00     0.188 HD
HETATM    6  C3  UNL     1     -24.931 -14.078  -2.326  1.00  0.00     0.128 A 
HETATM    7  C8  UNL     1     -25.705 -14.967  -1.663  1.00  0.00     0.046 A 
HETATM    8  C9  UNL     1     -25.535 -15.170  -0.275  1.00  0.00     0.092 A 
HETATM    9  C10 UNL     1     -26.330 -16.079   0.396  1.00  0.00     0.262 A 
HETATM   10  O1  UNL     1     -26.118 -16.205   1.638  1.00  0.00    -0.267 OA
HETATM   11  N5  UNL     1     -27.267 -16.780  -0.236  1.00  0.00    -0.317 N 
HETATM   12  C11 UNL     1     -28.102 -17.730   0.455  1.00  0.00     0.159 C 
HETATM   13  C12 UNL     1     -27.444 -16.601  -1.556  1.00  0.00     0.055 A 
HETATM   14  C13 UNL     1     -28.423 -17.338  -2.206  1.00  0.00     0.058 A 
HETATM   15  C14 UNL     1     -28.619 -17.172  -3.550  1.00  0.00     0.038 A 
HETATM   16  N6  UNL     1     -27.880 -16.310  -4.241  1.00  0.00    -0.324 N 
ATOM     17  H6  UNL     1     -28.048 -16.206  -5.242  1.00  0.00     0.169 HD
HETATM   18  C16 UNL     1     -26.897 -15.555  -3.648  1.00  0.00     0.259 A 
HETATM   19  O3  UNL     1     -26.337 -14.837  -4.424  1.00  0.00    -0.267 OA
HETATM   20  C17 UNL     1     -26.685 -15.699  -2.326  1.00  0.00     0.074 A 
ENDROOT
BRANCH   6  21
HETATM   21  N4  UNL     1     -24.952 -13.781  -3.529  1.00  0.00    -0.374 N 
ATOM     22  H4  UNL     1     -25.726 -14.143  -4.086  1.00  0.00     0.161 HD
BRANCH  21  23
HETATM   23  C4  UNL     1     -23.959 -12.953  -4.218  1.00  0.00     0.125 C 
BRANCH  23  24
HETATM   24  C5  UNL     1     -23.438 -13.544  -5.475  1.00  0.00    -0.005 C 
HETATM   25  C6  UNL     1     -22.506 -14.729  -5.171  1.00  0.00     0.011 C 
HETATM   26  C7  UNL     1     -22.574 -12.484  -6.157  1.00  0.00     0.011 C 
ENDBRANCH  23  24
ENDBRANCH  21  23
ENDBRANCH   6  21
BRANCH   1  27
HETATM   27  N1  UNL     1     -24.422 -14.643   1.655  1.00  0.00    -0.379 N 
HETATM   28  C1  UNL     1     -23.171 -14.521   2.341  1.00  0.00     0.147 C 
ATOM     29  H1  UNL     1     -25.243 -14.889   2.207  1.00  0.00     0.160 HD
ENDBRANCH   1  27
BRANCH  15  30
HETATM   30  C15 UNL     1     -29.667 -17.970  -4.211  1.00  0.00     0.221 C 
BRANCH  30  31
HETATM   31  O2  UNL     1     -29.138 -18.854  -5.146  1.00  0.00    -0.395 OA
ATOM     32  H2  UNL     1     -29.764 -19.522  -5.398  1.00  0.00     0.209 HD
ENDBRANCH  30  31
ENDBRANCH  15  30
TORSDOF 6
ENDMDL
