MODEL 1
REMARK VINA RESULT: -6.370664735      0.000      0.000
REMARK  7 active torsions:
REMARK  status: ('A' for Active; 'I' for Inactive)
REMARK    1  A    between atoms: S1_2  and  C3_4 
REMARK    2  A    between atoms: C4_5  and  C5_6 
REMARK    3  A    between atoms: C6_8  and  C7_9 
REMARK    4  A    between atoms: C7_9  and  O2_10 
REMARK    5  A    between atoms: C8_12  and  O3_13 
REMARK    6  A    between atoms: C9_15  and  O4_16 
REMARK    7  A    between atoms: C10_18  and  O5_19 
ROOT
HETATM    1  C5  UNL     1      -0.610  32.197  26.791  1.00  0.00     0.194 C 
HETATM    2  O1  UNL     1      -1.482  33.245  26.561  1.00  0.00    -0.368 OA
HETATM    3  C6  UNL     1      -1.433  33.928  25.417  1.00  0.00     0.177 C 
HETATM    4  C8  UNL     1      -0.570  33.302  24.384  1.00  0.00     0.180 C 
HETATM    5  C9  UNL     1       0.783  32.868  24.849  1.00  0.00     0.181 C 
HETATM    6  C10 UNL     1       0.787  32.500  26.334  1.00  0.00     0.183 C 
ENDROOT
BRANCH   1   7
HETATM    7  C4  UNL     1      -0.777  31.650  28.134  1.00  0.00     0.022 C 
HETATM    8  C3  UNL     1      -0.442  30.559  28.777  1.00  0.00    -0.008 C 
HETATM    9  C12 UNL     1      -0.832  30.481  30.184  1.00  0.00    -0.005 C 
HETATM   10  C11 UNL     1      -2.164  31.169  30.394  1.00  0.00     0.093 C 
HETATM   11  C13 UNL     1      -1.039  29.054  30.622  1.00  0.00     0.021 C 
HETATM   12  C14 UNL     1       0.151  31.146  31.121  1.00  0.00     0.021 C 
HETATM   13  S2  UNL     1      -1.756  32.625  29.343  1.00  0.00    -0.129 SA
BRANCH   8  14
HETATM   14  S1  UNL     1       0.465  29.230  28.034  1.00  0.00    -0.196 SA
HETATM   15  C1  UNL     1      -0.217  28.706  26.515  1.00  0.00     0.083 C 
HETATM   16  C2  UNL     1       2.185  29.541  27.994  1.00  0.00     0.083 C 
ENDBRANCH   8  14
ENDBRANCH   1   7
BRANCH   6  17
HETATM   17  O5  UNL     1       1.400  33.528  27.051  1.00  0.00    -0.390 OA
ATOM     18  H5  UNL     1       2.346  33.544  26.961  1.00  0.00     0.210 HD
ENDBRANCH   6  17
BRANCH   3  19
HETATM   19  C7  UNL     1      -1.210  35.420  25.558  1.00  0.00     0.198 C 
BRANCH  19  20
HETATM   20  O2  UNL     1      -0.785  35.752  26.843  1.00  0.00    -0.398 OA
ATOM     21  H2  UNL     1      -0.010  36.300  26.822  1.00  0.00     0.209 HD
ENDBRANCH  19  20
ENDBRANCH   3  19
BRANCH   5  22
HETATM   22  O4  UNL     1       1.187  31.807  24.042  1.00  0.00    -0.390 OA
ATOM     23  H4  UNL     1       2.085  31.596  24.271  1.00  0.00     0.210 HD
ENDBRANCH   5  22
BRANCH   4  24
HETATM   24  O3  UNL     1      -1.272  32.226  23.822  1.00  0.00    -0.390 OA
ATOM     25  H3  UNL     1      -1.505  32.458  22.930  1.00  0.00     0.210 HD
ENDBRANCH   4  24
TORSDOF 7
ENDMDL
MODEL 2
REMARK VINA RESULT: -5.792209022      1.464      1.663
REMARK  7 active torsions:
REMARK  status: ('A' for Active; 'I' for Inactive)
REMARK    1  A    between atoms: S1_2  and  C3_4 
REMARK    2  A    between atoms: C4_5  and  C5_6 
REMARK    3  A    between atoms: C6_8  and  C7_9 
REMARK    4  A    between atoms: C7_9  and  O2_10 
REMARK    5  A    between atoms: C8_12  and  O3_13 
REMARK    6  A    between atoms: C9_15  and  O4_16 
REMARK    7  A    between atoms: C10_18  and  O5_19 
ROOT
HETATM    1  C5  UNL     1       0.518  31.676  27.258  1.00  0.00     0.194 C 
HETATM    2  O1  UNL     1      -0.647  32.416  27.193  1.00  0.00    -0.368 OA
HETATM    3  C6  UNL     1      -1.053  32.942  26.036  1.00  0.00     0.177 C 
HETATM    4  C8  UNL     1      -0.296  32.449  24.858  1.00  0.00     0.180 C 
HETATM    5  C9  UNL     1       1.193  32.453  24.999  1.00  0.00     0.181 C 
HETATM    6  C10 UNL     1       1.631  32.284  26.454  1.00  0.00     0.183 C 
ENDROOT
BRANCH   1   7
HETATM    7  C4  UNL     1       0.818  31.273  28.628  1.00  0.00     0.022 C 
HETATM    8  C3  UNL     1       1.478  30.312  29.226  1.00  0.00    -0.008 C 
HETATM    9  C12 UNL     1       1.514  30.352  30.687  1.00  0.00    -0.005 C 
HETATM   10  C11 UNL     1       0.207  30.895  31.226  1.00  0.00     0.093 C 
HETATM   11  C13 UNL     1       1.652  28.971  31.274  1.00  0.00     0.021 C 
HETATM   12  C14 UNL     1       2.611  31.234  31.240  1.00  0.00     0.021 C 
HETATM   13  S2  UNL     1       0.084  32.258  29.993  1.00  0.00    -0.129 SA
BRANCH   8  14
HETATM   14  S1  UNL     1       2.327  29.024  28.353  1.00  0.00    -0.196 SA
HETATM   15  C1  UNL     1       1.292  28.152  27.251  1.00  0.00     0.083 C 
HETATM   16  C2  UNL     1       3.834  29.574  27.660  1.00  0.00     0.083 C 
ENDBRANCH   8  14
ENDBRANCH   1   7
BRANCH   6  17
HETATM   17  O5  UNL     1       2.063  33.518  26.940  1.00  0.00    -0.390 OA
ATOM     18  H5  UNL     1       2.462  33.470  27.801  1.00  0.00     0.210 HD
ENDBRANCH   6  17
BRANCH   3  19
HETATM   19  C7  UNL     1      -1.244  34.445  26.036  1.00  0.00     0.198 C 
BRANCH  19  20
HETATM   20  O2  UNL     1      -0.570  35.045  27.098  1.00  0.00    -0.398 OA
ATOM     21  H2  UNL     1      -0.681  35.988  27.091  1.00  0.00     0.209 HD
ENDBRANCH  19  20
ENDBRANCH   3  19
BRANCH   5  22
HETATM   22  O4  UNL     1       1.698  31.448  24.176  1.00  0.00    -0.390 OA
ATOM     23  H4  UNL     1       1.919  31.843  23.341  1.00  0.00     0.210 HD
ENDBRANCH   5  22
BRANCH   4  24
HETATM   24  O3  UNL     1      -0.762  31.163  24.546  1.00  0.00    -0.390 OA
ATOM     25  H3  UNL     1      -1.521  31.253  23.982  1.00  0.00     0.210 HD
ENDBRANCH   4  24
TORSDOF 7
ENDMDL
MODEL 3
REMARK VINA RESULT: -5.591765940      1.570      1.969
REMARK  7 active torsions:
REMARK  status: ('A' for Active; 'I' for Inactive)
REMARK    1  A    between atoms: S1_2  and  C3_4 
REMARK    2  A    between atoms: C4_5  and  C5_6 
REMARK    3  A    between atoms: C6_8  and  C7_9 
REMARK    4  A    between atoms: C7_9  and  O2_10 
REMARK    5  A    between atoms: C8_12  and  O3_13 
REMARK    6  A    between atoms: C9_15  and  O4_16 
REMARK    7  A    between atoms: C10_18  and  O5_19 
ROOT
HETATM    1  C5  UNL     1       0.435  31.544  27.074  1.00  0.00     0.194 C 
HETATM    2  O1  UNL     1      -0.450  32.014  26.122  1.00  0.00    -0.368 OA
HETATM    3  C6  UNL     1      -0.059  32.183  24.857  1.00  0.00     0.177 C 
HETATM    4  C8  UNL     1       1.271  31.594  24.561  1.00  0.00     0.180 C 
HETATM    5  C9  UNL     1       2.353  31.913  25.541  1.00  0.00     0.181 C 
HETATM    6  C10 UNL     1       1.798  32.160  26.945  1.00  0.00     0.183 C 
ENDROOT
BRANCH   1   7
HETATM    7  C4  UNL     1      -0.172  31.521  28.400  1.00  0.00     0.022 C 
HETATM    8  C3  UNL     1       0.119  31.041  29.584  1.00  0.00    -0.008 C 
HETATM    9  C12 UNL     1      -0.838  31.311  30.656  1.00  0.00    -0.005 C 
HETATM   10  C11 UNL     1      -2.249  31.312  30.106  1.00  0.00     0.093 C 
HETATM   11  C13 UNL     1      -0.812  30.231  31.706  1.00  0.00     0.021 C 
HETATM   12  C14 UNL     1      -0.633  32.652  31.324  1.00  0.00     0.021 C 
HETATM   13  S2  UNL     1      -1.830  32.285  28.599  1.00  0.00    -0.129 SA
BRANCH   8  14
HETATM   14  S1  UNL     1       1.600  30.130  29.928  1.00  0.00    -0.196 SA
HETATM   15  C1  UNL     1       1.895  28.851  28.778  1.00  0.00     0.083 C 
HETATM   16  C2  UNL     1       2.969  31.176  30.224  1.00  0.00     0.083 C 
ENDBRANCH   8  14
ENDBRANCH   1   7
BRANCH   6  17
HETATM   17  O5  UNL     1       1.820  33.530  27.204  1.00  0.00    -0.390 OA
ATOM     18  H5  UNL     1       1.264  34.037  26.624  1.00  0.00     0.210 HD
ENDBRANCH   6  17
BRANCH   3  19
HETATM   19  C7  UNL     1      -0.230  33.583  24.304  1.00  0.00     0.198 C 
BRANCH  19  20
HETATM   20  O2  UNL     1      -0.280  34.531  25.324  1.00  0.00    -0.398 OA
ATOM     21  H2  UNL     1      -0.783  34.217  26.065  1.00  0.00     0.209 HD
ENDBRANCH  19  20
ENDBRANCH   3  19
BRANCH   5  22
HETATM   22  O4  UNL     1       3.272  30.867  25.513  1.00  0.00    -0.390 OA
ATOM     23  H4  UNL     1       4.135  31.244  25.399  1.00  0.00     0.210 HD
ENDBRANCH   5  22
BRANCH   4  24
HETATM   24  O3  UNL     1       1.114  30.206  24.427  1.00  0.00    -0.390 OA
ATOM     25  H3  UNL     1       0.205  30.030  24.212  1.00  0.00     0.210 HD
ENDBRANCH   4  24
TORSDOF 7
ENDMDL
MODEL 4
REMARK VINA RESULT: -5.570470610      1.904      2.367
REMARK  7 active torsions:
REMARK  status: ('A' for Active; 'I' for Inactive)
REMARK    1  A    between atoms: S1_2  and  C3_4 
REMARK    2  A    between atoms: C4_5  and  C5_6 
REMARK    3  A    between atoms: C6_8  and  C7_9 
REMARK    4  A    between atoms: C7_9  and  O2_10 
REMARK    5  A    between atoms: C8_12  and  O3_13 
REMARK    6  A    between atoms: C9_15  and  O4_16 
REMARK    7  A    between atoms: C10_18  and  O5_19 
ROOT
HETATM    1  C5  UNL     1       1.342  31.336  27.356  1.00  0.00     0.194 C 
HETATM    2  O1  UNL     1       0.139  31.876  26.943  1.00  0.00    -0.368 OA
HETATM    3  C6  UNL     1      -0.042  32.235  25.671  1.00  0.00     0.177 C 
HETATM    4  C8  UNL     1       1.035  31.770  24.761  1.00  0.00     0.180 C 
HETATM    5  C9  UNL     1       2.431  32.018  25.233  1.00  0.00     0.181 C 
HETATM    6  C10 UNL     1       2.524  32.042  26.760  1.00  0.00     0.183 C 
ENDROOT
BRANCH   1   7
HETATM    7  C4  UNL     1       1.353  31.099  28.796  1.00  0.00     0.022 C 
HETATM    8  C3  UNL     1       1.964  30.301  29.636  1.00  0.00    -0.008 C 
HETATM    9  C12 UNL     1       1.645  30.470  31.053  1.00  0.00    -0.005 C 
HETATM   10  C11 UNL     1       0.192  30.860  31.217  1.00  0.00     0.093 C 
HETATM   11  C13 UNL     1       1.808  29.180  31.814  1.00  0.00     0.021 C 
HETATM   12  C14 UNL     1       2.462  31.548  31.730  1.00  0.00     0.021 C 
HETATM   13  S2  UNL     1       0.199  32.079  29.836  1.00  0.00    -0.129 SA
BRANCH   8  14
HETATM   14  S1  UNL     1       3.148  29.081  29.134  1.00  0.00    -0.196 SA
HETATM   15  C1  UNL     1       2.514  27.964  27.952  1.00  0.00     0.083 C 
HETATM   16  C2  UNL     1       4.692  29.787  28.717  1.00  0.00     0.083 C 
ENDBRANCH   8  14
ENDBRANCH   1   7
BRANCH   6  17
HETATM   17  O5  UNL     1       2.659  33.364  27.183  1.00  0.00    -0.390 OA
ATOM     18  H5  UNL     1       3.406  33.508  27.752  1.00  0.00     0.210 HD
ENDBRANCH   6  17
BRANCH   3  19
HETATM   19  C7  UNL     1      -0.426  33.684  25.451  1.00  0.00     0.198 C 
BRANCH  19  20
HETATM   20  O2  UNL     1      -0.022  34.485  26.517  1.00  0.00    -0.398 OA
ATOM     21  H2  UNL     1       0.428  35.264  26.214  1.00  0.00     0.209 HD
ENDBRANCH  19  20
ENDBRANCH   3  19
BRANCH   5  22
HETATM   22  O4  UNL     1       3.248  31.041  24.670  1.00  0.00    -0.390 OA
ATOM     23  H4  UNL     1       3.400  30.376  25.331  1.00  0.00     0.210 HD
ENDBRANCH   5  22
BRANCH   4  24
HETATM   24  O3  UNL     1       0.831  30.406  24.505  1.00  0.00    -0.390 OA
ATOM     25  H3  UNL     1       0.644  29.974  25.331  1.00  0.00     0.210 HD
ENDBRANCH   4  24
TORSDOF 7
ENDMDL
MODEL 5
REMARK VINA RESULT: -5.327539072      2.289      4.298
REMARK  7 active torsions:
REMARK  status: ('A' for Active; 'I' for Inactive)
REMARK    1  A    between atoms: S1_2  and  C3_4 
REMARK    2  A    between atoms: C4_5  and  C5_6 
REMARK    3  A    between atoms: C6_8  and  C7_9 
REMARK    4  A    between atoms: C7_9  and  O2_10 
REMARK    5  A    between atoms: C8_12  and  O3_13 
REMARK    6  A    between atoms: C9_15  and  O4_16 
REMARK    7  A    between atoms: C10_18  and  O5_19 
ROOT
HETATM    1  C5  UNL     1       0.992  32.386  27.738  1.00  0.00     0.194 C 
HETATM    2  O1  UNL     1       1.308  33.090  26.591  1.00  0.00    -0.368 OA
HETATM    3  C6  UNL     1       0.348  33.655  25.856  1.00  0.00     0.177 C 
HETATM    4  C8  UNL     1      -0.982  33.662  26.516  1.00  0.00     0.180 C 
HETATM    5  C9  UNL     1      -1.412  32.363  27.118  1.00  0.00     0.181 C 
HETATM    6  C10 UNL     1      -0.219  31.516  27.563  1.00  0.00     0.183 C 
ENDROOT
BRANCH   1   7
HETATM    7  C4  UNL     1       2.178  31.781  28.335  1.00  0.00     0.022 C 
HETATM    8  C3  UNL     1       2.584  31.437  29.532  1.00  0.00    -0.008 C 
HETATM    9  C12 UNL     1       3.903  30.812  29.623  1.00  0.00    -0.005 C 
HETATM   10  C11 UNL     1       4.835  31.410  28.591  1.00  0.00     0.093 C 
HETATM   11  C13 UNL     1       4.550  31.078  30.957  1.00  0.00     0.021 C 
HETATM   12  C14 UNL     1       3.882  29.320  29.375  1.00  0.00     0.021 C 
HETATM   13  S2  UNL     1       3.594  31.396  27.231  1.00  0.00    -0.129 SA
BRANCH   8  14
HETATM   14  S1  UNL     1       1.611  31.669  30.995  1.00  0.00    -0.196 SA
HETATM   15  C1  UNL     1       1.215  33.343  31.291  1.00  0.00     0.083 C 
HETATM   16  C2  UNL     1       0.250  30.573  31.067  1.00  0.00     0.083 C 
ENDBRANCH   8  14
ENDBRANCH   1   7
BRANCH   6  17
HETATM   17  O5  UNL     1      -0.036  30.480  26.647  1.00  0.00    -0.390 OA
ATOM     18  H5  UNL     1      -0.679  29.784  26.726  1.00  0.00     0.210 HD
ENDBRANCH   6  17
BRANCH   3  19
HETATM   19  C7  UNL     1       0.294  33.216  24.407  1.00  0.00     0.198 C 
BRANCH  19  20
HETATM   20  O2  UNL     1       1.041  32.058  24.197  1.00  0.00    -0.398 OA
ATOM     21  H2  UNL     1       1.798  32.026  24.769  1.00  0.00     0.209 HD
ENDBRANCH  19  20
ENDBRANCH   3  19
BRANCH   5  22
HETATM   22  O4  UNL     1      -2.276  32.651  28.172  1.00  0.00    -0.390 OA
ATOM     23  H4  UNL     1      -1.797  33.174  28.803  1.00  0.00     0.210 HD
ENDBRANCH   5  22
BRANCH   4  24
HETATM   24  O3  UNL     1      -0.986  34.683  27.478  1.00  0.00    -0.390 OA
ATOM     25  H3  UNL     1      -0.098  34.793  27.797  1.00  0.00     0.210 HD
ENDBRANCH   4  24
TORSDOF 7
ENDMDL
