MODEL 1
REMARK VINA RESULT: -8.019206744      0.000      0.000
REMARK  4 active torsions:
REMARK  status: ('A' for Active; 'I' for Inactive)
REMARK    1  A    between atoms: O1_2  and  C2_3 
REMARK    2  A    between atoms: N2_19  and  C14_20 
REMARK    3  A    between atoms: C14_20  and  C15_21 
REMARK    4  A    between atoms: C15_21  and  C16_22 
ROOT
HETATM    1  C2  UNL     1     -29.793  27.805  95.983  1.00  0.00     0.090 A 
HETATM    2  C3  UNL     1     -28.865  27.559  94.990  1.00  0.00     0.048 A 
HETATM    3  C4  UNL     1     -28.933  28.255  93.788  1.00  0.00    -0.023 A 
HETATM    4  C5  UNL     1     -29.940  29.183  93.626  1.00  0.00     0.043 A 
HETATM    5  C6  UNL     1     -30.887  29.441  94.624  1.00  0.00     0.056 A 
HETATM    6  C7  UNL     1     -30.803  28.742  95.806  1.00  0.00     0.069 A 
HETATM    7 CL1  UNL     1     -31.963  29.027  97.085  1.00  0.00    -0.081 Cl
HETATM    8  N1  UNL     1     -30.058  29.970  92.447  1.00  0.00    -0.326 N 
ATOM      9  H1  UNL     1     -30.805  30.654  92.326  1.00  0.00     0.169 HD
HETATM   10  C8  UNL     1     -29.059  29.742  91.431  1.00  0.00     0.227 C 
HETATM   11  O2  UNL     1     -29.289  29.888  90.222  1.00  0.00    -0.273 OA
HETATM   12  C9  UNL     1     -27.746  29.322  91.977  1.00  0.00     0.089 C 
HETATM   13  C10 UNL     1     -26.737  28.899  90.973  1.00  0.00     0.051 C 
HETATM   14  C11 UNL     1     -25.852  27.959  91.789  1.00  0.00     0.230 A 
HETATM   15  C12 UNL     1     -26.634  27.574  93.026  1.00  0.00     0.057 A 
HETATM   16  C13 UNL     1     -25.745  28.476  93.807  1.00  0.00     0.280 A 
HETATM   17  N2  UNL     1     -24.966  28.741  92.616  1.00  0.00     0.094 N 
HETATM   18  C21 UNL     1     -28.010  28.014  92.696  1.00  0.00     0.042 C 
ENDROOT
BRANCH  17  19
HETATM   19  C14 UNL     1     -23.618  28.158  92.647  1.00  0.00     0.273 C 
BRANCH  19  20
HETATM   20  C15 UNL     1     -23.354  27.543  91.334  1.00  0.00     0.034 C 
BRANCH  20  21
HETATM   21  C16 UNL     1     -23.315  26.059  91.287  1.00  0.00    -0.013 C 
HETATM   22  C17 UNL     1     -24.123  25.407  90.244  1.00  0.00     0.005 C 
HETATM   23  C18 UNL     1     -25.212  24.688  90.982  1.00  0.00     0.000 C 
HETATM   24  C19 UNL     1     -24.489  24.178  92.226  1.00  0.00     0.000 C 
HETATM   25  C20 UNL     1     -23.705  25.438  92.617  1.00  0.00     0.005 C 
ENDBRANCH  20  21
ENDBRANCH  19  20
ENDBRANCH  17  19
BRANCH   1  26
HETATM   26  O1  UNL     1     -29.764  27.138  97.193  1.00  0.00    -0.354 OA
HETATM   27  C1  UNL     1     -29.038  25.970  97.457  1.00  0.00     0.210 C 
ENDBRANCH   1  26
TORSDOF 4
ENDMDL
MODEL 2
REMARK VINA RESULT: -7.724687983      2.049      3.639
REMARK  4 active torsions:
REMARK  status: ('A' for Active; 'I' for Inactive)
REMARK    1  A    between atoms: O1_2  and  C2_3 
REMARK    2  A    between atoms: N2_19  and  C14_20 
REMARK    3  A    between atoms: C14_20  and  C15_21 
REMARK    4  A    between atoms: C15_21  and  C16_22 
ROOT
HETATM    1  C2  UNL     1     -29.850  28.681  93.489  1.00  0.00     0.090 A 
HETATM    2  C3  UNL     1     -28.487  28.867  93.609  1.00  0.00     0.048 A 
HETATM    3  C4  UNL     1     -27.740  28.022  94.421  1.00  0.00    -0.023 A 
HETATM    4  C5  UNL     1     -28.395  27.009  95.090  1.00  0.00     0.043 A 
HETATM    5  C6  UNL     1     -29.776  26.811  94.978  1.00  0.00     0.056 A 
HETATM    6  C7  UNL     1     -30.498  27.658  94.169  1.00  0.00     0.069 A 
HETATM    7 CL1  UNL     1     -32.227  27.452  93.995  1.00  0.00    -0.081 Cl
HETATM    8  N1  UNL     1     -27.703  26.073  95.908  1.00  0.00    -0.326 N 
ATOM      9  H1  UNL     1     -28.189  25.326  96.404  1.00  0.00     0.169 HD
HETATM   10  C8  UNL     1     -26.273  26.243  95.993  1.00  0.00     0.227 C 
HETATM   11  O2  UNL     1     -25.621  25.929  97.000  1.00  0.00    -0.273 OA
HETATM   12  C9  UNL     1     -25.672  26.823  94.769  1.00  0.00     0.089 C 
HETATM   13  C10 UNL     1     -24.237  27.189  94.867  1.00  0.00     0.051 C 
HETATM   14  C11 UNL     1     -24.115  28.287  93.811  1.00  0.00     0.230 A 
HETATM   15  C12 UNL     1     -25.518  28.766  93.506  1.00  0.00     0.057 A 
HETATM   16  C13 UNL     1     -25.431  28.039  92.212  1.00  0.00     0.280 A 
HETATM   17  N2  UNL     1     -24.058  27.683  92.503  1.00  0.00     0.094 N 
HETATM   18  C21 UNL     1     -26.312  28.189  94.616  1.00  0.00     0.042 C 
ENDROOT
BRANCH  17  19
HETATM   19  C14 UNL     1     -23.075  28.362  91.648  1.00  0.00     0.273 C 
BRANCH  19  20
HETATM   20  C15 UNL     1     -22.902  27.558  90.424  1.00  0.00     0.034 C 
BRANCH  20  21
HETATM   21  C16 UNL     1     -22.976  26.083  90.579  1.00  0.00    -0.013 C 
HETATM   22  C17 UNL     1     -24.164  25.417  90.022  1.00  0.00     0.005 C 
HETATM   23  C18 UNL     1     -24.924  24.909  91.210  1.00  0.00     0.000 C 
HETATM   24  C19 UNL     1     -23.809  24.459  92.150  1.00  0.00     0.000 C 
HETATM   25  C20 UNL     1     -22.857  25.657  92.032  1.00  0.00     0.005 C 
ENDBRANCH  20  21
ENDBRANCH  19  20
ENDBRANCH  17  19
BRANCH   1  26
HETATM   26  O1  UNL     1     -30.632  29.495  92.692  1.00  0.00    -0.354 OA
HETATM   27  C1  UNL     1     -30.265  29.994  91.436  1.00  0.00     0.210 C 
ENDBRANCH   1  26
TORSDOF 4
ENDMDL
MODEL 3
REMARK VINA RESULT: -7.609725890      2.020      4.074
REMARK  4 active torsions:
REMARK  status: ('A' for Active; 'I' for Inactive)
REMARK    1  A    between atoms: O1_2  and  C2_3 
REMARK    2  A    between atoms: N2_19  and  C14_20 
REMARK    3  A    between atoms: C14_20  and  C15_21 
REMARK    4  A    between atoms: C15_21  and  C16_22 
ROOT
HETATM    1  C2  UNL     1     -30.229  29.302  93.539  1.00  0.00     0.090 A 
HETATM    2  C3  UNL     1     -29.000  28.676  93.471  1.00  0.00     0.048 A 
HETATM    3  C4  UNL     1     -28.535  27.941  94.556  1.00  0.00    -0.023 A 
HETATM    4  C5  UNL     1     -29.329  27.861  95.680  1.00  0.00     0.043 A 
HETATM    5  C6  UNL     1     -30.575  28.492  95.762  1.00  0.00     0.056 A 
HETATM    6  C7  UNL     1     -31.019  29.214  94.678  1.00  0.00     0.069 A 
HETATM    7 CL1  UNL     1     -32.570  30.022  94.730  1.00  0.00    -0.081 Cl
HETATM    8  N1  UNL     1     -28.951  27.096  96.819  1.00  0.00    -0.326 N 
ATOM      9  H1  UNL     1     -29.537  27.039  97.651  1.00  0.00     0.169 HD
HETATM   10  C8  UNL     1     -27.687  26.405  96.725  1.00  0.00     0.227 C 
HETATM   11  O2  UNL     1     -26.974  26.179  97.714  1.00  0.00    -0.273 OA
HETATM   12  C9  UNL     1     -27.336  25.999  95.344  1.00  0.00     0.089 C 
HETATM   13  C10 UNL     1     -25.969  25.449  95.162  1.00  0.00     0.051 C 
HETATM   14  C11 UNL     1     -25.694  25.758  93.692  1.00  0.00     0.230 A 
HETATM   15  C12 UNL     1     -26.693  26.813  93.266  1.00  0.00     0.057 A 
HETATM   16  C13 UNL     1     -27.416  25.752  92.515  1.00  0.00     0.280 A 
HETATM   17  N2  UNL     1     -26.385  24.798  92.868  1.00  0.00     0.094 N 
HETATM   18  C21 UNL     1     -27.238  27.292  94.558  1.00  0.00     0.042 C 
ENDROOT
BRANCH  17  19
HETATM   19  C14 UNL     1     -25.553  24.377  91.733  1.00  0.00     0.273 C 
BRANCH  19  20
HETATM   20  C15 UNL     1     -24.143  24.407  92.163  1.00  0.00     0.034 C 
BRANCH  20  21
HETATM   21  C16 UNL     1     -23.262  25.396  91.493  1.00  0.00    -0.013 C 
HETATM   22  C17 UNL     1     -22.884  26.585  92.274  1.00  0.00     0.005 C 
HETATM   23  C18 UNL     1     -23.567  27.734  91.597  1.00  0.00     0.000 C 
HETATM   24  C19 UNL     1     -23.452  27.365  90.120  1.00  0.00     0.000 C 
HETATM   25  C20 UNL     1     -23.850  25.884  90.181  1.00  0.00     0.005 C 
ENDBRANCH  20  21
ENDBRANCH  19  20
ENDBRANCH  17  19
BRANCH   1  26
HETATM   26  O1  UNL     1     -30.732  30.041  92.485  1.00  0.00    -0.354 OA
HETATM   27  C1  UNL     1     -30.155  30.136  91.212  1.00  0.00     0.210 C 
ENDBRANCH   1  26
TORSDOF 4
ENDMDL
MODEL 4
REMARK VINA RESULT: -7.550025604      2.146      4.160
REMARK  4 active torsions:
REMARK  status: ('A' for Active; 'I' for Inactive)
REMARK    1  A    between atoms: O1_2  and  C2_3 
REMARK    2  A    between atoms: N2_19  and  C14_20 
REMARK    3  A    between atoms: C14_20  and  C15_21 
REMARK    4  A    between atoms: C15_21  and  C16_22 
ROOT
HETATM    1  C2  UNL     1     -29.948  29.057  93.613  1.00  0.00     0.090 A 
HETATM    2  C3  UNL     1     -28.610  28.717  93.554  1.00  0.00     0.048 A 
HETATM    3  C4  UNL     1     -28.012  28.063  94.625  1.00  0.00    -0.023 A 
HETATM    4  C5  UNL     1     -28.787  27.770  95.727  1.00  0.00     0.043 A 
HETATM    5  C6  UNL     1     -30.143  28.109  95.800  1.00  0.00     0.056 A 
HETATM    6  C7  UNL     1     -30.717  28.756  94.730  1.00  0.00     0.069 A 
HETATM    7 CL1  UNL     1     -32.408  29.202  94.772  1.00  0.00    -0.081 Cl
HETATM    8  N1  UNL     1     -28.268  27.065  96.849  1.00  0.00    -0.326 N 
ATOM      9  H1  UNL     1     -28.840  26.851  97.665  1.00  0.00     0.169 HD
HETATM   10  C8  UNL     1     -26.882  26.672  96.763  1.00  0.00     0.227 C 
HETATM   11  O2  UNL     1     -26.153  26.572  97.760  1.00  0.00    -0.273 OA
HETATM   12  C9  UNL     1     -26.428  26.404  95.378  1.00  0.00     0.089 C 
HETATM   13  C10 UNL     1     -24.971  26.174  95.211  1.00  0.00     0.051 C 
HETATM   14  C11 UNL     1     -24.748  26.590  93.758  1.00  0.00     0.230 A 
HETATM   15  C12 UNL     1     -25.948  27.414  93.343  1.00  0.00     0.057 A 
HETATM   16  C13 UNL     1     -26.408  26.249  92.541  1.00  0.00     0.280 A 
HETATM   17  N2  UNL     1     -25.197  25.532  92.887  1.00  0.00     0.094 N 
HETATM   18  C21 UNL     1     -26.605  27.714  94.637  1.00  0.00     0.042 C 
ENDROOT
BRANCH  17  19
HETATM   19  C14 UNL     1     -24.276  25.345  91.759  1.00  0.00     0.273 C 
BRANCH  19  20
HETATM   20  C15 UNL     1     -23.242  26.394  91.834  1.00  0.00     0.034 C 
BRANCH  20  21
HETATM   21  C16 UNL     1     -23.335  27.495  90.841  1.00  0.00    -0.013 C 
HETATM   22  C17 UNL     1     -22.205  27.645  89.910  1.00  0.00     0.005 C 
HETATM   23  C18 UNL     1     -21.554  28.941  90.289  1.00  0.00     0.000 C 
HETATM   24  C19 UNL     1     -22.747  29.822  90.645  1.00  0.00     0.000 C 
HETATM   25  C20 UNL     1     -23.558  28.842  91.506  1.00  0.00     0.005 C 
ENDBRANCH  20  21
ENDBRANCH  19  20
ENDBRANCH  17  19
BRANCH   1  26
HETATM   26  O1  UNL     1     -30.584  29.706  92.572  1.00  0.00    -0.354 OA
HETATM   27  C1  UNL     1     -30.034  29.941  91.306  1.00  0.00     0.210 C 
ENDBRANCH   1  26
TORSDOF 4
ENDMDL
MODEL 5
REMARK VINA RESULT: -7.528710188      2.371      3.044
REMARK  4 active torsions:
REMARK  status: ('A' for Active; 'I' for Inactive)
REMARK    1  A    between atoms: O1_2  and  C2_3 
REMARK    2  A    between atoms: N2_19  and  C14_20 
REMARK    3  A    between atoms: C14_20  and  C15_21 
REMARK    4  A    between atoms: C15_21  and  C16_22 
ROOT
HETATM    1  C2  UNL     1     -30.857  28.828  95.821  1.00  0.00     0.090 A 
HETATM    2  C3  UNL     1     -29.857  27.889  95.653  1.00  0.00     0.048 A 
HETATM    3  C4  UNL     1     -29.778  27.163  94.470  1.00  0.00    -0.023 A 
HETATM    4  C5  UNL     1     -30.714  27.410  93.487  1.00  0.00     0.043 A 
HETATM    5  C6  UNL     1     -31.732  28.357  93.645  1.00  0.00     0.056 A 
HETATM    6  C7  UNL     1     -31.794  29.065  94.824  1.00  0.00     0.069 A 
HETATM    7 CL1  UNL     1     -33.048  30.260  95.071  1.00  0.00    -0.081 Cl
HETATM    8  N1  UNL     1     -30.682  26.745  92.230  1.00  0.00    -0.326 N 
ATOM      9  H1  UNL     1     -31.376  26.925  91.505  1.00  0.00     0.169 HD
HETATM   10  C8  UNL     1     -29.609  25.799  92.042  1.00  0.00     0.227 C 
HETATM   11  O2  UNL     1     -29.721  24.795  91.323  1.00  0.00    -0.273 OA
HETATM   12  C9  UNL     1     -28.376  26.147  92.787  1.00  0.00     0.089 C 
HETATM   13  C10 UNL     1     -27.305  25.119  92.777  1.00  0.00     0.051 C 
HETATM   14  C11 UNL     1     -26.549  25.434  94.066  1.00  0.00     0.230 A 
HETATM   15  C12 UNL     1     -27.460  26.294  94.916  1.00  0.00     0.057 A 
HETATM   16  C13 UNL     1     -26.598  27.457  94.575  1.00  0.00     0.280 A 
HETATM   17  N2  UNL     1     -25.700  26.580  93.851  1.00  0.00     0.094 N 
HETATM   18  C21 UNL     1     -28.775  26.140  94.249  1.00  0.00     0.042 C 
ENDROOT
BRANCH  17  19
HETATM   19  C14 UNL     1     -24.394  26.402  94.500  1.00  0.00     0.273 C 
BRANCH  19  20
HETATM   20  C15 UNL     1     -23.353  26.481  93.459  1.00  0.00     0.034 C 
BRANCH  20  21
HETATM   21  C16 UNL     1     -23.754  27.072  92.157  1.00  0.00    -0.013 C 
HETATM   22  C17 UNL     1     -23.013  26.621  90.968  1.00  0.00     0.005 C 
HETATM   23  C18 UNL     1     -22.236  27.818  90.511  1.00  0.00     0.000 C 
HETATM   24  C19 UNL     1     -23.208  28.965  90.773  1.00  0.00     0.000 C 
HETATM   25  C20 UNL     1     -23.696  28.589  92.179  1.00  0.00     0.005 C 
ENDBRANCH  20  21
ENDBRANCH  19  20
ENDBRANCH  17  19
BRANCH   1  26
HETATM   26  O1  UNL     1     -30.973  29.572  96.978  1.00  0.00    -0.354 OA
HETATM   27  C1  UNL     1     -32.017  29.470  97.907  1.00  0.00     0.210 C 
ENDBRANCH   1  26
TORSDOF 4
ENDMDL
