MODEL 1
REMARK VINA RESULT: -5.918302175      0.000      0.000
REMARK  6 active torsions:
REMARK  status: ('A' for Active; 'I' for Inactive)
REMARK    1  A    between atoms: C2_2  and  C3_3 
REMARK    2  A    between atoms: C3_3  and  C4_4 
REMARK    3  A    between atoms: C5_5  and  N1_6 
REMARK       I    between atoms: N2_9  and  C8_10 
REMARK    4  A    between atoms: C8_10  and  C9_12 
REMARK    5  A    between atoms: C9_12  and  N3_13 
REMARK    6  A    between atoms: C9_12  and  C10_17 
ROOT
HETATM    1  N1  UNL     1     -28.098  27.241  92.751  1.00  0.00    -0.377 N 
HETATM    2  C6  UNL     1     -29.145  26.338  93.165  1.00  0.00     0.143 C 
HETATM    3  C7  UNL     1     -30.481  26.998  92.797  1.00  0.00     0.145 C 
HETATM    4  N2  UNL     1     -30.550  28.292  93.494  1.00  0.00    -0.347 N 
HETATM    5  C8  UNL     1     -31.632  28.545  94.352  1.00  0.00     0.251 C 
HETATM    6  O1  UNL     1     -32.525  27.639  94.498  1.00  0.00    -0.271 OA
HETATM    7  C14 UNL     1     -29.468  29.217  93.231  1.00  0.00     0.145 C 
HETATM    8  C15 UNL     1     -28.471  28.561  92.269  1.00  0.00     0.143 C 
ENDROOT
BRANCH   1   9
HETATM    9  C5  UNL     1     -26.755  26.810  92.829  1.00  0.00     0.038 A 
HETATM   10  C4  UNL     1     -25.886  27.159  93.822  1.00  0.00    -0.021 A 
HETATM   11  C20 UNL     1     -24.571  26.677  93.787  1.00  0.00    -0.031 A 
HETATM   12  C19 UNL     1     -24.177  25.861  92.755  1.00  0.00     0.046 A 
HETATM   13  C21 UNL     1     -23.646  27.062  94.874  1.00  0.00     0.050 C 
HETATM   14  C17 UNL     1     -25.049  25.510  91.760  1.00  0.00    -0.037 A 
HETATM   15 CL1  UNL     1     -22.519  25.286  92.760  1.00  0.00    -0.083 Cl
HETATM   16  C16 UNL     1     -26.328  25.980  91.795  1.00  0.00     0.038 A 
HETATM   17  C18 UNL     1     -24.616  24.625  90.644  1.00  0.00     0.050 C 
BRANCH  10  18
HETATM   18  C3  UNL     1     -26.277  28.010  94.937  1.00  0.00     0.067 C 
BRANCH  18  19
HETATM   19  C2  UNL     1     -27.145  27.421  95.966  1.00  0.00    -0.032 C 
HETATM   20  C1  UNL     1     -26.753  26.322  96.639  1.00  0.00     0.007 C 
ENDBRANCH  18  19
ENDBRANCH  10  18
ENDBRANCH   1   9
BRANCH   5  21
HETATM   21  C9  UNL     1     -31.869  29.767  95.129  1.00  0.00     0.282 C 
BRANCH  21  22
HETATM   22  N3  UNL     1     -33.144  30.378  94.961  1.00  0.00    -0.066 N 
ATOM     23  H33 UNL     1     -33.103  31.353  95.257  1.00  0.00     0.275 HD
ATOM     24  H32 UNL     1     -33.342  30.496  93.967  1.00  0.00     0.275 HD
ATOM     25  H31 UNL     1     -33.929  29.911  95.416  1.00  0.00     0.275 HD
ENDBRANCH  21  22
BRANCH  21  26
HETATM   26  C10 UNL     1     -31.686  29.503  96.626  1.00  0.00    -0.014 C 
HETATM   27  C11 UNL     1     -32.999  29.132  97.279  1.00  0.00     0.017 C 
HETATM   28  C12 UNL     1     -31.252  30.827  97.260  1.00  0.00     0.017 C 
HETATM   29  C13 UNL     1     -30.596  28.514  96.890  1.00  0.00     0.017 C 
ENDBRANCH  21  26
ENDBRANCH   5  21
TORSDOF 6
ENDMDL
MODEL 2
REMARK VINA RESULT: -5.318848833      3.496      7.753
REMARK  6 active torsions:
REMARK  status: ('A' for Active; 'I' for Inactive)
REMARK    1  A    between atoms: C2_2  and  C3_3 
REMARK    2  A    between atoms: C3_3  and  C4_4 
REMARK    3  A    between atoms: C5_5  and  N1_6 
REMARK       I    between atoms: N2_9  and  C8_10 
REMARK    4  A    between atoms: C8_10  and  C9_12 
REMARK    5  A    between atoms: C9_12  and  N3_13 
REMARK    6  A    between atoms: C9_12  and  C10_17 
ROOT
HETATM    1  N1  UNL     1     -27.891  26.933  94.508  1.00  0.00    -0.377 N 
HETATM    2  C6  UNL     1     -27.948  25.714  93.739  1.00  0.00     0.143 C 
HETATM    3  C7  UNL     1     -26.659  24.934  94.033  1.00  0.00     0.145 C 
HETATM    4  N2  UNL     1     -25.522  25.785  93.649  1.00  0.00    -0.347 N 
HETATM    5  C8  UNL     1     -24.596  25.299  92.713  1.00  0.00     0.251 C 
HETATM    6  O1  UNL     1     -24.772  24.128  92.224  1.00  0.00    -0.271 OA
HETATM    7  C14 UNL     1     -25.454  27.084  94.283  1.00  0.00     0.145 C 
HETATM    8  C15 UNL     1     -26.660  27.251  95.214  1.00  0.00     0.143 C 
ENDROOT
BRANCH   1   9
HETATM    9  C5  UNL     1     -29.028  27.770  94.545  1.00  0.00     0.038 A 
HETATM   10  C4  UNL     1     -29.559  28.404  93.459  1.00  0.00    -0.021 A 
HETATM   11  C20 UNL     1     -30.686  29.221  93.622  1.00  0.00    -0.031 A 
HETATM   12  C19 UNL     1     -31.239  29.371  94.870  1.00  0.00     0.046 A 
HETATM   13  C21 UNL     1     -31.251  29.894  92.433  1.00  0.00     0.050 C 
HETATM   14  C17 UNL     1     -30.706  28.734  95.958  1.00  0.00    -0.037 A 
HETATM   15 CL1  UNL     1     -32.648  30.404  95.017  1.00  0.00    -0.083 Cl
HETATM   16  C16 UNL     1     -29.609  27.941  95.800  1.00  0.00     0.038 A 
HETATM   17  C18 UNL     1     -31.309  28.901  97.310  1.00  0.00     0.050 C 
BRANCH  10  18
HETATM   18  C3  UNL     1     -29.006  28.254  92.120  1.00  0.00     0.067 C 
BRANCH  18  19
HETATM   19  C2  UNL     1     -28.115  29.314  91.633  1.00  0.00    -0.032 C 
HETATM   20  C1  UNL     1     -28.212  29.756  90.364  1.00  0.00     0.007 C 
ENDBRANCH  18  19
ENDBRANCH  10  18
ENDBRANCH   1   9
BRANCH   5  21
HETATM   21  C9  UNL     1     -23.408  25.997  92.208  1.00  0.00     0.282 C 
BRANCH  21  22
HETATM   22  N3  UNL     1     -22.275  25.182  91.926  1.00  0.00    -0.066 N 
ATOM     23  H33 UNL     1     -21.998  24.673  92.764  1.00  0.00     0.275 HD
ATOM     24  H32 UNL     1     -22.550  24.407  91.322  1.00  0.00     0.275 HD
ATOM     25  H31 UNL     1     -21.466  25.660  91.528  1.00  0.00     0.275 HD
ENDBRANCH  21  22
BRANCH  21  26
HETATM   26  C10 UNL     1     -23.737  26.776  90.932  1.00  0.00    -0.014 C 
HETATM   27  C11 UNL     1     -24.026  25.838  89.780  1.00  0.00     0.017 C 
HETATM   28  C12 UNL     1     -22.473  27.549  90.545  1.00  0.00     0.017 C 
HETATM   29  C13 UNL     1     -24.817  27.786  91.155  1.00  0.00     0.017 C 
ENDBRANCH  21  26
ENDBRANCH   5  21
TORSDOF 6
ENDMDL
MODEL 3
REMARK VINA RESULT: -5.217247624      3.597      7.461
REMARK  6 active torsions:
REMARK  status: ('A' for Active; 'I' for Inactive)
REMARK    1  A    between atoms: C2_2  and  C3_3 
REMARK    2  A    between atoms: C3_3  and  C4_4 
REMARK    3  A    between atoms: C5_5  and  N1_6 
REMARK       I    between atoms: N2_9  and  C8_10 
REMARK    4  A    between atoms: C8_10  and  C9_12 
REMARK    5  A    between atoms: C9_12  and  N3_13 
REMARK    6  A    between atoms: C9_12  and  C10_17 
ROOT
HETATM    1  N1  UNL     1     -27.638  26.741  94.480  1.00  0.00    -0.377 N 
HETATM    2  C6  UNL     1     -27.734  25.590  93.614  1.00  0.00     0.143 C 
HETATM    3  C7  UNL     1     -26.441  24.783  93.792  1.00  0.00     0.145 C 
HETATM    4  N2  UNL     1     -25.312  25.658  93.437  1.00  0.00    -0.347 N 
HETATM    5  C8  UNL     1     -24.426  25.248  92.428  1.00  0.00     0.251 C 
HETATM    6  O1  UNL     1     -24.630  24.124  91.850  1.00  0.00    -0.271 OA
HETATM    7  C14 UNL     1     -25.210  26.899  94.175  1.00  0.00     0.145 C 
HETATM    8  C15 UNL     1     -26.379  26.992  95.162  1.00  0.00     0.143 C 
ENDROOT
BRANCH   1   9
HETATM    9  C5  UNL     1     -28.766  27.576  94.632  1.00  0.00     0.038 A 
HETATM   10  C4  UNL     1     -29.440  27.763  95.806  1.00  0.00    -0.021 A 
HETATM   11  C20 UNL     1     -30.555  28.610  95.831  1.00  0.00    -0.031 A 
HETATM   12  C19 UNL     1     -30.954  29.240  94.678  1.00  0.00     0.046 A 
HETATM   13  C21 UNL     1     -31.268  28.804  97.112  1.00  0.00     0.050 C 
HETATM   14  C17 UNL     1     -30.278  29.053  93.502  1.00  0.00    -0.037 A 
HETATM   15 CL1  UNL     1     -32.356  30.289  94.767  1.00  0.00    -0.083 Cl
HETATM   16  C16 UNL     1     -29.193  28.229  93.477  1.00  0.00     0.038 A 
HETATM   17  C18 UNL     1     -30.715  29.739  92.254  1.00  0.00     0.050 C 
BRANCH  10  18
HETATM   18  C3  UNL     1     -29.033  27.122  97.048  1.00  0.00     0.067 C 
BRANCH  18  19
HETATM   19  C2  UNL     1     -29.113  25.656  97.112  1.00  0.00    -0.032 C 
HETATM   20  C1  UNL     1     -29.126  25.026  98.302  1.00  0.00     0.007 C 
ENDBRANCH  18  19
ENDBRANCH  10  18
ENDBRANCH   1   9
BRANCH   5  21
HETATM   21  C9  UNL     1     -23.253  25.982  91.939  1.00  0.00     0.282 C 
BRANCH  21  22
HETATM   22  N3  UNL     1     -22.148  25.187  91.521  1.00  0.00    -0.066 N 
ATOM     23  H33 UNL     1     -21.405  25.788  91.165  1.00  0.00     0.275 HD
ATOM     24  H32 UNL     1     -21.684  24.785  92.336  1.00  0.00     0.275 HD
ATOM     25  H31 UNL     1     -22.353  24.453  90.843  1.00  0.00     0.275 HD
ENDBRANCH  21  22
BRANCH  21  26
HETATM   26  C10 UNL     1     -23.631  26.888  90.764  1.00  0.00    -0.014 C 
HETATM   27  C11 UNL     1     -23.955  26.075  89.530  1.00  0.00     0.017 C 
HETATM   28  C12 UNL     1     -22.385  27.709  90.419  1.00  0.00     0.017 C 
HETATM   29  C13 UNL     1     -24.707  27.859  91.130  1.00  0.00     0.017 C 
ENDBRANCH  21  26
ENDBRANCH   5  21
TORSDOF 6
ENDMDL
MODEL 4
REMARK VINA RESULT: -4.894971438      3.455      7.738
REMARK  6 active torsions:
REMARK  status: ('A' for Active; 'I' for Inactive)
REMARK    1  A    between atoms: C2_2  and  C3_3 
REMARK    2  A    between atoms: C3_3  and  C4_4 
REMARK    3  A    between atoms: C5_5  and  N1_6 
REMARK       I    between atoms: N2_9  and  C8_10 
REMARK    4  A    between atoms: C8_10  and  C9_12 
REMARK    5  A    between atoms: C9_12  and  N3_13 
REMARK    6  A    between atoms: C9_12  and  C10_17 
ROOT
HETATM    1  N1  UNL     1     -28.003  28.618  93.713  1.00  0.00    -0.377 N 
HETATM    2  C6  UNL     1     -26.999  28.051  94.581  1.00  0.00     0.143 C 
HETATM    3  C7  UNL     1     -25.653  28.669  94.180  1.00  0.00     0.145 C 
HETATM    4  N2  UNL     1     -25.415  28.346  92.764  1.00  0.00    -0.347 N 
HETATM    5  C8  UNL     1     -24.242  27.661  92.412  1.00  0.00     0.251 C 
HETATM    6  O1  UNL     1     -23.416  27.340  93.337  1.00  0.00    -0.271 OA
HETATM    7  C14 UNL     1     -26.437  28.770  91.832  1.00  0.00     0.145 C 
HETATM    8  C15 UNL     1     -27.569  29.455  92.606  1.00  0.00     0.143 C 
ENDROOT
BRANCH   1   9
HETATM    9  C5  UNL     1     -29.363  28.338  93.969  1.00  0.00     0.038 A 
HETATM   10  C4  UNL     1     -30.139  27.507  93.212  1.00  0.00    -0.021 A 
HETATM   11  C20 UNL     1     -31.483  27.316  93.558  1.00  0.00    -0.031 A 
HETATM   12  C19 UNL     1     -31.999  27.966  94.652  1.00  0.00     0.046 A 
HETATM   13  C21 UNL     1     -32.306  26.409  92.730  1.00  0.00     0.050 C 
HETATM   14  C17 UNL     1     -31.221  28.798  95.411  1.00  0.00    -0.037 A 
HETATM   15 CL1  UNL     1     -33.688  27.690  95.040  1.00  0.00    -0.083 Cl
HETATM   16  C16 UNL     1     -29.914  28.984  95.073  1.00  0.00     0.038 A 
HETATM   17  C18 UNL     1     -31.786  29.500  96.596  1.00  0.00     0.050 C 
BRANCH  10  18
HETATM   18  C3  UNL     1     -29.618  26.792  92.055  1.00  0.00     0.067 C 
BRANCH  18  19
HETATM   19  C2  UNL     1     -28.634  25.730  92.303  1.00  0.00    -0.032 C 
HETATM   20  C1  UNL     1     -28.787  24.890  93.345  1.00  0.00     0.007 C 
ENDBRANCH  18  19
ENDBRANCH  10  18
ENDBRANCH   1   9
BRANCH   5  21
HETATM   21  C9  UNL     1     -23.835  27.252  91.063  1.00  0.00     0.282 C 
BRANCH  21  22
HETATM   22  N3  UNL     1     -22.560  27.712  90.627  1.00  0.00    -0.066 N 
ATOM     23  H33 UNL     1     -22.571  27.858  89.618  1.00  0.00     0.275 HD
ATOM     24  H32 UNL     1     -22.410  28.669  90.949  1.00  0.00     0.275 HD
ATOM     25  H31 UNL     1     -21.761  27.132  90.884  1.00  0.00     0.275 HD
ENDBRANCH  21  22
BRANCH  21  26
HETATM   26  C10 UNL     1     -23.835  25.726  90.934  1.00  0.00    -0.014 C 
HETATM   27  C11 UNL     1     -22.523  25.139  91.403  1.00  0.00     0.017 C 
HETATM   28  C12 UNL     1     -23.935  25.408  89.440  1.00  0.00     0.017 C 
HETATM   29  C13 UNL     1     -25.027  25.110  91.594  1.00  0.00     0.017 C 
ENDBRANCH  21  26
ENDBRANCH   5  21
TORSDOF 6
ENDMDL
MODEL 5
REMARK VINA RESULT: -4.806670472      1.507      2.002
REMARK  6 active torsions:
REMARK  status: ('A' for Active; 'I' for Inactive)
REMARK    1  A    between atoms: C2_2  and  C3_3 
REMARK    2  A    between atoms: C3_3  and  C4_4 
REMARK    3  A    between atoms: C5_5  and  N1_6 
REMARK       I    between atoms: N2_9  and  C8_10 
REMARK    4  A    between atoms: C8_10  and  C9_12 
REMARK    5  A    between atoms: C9_12  and  N3_13 
REMARK    6  A    between atoms: C9_12  and  C10_17 
ROOT
HETATM    1  N1  UNL     1     -28.343  27.475  92.244  1.00  0.00    -0.377 N 
HETATM    2  C6  UNL     1     -29.394  26.564  92.631  1.00  0.00     0.143 C 
HETATM    3  C7  UNL     1     -30.725  27.305  92.447  1.00  0.00     0.145 C 
HETATM    4  N2  UNL     1     -30.689  28.510  93.292  1.00  0.00    -0.347 N 
HETATM    5  C8  UNL     1     -31.694  28.695  94.254  1.00  0.00     0.251 C 
HETATM    6  O1  UNL     1     -32.611  27.807  94.364  1.00  0.00    -0.271 OA
HETATM    7  C14 UNL     1     -29.592  29.423  93.054  1.00  0.00     0.145 C 
HETATM    8  C15 UNL     1     -28.695  28.854  91.949  1.00  0.00     0.143 C 
ENDROOT
BRANCH   1   9
HETATM    9  C5  UNL     1     -27.018  26.994  92.168  1.00  0.00     0.038 A 
HETATM   10  C4  UNL     1     -26.649  25.698  92.393  1.00  0.00    -0.021 A 
HETATM   11  C20 UNL     1     -25.297  25.342  92.299  1.00  0.00    -0.031 A 
HETATM   12  C19 UNL     1     -24.365  26.299  91.981  1.00  0.00     0.046 A 
HETATM   13  C21 UNL     1     -24.918  23.933  92.541  1.00  0.00     0.050 C 
HETATM   14  C17 UNL     1     -24.735  27.597  91.754  1.00  0.00    -0.037 A 
HETATM   15 CL1  UNL     1     -22.687  25.797  91.876  1.00  0.00    -0.083 Cl
HETATM   16  C16 UNL     1     -26.050  27.944  91.847  1.00  0.00     0.038 A 
HETATM   17  C18 UNL     1     -23.720  28.630  91.410  1.00  0.00     0.050 C 
BRANCH  10  18
HETATM   18  C3  UNL     1     -27.615  24.658  92.717  1.00  0.00     0.067 C 
BRANCH  18  19
HETATM   19  C2  UNL     1     -27.751  24.276  94.128  1.00  0.00    -0.032 C 
HETATM   20  C1  UNL     1     -28.809  23.551  94.539  1.00  0.00     0.007 C 
ENDBRANCH  18  19
ENDBRANCH  10  18
ENDBRANCH   1   9
BRANCH   5  21
HETATM   21  C9  UNL     1     -31.823  29.823  95.183  1.00  0.00     0.282 C 
BRANCH  21  22
HETATM   22  N3  UNL     1     -33.078  30.495  95.180  1.00  0.00    -0.066 N 
ATOM     23  H33 UNL     1     -33.802  29.876  94.817  1.00  0.00     0.275 HD
ATOM     24  H32 UNL     1     -33.406  30.619  96.139  1.00  0.00     0.275 HD
ATOM     25  H31 UNL     1     -33.108  31.388  94.687  1.00  0.00     0.275 HD
ENDBRANCH  21  22
BRANCH  21  26
HETATM   26  C10 UNL     1     -31.550  29.376  96.622  1.00  0.00    -0.014 C 
HETATM   27  C11 UNL     1     -32.820  28.910  97.298  1.00  0.00     0.017 C 
HETATM   28  C12 UNL     1     -31.087  30.616  97.391  1.00  0.00     0.017 C 
HETATM   29  C13 UNL     1     -30.441  28.376  96.696  1.00  0.00     0.017 C 
ENDBRANCH  21  26
ENDBRANCH   5  21
TORSDOF 6
ENDMDL
