MODEL 1
REMARK VINA RESULT: -7.604602159      0.000      0.000
REMARK  15 active torsions:
REMARK  status: ('A' for Active; 'I' for Inactive)
REMARK    1  A    between atoms: N1_1  and  C1_5 
REMARK    2  A    between atoms: C1_5  and  C2_6 
REMARK    3  A    between atoms: N2_11  and  C6_13 
REMARK    4  A    between atoms: C6_13  and  C7_14 
REMARK    5  A    between atoms: C7_14  and  C8_15 
REMARK    6  A    between atoms: C8_15  and  C9_16 
REMARK    7  A    between atoms: C10_17  and  C11_18 
REMARK    8  A    between atoms: C11_18  and  C12_19 
REMARK    9  A    between atoms: C12_19  and  O2_20 
REMARK   10  A    between atoms: O2_20  and  C13_21 
REMARK   11  A    between atoms: C14_22  and  N3_23 
REMARK   12  A    between atoms: C15_27  and  N4_28 
REMARK   13  A    between atoms: C17_33  and  N5_34 
REMARK   14  A    between atoms: C18_38  and  O3_39 
REMARK   15  A    between atoms: C19_41  and  O4_42 
ROOT
HETATM    1  C13 UNL     1       1.917  24.222  12.092  1.00  0.00     0.185 C 
HETATM    2  C14 UNL     1       2.000  23.611  13.451  1.00  0.00     0.245 C 
HETATM    3  C15 UNL     1       3.296  23.881  14.165  1.00  0.00     0.218 C 
HETATM    4  C16 UNL     1       4.304  22.901  13.667  1.00  0.00     0.070 C 
HETATM    5  C17 UNL     1       4.616  22.983  12.215  1.00  0.00     0.216 C 
HETATM    6  C18 UNL     1       4.402  24.302  11.573  1.00  0.00     0.179 C 
HETATM    7  C19 UNL     1       3.137  24.980  11.674  1.00  0.00     0.180 C 
ENDROOT
BRANCH   1   8
HETATM    8  O2  UNL     1       1.459  23.330  11.122  1.00  0.00    -0.380 OA
BRANCH   8   9
HETATM    9  C12 UNL     1       0.200  23.604  10.661  1.00  0.00     0.180 C 
BRANCH   9  10
HETATM   10  C11 UNL     1      -0.187  22.516   9.684  1.00  0.00     0.120 C 
BRANCH  10  11
HETATM   11  C10 UNL     1       0.949  22.367   8.743  1.00  0.00    -0.104 C 
HETATM   12  C9  UNL     1       1.878  22.266   7.980  1.00  0.00    -0.106 C 
BRANCH  12  13
HETATM   13  C8  UNL     1       3.006  22.168   7.062  1.00  0.00     0.095 C 
BRANCH  13  14
HETATM   14  C7  UNL     1       4.086  21.257   7.659  1.00  0.00     0.032 C 
BRANCH  14  15
HETATM   15  C6  UNL     1       5.446  21.906   7.536  1.00  0.00     0.122 C 
BRANCH  15  16
HETATM   16  N2  UNL     1       5.598  22.531   6.241  1.00  0.00    -0.374 N 
HETATM   17  C5  UNL     1       6.695  22.726   5.636  1.00  0.00     0.123 C 
HETATM   18  O1  UNL     1       6.576  23.347   4.402  1.00  0.00    -0.334 OA
HETATM   19  C20 UNL     1       7.977  22.302   6.253  1.00  0.00     0.158 C 
HETATM   20  C4  UNL     1       7.597  23.988   3.627  1.00  0.00     0.212 C 
HETATM   21  C3  UNL     1       8.386  24.920   4.461  1.00  0.00    -0.049 C 
HETATM   22  C2  UNL     1       9.335  25.578   3.843  1.00  0.00     0.006 C 
HETATM   23  C21 UNL     1       8.234  25.201   5.909  1.00  0.00     0.110 C 
HETATM   24  S1  UNL     1       8.765  23.805   6.935  1.00  0.00    -0.157 SA
ATOM     25  H2  UNL     1       4.747  22.843   5.773  1.00  0.00     0.161 HD
BRANCH  22  26
HETATM   26  C1  UNL     1       9.636  25.429   2.398  1.00  0.00     0.257 C 
BRANCH  26  27
HETATM   27  N1  UNL     1      11.059  25.510   2.128  1.00  0.00    -0.076 N 
ATOM     28  H13 UNL     1      11.507  26.216   2.711  1.00  0.00     0.274 HD
ATOM     29  H12 UNL     1      11.549  24.683   2.472  1.00  0.00     0.274 HD
ATOM     30  H11 UNL     1      11.252  25.669   1.139  1.00  0.00     0.274 HD
ENDBRANCH  26  27
ENDBRANCH  22  26
ENDBRANCH  15  16
ENDBRANCH  14  15
ENDBRANCH  13  14
ENDBRANCH  12  13
ENDBRANCH  10  11
ENDBRANCH   9  10
ENDBRANCH   8   9
ENDBRANCH   1   8
BRANCH   2  31
HETATM   31  N3  UNL     1       0.931  24.070  14.347  1.00  0.00    -0.070 N 
ATOM     32  H33 UNL     1       1.218  24.902  14.863  1.00  0.00     0.274 HD
ATOM     33  H32 UNL     1       0.154  24.464  13.817  1.00  0.00     0.274 HD
ATOM     34  H31 UNL     1       0.606  23.340  14.982  1.00  0.00     0.274 HD
ENDBRANCH   2  31
BRANCH   7  35
HETATM   35  O4  UNL     1       2.801  25.583  10.434  1.00  0.00    -0.390 OA
ATOM     36  H4  UNL     1       3.525  26.163  10.231  1.00  0.00     0.210 HD
ENDBRANCH   7  35
BRANCH   3  37
HETATM   37  N4  UNL     1       3.058  23.561  15.581  1.00  0.00    -0.073 N 
ATOM     38  H43 UNL     1       3.170  24.362  16.203  1.00  0.00     0.274 HD
ATOM     39  H42 UNL     1       2.079  23.371  15.796  1.00  0.00     0.274 HD
ATOM     40  H41 UNL     1       3.680  22.784  15.806  1.00  0.00     0.274 HD
ENDBRANCH   3  37
BRANCH   6  41
HETATM   41  O3  UNL     1       5.429  25.149  12.069  1.00  0.00    -0.391 OA
ATOM     42  H3  UNL     1       6.086  25.190  11.385  1.00  0.00     0.210 HD
ENDBRANCH   6  41
BRANCH   5  43
HETATM   43  N5  UNL     1       4.065  21.864  11.484  1.00  0.00    -0.072 N 
ATOM     44  H53 UNL     1       4.443  20.978  11.819  1.00  0.00     0.274 HD
ATOM     45  H52 UNL     1       3.082  21.717  11.715  1.00  0.00     0.274 HD
ATOM     46  H51 UNL     1       4.198  21.968  10.478  1.00  0.00     0.274 HD
ENDBRANCH   5  43
TORSDOF 15
ENDMDL
MODEL 2
REMARK VINA RESULT: -7.553230518      5.431      7.991
REMARK  15 active torsions:
REMARK  status: ('A' for Active; 'I' for Inactive)
REMARK    1  A    between atoms: N1_1  and  C1_5 
REMARK    2  A    between atoms: C1_5  and  C2_6 
REMARK    3  A    between atoms: N2_11  and  C6_13 
REMARK    4  A    between atoms: C6_13  and  C7_14 
REMARK    5  A    between atoms: C7_14  and  C8_15 
REMARK    6  A    between atoms: C8_15  and  C9_16 
REMARK    7  A    between atoms: C10_17  and  C11_18 
REMARK    8  A    between atoms: C11_18  and  C12_19 
REMARK    9  A    between atoms: C12_19  and  O2_20 
REMARK   10  A    between atoms: O2_20  and  C13_21 
REMARK   11  A    between atoms: C14_22  and  N3_23 
REMARK   12  A    between atoms: C15_27  and  N4_28 
REMARK   13  A    between atoms: C17_33  and  N5_34 
REMARK   14  A    between atoms: C18_38  and  O3_39 
REMARK   15  A    between atoms: C19_41  and  O4_42 
ROOT
HETATM    1  C13 UNL     1       0.028  24.431  19.398  1.00  0.00     0.185 C 
HETATM    2  C14 UNL     1      -1.335  24.601  19.983  1.00  0.00     0.245 C 
HETATM    3  C15 UNL     1      -1.498  23.982  21.344  1.00  0.00     0.218 C 
HETATM    4  C16 UNL     1      -1.766  22.527  21.154  1.00  0.00     0.070 C 
HETATM    5  C17 UNL     1      -0.684  21.757  20.485  1.00  0.00     0.216 C 
HETATM    6  C18 UNL     1       0.687  22.304  20.619  1.00  0.00     0.179 C 
HETATM    7  C19 UNL     1       0.982  23.665  20.256  1.00  0.00     0.180 C 
ENDROOT
BRANCH   1   8
HETATM    8  O2  UNL     1      -0.001  23.993  18.073  1.00  0.00    -0.380 OA
BRANCH   8   9
HETATM    9  C12 UNL     1      -0.083  25.003  17.153  1.00  0.00     0.180 C 
BRANCH   9  10
HETATM   10  C11 UNL     1       0.424  24.472  15.830  1.00  0.00     0.120 C 
BRANCH  10  11
HETATM   11  C10 UNL     1       1.816  24.016  16.062  1.00  0.00    -0.104 C 
HETATM   12  C9  UNL     1       2.948  23.656  16.268  1.00  0.00    -0.106 C 
BRANCH  12  13
HETATM   13  C8  UNL     1       4.318  23.236  16.536  1.00  0.00     0.095 C 
BRANCH  13  14
HETATM   14  C7  UNL     1       4.807  22.309  15.417  1.00  0.00     0.032 C 
BRANCH  14  15
HETATM   15  C6  UNL     1       4.421  22.869  14.066  1.00  0.00     0.122 C 
BRANCH  15  16
HETATM   16  N2  UNL     1       5.010  22.086  13.002  1.00  0.00    -0.374 N 
HETATM   17  C5  UNL     1       5.149  22.457  11.798  1.00  0.00     0.123 C 
HETATM   18  O1  UNL     1       5.746  21.522  10.966  1.00  0.00    -0.334 OA
HETATM   19  C20 UNL     1       4.689  23.802  11.371  1.00  0.00     0.158 C 
HETATM   20  C4  UNL     1       5.759  21.486   9.534  1.00  0.00     0.212 C 
HETATM   21  C3  UNL     1       4.399  21.687   8.988  1.00  0.00    -0.049 C 
HETATM   22  C2  UNL     1       4.295  21.651   7.683  1.00  0.00     0.006 C 
HETATM   23  C21 UNL     1       3.141  21.925   9.736  1.00  0.00     0.110 C 
HETATM   24  S1  UNL     1       3.099  23.570  10.496  1.00  0.00    -0.157 SA
ATOM     25  H2  UNL     1       5.343  21.152  13.242  1.00  0.00     0.161 HD
BRANCH  22  26
HETATM   26  C1  UNL     1       5.442  21.424   6.770  1.00  0.00     0.257 C 
BRANCH  26  27
HETATM   27  N1  UNL     1       5.055  20.684   5.583  1.00  0.00    -0.076 N 
ATOM     28  H13 UNL     1       4.076  20.846   5.349  1.00  0.00     0.274 HD
ATOM     29  H12 UNL     1       5.488  21.075   4.746  1.00  0.00     0.274 HD
ATOM     30  H11 UNL     1       5.256  19.688   5.672  1.00  0.00     0.274 HD
ENDBRANCH  26  27
ENDBRANCH  22  26
ENDBRANCH  15  16
ENDBRANCH  14  15
ENDBRANCH  13  14
ENDBRANCH  12  13
ENDBRANCH  10  11
ENDBRANCH   9  10
ENDBRANCH   8   9
ENDBRANCH   1   8
BRANCH   2  31
HETATM   31  N3  UNL     1      -1.722  26.012  20.121  1.00  0.00    -0.070 N 
ATOM     32  H33 UNL     1      -1.700  26.302  21.099  1.00  0.00     0.274 HD
ATOM     33  H32 UNL     1      -0.999  26.627  19.749  1.00  0.00     0.274 HD
ATOM     34  H31 UNL     1      -2.628  26.216  19.699  1.00  0.00     0.274 HD
ENDBRANCH   2  31
BRANCH   7  35
HETATM   35  O4  UNL     1       2.233  23.736  19.588  1.00  0.00    -0.390 OA
ATOM     36  H4  UNL     1       2.698  24.456  19.997  1.00  0.00     0.210 HD
ENDBRANCH   7  35
BRANCH   3  37
HETATM   37  N4  UNL     1      -2.721  24.567  21.916  1.00  0.00    -0.073 N 
ATOM     38  H43 UNL     1      -2.825  24.391  22.916  1.00  0.00     0.274 HD
ATOM     39  H42 UNL     1      -2.698  25.585  21.971  1.00  0.00     0.274 HD
ATOM     40  H41 UNL     1      -3.496  24.208  21.358  1.00  0.00     0.274 HD
ENDBRANCH   3  37
BRANCH   6  41
HETATM   41  O3  UNL     1       1.064  22.087  21.971  1.00  0.00    -0.391 OA
ATOM     42  H3  UNL     1       1.989  21.873  21.953  1.00  0.00     0.210 HD
ENDBRANCH   6  41
BRANCH   5  43
HETATM   43  N5  UNL     1      -1.049  21.378  19.138  1.00  0.00    -0.072 N 
ATOM     44  H53 UNL     1      -1.697  20.590  19.136  1.00  0.00     0.274 HD
ATOM     45  H52 UNL     1      -1.648  22.080  18.704  1.00  0.00     0.274 HD
ATOM     46  H51 UNL     1      -0.228  21.185  18.564  1.00  0.00     0.274 HD
ENDBRANCH   5  43
TORSDOF 15
ENDMDL
MODEL 3
REMARK VINA RESULT: -7.475484321      3.712      6.473
REMARK  15 active torsions:
REMARK  status: ('A' for Active; 'I' for Inactive)
REMARK    1  A    between atoms: N1_1  and  C1_5 
REMARK    2  A    between atoms: C1_5  and  C2_6 
REMARK    3  A    between atoms: N2_11  and  C6_13 
REMARK    4  A    between atoms: C6_13  and  C7_14 
REMARK    5  A    between atoms: C7_14  and  C8_15 
REMARK    6  A    between atoms: C8_15  and  C9_16 
REMARK    7  A    between atoms: C10_17  and  C11_18 
REMARK    8  A    between atoms: C11_18  and  C12_19 
REMARK    9  A    between atoms: C12_19  and  O2_20 
REMARK   10  A    between atoms: O2_20  and  C13_21 
REMARK   11  A    between atoms: C14_22  and  N3_23 
REMARK   12  A    between atoms: C15_27  and  N4_28 
REMARK   13  A    between atoms: C17_33  and  N5_34 
REMARK   14  A    between atoms: C18_38  and  O3_39 
REMARK   15  A    between atoms: C19_41  and  O4_42 
ROOT
HETATM    1  C13 UNL     1       0.706  25.273  11.837  1.00  0.00     0.185 C 
HETATM    2  C14 UNL     1      -0.626  24.776  11.381  1.00  0.00     0.245 C 
HETATM    3  C15 UNL     1      -1.173  25.504  10.183  1.00  0.00     0.218 C 
HETATM    4  C16 UNL     1      -1.812  26.762  10.668  1.00  0.00     0.070 C 
HETATM    5  C17 UNL     1      -0.904  27.723  11.347  1.00  0.00     0.216 C 
HETATM    6  C18 UNL     1       0.527  27.652  10.968  1.00  0.00     0.179 C 
HETATM    7  C19 UNL     1       1.253  26.412  11.038  1.00  0.00     0.180 C 
ENDROOT
BRANCH   1   8
HETATM    8  O2  UNL     1       0.764  25.484  13.215  1.00  0.00    -0.380 OA
BRANCH   8   9
HETATM    9  C12 UNL     1       0.802  24.333  13.955  1.00  0.00     0.180 C 
BRANCH   9  10
HETATM   10  C11 UNL     1       1.017  24.717  15.403  1.00  0.00     0.120 C 
BRANCH  10  11
HETATM   11  C10 UNL     1       2.253  24.026  15.846  1.00  0.00    -0.104 C 
HETATM   12  C9  UNL     1       3.265  23.468  16.188  1.00  0.00    -0.106 C 
BRANCH  12  13
HETATM   13  C8  UNL     1       4.499  22.797  16.578  1.00  0.00     0.095 C 
BRANCH  13  14
HETATM   14  C7  UNL     1       5.024  21.953  15.411  1.00  0.00     0.032 C 
BRANCH  14  15
HETATM   15  C6  UNL     1       4.656  22.596  14.092  1.00  0.00     0.122 C 
BRANCH  15  16
HETATM   16  N2  UNL     1       5.337  21.940  12.997  1.00  0.00    -0.374 N 
HETATM   17  C5  UNL     1       5.372  22.346  11.796  1.00  0.00     0.123 C 
HETATM   18  O1  UNL     1       6.094  21.538  10.931  1.00  0.00    -0.334 OA
HETATM   19  C20 UNL     1       4.675  23.597  11.408  1.00  0.00     0.158 C 
HETATM   20  C4  UNL     1       6.068  21.524   9.499  1.00  0.00     0.212 C 
HETATM   21  C3  UNL     1       4.678  21.495   8.996  1.00  0.00    -0.049 C 
HETATM   22  C2  UNL     1       4.541  21.459   7.694  1.00  0.00     0.006 C 
HETATM   23  C21 UNL     1       3.421  21.503   9.783  1.00  0.00     0.110 C 
HETATM   24  S1  UNL     1       3.122  23.106  10.575  1.00  0.00    -0.157 SA
ATOM     25  H2  UNL     1       5.833  21.074  13.210  1.00  0.00     0.161 HD
BRANCH  22  26
HETATM   26  C1  UNL     1       5.680  21.446   6.744  1.00  0.00     0.257 C 
BRANCH  26  27
HETATM   27  N1  UNL     1       5.384  20.677   5.549  1.00  0.00    -0.076 N 
ATOM     28  H13 UNL     1       4.795  19.873   5.764  1.00  0.00     0.274 HD
ATOM     29  H12 UNL     1       4.748  21.183   4.932  1.00  0.00     0.274 HD
ATOM     30  H11 UNL     1       6.231  20.396   5.056  1.00  0.00     0.274 HD
ENDBRANCH  26  27
ENDBRANCH  22  26
ENDBRANCH  15  16
ENDBRANCH  14  15
ENDBRANCH  13  14
ENDBRANCH  12  13
ENDBRANCH  10  11
ENDBRANCH   9  10
ENDBRANCH   8   9
ENDBRANCH   1   8
BRANCH   2  31
HETATM   31  N3  UNL     1      -0.610  23.351  11.025  1.00  0.00    -0.070 N 
ATOM     32  H33 UNL     1      -0.380  22.775  11.836  1.00  0.00     0.274 HD
ATOM     33  H32 UNL     1      -1.553  23.009  10.842  1.00  0.00     0.274 HD
ATOM     34  H31 UNL     1       0.011  23.145  10.242  1.00  0.00     0.274 HD
ENDBRANCH   2  31
BRANCH   7  35
HETATM   35  O4  UNL     1       2.561  26.634  11.543  1.00  0.00    -0.390 OA
ATOM     36  H4  UNL     1       3.125  26.666  10.779  1.00  0.00     0.210 HD
ENDBRANCH   7  35
BRANCH   3  37
HETATM   37  N4  UNL     1      -2.252  24.660   9.648  1.00  0.00    -0.073 N 
ATOM     38  H43 UNL     1      -2.009  24.200   8.770  1.00  0.00     0.274 HD
ATOM     39  H42 UNL     1      -2.413  23.812  10.192  1.00  0.00     0.274 HD
ATOM     40  H41 UNL     1      -3.074  25.259   9.578  1.00  0.00     0.274 HD
ENDBRANCH   3  37
BRANCH   6  41
HETATM   41  O3  UNL     1       0.607  28.168   9.647  1.00  0.00    -0.391 OA
ATOM     42  H3  UNL     1       1.063  27.510   9.136  1.00  0.00     0.210 HD
ENDBRANCH   6  41
BRANCH   5  43
HETATM   43  N5  UNL     1      -1.143  27.772  12.772  1.00  0.00    -0.072 N 
ATOM     44  H53 UNL     1      -1.705  28.585  13.027  1.00  0.00     0.274 HD
ATOM     45  H52 UNL     1      -1.784  27.035  13.067  1.00  0.00     0.274 HD
ATOM     46  H51 UNL     1      -0.273  27.742  13.304  1.00  0.00     0.274 HD
ENDBRANCH   5  43
TORSDOF 15
ENDMDL
MODEL 4
REMARK VINA RESULT: -7.424216346      2.039      3.307
REMARK  15 active torsions:
REMARK  status: ('A' for Active; 'I' for Inactive)
REMARK    1  A    between atoms: N1_1  and  C1_5 
REMARK    2  A    between atoms: C1_5  and  C2_6 
REMARK    3  A    between atoms: N2_11  and  C6_13 
REMARK    4  A    between atoms: C6_13  and  C7_14 
REMARK    5  A    between atoms: C7_14  and  C8_15 
REMARK    6  A    between atoms: C8_15  and  C9_16 
REMARK    7  A    between atoms: C10_17  and  C11_18 
REMARK    8  A    between atoms: C11_18  and  C12_19 
REMARK    9  A    between atoms: C12_19  and  O2_20 
REMARK   10  A    between atoms: O2_20  and  C13_21 
REMARK   11  A    between atoms: C14_22  and  N3_23 
REMARK   12  A    between atoms: C15_27  and  N4_28 
REMARK   13  A    between atoms: C17_33  and  N5_34 
REMARK   14  A    between atoms: C18_38  and  O3_39 
REMARK   15  A    between atoms: C19_41  and  O4_42 
ROOT
HETATM    1  C13 UNL     1       2.658  24.617  12.584  1.00  0.00     0.185 C 
HETATM    2  C14 UNL     1       2.468  25.623  11.497  1.00  0.00     0.245 C 
HETATM    3  C15 UNL     1       1.148  26.342  11.553  1.00  0.00     0.218 C 
HETATM    4  C16 UNL     1       0.123  25.465  10.916  1.00  0.00     0.070 C 
HETATM    5  C17 UNL     1      -0.101  24.153  11.579  1.00  0.00     0.216 C 
HETATM    6  C18 UNL     1       0.214  24.089  13.026  1.00  0.00     0.179 C 
HETATM    7  C19 UNL     1       1.503  24.491  13.524  1.00  0.00     0.180 C 
ENDROOT
BRANCH   1   8
HETATM    8  O2  UNL     1       3.126  23.390  12.113  1.00  0.00    -0.380 OA
BRANCH   8   9
HETATM    9  C12 UNL     1       4.491  23.304  12.041  1.00  0.00     0.180 C 
BRANCH   9  10
HETATM   10  C11 UNL     1       4.849  21.881  11.674  1.00  0.00     0.120 C 
BRANCH  10  11
HETATM   11  C10 UNL     1       4.357  21.662  10.293  1.00  0.00    -0.104 C 
HETATM   12  C9  UNL     1       3.942  21.499   9.172  1.00  0.00    -0.106 C 
BRANCH  12  13
HETATM   13  C8  UNL     1       3.423  21.318   7.821  1.00  0.00     0.095 C 
BRANCH  13  14
HETATM   14  C7  UNL     1       4.029  22.372   6.886  1.00  0.00     0.032 C 
BRANCH  14  15
HETATM   15  C6  UNL     1       5.415  21.952   6.451  1.00  0.00     0.122 C 
BRANCH  15  16
HETATM   16  N2  UNL     1       5.836  22.707   5.291  1.00  0.00    -0.374 N 
HETATM   17  C5  UNL     1       7.036  22.966   4.971  1.00  0.00     0.123 C 
HETATM   18  O1  UNL     1       7.179  23.709   3.809  1.00  0.00    -0.334 OA
HETATM   19  C20 UNL     1       8.157  22.485   5.815  1.00  0.00     0.158 C 
HETATM   20  C4  UNL     1       8.330  24.430   3.351  1.00  0.00     0.212 C 
HETATM   21  C3  UNL     1       8.888  25.274   4.429  1.00  0.00    -0.049 C 
HETATM   22  C2  UNL     1       9.933  25.995   4.109  1.00  0.00     0.006 C 
HETATM   23  C21 UNL     1       8.409  25.405   5.827  1.00  0.00     0.110 C 
HETATM   24  S1  UNL     1       8.734  23.913   6.803  1.00  0.00    -0.157 SA
ATOM     25  H2  UNL     1       5.103  23.062   4.676  1.00  0.00     0.161 HD
BRANCH  22  26
HETATM   26  C1  UNL     1      10.553  25.995   2.762  1.00  0.00     0.257 C 
BRANCH  26  27
HETATM   27  N1  UNL     1      10.586  27.323   2.178  1.00  0.00    -0.076 N 
ATOM     28  H13 UNL     1      10.941  28.011   2.842  1.00  0.00     0.274 HD
ATOM     29  H12 UNL     1      11.313  27.396   1.466  1.00  0.00     0.274 HD
ATOM     30  H11 UNL     1       9.677  27.600   1.808  1.00  0.00     0.274 HD
ENDBRANCH  26  27
ENDBRANCH  22  26
ENDBRANCH  15  16
ENDBRANCH  14  15
ENDBRANCH  13  14
ENDBRANCH  12  13
ENDBRANCH  10  11
ENDBRANCH   9  10
ENDBRANCH   8   9
ENDBRANCH   1   8
BRANCH   2  31
HETATM   31  N3  UNL     1       3.505  26.663  11.496  1.00  0.00    -0.070 N 
ATOM     32  H33 UNL     1       3.258  27.426  10.865  1.00  0.00     0.274 HD
ATOM     33  H32 UNL     1       3.511  27.173  12.379  1.00  0.00     0.274 HD
ATOM     34  H31 UNL     1       4.432  26.296  11.281  1.00  0.00     0.274 HD
ENDBRANCH   2  31
BRANCH   7  35
HETATM   35  O4  UNL     1       1.938  23.600  14.540  1.00  0.00    -0.390 OA
ATOM     36  H4  UNL     1       1.307  22.890  14.542  1.00  0.00     0.210 HD
ENDBRANCH   7  35
BRANCH   3  37
HETATM   37  N4  UNL     1       1.288  27.525  10.690  1.00  0.00    -0.073 N 
ATOM     38  H43 UNL     1       0.763  28.334  11.022  1.00  0.00     0.274 HD
ATOM     39  H42 UNL     1       2.214  27.951  10.732  1.00  0.00     0.274 HD
ATOM     40  H41 UNL     1       1.022  27.226   9.751  1.00  0.00     0.274 HD
ENDBRANCH   3  37
BRANCH   6  41
HETATM   41  O3  UNL     1      -0.797  24.843  13.679  1.00  0.00    -0.391 OA
ATOM     42  H3  UNL     1      -0.411  25.152  14.490  1.00  0.00     0.210 HD
ENDBRANCH   6  41
BRANCH   5  43
HETATM   43  N5  UNL     1       0.436  23.059  10.801  1.00  0.00    -0.072 N 
ATOM     44  H53 UNL     1       0.656  23.353   9.849  1.00  0.00     0.274 HD
ATOM     45  H52 UNL     1       1.374  22.807  11.112  1.00  0.00     0.274 HD
ATOM     46  H51 UNL     1      -0.186  22.251  10.805  1.00  0.00     0.274 HD
ENDBRANCH   5  43
TORSDOF 15
ENDMDL
MODEL 5
REMARK VINA RESULT: -7.408496135      5.033      7.642
REMARK  15 active torsions:
REMARK  status: ('A' for Active; 'I' for Inactive)
REMARK    1  A    between atoms: N1_1  and  C1_5 
REMARK    2  A    between atoms: C1_5  and  C2_6 
REMARK    3  A    between atoms: N2_11  and  C6_13 
REMARK    4  A    between atoms: C6_13  and  C7_14 
REMARK    5  A    between atoms: C7_14  and  C8_15 
REMARK    6  A    between atoms: C8_15  and  C9_16 
REMARK    7  A    between atoms: C10_17  and  C11_18 
REMARK    8  A    between atoms: C11_18  and  C12_19 
REMARK    9  A    between atoms: C12_19  and  O2_20 
REMARK   10  A    between atoms: O2_20  and  C13_21 
REMARK   11  A    between atoms: C14_22  and  N3_23 
REMARK   12  A    between atoms: C15_27  and  N4_28 
REMARK   13  A    between atoms: C17_33  and  N5_34 
REMARK   14  A    between atoms: C18_38  and  O3_39 
REMARK   15  A    between atoms: C19_41  and  O4_42 
ROOT
HETATM    1  C13 UNL     1      -0.959  24.031  18.455  1.00  0.00     0.185 C 
HETATM    2  C14 UNL     1      -0.946  22.549  18.640  1.00  0.00     0.245 C 
HETATM    3  C15 UNL     1      -0.923  22.113  20.079  1.00  0.00     0.218 C 
HETATM    4  C16 UNL     1       0.489  22.182  20.555  1.00  0.00     0.070 C 
HETATM    5  C17 UNL     1       1.109  23.533  20.530  1.00  0.00     0.216 C 
HETATM    6  C18 UNL     1       0.179  24.683  20.629  1.00  0.00     0.179 C 
HETATM    7  C19 UNL     1      -0.933  24.817  19.726  1.00  0.00     0.180 C 
ENDROOT
BRANCH   1   8
HETATM    8  O2  UNL     1      -0.029  24.469  17.512  1.00  0.00    -0.380 OA
BRANCH   8   9
HETATM    9  C12 UNL     1      -0.354  24.157  16.219  1.00  0.00     0.180 C 
BRANCH   9  10
HETATM   10  C11 UNL     1       0.736  24.697  15.320  1.00  0.00     0.120 C 
BRANCH  10  11
HETATM   11  C10 UNL     1       2.011  24.110  15.798  1.00  0.00    -0.104 C 
HETATM   12  C9  UNL     1       3.048  23.620  16.170  1.00  0.00    -0.106 C 
BRANCH  12  13
HETATM   13  C8  UNL     1       4.302  23.014  16.600  1.00  0.00     0.095 C 
BRANCH  13  14
HETATM   14  C7  UNL     1       4.893  22.177  15.458  1.00  0.00     0.032 C 
BRANCH  14  15
HETATM   15  C6  UNL     1       4.521  22.777  14.121  1.00  0.00     0.122 C 
BRANCH  15  16
HETATM   16  N2  UNL     1       5.141  22.041  13.042  1.00  0.00    -0.374 N 
HETATM   17  C5  UNL     1       5.263  22.443  11.845  1.00  0.00     0.123 C 
HETATM   18  O1  UNL     1       5.898  21.550  10.994  1.00  0.00    -0.334 OA
HETATM   19  C20 UNL     1       4.745  23.775  11.445  1.00  0.00     0.158 C 
HETATM   20  C4  UNL     1       5.910  21.544   9.561  1.00  0.00     0.212 C 
HETATM   21  C3  UNL     1       4.543  21.698   9.020  1.00  0.00    -0.049 C 
HETATM   22  C2  UNL     1       4.439  21.683   7.715  1.00  0.00     0.006 C 
HETATM   23  C21 UNL     1       3.276  21.867   9.773  1.00  0.00     0.110 C 
HETATM   24  S1  UNL     1       3.165  23.493  10.567  1.00  0.00    -0.157 SA
ATOM     25  H2  UNL     1       5.514  21.118  13.262  1.00  0.00     0.161 HD
BRANCH  22  26
HETATM   26  C1  UNL     1       5.593  21.524   6.797  1.00  0.00     0.257 C 
BRANCH  26  27
HETATM   27  N1  UNL     1       5.272  20.684   5.659  1.00  0.00    -0.076 N 
ATOM     28  H13 UNL     1       4.479  21.056   5.136  1.00  0.00     0.274 HD
ATOM     29  H12 UNL     1       5.988  20.751   4.935  1.00  0.00     0.274 HD
ATOM     30  H11 UNL     1       5.113  19.714   5.932  1.00  0.00     0.274 HD
ENDBRANCH  26  27
ENDBRANCH  22  26
ENDBRANCH  15  16
ENDBRANCH  14  15
ENDBRANCH  13  14
ENDBRANCH  12  13
ENDBRANCH  10  11
ENDBRANCH   9  10
ENDBRANCH   8   9
ENDBRANCH   1   8
BRANCH   2  31
HETATM   31  N3  UNL     1      -2.105  21.889  18.026  1.00  0.00    -0.070 N 
ATOM     32  H33 UNL     1      -2.888  21.843  18.679  1.00  0.00     0.274 HD
ATOM     33  H32 UNL     1      -2.524  22.479  17.307  1.00  0.00     0.274 HD
ATOM     34  H31 UNL     1      -1.883  20.965  17.655  1.00  0.00     0.274 HD
ENDBRANCH   2  31
BRANCH   7  35
HETATM   35  O4  UNL     1      -1.088  26.173  19.334  1.00  0.00    -0.390 OA
ATOM     36  H4  UNL     1      -1.997  26.385  19.513  1.00  0.00     0.210 HD
ENDBRANCH   7  35
BRANCH   3  37
HETATM   37  N4  UNL     1      -1.302  20.692  20.083  1.00  0.00    -0.073 N 
ATOM     38  H43 UNL     1      -1.634  20.363  20.990  1.00  0.00     0.274 HD
ATOM     39  H42 UNL     1      -2.156  20.498  19.559  1.00  0.00     0.274 HD
ATOM     40  H41 UNL     1      -0.490  20.179  19.738  1.00  0.00     0.274 HD
ENDBRANCH   3  37
BRANCH   6  41
HETATM   41  O3  UNL     1      -0.301  24.683  21.966  1.00  0.00    -0.391 OA
ATOM     42  H3  UNL     1      -0.464  25.592  22.185  1.00  0.00     0.210 HD
ENDBRANCH   6  41
BRANCH   5  43
HETATM   43  N5  UNL     1       2.098  23.651  19.481  1.00  0.00    -0.072 N 
ATOM     44  H53 UNL     1       1.841  24.374  18.809  1.00  0.00     0.274 HD
ATOM     45  H52 UNL     1       2.965  24.059  19.832  1.00  0.00     0.274 HD
ATOM     46  H51 UNL     1       2.268  22.758  19.020  1.00  0.00     0.274 HD
ENDBRANCH   5  43
TORSDOF 15
ENDMDL
