MODEL 1
REMARK VINA RESULT: -8.368949241      0.000      0.000
REMARK  5 active torsions:
REMARK  status: ('A' for Active; 'I' for Inactive)
REMARK    1  A    between atoms: O1_2  and  C2_3 
REMARK    2  A    between atoms: C4_5  and  C5_6 
REMARK    3  A    between atoms: C6_10  and  C7_11 
REMARK    4  A    between atoms: C7_11  and  N1_12 
REMARK    5  A    between atoms: N1_12  and  C9_14 
ROOT
HETATM    1  C7  UNL     1      23.315 -21.861 -25.692  1.00  0.00     0.081 C 
ENDROOT
BRANCH   1   2
HETATM    2  C6  UNL     1      24.615 -21.118 -25.859  1.00  0.00     0.049 A 
HETATM    3  C2  UNL     1      25.871 -21.760 -25.911  1.00  0.00     0.087 A 
HETATM    4  C3  UNL     1      26.884 -21.028 -26.326  1.00  0.00     0.064 A 
HETATM    5  C4  UNL     1      26.653 -19.715 -26.667  1.00  0.00     0.085 A 
HETATM    6  S1  UNL     1      24.966 -19.564 -26.366  1.00  0.00    -0.080 SA
BRANCH   3   7
HETATM    7  O1  UNL     1      25.900 -23.139 -25.504  1.00  0.00    -0.355 OA
HETATM    8  C1  UNL     1      27.030 -23.789 -25.128  1.00  0.00     0.210 C 
ENDBRANCH   3   7
BRANCH   5   9
HETATM    9  C5  UNL     1      27.623 -18.709 -27.096  1.00  0.00     0.216 C 
HETATM   10  O2  UNL     1      28.821 -18.957 -27.315  1.00  0.00    -0.643 OA
HETATM   11  O3  UNL     1      27.243 -17.388 -27.265  1.00  0.00    -0.643 OA
ENDBRANCH   5   9
ENDBRANCH   1   2
BRANCH   1  12
HETATM   12  N1  UNL     1      22.208 -21.115 -25.353  1.00  0.00    -0.289 NA
HETATM   13  C8  UNL     1      21.331 -20.776 -26.389  1.00  0.00     0.116 C 
BRANCH  12  14
HETATM   14  C9  UNL     1      21.549 -21.681 -24.160  1.00  0.00     0.085 C 
HETATM   15  C10 UNL     1      20.361 -22.519 -24.424  1.00  0.00     0.022 C 
HETATM   16  C11 UNL     1      19.091 -21.876 -23.908  1.00  0.00     0.002 C 
HETATM   17  C12 UNL     1      19.230 -21.228 -22.563  1.00  0.00     0.002 C 
HETATM   18  C13 UNL     1      20.250 -20.151 -22.692  1.00  0.00     0.027 C 
HETATM   19  C14 UNL     1      21.568 -20.811 -22.968  1.00  0.00     0.050 C 
HETATM   20  C15 UNL     1      22.633 -19.755 -23.002  1.00  0.00     0.034 C 
HETATM   21 CL1  UNL     1      21.920 -21.783 -21.478  1.00  0.00    -0.118 Cl
ENDBRANCH  12  14
ENDBRANCH   1  12
TORSDOF 5
ENDMDL
MODEL 2
REMARK VINA RESULT: -8.115107260      3.983      6.778
REMARK  5 active torsions:
REMARK  status: ('A' for Active; 'I' for Inactive)
REMARK    1  A    between atoms: O1_2  and  C2_3 
REMARK    2  A    between atoms: C4_5  and  C5_6 
REMARK    3  A    between atoms: C6_10  and  C7_11 
REMARK    4  A    between atoms: C7_11  and  N1_12 
REMARK    5  A    between atoms: N1_12  and  C9_14 
ROOT
HETATM    1  C7  UNL     1      24.596 -19.838 -26.309  1.00  0.00     0.081 C 
ENDROOT
BRANCH   1   2
HETATM    2  C6  UNL     1      23.658 -20.475 -25.315  1.00  0.00     0.049 A 
HETATM    3  C2  UNL     1      23.367 -21.856 -25.303  1.00  0.00     0.087 A 
HETATM    4  C3  UNL     1      22.753 -22.313 -24.231  1.00  0.00     0.064 A 
HETATM    5  C4  UNL     1      22.442 -21.431 -23.223  1.00  0.00     0.085 A 
HETATM    6  S1  UNL     1      23.035 -19.946 -23.857  1.00  0.00    -0.080 SA
BRANCH   3   7
HETATM    7  O1  UNL     1      23.771 -22.604 -26.463  1.00  0.00    -0.355 OA
HETATM    8  C1  UNL     1      24.721 -23.573 -26.439  1.00  0.00     0.210 C 
ENDBRANCH   3   7
BRANCH   5   9
HETATM    9  C5  UNL     1      21.721 -21.698 -21.978  1.00  0.00     0.216 C 
HETATM   10  O2  UNL     1      22.283 -21.928 -20.893  1.00  0.00    -0.643 OA
HETATM   11  O3  UNL     1      20.338 -21.727 -21.956  1.00  0.00    -0.643 OA
ENDBRANCH   5   9
ENDBRANCH   1   2
BRANCH   1  12
HETATM   12  N1  UNL     1      24.098 -18.798 -27.060  1.00  0.00    -0.289 NA
HETATM   13  C8  UNL     1      24.040 -17.543 -26.445  1.00  0.00     0.116 C 
BRANCH  12  14
HETATM   14  C9  UNL     1      24.712 -18.789 -28.402  1.00  0.00     0.085 C 
HETATM   15  C10 UNL     1      25.986 -18.050 -28.516  1.00  0.00     0.022 C 
HETATM   16  C11 UNL     1      25.848 -16.816 -29.382  1.00  0.00     0.002 C 
HETATM   17  C12 UNL     1      25.021 -17.020 -30.618  1.00  0.00     0.002 C 
HETATM   18  C13 UNL     1      23.653 -17.407 -30.176  1.00  0.00     0.027 C 
HETATM   19  C14 UNL     1      23.755 -18.754 -29.524  1.00  0.00     0.050 C 
HETATM   20  C15 UNL     1      22.374 -19.214 -29.161  1.00  0.00     0.034 C 
HETATM   21 CL1  UNL     1      24.287 -19.872 -30.849  1.00  0.00    -0.118 Cl
ENDBRANCH  12  14
ENDBRANCH   1  12
TORSDOF 5
ENDMDL
MODEL 3
REMARK VINA RESULT: -8.092494011      1.126      1.347
REMARK  5 active torsions:
REMARK  status: ('A' for Active; 'I' for Inactive)
REMARK    1  A    between atoms: O1_2  and  C2_3 
REMARK    2  A    between atoms: C4_5  and  C5_6 
REMARK    3  A    between atoms: C6_10  and  C7_11 
REMARK    4  A    between atoms: C7_11  and  N1_12 
REMARK    5  A    between atoms: N1_12  and  C9_14 
ROOT
HETATM    1  C7  UNL     1      23.604 -21.020 -25.802  1.00  0.00     0.081 C 
ENDROOT
BRANCH   1   2
HETATM    2  C6  UNL     1      24.621 -19.992 -26.229  1.00  0.00     0.049 A 
HETATM    3  C2  UNL     1      26.014 -20.191 -26.116  1.00  0.00     0.087 A 
HETATM    4  C3  UNL     1      26.778 -19.338 -26.766  1.00  0.00     0.064 A 
HETATM    5  C4  UNL     1      26.179 -18.333 -27.489  1.00  0.00     0.085 A 
HETATM    6  S1  UNL     1      24.511 -18.637 -27.201  1.00  0.00    -0.080 SA
BRANCH   3   7
HETATM    7  O1  UNL     1      26.437 -21.299 -25.303  1.00  0.00    -0.355 OA
HETATM    8  C1  UNL     1      27.231 -22.302 -25.754  1.00  0.00     0.210 C 
ENDBRANCH   3   7
BRANCH   5   9
HETATM    9  C5  UNL     1      26.821 -17.252 -28.236  1.00  0.00     0.216 C 
HETATM   10  O2  UNL     1      27.731 -16.542 -27.775  1.00  0.00    -0.643 OA
HETATM   11  O3  UNL     1      26.416 -16.948 -29.525  1.00  0.00    -0.643 OA
ENDBRANCH   5   9
ENDBRANCH   1   2
BRANCH   1  12
HETATM   12  N1  UNL     1      22.330 -20.567 -25.542  1.00  0.00    -0.289 NA
HETATM   13  C8  UNL     1      21.449 -20.496 -26.626  1.00  0.00     0.116 C 
BRANCH  12  14
HETATM   14  C9  UNL     1      21.775 -21.241 -24.352  1.00  0.00     0.085 C 
HETATM   15  C10 UNL     1      20.671 -22.188 -24.611  1.00  0.00     0.022 C 
HETATM   16  C11 UNL     1      19.360 -21.700 -24.031  1.00  0.00     0.002 C 
HETATM   17  C12 UNL     1      19.480 -21.090 -22.666  1.00  0.00     0.002 C 
HETATM   18  C13 UNL     1      20.378 -19.909 -22.785  1.00  0.00     0.027 C 
HETATM   19  C14 UNL     1      21.747 -20.418 -23.127  1.00  0.00     0.050 C 
HETATM   20  C15 UNL     1      22.695 -19.256 -23.153  1.00  0.00     0.034 C 
HETATM   21 CL1  UNL     1      22.250 -21.401 -21.689  1.00  0.00    -0.118 Cl
ENDBRANCH  12  14
ENDBRANCH   1  12
TORSDOF 5
ENDMDL
MODEL 4
REMARK VINA RESULT: -8.012262602      4.324      7.157
REMARK  5 active torsions:
REMARK  status: ('A' for Active; 'I' for Inactive)
REMARK    1  A    between atoms: O1_2  and  C2_3 
REMARK    2  A    between atoms: C4_5  and  C5_6 
REMARK    3  A    between atoms: C6_10  and  C7_11 
REMARK    4  A    between atoms: C7_11  and  N1_12 
REMARK    5  A    between atoms: N1_12  and  C9_14 
ROOT
HETATM    1  C7  UNL     1      22.069 -22.209 -24.462  1.00  0.00     0.081 C 
ENDROOT
BRANCH   1   2
HETATM    2  C6  UNL     1      20.649 -22.082 -23.972  1.00  0.00     0.049 A 
HETATM    3  C2  UNL     1      20.317 -21.638 -22.673  1.00  0.00     0.087 A 
HETATM    4  C3  UNL     1      19.055 -21.321 -22.471  1.00  0.00     0.064 A 
HETATM    5  C4  UNL     1      18.168 -21.444 -23.514  1.00  0.00     0.085 A 
HETATM    6  S1  UNL     1      19.182 -22.035 -24.771  1.00  0.00    -0.080 SA
BRANCH   3   7
HETATM    7  O1  UNL     1      21.394 -21.587 -21.721  1.00  0.00    -0.355 OA
HETATM    8  C1  UNL     1      22.082 -22.680 -21.305  1.00  0.00     0.210 C 
ENDBRANCH   3   7
BRANCH   5   9
HETATM    9  C5  UNL     1      16.725 -21.205 -23.507  1.00  0.00     0.216 C 
HETATM   10  O2  UNL     1      16.173 -20.351 -22.791  1.00  0.00    -0.643 OA
HETATM   11  O3  UNL     1      15.881 -21.953 -24.309  1.00  0.00    -0.643 OA
ENDBRANCH   5   9
ENDBRANCH   1   2
BRANCH   1  12
HETATM   12  N1  UNL     1      22.754 -21.040 -24.701  1.00  0.00    -0.289 NA
HETATM   13  C8  UNL     1      23.966 -20.865 -24.024  1.00  0.00     0.116 C 
BRANCH  12  14
HETATM   14  C9  UNL     1      22.823 -20.768 -26.150  1.00  0.00     0.085 C 
HETATM   15  C10 UNL     1      23.959 -21.388 -26.862  1.00  0.00     0.022 C 
HETATM   16  C11 UNL     1      24.938 -20.353 -27.373  1.00  0.00     0.002 C 
HETATM   17  C12 UNL     1      24.294 -19.135 -27.967  1.00  0.00     0.002 C 
HETATM   18  C13 UNL     1      23.489 -18.491 -26.893  1.00  0.00     0.027 C 
HETATM   19  C14 UNL     1      22.365 -19.424 -26.553  1.00  0.00     0.050 C 
HETATM   20  C15 UNL     1      21.478 -18.755 -25.546  1.00  0.00     0.034 C 
HETATM   21 CL1  UNL     1      21.368 -19.519 -28.064  1.00  0.00    -0.118 Cl
ENDBRANCH  12  14
ENDBRANCH   1  12
TORSDOF 5
ENDMDL
MODEL 5
REMARK VINA RESULT: -7.987150964      1.905      3.535
REMARK  5 active torsions:
REMARK  status: ('A' for Active; 'I' for Inactive)
REMARK    1  A    between atoms: O1_2  and  C2_3 
REMARK    2  A    between atoms: C4_5  and  C5_6 
REMARK    3  A    between atoms: C6_10  and  C7_11 
REMARK    4  A    between atoms: C7_11  and  N1_12 
REMARK    5  A    between atoms: N1_12  and  C9_14 
ROOT
HETATM    1  C7  UNL     1      23.761 -20.499 -25.324  1.00  0.00     0.081 C 
ENDROOT
BRANCH   1   2
HETATM    2  C6  UNL     1      24.990 -21.270 -25.732  1.00  0.00     0.049 A 
HETATM    3  C2  UNL     1      26.216 -20.652 -26.061  1.00  0.00     0.087 A 
HETATM    4  C3  UNL     1      27.265 -21.444 -26.135  1.00  0.00     0.064 A 
HETATM    5  C4  UNL     1      27.097 -22.787 -25.897  1.00  0.00     0.085 A 
HETATM    6  S1  UNL     1      25.409 -22.881 -25.581  1.00  0.00    -0.080 SA
BRANCH   3   7
HETATM    7  O1  UNL     1      26.176 -19.231 -26.280  1.00  0.00    -0.355 OA
HETATM    8  C1  UNL     1      27.006 -18.578 -27.131  1.00  0.00     0.210 C 
ENDBRANCH   3   7
BRANCH   5   9
HETATM    9  C5  UNL     1      28.097 -23.852 -25.975  1.00  0.00     0.216 C 
HETATM   10  O2  UNL     1      27.813 -25.061 -26.024  1.00  0.00    -0.643 OA
HETATM   11  O3  UNL     1      29.449 -23.552 -25.981  1.00  0.00    -0.643 OA
ENDBRANCH   5   9
ENDBRANCH   1   2
BRANCH   1  12
HETATM   12  N1  UNL     1      23.121 -20.906 -24.174  1.00  0.00    -0.289 NA
HETATM   13  C8  UNL     1      23.604 -20.395 -22.965  1.00  0.00     0.116 C 
BRANCH  12  14
HETATM   14  C9  UNL     1      21.657 -20.806 -24.334  1.00  0.00     0.085 C 
HETATM   15  C10 UNL     1      21.082 -19.463 -24.117  1.00  0.00     0.022 C 
HETATM   16  C11 UNL     1      20.206 -19.418 -22.882  1.00  0.00     0.002 C 
HETATM   17  C12 UNL     1      19.321 -20.618 -22.710  1.00  0.00     0.002 C 
HETATM   18  C13 UNL     1      20.207 -21.807 -22.581  1.00  0.00     0.027 C 
HETATM   19  C14 UNL     1      20.901 -21.996 -23.897  1.00  0.00     0.050 C 
HETATM   20  C15 UNL     1      21.723 -23.248 -23.828  1.00  0.00     0.034 C 
HETATM   21 CL1  UNL     1      19.573 -22.372 -25.072  1.00  0.00    -0.118 Cl
ENDBRANCH  12  14
ENDBRANCH   1  12
TORSDOF 5
ENDMDL
