MODEL 1
REMARK VINA RESULT: -8.814127720      0.000      0.000
REMARK  5 active torsions:
REMARK  status: ('A' for Active; 'I' for Inactive)
REMARK    1  A    between atoms: O1_2  and  C2_3 
REMARK    2  A    between atoms: C4_5  and  O2_6 
REMARK    3  A    between atoms: C6_8  and  C7_9 
REMARK    4  A    between atoms: C7_9  and  N1_10 
REMARK    5  A    between atoms: N1_10  and  C8_13 
ROOT
HETATM    1  C7  UNL     1      24.512 -21.422 -26.479  1.00  0.00     0.277 C 
ENDROOT
BRANCH   1   2
HETATM    2  C6  UNL     1      25.437 -22.574 -26.617  1.00  0.00     0.040 A 
HETATM    3  C4  UNL     1      25.204 -23.475 -27.658  1.00  0.00     0.081 A 
HETATM    4  C3  UNL     1      25.991 -24.598 -27.765  1.00  0.00     0.074 A 
HETATM    5  C2  UNL     1      27.006 -24.846 -26.859  1.00  0.00     0.079 A 
HETATM    6  C18 UNL     1      27.257 -23.967 -25.818  1.00  0.00     0.011 A 
HETATM    7  C17 UNL     1      26.452 -22.850 -25.737  1.00  0.00     0.135 A 
HETATM    8  C19 UNL     1      28.342 -24.197 -24.811  1.00  0.00     0.054 C 
HETATM    9  F1  UNL     1      26.703 -21.985 -24.715  1.00  0.00    -0.205 F 
BRANCH   3  10
HETATM   10  O2  UNL     1      24.172 -23.176 -28.540  1.00  0.00    -0.355 OA
HETATM   11  C5  UNL     1      24.331 -22.468 -29.746  1.00  0.00     0.210 C 
ENDBRANCH   3  10
BRANCH   5  12
HETATM   12  O1  UNL     1      27.791 -25.977 -26.981  1.00  0.00    -0.355 OA
HETATM   13  C1  UNL     1      28.789 -26.182 -27.933  1.00  0.00     0.210 C 
ENDBRANCH   5  12
ENDBRANCH   1   2
BRANCH   1  14
HETATM   14  N1  UNL     1      23.245 -21.913 -25.997  1.00  0.00    -0.067 N 
ATOM     15  H12 UNL     1      22.471 -21.442 -26.463  1.00  0.00     0.277 HD
ATOM     16  H11 UNL     1      23.078 -22.866 -26.318  1.00  0.00     0.277 HD
BRANCH  14  17
HETATM   17  C8  UNL     1      23.114 -21.824 -24.567  1.00  0.00     0.187 C 
HETATM   18  C9  UNL     1      23.758 -20.513 -24.132  1.00  0.00     0.037 C 
HETATM   19  C10 UNL     1      22.609 -19.572 -23.741  1.00  0.00    -0.016 C 
HETATM   20  C11 UNL     1      23.119 -18.183 -23.594  1.00  0.00     0.010 C 
HETATM   21  C12 UNL     1      22.086 -20.162 -22.441  1.00  0.00     0.013 C 
HETATM   22  C13 UNL     1      21.438 -21.485 -22.736  1.00  0.00    -0.045 C 
HETATM   23  C14 UNL     1      21.853 -22.435 -21.634  1.00  0.00     0.015 C 
HETATM   24  C15 UNL     1      19.942 -21.283 -22.635  1.00  0.00     0.015 C 
HETATM   25  C16 UNL     1      21.726 -22.020 -24.115  1.00  0.00     0.041 C 
ENDBRANCH  14  17
ENDBRANCH   1  14
TORSDOF 5
ENDMDL
MODEL 2
REMARK VINA RESULT: -8.805701846      2.413      3.878
REMARK  5 active torsions:
REMARK  status: ('A' for Active; 'I' for Inactive)
REMARK    1  A    between atoms: O1_2  and  C2_3 
REMARK    2  A    between atoms: C4_5  and  O2_6 
REMARK    3  A    between atoms: C6_8  and  C7_9 
REMARK    4  A    between atoms: C7_9  and  N1_10 
REMARK    5  A    between atoms: N1_10  and  C8_13 
ROOT
HETATM    1  C7  UNL     1      23.284 -22.710 -25.420  1.00  0.00     0.277 C 
ENDROOT
BRANCH   1   2
HETATM    2  C6  UNL     1      24.313 -21.721 -25.827  1.00  0.00     0.040 A 
HETATM    3  C4  UNL     1      25.654 -22.062 -25.639  1.00  0.00     0.081 A 
HETATM    4  C3  UNL     1      26.630 -21.137 -25.928  1.00  0.00     0.074 A 
HETATM    5  C2  UNL     1      26.303 -19.878 -26.401  1.00  0.00     0.079 A 
HETATM    6  C18 UNL     1      24.980 -19.517 -26.595  1.00  0.00     0.011 A 
HETATM    7  C17 UNL     1      24.024 -20.466 -26.298  1.00  0.00     0.135 A 
HETATM    8  C19 UNL     1      24.579 -18.165 -27.101  1.00  0.00     0.054 C 
HETATM    9  F1  UNL     1      22.723 -20.109 -26.494  1.00  0.00    -0.205 F 
BRANCH   3  10
HETATM   10  O2  UNL     1      25.926 -23.339 -25.164  1.00  0.00    -0.355 OA
HETATM   11  C5  UNL     1      27.204 -23.927 -25.137  1.00  0.00     0.210 C 
ENDBRANCH   3  10
BRANCH   5  12
HETATM   12  O1  UNL     1      27.295 -18.960 -26.690  1.00  0.00    -0.355 OA
HETATM   13  C1  UNL     1      28.197 -19.037 -27.750  1.00  0.00     0.210 C 
ENDBRANCH   5  12
ENDBRANCH   1   2
BRANCH   1  14
HETATM   14  N1  UNL     1      23.413 -22.939 -24.003  1.00  0.00    -0.067 N 
ATOM     15  H12 UNL     1      23.495 -23.936 -23.801  1.00  0.00     0.277 HD
ATOM     16  H11 UNL     1      24.322 -22.626 -23.664  1.00  0.00     0.277 HD
BRANCH  14  17
HETATM   17  C8  UNL     1      22.349 -22.347 -23.237  1.00  0.00     0.187 C 
HETATM   18  C9  UNL     1      22.854 -21.006 -22.717  1.00  0.00     0.037 C 
HETATM   19  C10 UNL     1      22.127 -19.923 -23.528  1.00  0.00    -0.016 C 
HETATM   20  C11 UNL     1      22.774 -18.603 -23.303  1.00  0.00     0.010 C 
HETATM   21  C12 UNL     1      20.698 -19.988 -23.017  1.00  0.00     0.013 C 
HETATM   22  C13 UNL     1      20.087 -21.291 -23.451  1.00  0.00    -0.045 C 
HETATM   23  C14 UNL     1      19.288 -21.816 -22.278  1.00  0.00     0.015 C 
HETATM   24  C15 UNL     1      19.118 -20.979 -24.570  1.00  0.00     0.015 C 
HETATM   25  C16 UNL     1      21.081 -22.291 -23.983  1.00  0.00     0.041 C 
ENDBRANCH  14  17
ENDBRANCH   1  14
TORSDOF 5
ENDMDL
MODEL 3
REMARK VINA RESULT: -8.534125387      3.488      6.571
REMARK  5 active torsions:
REMARK  status: ('A' for Active; 'I' for Inactive)
REMARK    1  A    between atoms: O1_2  and  C2_3 
REMARK    2  A    between atoms: C4_5  and  O2_6 
REMARK    3  A    between atoms: C6_8  and  C7_9 
REMARK    4  A    between atoms: C7_9  and  N1_10 
REMARK    5  A    between atoms: N1_10  and  C8_13 
ROOT
HETATM    1  C7  UNL     1      26.417 -19.802 -27.161  1.00  0.00     0.277 C 
ENDROOT
BRANCH   1   2
HETATM    2  C6  UNL     1      25.371 -20.052 -26.140  1.00  0.00     0.040 A 
HETATM    3  C4  UNL     1      25.249 -21.350 -25.637  1.00  0.00     0.081 A 
HETATM    4  C3  UNL     1      24.237 -21.636 -24.752  1.00  0.00     0.074 A 
HETATM    5  C2  UNL     1      23.340 -20.660 -24.353  1.00  0.00     0.079 A 
HETATM    6  C18 UNL     1      23.441 -19.366 -24.838  1.00  0.00     0.011 A 
HETATM    7  C17 UNL     1      24.467 -19.110 -25.723  1.00  0.00     0.135 A 
HETATM    8  C19 UNL     1      22.491 -18.279 -24.437  1.00  0.00     0.054 C 
HETATM    9  F1  UNL     1      24.566 -17.835 -26.195  1.00  0.00    -0.205 F 
BRANCH   3  10
HETATM   10  O2  UNL     1      26.176 -22.290 -26.070  1.00  0.00    -0.355 OA
HETATM   11  C5  UNL     1      27.001 -23.050 -25.220  1.00  0.00     0.210 C 
ENDBRANCH   3  10
BRANCH   5  12
HETATM   12  O1  UNL     1      22.330 -20.962 -23.460  1.00  0.00    -0.355 OA
HETATM   13  C1  UNL     1      22.497 -21.282 -22.113  1.00  0.00     0.210 C 
ENDBRANCH   5  12
ENDBRANCH   1   2
BRANCH   1  14
HETATM   14  N1  UNL     1      26.101 -20.578 -28.334  1.00  0.00    -0.067 N 
ATOM     15  H12 UNL     1      26.920 -21.086 -28.667  1.00  0.00     0.277 HD
ATOM     16  H11 UNL     1      25.500 -21.367 -28.097  1.00  0.00     0.277 HD
BRANCH  14  17
HETATM   17  C8  UNL     1      25.521 -19.792 -29.390  1.00  0.00     0.187 C 
HETATM   18  C9  UNL     1      24.075 -20.247 -29.555  1.00  0.00     0.037 C 
HETATM   19  C10 UNL     1      23.197 -19.122 -28.988  1.00  0.00    -0.016 C 
HETATM   20  C11 UNL     1      21.799 -19.601 -28.829  1.00  0.00     0.010 C 
HETATM   21  C12 UNL     1      23.339 -18.005 -30.008  1.00  0.00     0.013 C 
HETATM   22  C13 UNL     1      24.746 -17.479 -29.960  1.00  0.00    -0.045 C 
HETATM   23  C14 UNL     1      25.182 -17.252 -31.391  1.00  0.00     0.015 C 
HETATM   24  C15 UNL     1      24.696 -16.133 -29.271  1.00  0.00     0.015 C 
HETATM   25  C16 UNL     1      25.702 -18.346 -29.182  1.00  0.00     0.041 C 
ENDBRANCH  14  17
ENDBRANCH   1  14
TORSDOF 5
ENDMDL
MODEL 4
REMARK VINA RESULT: -8.526838231      3.790      7.253
REMARK  5 active torsions:
REMARK  status: ('A' for Active; 'I' for Inactive)
REMARK    1  A    between atoms: O1_2  and  C2_3 
REMARK    2  A    between atoms: C4_5  and  O2_6 
REMARK    3  A    between atoms: C6_8  and  C7_9 
REMARK    4  A    between atoms: C7_9  and  N1_10 
REMARK    5  A    between atoms: N1_10  and  C8_13 
ROOT
HETATM    1  C7  UNL     1      23.169 -18.335 -26.213  1.00  0.00     0.277 C 
ENDROOT
BRANCH   1   2
HETATM    2  C6  UNL     1      22.783 -19.045 -24.969  1.00  0.00     0.040 A 
HETATM    3  C4  UNL     1      23.677 -19.985 -24.452  1.00  0.00     0.081 A 
HETATM    4  C3  UNL     1      23.315 -20.721 -23.349  1.00  0.00     0.074 A 
HETATM    5  C2  UNL     1      22.083 -20.544 -22.745  1.00  0.00     0.079 A 
HETATM    6  C18 UNL     1      21.179 -19.618 -23.240  1.00  0.00     0.011 A 
HETATM    7  C17 UNL     1      21.571 -18.894 -24.346  1.00  0.00     0.135 A 
HETATM    8  C19 UNL     1      19.833 -19.396 -22.622  1.00  0.00     0.054 C 
HETATM    9  F1  UNL     1      20.681 -17.981 -24.829  1.00  0.00    -0.205 F 
BRANCH   3  10
HETATM   10  O2  UNL     1      24.902 -20.121 -25.096  1.00  0.00    -0.355 OA
HETATM   11  C5  UNL     1      25.480 -21.350 -25.461  1.00  0.00     0.210 C 
ENDBRANCH   3  10
BRANCH   5  12
HETATM   12  O1  UNL     1      21.735 -21.289 -21.634  1.00  0.00    -0.355 OA
HETATM   13  C1  UNL     1      22.046 -22.631 -21.418  1.00  0.00     0.210 C 
ENDBRANCH   5  12
ENDBRANCH   1   2
BRANCH   1  14
HETATM   14  N1  UNL     1      22.753 -19.134 -27.339  1.00  0.00    -0.067 N 
ATOM     15  H12 UNL     1      22.372 -20.028 -27.030  1.00  0.00     0.277 HD
ATOM     16  H11 UNL     1      21.921 -18.740 -27.776  1.00  0.00     0.277 HD
BRANCH  14  17
HETATM   17  C8  UNL     1      23.798 -19.329 -28.308  1.00  0.00     0.187 C 
HETATM   18  C9  UNL     1      23.166 -19.206 -29.690  1.00  0.00     0.037 C 
HETATM   19  C10 UNL     1      23.639 -17.864 -30.268  1.00  0.00    -0.016 C 
HETATM   20  C11 UNL     1      22.840 -17.521 -31.474  1.00  0.00     0.010 C 
HETATM   21  C12 UNL     1      25.110 -18.100 -30.568  1.00  0.00     0.013 C 
HETATM   22  C13 UNL     1      25.851 -18.261 -29.270  1.00  0.00    -0.045 C 
HETATM   23  C14 UNL     1      26.837 -19.393 -29.462  1.00  0.00     0.015 C 
HETATM   24  C15 UNL     1      26.640 -16.990 -29.045  1.00  0.00     0.015 C 
HETATM   25  C16 UNL     1      24.958 -18.453 -28.071  1.00  0.00     0.041 C 
ENDBRANCH  14  17
ENDBRANCH   1  14
TORSDOF 5
ENDMDL
MODEL 5
REMARK VINA RESULT: -8.449571713      3.037      3.899
REMARK  5 active torsions:
REMARK  status: ('A' for Active; 'I' for Inactive)
REMARK    1  A    between atoms: O1_2  and  C2_3 
REMARK    2  A    between atoms: C4_5  and  O2_6 
REMARK    3  A    between atoms: C6_8  and  C7_9 
REMARK    4  A    between atoms: C7_9  and  N1_10 
REMARK    5  A    between atoms: N1_10  and  C8_13 
ROOT
HETATM    1  C7  UNL     1      22.120 -21.582 -26.704  1.00  0.00     0.277 C 
ENDROOT
BRANCH   1   2
HETATM    2  C6  UNL     1      23.470 -20.983 -26.567  1.00  0.00     0.040 A 
HETATM    3  C4  UNL     1      23.727 -19.793 -27.251  1.00  0.00     0.081 A 
HETATM    4  C3  UNL     1      24.992 -19.255 -27.214  1.00  0.00     0.074 A 
HETATM    5  C2  UNL     1      26.010 -19.874 -26.510  1.00  0.00     0.079 A 
HETATM    6  C18 UNL     1      25.780 -21.055 -25.823  1.00  0.00     0.011 A 
HETATM    7  C17 UNL     1      24.502 -21.569 -25.878  1.00  0.00     0.135 A 
HETATM    8  C19 UNL     1      26.852 -21.762 -25.052  1.00  0.00     0.054 C 
HETATM    9  F1  UNL     1      24.277 -22.729 -25.199  1.00  0.00    -0.205 F 
BRANCH   3  10
HETATM   10  O2  UNL     1      22.669 -19.213 -27.941  1.00  0.00    -0.355 OA
HETATM   11  C5  UNL     1      22.642 -18.999 -29.331  1.00  0.00     0.210 C 
ENDBRANCH   3  10
BRANCH   5  12
HETATM   12  O1  UNL     1      27.276 -19.319 -26.479  1.00  0.00    -0.355 OA
HETATM   13  C1  UNL     1      28.106 -19.111 -27.580  1.00  0.00     0.210 C 
ENDBRANCH   5  12
ENDBRANCH   1   2
BRANCH   1  14
HETATM   14  N1  UNL     1      21.215 -20.860 -25.844  1.00  0.00    -0.067 N 
ATOM     15  H12 UNL     1      21.721 -20.196 -25.258  1.00  0.00     0.277 HD
ATOM     16  H11 UNL     1      20.645 -20.208 -26.381  1.00  0.00     0.277 HD
BRANCH  14  17
HETATM   17  C8  UNL     1      20.389 -21.724 -25.044  1.00  0.00     0.187 C 
HETATM   18  C9  UNL     1      21.273 -22.318 -23.953  1.00  0.00     0.037 C 
HETATM   19  C10 UNL     1      20.866 -21.632 -22.640  1.00  0.00    -0.016 C 
HETATM   20  C11 UNL     1      21.871 -21.923 -21.584  1.00  0.00     0.010 C 
HETATM   21  C12 UNL     1      19.493 -22.211 -22.342  1.00  0.00     0.013 C 
HETATM   22  C13 UNL     1      18.521 -21.712 -23.374  1.00  0.00    -0.045 C 
HETATM   23  C14 UNL     1      17.639 -22.882 -23.753  1.00  0.00     0.015 C 
HETATM   24  C15 UNL     1      17.650 -20.673 -22.702  1.00  0.00     0.015 C 
HETATM   25  C16 UNL     1      19.170 -21.052 -24.564  1.00  0.00     0.041 C 
ENDBRANCH  14  17
ENDBRANCH   1  14
TORSDOF 5
ENDMDL
