MODEL 1
REMARK VINA RESULT: -5.525080347      0.000      0.000
REMARK  8 active torsions:
REMARK  status: ('A' for Active; 'I' for Inactive)
REMARK    1  A    between atoms: N4_15  and  C7_16 
REMARK    2  A    between atoms: C7_16  and  O4_17 
REMARK    3  A    between atoms: C8_19  and  O5_20 
REMARK    4  A    between atoms: C9_22  and  C10_23 
REMARK    5  A    between atoms: C10_23  and  O6_24 
REMARK    6  A    between atoms: C11_26  and  O7_27 
REMARK    7  A    between atoms: C11_26  and  O8_29 
REMARK    8  A    between atoms: O8_29  and  N5_30 
ROOT
HETATM    1  C7  UNL     1       0.766 -29.806  16.108  1.00  0.00     0.230 C 
HETATM    2  C8  UNL     1       1.581 -28.792  16.806  1.00  0.00     0.191 C 
HETATM    3  C9  UNL     1       1.264 -27.890  15.586  1.00  0.00     0.113 C 
HETATM    4  C11 UNL     1      -0.075 -28.649  15.586  1.00  0.00     0.249 C 
ENDROOT
BRANCH   1   5
HETATM    5  N4  UNL     1       0.139 -30.876  16.756  1.00  0.00    -0.241 N 
HETATM    6  C3  UNL     1       0.650 -31.339  17.939  1.00  0.00     0.151 A 
HETATM    7  N2  UNL     1       1.699 -30.987  18.701  1.00  0.00    -0.292 N 
HETATM    8  C4  UNL     1       0.044 -32.403  18.606  1.00  0.00     0.152 A 
HETATM    9  C2  UNL     1       1.788 -31.764  19.801  1.00  0.00     0.328 A 
ATOM     10  H2  UNL     1       2.345 -30.231  18.476  1.00  0.00     0.172 HD
HETATM   11  N1  UNL     1       0.766 -32.633  19.737  1.00  0.00    -0.296 N 
HETATM   12  O1  UNL     1       2.652 -31.705  20.723  1.00  0.00    -0.246 OA
HETATM   13  C1  UNL     1       0.434 -33.679  20.696  1.00  0.00     0.161 C 
HETATM   14  C5  UNL     1      -1.079 -33.026  18.114  1.00  0.00     0.280 A 
HETATM   15  O2  UNL     1      -1.632 -33.986  18.708  1.00  0.00    -0.265 OA
HETATM   16  N3  UNL     1      -1.553 -32.546  16.948  1.00  0.00    -0.273 N 
HETATM   17  C6  UNL     1      -0.961 -31.517  16.310  1.00  0.00     0.333 A 
ATOM     18  H3  UNL     1      -2.384 -32.973  16.537  1.00  0.00     0.173 HD
HETATM   19  O3  UNL     1      -1.501 -31.168  15.241  1.00  0.00    -0.246 OA
ENDBRANCH   1   5
BRANCH   1  20
HETATM   20  O4  UNL     1       1.565 -30.137  14.976  1.00  0.00    -0.364 OA
ATOM     21  H4  UNL     1       1.825 -31.048  14.898  1.00  0.00     0.213 HD
ENDBRANCH   1  20
BRANCH   2  22
HETATM   22  O5  UNL     1       2.969 -29.019  16.814  1.00  0.00    -0.390 OA
ATOM     23  H5  UNL     1       3.242 -29.912  16.988  1.00  0.00     0.210 HD
ENDBRANCH   2  22
BRANCH   4  24
HETATM   24  O7  UNL     1      -0.563 -28.784  14.297  1.00  0.00    -0.359 OA
ATOM     25  H7  UNL     1      -0.343 -28.086  13.692  1.00  0.00     0.213 HD
ENDBRANCH   4  24
BRANCH   4  26
HETATM   26  O8  UNL     1      -1.036 -28.160  16.420  1.00  0.00    -0.241 OA
BRANCH  26  27
HETATM   27  N5  UNL     1      -2.171 -27.955  15.742  1.00  0.00    -0.308 N 
ATOM     28  H52 UNL     1      -2.218 -27.510  14.825  1.00  0.00     0.184 HD
ATOM     29  H51 UNL     1      -2.966 -28.307  16.275  1.00  0.00     0.184 HD
ENDBRANCH  26  27
ENDBRANCH   4  26
BRANCH   3  30
HETATM   30  C10 UNL     1       1.185 -26.439  15.923  1.00  0.00     0.177 C 
BRANCH  30  31
HETATM   31  O6  UNL     1       0.155 -25.866  15.200  1.00  0.00    -0.400 OA
ATOM     32  H6  UNL     1       0.354 -24.949  15.054  1.00  0.00     0.209 HD
ENDBRANCH  30  31
ENDBRANCH   3  30
TORSDOF 8
ENDMDL
MODEL 2
REMARK VINA RESULT: -5.459270550      2.747      3.619
REMARK  8 active torsions:
REMARK  status: ('A' for Active; 'I' for Inactive)
REMARK    1  A    between atoms: N4_15  and  C7_16 
REMARK    2  A    between atoms: C7_16  and  O4_17 
REMARK    3  A    between atoms: C8_19  and  O5_20 
REMARK    4  A    between atoms: C9_22  and  C10_23 
REMARK    5  A    between atoms: C10_23  and  O6_24 
REMARK    6  A    between atoms: C11_26  and  O7_27 
REMARK    7  A    between atoms: C11_26  and  O8_29 
REMARK    8  A    between atoms: O8_29  and  N5_30 
ROOT
HETATM    1  C7  UNL     1      -0.050 -31.891  17.028  1.00  0.00     0.230 C 
HETATM    2  C8  UNL     1      -1.200 -31.333  16.289  1.00  0.00     0.191 C 
HETATM    3  C9  UNL     1      -0.706 -29.963  16.821  1.00  0.00     0.113 C 
HETATM    4  C11 UNL     1       0.688 -30.603  16.688  1.00  0.00     0.249 C 
ENDROOT
BRANCH   1   5
HETATM    5  N4  UNL     1       0.542 -33.124  16.726  1.00  0.00    -0.241 N 
HETATM    6  C3  UNL     1       1.417 -33.685  17.616  1.00  0.00     0.151 A 
HETATM    7  N2  UNL     1       1.892 -33.313  18.816  1.00  0.00    -0.292 N 
HETATM    8  C4  UNL     1       2.019 -34.912  17.340  1.00  0.00     0.152 A 
HETATM    9  C2  UNL     1       2.753 -34.229  19.308  1.00  0.00     0.328 A 
ATOM     10  H2  UNL     1       1.635 -32.449  19.294  1.00  0.00     0.172 HD
HETATM   11  N1  UNL     1       2.827 -35.210  18.394  1.00  0.00    -0.296 N 
HETATM   12  O1  UNL     1       3.378 -34.191  20.407  1.00  0.00    -0.246 OA
HETATM   13  C1  UNL     1       3.628 -36.426  18.467  1.00  0.00     0.161 C 
HETATM   14  C5  UNL     1       1.764 -35.604  16.179  1.00  0.00     0.280 A 
HETATM   15  O2  UNL     1       2.302 -36.711  15.921  1.00  0.00    -0.265 OA
HETATM   16  N3  UNL     1       0.899 -35.022  15.327  1.00  0.00    -0.273 N 
HETATM   17  C6  UNL     1       0.321 -33.835  15.601  1.00  0.00     0.333 A 
ATOM     18  H3  UNL     1       0.675 -35.492  14.449  1.00  0.00     0.173 HD
HETATM   19  O3  UNL     1      -0.462 -33.406  14.730  1.00  0.00    -0.246 OA
ENDBRANCH   1   5
BRANCH   1  20
HETATM   20  O4  UNL     1      -0.412 -31.685  18.390  1.00  0.00    -0.364 OA
ATOM     21  H4  UNL     1       0.135 -31.084  18.884  1.00  0.00     0.213 HD
ENDBRANCH   1  20
BRANCH   2  22
HETATM   22  O5  UNL     1      -2.465 -31.573  16.851  1.00  0.00    -0.390 OA
ATOM     23  H5  UNL     1      -2.615 -32.454  17.175  1.00  0.00     0.210 HD
ENDBRANCH   2  22
BRANCH   4  24
HETATM   24  O7  UNL     1       1.546 -30.117  17.660  1.00  0.00    -0.359 OA
ATOM     25  H7  UNL     1       2.462 -30.350  17.562  1.00  0.00     0.213 HD
ENDBRANCH   4  24
BRANCH   4  26
HETATM   26  O8  UNL     1       1.261 -30.528  15.454  1.00  0.00    -0.241 OA
BRANCH  26  27
HETATM   27  N5  UNL     1       2.380 -29.797  15.511  1.00  0.00    -0.308 N 
ATOM     28  H52 UNL     1       2.720 -29.336  16.356  1.00  0.00     0.184 HD
ATOM     29  H51 UNL     1       2.830 -29.773  14.596  1.00  0.00     0.184 HD
ENDBRANCH  26  27
ENDBRANCH   4  26
BRANCH   3  30
HETATM   30  C10 UNL     1      -0.988 -28.829  15.895  1.00  0.00     0.177 C 
BRANCH  30  31
HETATM   31  O6  UNL     1      -0.039 -27.842  16.092  1.00  0.00    -0.400 OA
ATOM     32  H6  UNL     1       0.536 -27.811  15.337  1.00  0.00     0.209 HD
ENDBRANCH  30  31
ENDBRANCH   3  30
TORSDOF 8
ENDMDL
MODEL 3
REMARK VINA RESULT: -5.318647047      1.826      5.545
REMARK  8 active torsions:
REMARK  status: ('A' for Active; 'I' for Inactive)
REMARK    1  A    between atoms: N4_15  and  C7_16 
REMARK    2  A    between atoms: C7_16  and  O4_17 
REMARK    3  A    between atoms: C8_19  and  O5_20 
REMARK    4  A    between atoms: C9_22  and  C10_23 
REMARK    5  A    between atoms: C10_23  and  O6_24 
REMARK    6  A    between atoms: C11_26  and  O7_27 
REMARK    7  A    between atoms: C11_26  and  O8_29 
REMARK    8  A    between atoms: O8_29  and  N5_30 
ROOT
HETATM    1  C7  UNL     1      -0.121 -32.568  16.902  1.00  0.00     0.230 C 
HETATM    2  C8  UNL     1      -0.893 -33.805  17.137  1.00  0.00     0.191 C 
HETATM    3  C9  UNL     1       0.222 -34.148  18.158  1.00  0.00     0.113 C 
HETATM    4  C11 UNL     1       0.259 -32.624  18.376  1.00  0.00     0.249 C 
ENDROOT
BRANCH   1   5
HETATM    5  N4  UNL     1      -0.677 -31.395  16.379  1.00  0.00    -0.241 N 
HETATM    6  C3  UNL     1       0.091 -30.265  16.299  1.00  0.00     0.151 A 
HETATM    7  N2  UNL     1       1.361 -29.977  16.628  1.00  0.00    -0.292 N 
HETATM    8  C4  UNL     1      -0.438 -29.083  15.781  1.00  0.00     0.152 A 
HETATM    9  C2  UNL     1       1.660 -28.690  16.349  1.00  0.00     0.328 A 
ATOM     10  H2  UNL     1       2.015 -30.645  17.036  1.00  0.00     0.172 HD
HETATM   11  N1  UNL     1       0.548 -28.146  15.828  1.00  0.00    -0.296 N 
HETATM   12  O1  UNL     1       2.760 -28.094  16.533  1.00  0.00    -0.246 OA
HETATM   13  C1  UNL     1       0.368 -26.774  15.368  1.00  0.00     0.161 C 
HETATM   14  C5  UNL     1      -1.736 -29.001  15.333  1.00  0.00     0.280 A 
HETATM   15  O2  UNL     1      -2.222 -27.940  14.864  1.00  0.00    -0.265 OA
HETATM   16  N3  UNL     1      -2.462 -30.131  15.427  1.00  0.00    -0.273 N 
HETATM   17  C6  UNL     1      -1.943 -31.270  15.929  1.00  0.00     0.333 A 
ATOM     18  H3  UNL     1      -3.432 -30.126  15.110  1.00  0.00     0.173 HD
HETATM   19  O3  UNL     1      -2.720 -32.245  15.960  1.00  0.00    -0.246 OA
ENDBRANCH   1   5
BRANCH   1  20
HETATM   20  O4  UNL     1       1.061 -33.043  16.264  1.00  0.00    -0.364 OA
ATOM     21  H4  UNL     1       1.751 -33.355  16.838  1.00  0.00     0.213 HD
ENDBRANCH   1  20
BRANCH   2  22
HETATM   22  O5  UNL     1      -0.838 -34.766  16.113  1.00  0.00    -0.390 OA
ATOM     23  H5  UNL     1      -0.186 -34.617  15.439  1.00  0.00     0.210 HD
ENDBRANCH   2  22
BRANCH   4  24
HETATM   24  O7  UNL     1       1.541 -32.204  18.691  1.00  0.00    -0.359 OA
ATOM     25  H7  UNL     1       1.830 -32.378  19.578  1.00  0.00     0.213 HD
ENDBRANCH   4  24
BRANCH   4  26
HETATM   26  O8  UNL     1      -0.646 -32.129  19.266  1.00  0.00    -0.241 OA
BRANCH  26  27
HETATM   27  N5  UNL     1      -0.024 -31.383  20.186  1.00  0.00    -0.308 N 
ATOM     28  H52 UNL     1       0.718 -30.715  19.976  1.00  0.00     0.184 HD
ATOM     29  H51 UNL     1      -0.401 -31.583  21.112  1.00  0.00     0.184 HD
ENDBRANCH  26  27
ENDBRANCH   4  26
BRANCH   3  30
HETATM   30  C10 UNL     1      -0.260 -34.955  19.316  1.00  0.00     0.177 C 
BRANCH  30  31
HETATM   31  O6  UNL     1       0.485 -34.626  20.434  1.00  0.00    -0.400 OA
ATOM     32  H6  UNL     1       1.149 -33.993  20.187  1.00  0.00     0.209 HD
ENDBRANCH  30  31
ENDBRANCH   3  30
TORSDOF 8
ENDMDL
MODEL 4
REMARK VINA RESULT: -5.289327529      1.959      6.099
REMARK  8 active torsions:
REMARK  status: ('A' for Active; 'I' for Inactive)
REMARK    1  A    between atoms: N4_15  and  C7_16 
REMARK    2  A    between atoms: C7_16  and  O4_17 
REMARK    3  A    between atoms: C8_19  and  O5_20 
REMARK    4  A    between atoms: C9_22  and  C10_23 
REMARK    5  A    between atoms: C10_23  and  O6_24 
REMARK    6  A    between atoms: C11_26  and  O7_27 
REMARK    7  A    between atoms: C11_26  and  O8_29 
REMARK    8  A    between atoms: O8_29  and  N5_30 
ROOT
HETATM    1  C7  UNL     1       0.215 -31.239  16.474  1.00  0.00     0.230 C 
HETATM    2  C8  UNL     1      -0.919 -32.178  16.357  1.00  0.00     0.191 C 
HETATM    3  C9  UNL     1      -0.127 -33.051  17.365  1.00  0.00     0.113 C 
HETATM    4  C11 UNL     1       0.332 -31.692  17.924  1.00  0.00     0.249 C 
ENDROOT
BRANCH   1   5
HETATM    5  N4  UNL     1       0.122 -29.872  16.186  1.00  0.00    -0.241 N 
HETATM    6  C3  UNL     1      -1.062 -29.362  15.726  1.00  0.00     0.151 A 
HETATM    7  N2  UNL     1      -2.266 -29.895  15.460  1.00  0.00    -0.292 N 
HETATM    8  C4  UNL     1      -1.182 -28.004  15.432  1.00  0.00     0.152 A 
HETATM    9  C2  UNL     1      -3.131 -28.958  15.018  1.00  0.00     0.328 A 
ATOM     10  H2  UNL     1      -2.496 -30.882  15.577  1.00  0.00     0.172 HD
HETATM   11  N1  UNL     1      -2.457 -27.796  15.003  1.00  0.00    -0.296 N 
HETATM   12  O1  UNL     1      -4.339 -29.118  14.678  1.00  0.00    -0.246 OA
HETATM   13  C1  UNL     1      -2.961 -26.489  14.601  1.00  0.00     0.161 C 
HETATM   14  C5  UNL     1      -0.132 -27.129  15.589  1.00  0.00     0.280 A 
HETATM   15  O2  UNL     1      -0.231 -25.904  15.326  1.00  0.00    -0.265 OA
HETATM   16  N3  UNL     1       1.017 -27.666  16.042  1.00  0.00    -0.273 N 
HETATM   17  C6  UNL     1       1.124 -28.980  16.324  1.00  0.00     0.333 A 
ATOM     18  H3  UNL     1       1.828 -27.062  16.175  1.00  0.00     0.173 HD
HETATM   19  O3  UNL     1       2.241 -29.349  16.737  1.00  0.00    -0.246 OA
ENDBRANCH   1   5
BRANCH   1  20
HETATM   20  O4  UNL     1       1.282 -31.943  15.848  1.00  0.00    -0.364 OA
ATOM     21  H4  UNL     1       1.294 -31.929  14.897  1.00  0.00     0.213 HD
ENDBRANCH   1  20
BRANCH   2  22
HETATM   22  O5  UNL     1      -1.000 -32.894  15.150  1.00  0.00    -0.390 OA
ATOM     23  H5  UNL     1      -1.670 -33.567  15.112  1.00  0.00     0.210 HD
ENDBRANCH   2  22
BRANCH   4  24
HETATM   24  O7  UNL     1       1.617 -31.779  18.433  1.00  0.00    -0.359 OA
ATOM     25  H7  UNL     1       1.716 -31.571  19.354  1.00  0.00     0.213 HD
ENDBRANCH   4  24
BRANCH   4  26
HETATM   26  O8  UNL     1      -0.507 -31.106  18.823  1.00  0.00    -0.241 OA
BRANCH  26  27
HETATM   27  N5  UNL     1       0.068 -31.069  20.031  1.00  0.00    -0.308 N 
ATOM     28  H52 UNL     1      -0.233 -30.457  20.790  1.00  0.00     0.184 HD
ATOM     29  H51 UNL     1       0.839 -31.735  20.072  1.00  0.00     0.184 HD
ENDBRANCH  26  27
ENDBRANCH   4  26
BRANCH   3  30
HETATM   30  C10 UNL     1      -0.998 -33.860  18.265  1.00  0.00     0.177 C 
BRANCH  30  31
HETATM   31  O6  UNL     1      -0.302 -34.146  19.425  1.00  0.00    -0.400 OA
ATOM     32  H6  UNL     1      -0.781 -34.801  19.919  1.00  0.00     0.209 HD
ENDBRANCH  30  31
ENDBRANCH   3  30
TORSDOF 8
ENDMDL
MODEL 5
REMARK VINA RESULT: -5.285784024      2.934      5.847
REMARK  8 active torsions:
REMARK  status: ('A' for Active; 'I' for Inactive)
REMARK    1  A    between atoms: N4_15  and  C7_16 
REMARK    2  A    between atoms: C7_16  and  O4_17 
REMARK    3  A    between atoms: C8_19  and  O5_20 
REMARK    4  A    between atoms: C9_22  and  C10_23 
REMARK    5  A    between atoms: C10_23  and  O6_24 
REMARK    6  A    between atoms: C11_26  and  O7_27 
REMARK    7  A    between atoms: C11_26  and  O8_29 
REMARK    8  A    between atoms: O8_29  and  N5_30 
ROOT
HETATM    1  C7  UNL     1      -1.102 -29.008  15.732  1.00  0.00     0.230 C 
HETATM    2  C8  UNL     1      -0.151 -28.171  14.972  1.00  0.00     0.191 C 
HETATM    3  C9  UNL     1       0.764 -28.316  16.215  1.00  0.00     0.113 C 
HETATM    4  C11 UNL     1       0.116 -29.708  16.321  1.00  0.00     0.249 C 
ENDROOT
BRANCH   1   5
HETATM    5  N4  UNL     1      -2.112 -29.770  15.134  1.00  0.00    -0.241 N 
HETATM    6  C3  UNL     1      -2.640 -29.366  13.938  1.00  0.00     0.151 A 
HETATM    7  N2  UNL     1      -2.407 -28.325  13.121  1.00  0.00    -0.292 N 
HETATM    8  C4  UNL     1      -3.647 -30.107  13.321  1.00  0.00     0.152 A 
HETATM    9  C2  UNL     1      -3.204 -28.368  12.033  1.00  0.00     0.328 A 
ATOM     10  H2  UNL     1      -1.716 -27.596  13.301  1.00  0.00     0.172 HD
HETATM   11  N1  UNL     1      -3.965 -29.467  12.161  1.00  0.00    -0.296 N 
HETATM   12  O1  UNL     1      -3.246 -27.548  11.070  1.00  0.00    -0.246 OA
HETATM   13  C1  UNL     1      -4.985 -29.949  11.238  1.00  0.00     0.161 C 
HETATM   14  C5  UNL     1      -4.147 -31.262  13.877  1.00  0.00     0.280 A 
HETATM   15  O2  UNL     1      -5.054 -31.936  13.328  1.00  0.00    -0.265 OA
HETATM   16  N3  UNL     1      -3.605 -31.628  15.054  1.00  0.00    -0.273 N 
HETATM   17  C6  UNL     1      -2.632 -30.906  15.644  1.00  0.00     0.333 A 
ATOM     18  H3  UNL     1      -3.941 -32.476  15.511  1.00  0.00     0.173 HD
HETATM   19  O3  UNL     1      -2.215 -31.355  16.730  1.00  0.00    -0.246 OA
ENDBRANCH   1   5
BRANCH   1  20
HETATM   20  O4  UNL     1      -1.505 -28.151  16.796  1.00  0.00    -0.364 OA
ATOM     21  H4  UNL     1      -0.808 -27.791  17.332  1.00  0.00     0.213 HD
ENDBRANCH   1  20
BRANCH   2  22
HETATM   22  O5  UNL     1      -0.490 -26.812  14.853  1.00  0.00    -0.390 OA
ATOM     23  H5  UNL     1      -0.248 -26.394  14.035  1.00  0.00     0.210 HD
ENDBRANCH   2  22
BRANCH   4  24
HETATM   24  O7  UNL     1       0.010 -30.102  17.645  1.00  0.00    -0.359 OA
ATOM     25  H7  UNL     1       0.370 -30.955  17.857  1.00  0.00     0.213 HD
ENDBRANCH   4  24
BRANCH   4  26
HETATM   26  O8  UNL     1       0.688 -30.689  15.568  1.00  0.00    -0.241 OA
BRANCH  26  27
HETATM   27  N5  UNL     1       0.918 -31.771  16.321  1.00  0.00    -0.308 N 
ATOM     28  H52 UNL     1       1.801 -32.282  16.335  1.00  0.00     0.184 HD
ATOM     29  H51 UNL     1       0.088 -31.999  16.868  1.00  0.00     0.184 HD
ENDBRANCH  26  27
ENDBRANCH   4  26
BRANCH   3  30
HETATM   30  C10 UNL     1       2.219 -28.303  15.888  1.00  0.00     0.177 C 
BRANCH  30  31
HETATM   31  O6  UNL     1       2.871 -29.208  16.706  1.00  0.00    -0.400 OA
ATOM     32  H6  UNL     1       3.795 -29.211  16.487  1.00  0.00     0.209 HD
ENDBRANCH  30  31
ENDBRANCH   3  30
TORSDOF 8
ENDMDL
