MODEL 1
REMARK VINA RESULT: -6.246048098      0.000      0.000
REMARK  8 active torsions:
REMARK  status: ('A' for Active; 'I' for Inactive)
REMARK    1  A    between atoms: N1_1  and  N2_4 
REMARK    2  A    between atoms: N2_4  and  N3_5 
REMARK    3  A    between atoms: C1_7  and  C2_9 
REMARK    4  A    between atoms: C2_9  and  O1_10 
REMARK    5  A    between atoms: O1_10  and  C3_11 
REMARK    6  A    between atoms: C3_11  and  N5_12 
REMARK    7  A    between atoms: C4_13  and  O2_14 
REMARK    8  A    between atoms: N6_16  and  O3_17 
ROOT
HETATM    1  O1  UNL     1      -7.560   8.027  -6.829  1.00  0.00    -0.363 OA
ENDROOT
BRANCH   1   2
HETATM    2  C2  UNL     1      -6.542   8.937  -6.877  1.00  0.00     0.244 C 
BRANCH   2   3
HETATM    3  C1  UNL     1      -6.252   9.429  -5.512  1.00  0.00     0.130 C 
HETATM    4  N3  UNL     1      -6.465  10.627  -5.171  1.00  0.00    -0.274 N 
ATOM      5  H3  UNL     1      -6.226  10.847  -4.204  1.00  0.00     0.185 HD
HETATM    6  N4  UNL     1      -5.714   8.550  -4.530  1.00  0.00    -0.084 NA
BRANCH   4   7
HETATM    7  N2  UNL     1      -6.967  11.676  -5.895  1.00  0.00    -0.029 NA
BRANCH   7   8
HETATM    8  N1  UNL     1      -6.261  12.883  -5.689  1.00  0.00    -0.329 N 
ATOM      9  H12 UNL     1      -6.249  13.365  -4.790  1.00  0.00     0.174 HD
ATOM     10  H11 UNL     1      -5.776  13.211  -6.524  1.00  0.00     0.174 HD
ENDBRANCH   7   8
ENDBRANCH   4   7
ENDBRANCH   2   3
ENDBRANCH   1   2
BRANCH   1  11
HETATM   11  C3  UNL     1      -7.259   6.847  -7.501  1.00  0.00     0.322 C 
BRANCH  11  12
HETATM   12  N5  UNL     1      -6.896   5.826  -6.517  1.00  0.00    -0.212 N 
HETATM   13  C4  UNL     1      -7.355   4.690  -6.113  1.00  0.00     0.286 A 
HETATM   14  N6  UNL     1      -6.288   4.560  -5.171  1.00  0.00    -0.104 N 
HETATM   15  N7  UNL     1      -5.859   5.682  -5.589  1.00  0.00    -0.205 N 
ATOM     16  H7  UNL     1      -5.056   6.261  -5.340  1.00  0.00     0.211 HD
BRANCH  13  17
HETATM   17  O2  UNL     1      -8.458   3.945  -6.490  1.00  0.00    -0.328 OA
ATOM     18  H2  UNL     1      -8.652   3.017  -6.435  1.00  0.00     0.221 HD
ENDBRANCH  13  17
BRANCH  14  19
HETATM   19  O3  UNL     1      -5.937   3.605  -4.241  1.00  0.00    -0.264 OA
ATOM     20  H3  UNL     1      -5.221   3.513  -3.623  1.00  0.00     0.247 HD
ENDBRANCH  14  19
ENDBRANCH  11  12
ENDBRANCH   1  11
TORSDOF 8
ENDMDL
MODEL 2
REMARK VINA RESULT: -6.212982998      1.994      2.663
REMARK  8 active torsions:
REMARK  status: ('A' for Active; 'I' for Inactive)
REMARK    1  A    between atoms: N1_1  and  N2_4 
REMARK    2  A    between atoms: N2_4  and  N3_5 
REMARK    3  A    between atoms: C1_7  and  C2_9 
REMARK    4  A    between atoms: C2_9  and  O1_10 
REMARK    5  A    between atoms: O1_10  and  C3_11 
REMARK    6  A    between atoms: C3_11  and  N5_12 
REMARK    7  A    between atoms: C4_13  and  O2_14 
REMARK    8  A    between atoms: N6_16  and  O3_17 
ROOT
HETATM    1  O1  UNL     1      -6.663   9.220  -5.526  1.00  0.00    -0.363 OA
ENDROOT
BRANCH   1   2
HETATM    2  C2  UNL     1      -5.643  10.126  -5.443  1.00  0.00     0.244 C 
BRANCH   2   3
HETATM    3  C1  UNL     1      -6.192  11.498  -5.501  1.00  0.00     0.130 C 
HETATM    4  N3  UNL     1      -5.680  12.454  -4.852  1.00  0.00    -0.274 N 
ATOM      5  H3  UNL     1      -6.147  13.353  -4.971  1.00  0.00     0.185 HD
HETATM    6  N4  UNL     1      -7.333  11.783  -6.303  1.00  0.00    -0.084 NA
BRANCH   4   7
HETATM    7  N2  UNL     1      -4.597  12.472  -4.012  1.00  0.00    -0.029 NA
BRANCH   7   8
HETATM    8  N1  UNL     1      -4.540  13.629  -3.202  1.00  0.00    -0.329 N 
ATOM      9  H12 UNL     1      -4.594  13.589  -2.184  1.00  0.00     0.174 HD
ATOM     10  H11 UNL     1      -4.441  14.490  -3.740  1.00  0.00     0.174 HD
ENDBRANCH   7   8
ENDBRANCH   4   7
ENDBRANCH   2   3
ENDBRANCH   1   2
BRANCH   1  11
HETATM   11  C3  UNL     1      -6.363   8.148  -6.361  1.00  0.00     0.322 C 
BRANCH  11  12
HETATM   12  N5  UNL     1      -6.148   6.957  -5.538  1.00  0.00    -0.212 N 
HETATM   13  C4  UNL     1      -6.008   6.680  -4.286  1.00  0.00     0.286 A 
HETATM   14  N6  UNL     1      -5.864   5.289  -4.579  1.00  0.00    -0.104 N 
HETATM   15  N7  UNL     1      -6.005   5.591  -5.806  1.00  0.00    -0.205 N 
ATOM     16  H7  UNL     1      -6.012   5.042  -6.666  1.00  0.00     0.211 HD
BRANCH  13  17
HETATM   17  O2  UNL     1      -6.008   7.473  -3.152  1.00  0.00    -0.328 OA
ATOM     18  H2  UNL     1      -6.072   7.266  -2.228  1.00  0.00     0.221 HD
ENDBRANCH  13  17
BRANCH  14  19
HETATM   19  O3  UNL     1      -5.661   4.160  -3.814  1.00  0.00    -0.264 OA
ATOM     20  H3  UNL     1      -6.206   3.652  -3.224  1.00  0.00     0.247 HD
ENDBRANCH  14  19
ENDBRANCH  11  12
ENDBRANCH   1  11
TORSDOF 8
ENDMDL
MODEL 3
REMARK VINA RESULT: -6.135081218      1.559      2.115
REMARK  8 active torsions:
REMARK  status: ('A' for Active; 'I' for Inactive)
REMARK    1  A    between atoms: N1_1  and  N2_4 
REMARK    2  A    between atoms: N2_4  and  N3_5 
REMARK    3  A    between atoms: C1_7  and  C2_9 
REMARK    4  A    between atoms: C2_9  and  O1_10 
REMARK    5  A    between atoms: O1_10  and  C3_11 
REMARK    6  A    between atoms: C3_11  and  N5_12 
REMARK    7  A    between atoms: C4_13  and  O2_14 
REMARK    8  A    between atoms: N6_16  and  O3_17 
ROOT
HETATM    1  O1  UNL     1      -6.754   9.135  -5.629  1.00  0.00    -0.363 OA
ENDROOT
BRANCH   1   2
HETATM    2  C2  UNL     1      -5.768  10.006  -5.261  1.00  0.00     0.244 C 
BRANCH   2   3
HETATM    3  C1  UNL     1      -6.230  11.395  -5.471  1.00  0.00     0.130 C 
HETATM    4  N3  UNL     1      -5.671  12.381  -4.910  1.00  0.00    -0.274 N 
ATOM      5  H3  UNL     1      -6.078  13.289  -5.132  1.00  0.00     0.185 HD
HETATM    6  N4  UNL     1      -7.336  11.664  -6.325  1.00  0.00    -0.084 NA
BRANCH   4   7
HETATM    7  N2  UNL     1      -4.604  12.420  -4.051  1.00  0.00    -0.029 NA
BRANCH   7   8
HETATM    8  N1  UNL     1      -4.577  13.585  -3.250  1.00  0.00    -0.329 N 
ATOM      9  H12 UNL     1      -5.249  13.751  -2.501  1.00  0.00     0.174 HD
ATOM     10  H11 UNL     1      -3.825  14.226  -3.502  1.00  0.00     0.174 HD
ENDBRANCH   7   8
ENDBRANCH   4   7
ENDBRANCH   2   3
ENDBRANCH   1   2
BRANCH   1  11
HETATM   11  C3  UNL     1      -6.297   8.135  -6.482  1.00  0.00     0.322 C 
BRANCH  11  12
HETATM   12  N5  UNL     1      -6.297   6.863  -5.756  1.00  0.00    -0.212 N 
HETATM   13  C4  UNL     1      -7.138   5.924  -5.486  1.00  0.00     0.286 A 
HETATM   14  N6  UNL     1      -6.143   5.200  -4.760  1.00  0.00    -0.104 N 
HETATM   15  N7  UNL     1      -5.335   6.141  -5.041  1.00  0.00    -0.205 N 
ATOM     16  H7  UNL     1      -4.352   6.308  -4.826  1.00  0.00     0.211 HD
BRANCH  13  17
HETATM   17  O2  UNL     1      -8.473   5.749  -5.807  1.00  0.00    -0.328 OA
ATOM     18  H2  UNL     1      -9.066   5.015  -5.696  1.00  0.00     0.221 HD
ENDBRANCH  13  17
BRANCH  14  19
HETATM   19  O3  UNL     1      -6.131   4.005  -4.073  1.00  0.00    -0.264 OA
ATOM     20  H3  UNL     1      -5.793   3.727  -3.230  1.00  0.00     0.247 HD
ENDBRANCH  14  19
ENDBRANCH  11  12
ENDBRANCH   1  11
TORSDOF 8
ENDMDL
MODEL 4
REMARK VINA RESULT: -6.108795058      1.985      2.260
REMARK  8 active torsions:
REMARK  status: ('A' for Active; 'I' for Inactive)
REMARK    1  A    between atoms: N1_1  and  N2_4 
REMARK    2  A    between atoms: N2_4  and  N3_5 
REMARK    3  A    between atoms: C1_7  and  C2_9 
REMARK    4  A    between atoms: C2_9  and  O1_10 
REMARK    5  A    between atoms: O1_10  and  C3_11 
REMARK    6  A    between atoms: C3_11  and  N5_12 
REMARK    7  A    between atoms: C4_13  and  O2_14 
REMARK    8  A    between atoms: N6_16  and  O3_17 
ROOT
HETATM    1  O1  UNL     1      -8.025   7.460  -6.796  1.00  0.00    -0.363 OA
ENDROOT
BRANCH   1   2
HETATM    2  C2  UNL     1      -7.532   8.313  -7.743  1.00  0.00     0.244 C 
BRANCH   2   3
HETATM    3  C1  UNL     1      -6.716   9.360  -7.090  1.00  0.00     0.130 C 
HETATM    4  N3  UNL     1      -6.158  10.284  -7.747  1.00  0.00    -0.274 N 
ATOM      5  H3  UNL     1      -5.622  10.947  -7.187  1.00  0.00     0.185 HD
HETATM    6  N4  UNL     1      -6.534   9.354  -5.678  1.00  0.00    -0.084 NA
BRANCH   4   7
HETATM    7  N2  UNL     1      -6.160  10.534  -9.094  1.00  0.00    -0.029 NA
BRANCH   7   8
HETATM    8  N1  UNL     1      -5.062  11.318  -9.516  1.00  0.00    -0.329 N 
ATOM      9  H12 UNL     1      -4.995  12.318  -9.323  1.00  0.00     0.174 HD
ATOM     10  H11 UNL     1      -4.358  10.783 -10.024  1.00  0.00     0.174 HD
ENDBRANCH   7   8
ENDBRANCH   4   7
ENDBRANCH   2   3
ENDBRANCH   1   2
BRANCH   1  11
HETATM   11  C3  UNL     1      -7.848   6.122  -7.132  1.00  0.00     0.322 C 
BRANCH  11  12
HETATM   12  N5  UNL     1      -7.162   5.447  -6.030  1.00  0.00    -0.212 N 
HETATM   13  C4  UNL     1      -6.720   5.752  -4.857  1.00  0.00     0.286 A 
HETATM   14  N6  UNL     1      -6.253   4.417  -4.654  1.00  0.00    -0.104 N 
HETATM   15  N7  UNL     1      -6.697   4.144  -5.813  1.00  0.00    -0.205 N 
ATOM     16  H7  UNL     1      -6.710   3.294  -6.376  1.00  0.00     0.211 HD
BRANCH  13  17
HETATM   17  O2  UNL     1      -6.730   6.933  -4.137  1.00  0.00    -0.328 OA
ATOM     18  H2  UNL     1      -7.092   7.162  -3.289  1.00  0.00     0.221 HD
ENDBRANCH  13  17
BRANCH  14  19
HETATM   19  O3  UNL     1      -5.606   3.770  -3.622  1.00  0.00    -0.264 OA
ATOM     20  H3  UNL     1      -4.694   3.650  -3.382  1.00  0.00     0.247 HD
ENDBRANCH  14  19
ENDBRANCH  11  12
ENDBRANCH   1  11
TORSDOF 8
ENDMDL
MODEL 5
REMARK VINA RESULT: -6.091884979      3.591      6.566
REMARK  8 active torsions:
REMARK  status: ('A' for Active; 'I' for Inactive)
REMARK    1  A    between atoms: N1_1  and  N2_4 
REMARK    2  A    between atoms: N2_4  and  N3_5 
REMARK    3  A    between atoms: C1_7  and  C2_9 
REMARK    4  A    between atoms: C2_9  and  O1_10 
REMARK    5  A    between atoms: O1_10  and  C3_11 
REMARK    6  A    between atoms: C3_11  and  N5_12 
REMARK    7  A    between atoms: C4_13  and  O2_14 
REMARK    8  A    between atoms: N6_16  and  O3_17 
ROOT
HETATM    1  O1  UNL     1      -6.750  11.059  -5.629  1.00  0.00    -0.363 OA
ENDROOT
BRANCH   1   2
HETATM    2  C2  UNL     1      -6.560  10.042  -6.521  1.00  0.00     0.244 C 
BRANCH   2   3
HETATM    3  C1  UNL     1      -6.268   8.789  -5.791  1.00  0.00     0.130 C 
HETATM    4  N3  UNL     1      -6.562   7.653  -6.261  1.00  0.00    -0.274 N 
ATOM      5  H3  UNL     1      -6.312   6.863  -5.666  1.00  0.00     0.185 HD
HETATM    6  N4  UNL     1      -5.636   8.830  -4.516  1.00  0.00    -0.084 NA
BRANCH   4   7
HETATM    7  N2  UNL     1      -7.166   7.317  -7.445  1.00  0.00    -0.029 NA
BRANCH   7   8
HETATM    8  N1  UNL     1      -6.459   6.330  -8.169  1.00  0.00    -0.329 N 
ATOM      9  H12 UNL     1      -6.048   5.510  -7.722  1.00  0.00     0.174 HD
ATOM     10  H11 UNL     1      -6.407   6.527  -9.169  1.00  0.00     0.174 HD
ENDBRANCH   7   8
ENDBRANCH   4   7
ENDBRANCH   2   3
ENDBRANCH   1   2
BRANCH   1  11
HETATM   11  C3  UNL     1      -6.238  12.272  -6.078  1.00  0.00     0.322 C 
BRANCH  11  12
HETATM   12  N5  UNL     1      -5.264  12.762  -5.102  1.00  0.00    -0.212 N 
HETATM   13  C4  UNL     1      -4.273  12.287  -4.428  1.00  0.00     0.286 A 
HETATM   14  N6  UNL     1      -4.041  13.557  -3.816  1.00  0.00    -0.104 N 
HETATM   15  N7  UNL     1      -5.023  13.999  -4.492  1.00  0.00    -0.205 N 
ATOM     16  H7  UNL     1      -5.469  14.913  -4.564  1.00  0.00     0.211 HD
BRANCH  13  17
HETATM   17  O2  UNL     1      -3.707  11.025  -4.370  1.00  0.00    -0.328 OA
ATOM     18  H2  UNL     1      -2.827  10.711  -4.542  1.00  0.00     0.221 HD
ENDBRANCH  13  17
BRANCH  14  19
HETATM   19  O3  UNL     1      -3.129  14.030  -2.896  1.00  0.00    -0.264 OA
ATOM     20  H3  UNL     1      -3.189  14.332  -1.997  1.00  0.00     0.247 HD
ENDBRANCH  14  19
ENDBRANCH  11  12
ENDBRANCH   1  11
TORSDOF 8
ENDMDL
