MODEL 1
REMARK VINA RESULT: -5.152661688      0.000      0.000
REMARK  4 active torsions:
REMARK  status: ('A' for Active; 'I' for Inactive)
REMARK       I    between atoms: C2_4  and  N3_6 
REMARK    1  A    between atoms: C3_8  and  C4_9 
REMARK    2  A    between atoms: C3_8  and  C10_19 
REMARK    3  A    between atoms: C4_9  and  C5_10 
REMARK    4  A    between atoms: C5_10  and  N4_11 
REMARK       I    between atoms: C10_19  and  N5_21 
REMARK       I    between atoms: N5_21  and  C11_23 
REMARK       I    between atoms: C11_23  and  N6_25 
ROOT
HETATM    1  C1  UNL     1     -31.592   1.836  94.819  1.00  0.00     0.148 C 
HETATM    2  N1  UNL     1     -31.592   3.258  94.673  1.00  0.00    -0.369 N 
ATOM      3  H1  UNL     1     -30.707   3.744  94.528  1.00  0.00     0.161 HD
HETATM    4  C2  UNL     1     -32.690   3.945  94.721  1.00  0.00     0.188 C 
HETATM    5  N2  UNL     1     -33.921   3.233  94.928  1.00  0.00    -0.064 NA
HETATM    6  N3  UNL     1     -32.628   5.318  94.564  1.00  0.00    -0.330 N 
ATOM      7  H3  UNL     1     -32.316   5.623  93.641  1.00  0.00     0.168 HD
HETATM    8  C3  UNL     1     -32.892   6.270  95.373  1.00  0.00     0.082 C 
ENDROOT
BRANCH   8   9
HETATM    9  C4  UNL     1     -33.347   6.010  96.734  1.00  0.00     0.101 C 
BRANCH   9  10
HETATM   10  C5  UNL     1     -34.763   6.082  97.083  1.00  0.00     0.129 C 
HETATM   11  C6  UNL     1     -35.707   6.838  96.196  1.00  0.00     0.039 C 
HETATM   12  C7  UNL     1     -36.998   6.603  97.020  1.00  0.00     0.002 C 
HETATM   13  C8  UNL     1     -36.553   7.051  98.383  1.00  0.00     0.002 C 
HETATM   14  C9  UNL     1     -35.097   6.647  98.458  1.00  0.00     0.039 C 
BRANCH  10  15
HETATM   15  N4  UNL     1     -35.270   4.680  97.071  1.00  0.00    -0.070 N 
ATOM     16  H43 UNL     1     -35.211   4.236  96.155  1.00  0.00     0.275 HD
ATOM     17  H42 UNL     1     -34.663   4.026  97.568  1.00  0.00     0.275 HD
ATOM     18  H41 UNL     1     -36.218   4.714  97.444  1.00  0.00     0.275 HD
ENDBRANCH  10  15
ENDBRANCH   9  10
ENDBRANCH   8   9
BRANCH   8  19
HETATM   19  C10 UNL     1     -32.693   7.637  94.873  1.00  0.00     0.272 C 
HETATM   20  O1  UNL     1     -33.198   8.028  93.800  1.00  0.00    -0.266 OA
HETATM   21  N5  UNL     1     -31.904   8.512  95.650  1.00  0.00    -0.274 N 
HETATM   22  C11 UNL     1     -31.547   9.835  95.438  1.00  0.00     0.322 C 
ATOM     23  H5  UNL     1     -31.536   8.103  96.509  1.00  0.00     0.173 HD
HETATM   24  O2  UNL     1     -30.803  10.450  96.297  1.00  0.00    -0.247 OA
HETATM   25  N6  UNL     1     -31.940  10.597  94.327  1.00  0.00    -0.347 N 
HETATM   26  C12 UNL     1     -31.527  11.996  94.161  1.00  0.00     0.151 C 
ATOM     27  H6  UNL     1     -32.528  10.166  93.615  1.00  0.00     0.163 HD
ENDBRANCH   8  19
TORSDOF 4
ENDMDL
MODEL 2
REMARK VINA RESULT: -5.066784108      2.359      5.363
REMARK  4 active torsions:
REMARK  status: ('A' for Active; 'I' for Inactive)
REMARK       I    between atoms: C2_4  and  N3_6 
REMARK    1  A    between atoms: C3_8  and  C4_9 
REMARK    2  A    between atoms: C3_8  and  C10_19 
REMARK    3  A    between atoms: C4_9  and  C5_10 
REMARK    4  A    between atoms: C5_10  and  N4_11 
REMARK       I    between atoms: C10_19  and  N5_21 
REMARK       I    between atoms: N5_21  and  C11_23 
REMARK       I    between atoms: C11_23  and  N6_25 
ROOT
HETATM    1  C1  UNL     1     -31.468   2.041  94.448  1.00  0.00     0.148 C 
HETATM    2  N1  UNL     1     -32.468   2.775  95.159  1.00  0.00    -0.369 N 
ATOM      3  H1  UNL     1     -33.354   2.323  95.383  1.00  0.00     0.161 HD
HETATM    4  C2  UNL     1     -32.275   4.004  95.524  1.00  0.00     0.188 C 
HETATM    5  N2  UNL     1     -31.018   4.615  95.192  1.00  0.00    -0.064 NA
HETATM    6  N3  UNL     1     -33.276   4.661  96.217  1.00  0.00    -0.330 N 
ATOM      7  H3  UNL     1     -33.474   4.274  97.140  1.00  0.00     0.168 HD
HETATM    8  C3  UNL     1     -33.996   5.667  95.901  1.00  0.00     0.082 C 
ENDROOT
BRANCH   8   9
HETATM    9  C4  UNL     1     -33.846   6.341  94.616  1.00  0.00     0.101 C 
BRANCH   9  10
HETATM   10  C5  UNL     1     -32.819   7.358  94.412  1.00  0.00     0.129 C 
HETATM   11  C6  UNL     1     -32.071   7.902  95.592  1.00  0.00     0.039 C 
HETATM   12  C7  UNL     1     -31.170   8.902  94.823  1.00  0.00     0.002 C 
HETATM   13  C8  UNL     1     -32.198   9.661  94.032  1.00  0.00     0.002 C 
HETATM   14  C9  UNL     1     -33.254   8.631  93.697  1.00  0.00     0.039 C 
BRANCH  10  15
HETATM   15  N4  UNL     1     -31.773   6.731  93.553  1.00  0.00    -0.070 N 
ATOM     16  H43 UNL     1     -32.019   5.794  93.234  1.00  0.00     0.275 HD
ATOM     17  H42 UNL     1     -31.695   7.162  92.631  1.00  0.00     0.275 HD
ATOM     18  H41 UNL     1     -30.906   6.761  94.089  1.00  0.00     0.275 HD
ENDBRANCH  10  15
ENDBRANCH   9  10
ENDBRANCH   8   9
BRANCH   8  19
HETATM   19  C10 UNL     1     -34.997   6.099  96.886  1.00  0.00     0.272 C 
HETATM   20  O1  UNL     1     -34.734   6.944  97.768  1.00  0.00    -0.266 OA
HETATM   21  N5  UNL     1     -36.285   5.527  96.808  1.00  0.00    -0.274 N 
HETATM   22  C11 UNL     1     -37.414   5.735  97.586  1.00  0.00     0.322 C 
ATOM     23  H5  UNL     1     -36.404   4.849  96.056  1.00  0.00     0.173 HD
HETATM   24  O2  UNL     1     -38.504   5.090  97.329  1.00  0.00    -0.247 OA
HETATM   25  N6  UNL     1     -37.480   6.620  98.672  1.00  0.00    -0.347 N 
HETATM   26  C12 UNL     1     -38.708   6.794  99.457  1.00  0.00     0.151 C 
ATOM     27  H6  UNL     1     -36.651   7.158  98.923  1.00  0.00     0.163 HD
ENDBRANCH   8  19
TORSDOF 4
ENDMDL
MODEL 3
REMARK VINA RESULT: -4.757764570      7.161     10.490
REMARK  4 active torsions:
REMARK  status: ('A' for Active; 'I' for Inactive)
REMARK       I    between atoms: C2_4  and  N3_6 
REMARK    1  A    between atoms: C3_8  and  C4_9 
REMARK    2  A    between atoms: C3_8  and  C10_19 
REMARK    3  A    between atoms: C4_9  and  C5_10 
REMARK    4  A    between atoms: C5_10  and  N4_11 
REMARK       I    between atoms: C10_19  and  N5_21 
REMARK       I    between atoms: N5_21  and  C11_23 
REMARK       I    between atoms: C11_23  and  N6_25 
ROOT
HETATM    1  C1  UNL     1     -38.072   6.573  97.872  1.00  0.00     0.148 C 
HETATM    2  N1  UNL     1     -38.523   5.220  97.971  1.00  0.00    -0.369 N 
ATOM      3  H1  UNL     1     -38.086   4.505  97.390  1.00  0.00     0.161 HD
HETATM    4  C2  UNL     1     -39.476   4.881  98.783  1.00  0.00     0.188 C 
HETATM    5  N2  UNL     1     -40.072   5.911  99.587  1.00  0.00    -0.064 NA
HETATM    6  N3  UNL     1     -39.863   3.555  98.842  1.00  0.00    -0.330 N 
ATOM      7  H3  UNL     1     -39.148   2.922  99.201  1.00  0.00     0.168 HD
HETATM    8  C3  UNL     1     -40.962   2.985  98.526  1.00  0.00     0.082 C 
ENDROOT
BRANCH   8   9
HETATM    9  C4  UNL     1     -42.090   3.742  97.996  1.00  0.00     0.101 C 
BRANCH   9  10
HETATM   10  C5  UNL     1     -42.312   3.858  96.558  1.00  0.00     0.129 C 
HETATM   11  C6  UNL     1     -41.185   4.287  95.667  1.00  0.00     0.039 C 
HETATM   12  C7  UNL     1     -41.958   4.252  94.324  1.00  0.00     0.002 C 
HETATM   13  C8  UNL     1     -43.156   5.094  94.662  1.00  0.00     0.002 C 
HETATM   14  C9  UNL     1     -43.437   4.786  96.116  1.00  0.00     0.039 C 
BRANCH  10  15
HETATM   15  N4  UNL     1     -42.681   2.495  96.079  1.00  0.00    -0.070 N 
ATOM     16  H43 UNL     1     -41.923   2.020  95.589  1.00  0.00     0.275 HD
ATOM     17  H42 UNL     1     -42.788   1.816  96.833  1.00  0.00     0.275 HD
ATOM     18  H41 UNL     1     -43.521   2.607  95.513  1.00  0.00     0.275 HD
ENDBRANCH  10  15
ENDBRANCH   9  10
ENDBRANCH   8   9
BRANCH   8  19
HETATM   19  C10 UNL     1     -41.025   1.528  98.702  1.00  0.00     0.272 C 
HETATM   20  O1  UNL     1     -42.113   0.914  98.738  1.00  0.00    -0.266 OA
HETATM   21  N5  UNL     1     -39.807   0.828  98.831  1.00  0.00    -0.274 N 
HETATM   22  C11 UNL     1     -39.557  -0.525  99.005  1.00  0.00     0.322 C 
ATOM     23  H5  UNL     1     -38.974   1.413  98.788  1.00  0.00     0.173 HD
HETATM   24  O2  UNL     1     -38.340  -0.951  99.100  1.00  0.00    -0.247 OA
HETATM   25  N6  UNL     1     -40.549  -1.513  99.091  1.00  0.00    -0.347 N 
HETATM   26  C12 UNL     1     -40.218  -2.931  99.276  1.00  0.00     0.151 C 
ATOM     27  H6  UNL     1     -41.529  -1.238  99.022  1.00  0.00     0.163 HD
ENDBRANCH   8  19
TORSDOF 4
ENDMDL
MODEL 4
REMARK VINA RESULT: -4.731900889      2.192      5.538
REMARK  4 active torsions:
REMARK  status: ('A' for Active; 'I' for Inactive)
REMARK       I    between atoms: C2_4  and  N3_6 
REMARK    1  A    between atoms: C3_8  and  C4_9 
REMARK    2  A    between atoms: C3_8  and  C10_19 
REMARK    3  A    between atoms: C4_9  and  C5_10 
REMARK    4  A    between atoms: C5_10  and  N4_11 
REMARK       I    between atoms: C10_19  and  N5_21 
REMARK       I    between atoms: N5_21  and  C11_23 
REMARK       I    between atoms: C11_23  and  N6_25 
ROOT
HETATM    1  C1  UNL     1     -29.302  10.027  97.009  1.00  0.00     0.148 C 
HETATM    2  N1  UNL     1     -30.585   9.400  97.079  1.00  0.00    -0.369 N 
ATOM      3  H1  UNL     1     -30.989   9.192  97.992  1.00  0.00     0.161 HD
HETATM    4  C2  UNL     1     -31.246   9.090  96.008  1.00  0.00     0.188 C 
HETATM    5  N2  UNL     1     -30.651   9.394  94.737  1.00  0.00    -0.064 NA
HETATM    6  N3  UNL     1     -32.488   8.493  96.138  1.00  0.00    -0.330 N 
ATOM      7  H3  UNL     1     -33.197   9.086  96.570  1.00  0.00     0.168 HD
HETATM    8  C3  UNL     1     -32.899   7.329  95.813  1.00  0.00     0.082 C 
ENDROOT
BRANCH   8   9
HETATM    9  C4  UNL     1     -32.014   6.354  95.186  1.00  0.00     0.101 C 
BRANCH   9  10
HETATM   10  C5  UNL     1     -32.241   4.920  95.340  1.00  0.00     0.129 C 
HETATM   11  C6  UNL     1     -33.280   4.240  94.501  1.00  0.00     0.039 C 
HETATM   12  C7  UNL     1     -33.104   2.810  95.071  1.00  0.00     0.002 C 
HETATM   13  C8  UNL     1     -33.228   3.073  96.545  1.00  0.00     0.002 C 
HETATM   14  C9  UNL     1     -32.596   4.434  96.740  1.00  0.00     0.039 C 
BRANCH  10  15
HETATM   15  N4  UNL     1     -30.959   4.251  94.977  1.00  0.00    -0.070 N 
ATOM     16  H43 UNL     1     -30.371   4.037  95.783  1.00  0.00     0.275 HD
ATOM     17  H42 UNL     1     -31.081   3.291  94.652  1.00  0.00     0.275 HD
ATOM     18  H41 UNL     1     -30.503   4.855  94.294  1.00  0.00     0.275 HD
ENDBRANCH  10  15
ENDBRANCH   9  10
ENDBRANCH   8   9
BRANCH   8  19
HETATM   19  C10 UNL     1     -34.301   7.013  96.120  1.00  0.00     0.272 C 
HETATM   20  O1  UNL     1     -35.182   6.991  95.234  1.00  0.00    -0.266 OA
HETATM   21  N5  UNL     1     -34.631   6.730  97.461  1.00  0.00    -0.274 N 
HETATM   22  C11 UNL     1     -35.848   6.404  98.043  1.00  0.00     0.322 C 
ATOM     23  H5  UNL     1     -33.847   6.772  98.111  1.00  0.00     0.173 HD
HETATM   24  O2  UNL     1     -35.919   6.183  99.314  1.00  0.00    -0.247 OA
HETATM   25  N6  UNL     1     -37.059   6.290  97.343  1.00  0.00    -0.347 N 
HETATM   26  C12 UNL     1     -38.315   5.942  98.018  1.00  0.00     0.151 C 
ATOM     27  H6  UNL     1     -37.066   6.453  96.336  1.00  0.00     0.163 HD
ENDBRANCH   8  19
TORSDOF 4
ENDMDL
MODEL 5
REMARK VINA RESULT: -4.676644341      6.884     10.313
REMARK  4 active torsions:
REMARK  status: ('A' for Active; 'I' for Inactive)
REMARK       I    between atoms: C2_4  and  N3_6 
REMARK    1  A    between atoms: C3_8  and  C4_9 
REMARK    2  A    between atoms: C3_8  and  C10_19 
REMARK    3  A    between atoms: C4_9  and  C5_10 
REMARK    4  A    between atoms: C5_10  and  N4_11 
REMARK       I    between atoms: C10_19  and  N5_21 
REMARK       I    between atoms: N5_21  and  C11_23 
REMARK       I    between atoms: C11_23  and  N6_25 
ROOT
HETATM    1  C1  UNL     1     -37.221   6.570  97.365  1.00  0.00     0.148 C 
HETATM    2  N1  UNL     1     -38.015   5.400  97.577  1.00  0.00    -0.369 N 
ATOM      3  H1  UNL     1     -37.850   4.575  97.001  1.00  0.00     0.161 HD
HETATM    4  C2  UNL     1     -38.940   5.364  98.485  1.00  0.00     0.188 C 
HETATM    5  N2  UNL     1     -39.150   6.542  99.279  1.00  0.00    -0.064 NA
HETATM    6  N3  UNL     1     -39.669   4.200  98.649  1.00  0.00    -0.330 N 
ATOM      7  H3  UNL     1     -39.123   3.403  98.979  1.00  0.00     0.168 HD
HETATM    8  C3  UNL     1     -40.907   3.950  98.460  1.00  0.00     0.082 C 
ENDROOT
BRANCH   8   9
HETATM    9  C4  UNL     1     -41.830   4.975  97.988  1.00  0.00     0.101 C 
BRANCH   9  10
HETATM   10  C5  UNL     1     -42.219   5.052  96.583  1.00  0.00     0.129 C 
HETATM   11  C6  UNL     1     -43.437   4.319  96.110  1.00  0.00     0.039 C 
HETATM   12  C7  UNL     1     -43.358   4.725  94.617  1.00  0.00     0.002 C 
HETATM   13  C8  UNL     1     -41.942   4.340  94.291  1.00  0.00     0.002 C 
HETATM   14  C9  UNL     1     -41.172   4.620  95.563  1.00  0.00     0.039 C 
BRANCH  10  15
HETATM   15  N4  UNL     1     -42.506   6.489  96.305  1.00  0.00    -0.070 N 
ATOM     16  H43 UNL     1     -42.156   7.119  97.027  1.00  0.00     0.275 HD
ATOM     17  H42 UNL     1     -41.960   6.869  95.531  1.00  0.00     0.275 HD
ATOM     18  H41 UNL     1     -43.513   6.558  96.162  1.00  0.00     0.275 HD
ENDBRANCH  10  15
ENDBRANCH   9  10
ENDBRANCH   8   9
BRANCH   8  19
HETATM   19  C10 UNL     1     -41.351   2.573  98.720  1.00  0.00     0.272 C 
HETATM   20  O1  UNL     1     -42.530   2.309  99.038  1.00  0.00    -0.266 OA
HETATM   21  N5  UNL     1     -40.397   1.542  98.600  1.00  0.00    -0.274 N 
HETATM   22  C11 UNL     1     -40.519   0.172  98.781  1.00  0.00     0.322 C 
ATOM     23  H5  UNL     1     -39.463   1.854  98.336  1.00  0.00     0.173 HD
HETATM   24  O2  UNL     1     -39.494  -0.597  98.614  1.00  0.00    -0.247 OA
HETATM   25  N6  UNL     1     -41.707  -0.480  99.144  1.00  0.00    -0.347 N 
HETATM   26  C12 UNL     1     -41.772  -1.935  99.320  1.00  0.00     0.151 C 
ATOM     27  H6  UNL     1     -42.551   0.075  99.289  1.00  0.00     0.163 HD
ENDBRANCH   8  19
TORSDOF 4
ENDMDL
