MODEL 1
REMARK VINA RESULT: -7.054418556      0.000      0.000
REMARK  5 active torsions:
REMARK  status: ('A' for Active; 'I' for Inactive)
REMARK    1  A    between atoms: C2_2  and  N1_4 
REMARK    2  A    between atoms: N1_4  and  N2_5 
REMARK       I    between atoms: N2_5  and  C4_7 
REMARK    3  A    between atoms: C4_7  and  C5_9 
REMARK    4  A    between atoms: C5_9  and  C6_10 
REMARK    5  A    between atoms: C5_9  and  N3_13 
ROOT
HETATM    1  C5  UNL     1     -32.955   5.567  96.054  1.00  0.00     0.203 C 
ENDROOT
BRANCH   1   2
HETATM    2  C4  UNL     1     -34.180   5.351  96.777  1.00  0.00     0.258 C 
HETATM    3  N2  UNL     1     -35.474   5.561  96.279  1.00  0.00    -0.272 N 
ATOM      4  H2  UNL     1     -35.569   5.890  95.319  1.00  0.00     0.185 HD
HETATM    5  O1  UNL     1     -34.103   4.934  97.986  1.00  0.00    -0.270 OA
BRANCH   3   6
HETATM    6  N1  UNL     1     -36.634   5.350  97.011  1.00  0.00    -0.135 NA
BRANCH   6   7
HETATM    7  C2  UNL     1     -37.312   6.548  97.397  1.00  0.00     0.091 C 
HETATM    8  C1  UNL     1     -38.779   6.176  97.648  1.00  0.00     0.029 C 
HETATM    9  C3  UNL     1     -36.734   7.167  98.645  1.00  0.00     0.029 C 
ENDBRANCH   6   7
ENDBRANCH   3   6
ENDBRANCH   1   2
BRANCH   1  10
HETATM   10  C6  UNL     1     -32.653   4.515  94.976  1.00  0.00     0.011 C 
HETATM   11  C7  UNL     1     -31.155   4.552  94.679  1.00  0.00     0.012 C 
HETATM   12  C8  UNL     1     -32.990   3.132  95.457  1.00  0.00     0.012 C 
ENDBRANCH   1  10
BRANCH   1  13
HETATM   13  N3  UNL     1     -32.676   6.816  95.487  1.00  0.00    -0.287 N 
HETATM   14  C9  UNL     1     -32.287   7.915  96.273  1.00  0.00     0.109 C 
HETATM   15  C10 UNL     1     -31.109   8.596  95.575  1.00  0.00     0.122 C 
HETATM   16  C11 UNL     1     -31.016  10.042  96.009  1.00  0.00     0.038 C 
HETATM   17  N4  UNL     1     -31.293   8.612  94.145  1.00  0.00    -0.333 N 
HETATM   18  C12 UNL     1     -32.510   8.142  93.532  1.00  0.00     0.335 C 
ATOM     19  H4  UNL     1     -30.543   8.965  93.551  1.00  0.00     0.165 HD
HETATM   20  O2  UNL     1     -32.913   8.625  92.451  1.00  0.00    -0.246 OA
HETATM   21  N5  UNL     1     -33.182   7.113  94.249  1.00  0.00    -0.249 N 
ATOM     22  H5  UNL     1     -33.991   6.626  93.864  1.00  0.00     0.192 HD
ENDBRANCH   1  13
TORSDOF 5
ENDMDL
MODEL 2
REMARK VINA RESULT: -6.477529985      1.024      1.311
REMARK  5 active torsions:
REMARK  status: ('A' for Active; 'I' for Inactive)
REMARK    1  A    between atoms: C2_2  and  N1_4 
REMARK    2  A    between atoms: N1_4  and  N2_5 
REMARK       I    between atoms: N2_5  and  C4_7 
REMARK    3  A    between atoms: C4_7  and  C5_9 
REMARK    4  A    between atoms: C5_9  and  C6_10 
REMARK    5  A    between atoms: C5_9  and  N3_13 
ROOT
HETATM    1  C5  UNL     1     -33.427   6.064  96.560  1.00  0.00     0.203 C 
ENDROOT
BRANCH   1   2
HETATM    2  C4  UNL     1     -34.798   5.657  96.400  1.00  0.00     0.258 C 
HETATM    3  N2  UNL     1     -35.816   5.817  97.352  1.00  0.00    -0.272 N 
ATOM      4  H2  UNL     1     -35.577   6.265  98.236  1.00  0.00     0.185 HD
HETATM    5  O1  UNL     1     -35.138   5.094  95.301  1.00  0.00    -0.270 OA
BRANCH   3   6
HETATM    6  N1  UNL     1     -37.127   5.403  97.167  1.00  0.00    -0.135 NA
BRANCH   6   7
HETATM    7  C2  UNL     1     -38.108   6.312  97.670  1.00  0.00     0.091 C 
HETATM    8  C1  UNL     1     -39.485   5.724  97.334  1.00  0.00     0.029 C 
HETATM    9  C3  UNL     1     -38.004   6.514  99.160  1.00  0.00     0.029 C 
ENDBRANCH   6   7
ENDBRANCH   3   6
ENDBRANCH   1   2
BRANCH   1  10
HETATM   10  C6  UNL     1     -32.410   4.913  96.532  1.00  0.00     0.011 C 
HETATM   11  C7  UNL     1     -33.122   3.635  96.974  1.00  0.00     0.012 C 
HETATM   12  C8  UNL     1     -31.883   4.686  95.144  1.00  0.00     0.012 C 
ENDBRANCH   1  10
BRANCH   1  13
HETATM   13  N3  UNL     1     -32.895   7.091  95.773  1.00  0.00    -0.287 N 
HETATM   14  C9  UNL     1     -32.210   8.180  96.342  1.00  0.00     0.109 C 
HETATM   15  C10 UNL     1     -30.949   8.424  95.513  1.00  0.00     0.122 C 
HETATM   16  C11 UNL     1     -30.490   9.856  95.678  1.00  0.00     0.038 C 
HETATM   17  N4  UNL     1     -31.210   8.241  94.106  1.00  0.00    -0.333 N 
HETATM   18  C12 UNL     1     -32.538   7.985  93.609  1.00  0.00     0.335 C 
ATOM     19  H4  UNL     1     -30.435   8.294  93.445  1.00  0.00     0.165 HD
HETATM   20  O2  UNL     1     -32.881   8.361  92.466  1.00  0.00    -0.246 OA
HETATM   21  N5  UNL     1     -33.390   7.288  94.511  1.00  0.00    -0.249 N 
ATOM     22  H5  UNL     1     -34.314   6.955  94.234  1.00  0.00     0.192 HD
ENDBRANCH   1  13
TORSDOF 5
ENDMDL
MODEL 3
REMARK VINA RESULT: -6.434421825      1.159      1.460
REMARK  5 active torsions:
REMARK  status: ('A' for Active; 'I' for Inactive)
REMARK    1  A    between atoms: C2_2  and  N1_4 
REMARK    2  A    between atoms: N1_4  and  N2_5 
REMARK       I    between atoms: N2_5  and  C4_7 
REMARK    3  A    between atoms: C4_7  and  C5_9 
REMARK    4  A    between atoms: C5_9  and  C6_10 
REMARK    5  A    between atoms: C5_9  and  N3_13 
ROOT
HETATM    1  C5  UNL     1     -33.732   6.018  96.606  1.00  0.00     0.203 C 
ENDROOT
BRANCH   1   2
HETATM    2  C4  UNL     1     -34.978   6.341  97.248  1.00  0.00     0.258 C 
HETATM    3  N2  UNL     1     -36.210   6.522  96.603  1.00  0.00    -0.272 N 
ATOM      4  H2  UNL     1     -36.239   6.410  95.590  1.00  0.00     0.185 HD
HETATM    5  O1  UNL     1     -34.982   6.487  98.521  1.00  0.00    -0.270 OA
BRANCH   3   6
HETATM    6  N1  UNL     1     -37.391   6.843  97.256  1.00  0.00    -0.135 NA
BRANCH   6   7
HETATM    7  C2  UNL     1     -38.126   5.715  97.732  1.00  0.00     0.091 C 
HETATM    8  C1  UNL     1     -38.368   5.932  99.232  1.00  0.00     0.029 C 
HETATM    9  C3  UNL     1     -39.451   5.546  97.033  1.00  0.00     0.029 C 
ENDBRANCH   6   7
ENDBRANCH   3   6
ENDBRANCH   1   2
BRANCH   1  10
HETATM   10  C6  UNL     1     -33.666   4.602  96.011  1.00  0.00     0.011 C 
HETATM   11  C7  UNL     1     -32.263   4.386  95.447  1.00  0.00     0.012 C 
HETATM   12  C8  UNL     1     -33.901   3.558  97.066  1.00  0.00     0.012 C 
ENDBRANCH   1  10
BRANCH   1  13
HETATM   13  N3  UNL     1     -33.178   6.880  95.654  1.00  0.00    -0.287 N 
HETATM   14  C9  UNL     1     -32.471   8.037  96.026  1.00  0.00     0.109 C 
HETATM   15  C10 UNL     1     -31.204   8.106  95.171  1.00  0.00     0.122 C 
HETATM   16  C11 UNL     1     -30.716   9.535  95.085  1.00  0.00     0.038 C 
HETATM   17  N4  UNL     1     -31.469   7.686  93.817  1.00  0.00    -0.333 N 
HETATM   18  C12 UNL     1     -32.802   7.374  93.368  1.00  0.00     0.335 C 
ATOM     19  H4  UNL     1     -30.693   7.607  93.161  1.00  0.00     0.165 HD
HETATM   20  O2  UNL     1     -33.137   7.551  92.176  1.00  0.00    -0.246 OA
HETATM   21  N5  UNL     1     -33.669   6.864  94.374  1.00  0.00    -0.249 N 
ATOM     22  H5  UNL     1     -34.599   6.507  94.157  1.00  0.00     0.192 HD
ENDBRANCH   1  13
TORSDOF 5
ENDMDL
MODEL 4
REMARK VINA RESULT: -5.587672799      1.589      2.191
REMARK  5 active torsions:
REMARK  status: ('A' for Active; 'I' for Inactive)
REMARK    1  A    between atoms: C2_2  and  N1_4 
REMARK    2  A    between atoms: N1_4  and  N2_5 
REMARK       I    between atoms: N2_5  and  C4_7 
REMARK    3  A    between atoms: C4_7  and  C5_9 
REMARK    4  A    between atoms: C5_9  and  C6_10 
REMARK    5  A    between atoms: C5_9  and  N3_13 
ROOT
HETATM    1  C5  UNL     1     -32.465   5.139  95.866  1.00  0.00     0.203 C 
ENDROOT
BRANCH   1   2
HETATM    2  C4  UNL     1     -33.439   5.055  96.922  1.00  0.00     0.258 C 
HETATM    3  N2  UNL     1     -34.384   6.040  97.245  1.00  0.00    -0.272 N 
ATOM      4  H2  UNL     1     -34.395   6.893  96.686  1.00  0.00     0.185 HD
HETATM    5  O1  UNL     1     -33.459   3.997  97.645  1.00  0.00    -0.270 OA
BRANCH   3   6
HETATM    6  N1  UNL     1     -35.303   5.928  98.278  1.00  0.00    -0.135 NA
BRANCH   6   7
HETATM    7  C2  UNL     1     -36.391   6.852  98.201  1.00  0.00     0.091 C 
HETATM    8  C1  UNL     1     -36.676   7.093  96.713  1.00  0.00     0.029 C 
HETATM    9  C3  UNL     1     -37.640   6.337  98.871  1.00  0.00     0.029 C 
ENDBRANCH   6   7
ENDBRANCH   3   6
ENDBRANCH   1   2
BRANCH   1  10
HETATM   10  C6  UNL     1     -32.730   4.208  94.674  1.00  0.00     0.011 C 
HETATM   11  C7  UNL     1     -32.269   2.802  95.053  1.00  0.00     0.012 C 
HETATM   12  C8  UNL     1     -34.197   4.138  94.354  1.00  0.00     0.012 C 
ENDBRANCH   1  10
BRANCH   1  13
HETATM   13  N3  UNL     1     -32.098   6.380  95.335  1.00  0.00    -0.287 N 
HETATM   14  C9  UNL     1     -32.439   6.754  94.023  1.00  0.00     0.109 C 
HETATM   15  C10 UNL     1     -32.954   8.193  94.065  1.00  0.00     0.122 C 
HETATM   16  C11 UNL     1     -32.790   8.841  92.708  1.00  0.00     0.038 C 
HETATM   17  N4  UNL     1     -32.188   8.990  94.991  1.00  0.00    -0.333 N 
HETATM   18  C12 UNL     1     -31.025   8.467  95.661  1.00  0.00     0.335 C 
ATOM     19  H4  UNL     1     -32.477   9.951  95.177  1.00  0.00     0.165 HD
HETATM   20  O2  UNL     1     -30.080   9.217  95.992  1.00  0.00    -0.246 OA
HETATM   21  N5  UNL     1     -31.054   7.064  95.901  1.00  0.00    -0.249 N 
ATOM     22  H5  UNL     1     -30.341   6.596  96.461  1.00  0.00     0.192 HD
ENDBRANCH   1  13
TORSDOF 5
ENDMDL
MODEL 5
REMARK VINA RESULT: -5.141861417      2.092      2.646
REMARK  5 active torsions:
REMARK  status: ('A' for Active; 'I' for Inactive)
REMARK    1  A    between atoms: C2_2  and  N1_4 
REMARK    2  A    between atoms: N1_4  and  N2_5 
REMARK       I    between atoms: N2_5  and  C4_7 
REMARK    3  A    between atoms: C4_7  and  C5_9 
REMARK    4  A    between atoms: C5_9  and  C6_10 
REMARK    5  A    between atoms: C5_9  and  N3_13 
ROOT
HETATM    1  C5  UNL     1     -32.474   6.738  95.645  1.00  0.00     0.203 C 
ENDROOT
BRANCH   1   2
HETATM    2  C4  UNL     1     -33.911   6.700  95.696  1.00  0.00     0.258 C 
HETATM    3  N2  UNL     1     -34.680   5.954  96.602  1.00  0.00    -0.272 N 
ATOM      4  H2  UNL     1     -34.188   5.390  97.294  1.00  0.00     0.185 HD
HETATM    5  O1  UNL     1     -34.566   7.398  94.844  1.00  0.00    -0.270 OA
BRANCH   3   6
HETATM    6  N1  UNL     1     -36.067   5.934  96.615  1.00  0.00    -0.135 NA
BRANCH   6   7
HETATM    7  C2  UNL     1     -36.646   6.095  97.911  1.00  0.00     0.091 C 
HETATM    8  C1  UNL     1     -36.028   7.356  98.530  1.00  0.00     0.029 C 
HETATM    9  C3  UNL     1     -38.145   6.247  97.864  1.00  0.00     0.029 C 
ENDBRANCH   6   7
ENDBRANCH   3   6
ENDBRANCH   1   2
BRANCH   1  10
HETATM   10  C6  UNL     1     -31.843   5.774  94.630  1.00  0.00     0.011 C 
HETATM   11  C7  UNL     1     -31.070   4.705  95.401  1.00  0.00     0.012 C 
HETATM   12  C8  UNL     1     -32.895   5.077  93.814  1.00  0.00     0.012 C 
ENDBRANCH   1  10
BRANCH   1  13
HETATM   13  N3  UNL     1     -31.799   7.957  95.517  1.00  0.00    -0.287 N 
HETATM   14  C9  UNL     1     -31.985   8.791  94.401  1.00  0.00     0.109 C 
HETATM   15  C10 UNL     1     -32.143  10.225  94.909  1.00  0.00     0.122 C 
HETATM   16  C11 UNL     1     -31.772  11.205  93.819  1.00  0.00     0.038 C 
HETATM   17  N4  UNL     1     -31.249  10.485  96.011  1.00  0.00    -0.333 N 
HETATM   18  C12 UNL     1     -30.275   9.516  96.441  1.00  0.00     0.335 C 
ATOM     19  H4  UNL     1     -31.309  11.379  96.498  1.00  0.00     0.165 HD
HETATM   20  O2  UNL     1     -29.193   9.876  96.957  1.00  0.00    -0.246 OA
HETATM   21  N5  UNL     1     -30.647   8.159  96.231  1.00  0.00    -0.249 N 
ATOM     22  H5  UNL     1     -30.091   7.383  96.591  1.00  0.00     0.192 HD
ENDBRANCH   1  13
TORSDOF 5
ENDMDL
