MODEL 1
REMARK VINA RESULT: -6.388016349      0.000      0.000
REMARK  5 active torsions:
REMARK  status: ('A' for Active; 'I' for Inactive)
REMARK    1  A    between atoms: N1_1  and  N2_4 
REMARK       I    between atoms: N2_4  and  C1_6 
REMARK    2  A    between atoms: C1_6  and  C2_8 
REMARK    3  A    between atoms: C2_8  and  C5_18 
REMARK    4  A    between atoms: N3_9  and  N4_11 
REMARK       I    between atoms: N4_11  and  C3_13 
REMARK    5  A    between atoms: C3_13  and  C4_15 
ROOT
HETATM    1  C2  UNL     1      25.266   0.048  33.438  1.00  0.00     0.129 C 
HETATM    2  N3  UNL     1      25.881  -1.114  33.392  1.00  0.00    -0.292 N 
ATOM      3  H3  UNL     1      26.526  -1.236  32.611  1.00  0.00     0.187 HD
ENDROOT
BRANCH   1   4
HETATM    4  C1  UNL     1      25.682   0.892  32.308  1.00  0.00     0.288 C 
HETATM    5  N2  UNL     1      25.742   0.299  30.976  1.00  0.00    -0.271 N 
ATOM      6  H2  UNL     1      25.482  -0.683  30.878  1.00  0.00     0.189 HD
HETATM    7  O1  UNL     1      26.020   2.087  32.308  1.00  0.00    -0.264 OA
BRANCH   5   8
HETATM    8  N1  UNL     1      26.124   0.976  29.848  1.00  0.00    -0.342 N 
ATOM      9  H12 UNL     1      26.607   1.864  29.985  1.00  0.00     0.176 HD
ATOM     10  H11 UNL     1      25.954   0.648  28.897  1.00  0.00     0.176 HD
ENDBRANCH   5   8
ENDBRANCH   1   4
BRANCH   1  11
HETATM   11  C5  UNL     1      24.522   0.528  34.573  1.00  0.00     0.009 A 
HETATM   12  C6  UNL     1      25.238   1.409  35.439  1.00  0.00     0.015 A 
HETATM   13  C7  UNL     1      24.575   2.152  36.358  1.00  0.00     0.002 A 
HETATM   14  C8  UNL     1      23.214   2.076  36.478  1.00  0.00     0.012 A 
HETATM   15  C9  UNL     1      22.498   1.210  35.638  1.00  0.00    -0.025 A 
HETATM   16  C10 UNL     1      21.143   1.081  35.821  1.00  0.00     0.012 A 
HETATM   17  C14 UNL     1      23.161   0.440  34.692  1.00  0.00    -0.013 A 
HETATM   18  C11 UNL     1      20.429   0.176  35.072  1.00  0.00     0.001 A 
HETATM   19  C12 UNL     1      21.068  -0.609  34.132  1.00  0.00     0.001 A 
HETATM   20  C13 UNL     1      22.415  -0.480  33.945  1.00  0.00     0.013 A 
ENDBRANCH   1  11
BRANCH   2  21
HETATM   21  N4  UNL     1      25.780  -2.172  34.233  1.00  0.00    -0.262 N 
HETATM   22  C3  UNL     1      25.389  -3.479  33.881  1.00  0.00     0.325 C 
HETATM   23  O2  UNL     1      25.097  -3.733  32.688  1.00  0.00    -0.261 OA
ATOM     24  H4  UNL     1      26.009  -2.007  35.213  1.00  0.00     0.190 HD
BRANCH  22  25
HETATM   25  C4  UNL     1      25.316  -4.541  34.872  1.00  0.00     0.324 C 
HETATM   26  N5  UNL     1      24.140  -5.282  35.132  1.00  0.00    -0.053 NA
HETATM   27  O3  UNL     1      26.330  -4.864  35.573  1.00  0.00    -0.266 OA
ENDBRANCH  22  25
ENDBRANCH   2  21
TORSDOF 5
ENDMDL
MODEL 2
REMARK VINA RESULT: -5.683188460      9.985     12.086
REMARK  5 active torsions:
REMARK  status: ('A' for Active; 'I' for Inactive)
REMARK    1  A    between atoms: N1_1  and  N2_4 
REMARK       I    between atoms: N2_4  and  C1_6 
REMARK    2  A    between atoms: C1_6  and  C2_8 
REMARK    3  A    between atoms: C2_8  and  C5_18 
REMARK    4  A    between atoms: N3_9  and  N4_11 
REMARK       I    between atoms: N4_11  and  C3_13 
REMARK    5  A    between atoms: C3_13  and  C4_15 
ROOT
HETATM    1  C2  UNL     1      15.495  -6.258  30.603  1.00  0.00     0.129 C 
HETATM    2  N3  UNL     1      16.220  -6.060  31.682  1.00  0.00    -0.292 N 
ATOM      3  H3  UNL     1      16.031  -5.191  32.182  1.00  0.00     0.187 HD
ENDROOT
BRANCH   1   4
HETATM    4  C1  UNL     1      14.571  -5.133  30.393  1.00  0.00     0.288 C 
HETATM    5  N2  UNL     1      15.125  -3.789  30.259  1.00  0.00    -0.271 N 
ATOM      6  H2  UNL     1      16.138  -3.682  30.308  1.00  0.00     0.189 HD
HETATM    7  O1  UNL     1      13.332  -5.142  30.319  1.00  0.00    -0.264 OA
BRANCH   5   8
HETATM    8  N1  UNL     1      14.371  -2.660  30.072  1.00  0.00    -0.342 N 
ATOM      9  H12 UNL     1      14.163  -2.401  29.108  1.00  0.00     0.176 HD
ATOM     10  H11 UNL     1      14.013  -2.077  30.829  1.00  0.00     0.176 HD
ENDBRANCH   5   8
ENDBRANCH   1   4
BRANCH   1  11
HETATM   11  C5  UNL     1      15.412  -7.511  29.899  1.00  0.00     0.009 A 
HETATM   12  C6  UNL     1      16.128  -7.563  28.665  1.00  0.00     0.015 A 
HETATM   13  C7  UNL     1      16.372  -8.754  28.066  1.00  0.00     0.002 A 
HETATM   14  C8  UNL     1      15.941  -9.927  28.625  1.00  0.00     0.012 A 
HETATM   15  C9  UNL     1      15.231  -9.890  29.834  1.00  0.00    -0.025 A 
HETATM   16  C10 UNL     1      14.733 -11.064  30.344  1.00  0.00     0.012 A 
HETATM   17  C14 UNL     1      14.970  -8.680  30.461  1.00  0.00    -0.013 A 
HETATM   18  C11 UNL     1      13.958 -11.049  31.480  1.00  0.00     0.001 A 
HETATM   19  C12 UNL     1      13.676  -9.855  32.116  1.00  0.00     0.001 A 
HETATM   20  C13 UNL     1      14.173  -8.687  31.613  1.00  0.00     0.013 A 
ENDBRANCH   1  11
BRANCH   2  21
HETATM   21  N4  UNL     1      17.185  -6.843  32.223  1.00  0.00    -0.262 N 
HETATM   22  C3  UNL     1      18.461  -6.420  32.644  1.00  0.00     0.325 C 
HETATM   23  O2  UNL     1      18.778  -5.212  32.525  1.00  0.00    -0.261 OA
ATOM     24  H4  UNL     1      16.966  -7.833  32.338  1.00  0.00     0.190 HD
BRANCH  22  25
HETATM   25  C4  UNL     1      19.419  -7.353  33.214  1.00  0.00     0.324 C 
HETATM   26  N5  UNL     1      20.820  -7.172  33.138  1.00  0.00    -0.053 NA
HETATM   27  O3  UNL     1      19.038  -8.406  33.823  1.00  0.00    -0.266 OA
ENDBRANCH  22  25
ENDBRANCH   2  21
TORSDOF 5
ENDMDL
MODEL 3
REMARK VINA RESULT: -5.213140932      3.525      6.290
REMARK  5 active torsions:
REMARK  status: ('A' for Active; 'I' for Inactive)
REMARK    1  A    between atoms: N1_1  and  N2_4 
REMARK       I    between atoms: N2_4  and  C1_6 
REMARK    2  A    between atoms: C1_6  and  C2_8 
REMARK    3  A    between atoms: C2_8  and  C5_18 
REMARK    4  A    between atoms: N3_9  and  N4_11 
REMARK       I    between atoms: N4_11  and  C3_13 
REMARK    5  A    between atoms: C3_13  and  C4_15 
ROOT
HETATM    1  C2  UNL     1      25.340  -4.607  31.218  1.00  0.00     0.129 C 
HETATM    2  N3  UNL     1      25.427  -3.309  31.412  1.00  0.00    -0.292 N 
ATOM      3  H3  UNL     1      25.314  -2.734  30.577  1.00  0.00     0.187 HD
ENDROOT
BRANCH   1   4
HETATM    4  C1  UNL     1      25.099  -4.897  29.797  1.00  0.00     0.288 C 
HETATM    5  N2  UNL     1      26.172  -5.504  29.015  1.00  0.00    -0.271 N 
ATOM      6  H2  UNL     1      27.050  -5.713  29.490  1.00  0.00     0.189 HD
HETATM    7  O1  UNL     1      24.082  -4.686  29.117  1.00  0.00    -0.264 OA
BRANCH   5   8
HETATM    8  N1  UNL     1      26.076  -5.811  27.683  1.00  0.00    -0.342 N 
ATOM      9  H12 UNL     1      26.352  -6.754  27.408  1.00  0.00     0.176 HD
ATOM     10  H11 UNL     1      25.750  -5.163  26.967  1.00  0.00     0.176 HD
ENDBRANCH   5   8
ENDBRANCH   1   4
BRANCH   1  11
HETATM   11  C5  UNL     1      25.212  -5.579  32.273  1.00  0.00     0.009 A 
HETATM   12  C6  UNL     1      26.441  -5.992  32.869  1.00  0.00     0.015 A 
HETATM   13  C7  UNL     1      26.438  -6.662  34.048  1.00  0.00     0.002 A 
HETATM   14  C8  UNL     1      25.265  -6.957  34.688  1.00  0.00     0.012 A 
HETATM   15  C9  UNL     1      24.049  -6.562  34.110  1.00  0.00    -0.025 A 
HETATM   16  C10 UNL     1      22.876  -6.934  34.719  1.00  0.00     0.012 A 
HETATM   17  C14 UNL     1      24.033  -5.877  32.903  1.00  0.00    -0.013 A 
HETATM   18  C11 UNL     1      21.669  -6.638  34.131  1.00  0.00     0.001 A 
HETATM   19  C12 UNL     1      21.628  -5.966  32.924  1.00  0.00     0.001 A 
HETATM   20  C13 UNL     1      22.793  -5.592  32.318  1.00  0.00     0.013 A 
ENDBRANCH   1  11
BRANCH   2  21
HETATM   21  N4  UNL     1      25.645  -2.626  32.563  1.00  0.00    -0.262 N 
HETATM   22  C3  UNL     1      25.022  -1.422  32.945  1.00  0.00     0.325 C 
HETATM   23  O2  UNL     1      24.178  -0.896  32.180  1.00  0.00    -0.261 OA
ATOM     24  H4  UNL     1      26.324  -3.021  33.213  1.00  0.00     0.190 HD
BRANCH  22  25
HETATM   25  C4  UNL     1      25.335  -0.775  34.209  1.00  0.00     0.324 C 
HETATM   26  N5  UNL     1      24.891   0.525  34.549  1.00  0.00    -0.053 NA
HETATM   27  O3  UNL     1      26.042  -1.357  35.095  1.00  0.00    -0.266 OA
ENDBRANCH  22  25
ENDBRANCH   2  21
TORSDOF 5
ENDMDL
MODEL 4
REMARK VINA RESULT: -4.739508780      3.264      5.930
REMARK  5 active torsions:
REMARK  status: ('A' for Active; 'I' for Inactive)
REMARK    1  A    between atoms: N1_1  and  N2_4 
REMARK       I    between atoms: N2_4  and  C1_6 
REMARK    2  A    between atoms: C1_6  and  C2_8 
REMARK    3  A    between atoms: C2_8  and  C5_18 
REMARK    4  A    between atoms: N3_9  and  N4_11 
REMARK       I    between atoms: N4_11  and  C3_13 
REMARK    5  A    between atoms: C3_13  and  C4_15 
ROOT
HETATM    1  C2  UNL     1      25.709  -3.882  31.539  1.00  0.00     0.129 C 
HETATM    2  N3  UNL     1      25.317  -2.673  31.204  1.00  0.00    -0.292 N 
ATOM      3  H3  UNL     1      25.345  -2.466  30.205  1.00  0.00     0.187 HD
ENDROOT
BRANCH   1   4
HETATM    4  C1  UNL     1      26.103  -4.643  30.344  1.00  0.00     0.288 C 
HETATM    5  N2  UNL     1      26.105  -3.964  29.052  1.00  0.00    -0.271 N 
ATOM      6  H2  UNL     1      25.840  -2.979  29.029  1.00  0.00     0.189 HD
HETATM    7  O1  UNL     1      26.440  -5.834  30.252  1.00  0.00    -0.264 OA
BRANCH   5   8
HETATM    8  N1  UNL     1      26.441  -4.565  27.867  1.00  0.00    -0.342 N 
ATOM      9  H12 UNL     1      27.375  -4.373  27.503  1.00  0.00     0.176 HD
ATOM     10  H11 UNL     1      25.822  -5.180  27.340  1.00  0.00     0.176 HD
ENDBRANCH   5   8
ENDBRANCH   1   4
BRANCH   1  11
HETATM   11  C5  UNL     1      25.510  -4.469  32.839  1.00  0.00     0.009 A 
HETATM   12  C6  UNL     1      26.400  -4.009  33.856  1.00  0.00     0.015 A 
HETATM   13  C7  UNL     1      26.131  -4.253  35.161  1.00  0.00     0.002 A 
HETATM   14  C8  UNL     1      25.010  -4.943  35.534  1.00  0.00     0.012 A 
HETATM   15  C9  UNL     1      24.129  -5.407  34.545  1.00  0.00    -0.025 A 
HETATM   16  C10 UNL     1      23.050  -6.167  34.924  1.00  0.00     0.012 A 
HETATM   17  C14 UNL     1      24.389  -5.167  33.203  1.00  0.00    -0.013 A 
HETATM   18  C11 UNL     1      22.219  -6.709  33.973  1.00  0.00     0.001 A 
HETATM   19  C12 UNL     1      22.463  -6.494  32.630  1.00  0.00     0.001 A 
HETATM   20  C13 UNL     1      23.534  -5.735  32.250  1.00  0.00     0.013 A 
ENDBRANCH   1  11
BRANCH   2  21
HETATM   21  N4  UNL     1      24.881  -1.662  31.994  1.00  0.00    -0.262 N 
HETATM   22  C3  UNL     1      25.336  -0.329  31.966  1.00  0.00     0.325 C 
HETATM   23  O2  UNL     1      26.229  -0.002  31.146  1.00  0.00    -0.261 OA
ATOM     24  H4  UNL     1      24.155  -1.887  32.674  1.00  0.00     0.190 HD
BRANCH  22  25
HETATM   25  C4  UNL     1      24.793   0.677  32.864  1.00  0.00     0.324 C 
HETATM   26  N5  UNL     1      25.270   2.008  32.921  1.00  0.00    -0.053 NA
HETATM   27  O3  UNL     1      23.841   0.406  33.666  1.00  0.00    -0.266 OA
ENDBRANCH  22  25
ENDBRANCH   2  21
TORSDOF 5
ENDMDL
MODEL 5
REMARK VINA RESULT: -3.283831029      9.781     11.926
REMARK  5 active torsions:
REMARK  status: ('A' for Active; 'I' for Inactive)
REMARK    1  A    between atoms: N1_1  and  N2_4 
REMARK       I    between atoms: N2_4  and  C1_6 
REMARK    2  A    between atoms: C1_6  and  C2_8 
REMARK    3  A    between atoms: C2_8  and  C5_18 
REMARK    4  A    between atoms: N3_9  and  N4_11 
REMARK       I    between atoms: N4_11  and  C3_13 
REMARK    5  A    between atoms: C3_13  and  C4_15 
ROOT
HETATM    1  C2  UNL     1      15.543  -6.225  31.364  1.00  0.00     0.129 C 
HETATM    2  N3  UNL     1      16.335  -5.672  32.256  1.00  0.00    -0.292 N 
ATOM      3  H3  UNL     1      16.284  -4.655  32.315  1.00  0.00     0.187 HD
ENDROOT
BRANCH   1   4
HETATM    4  C1  UNL     1      14.768  -5.193  30.657  1.00  0.00     0.288 C 
HETATM    5  N2  UNL     1      15.216  -3.806  30.736  1.00  0.00    -0.271 N 
ATOM      6  H2  UNL     1      16.059  -3.605  31.274  1.00  0.00     0.189 HD
HETATM    7  O1  UNL     1      13.735  -5.318  29.980  1.00  0.00    -0.264 OA
BRANCH   5   8
HETATM    8  N1  UNL     1      14.576  -2.755  30.133  1.00  0.00    -0.342 N 
ATOM      9  H12 UNL     1      14.086  -2.954  29.261  1.00  0.00     0.176 HD
ATOM     10  H11 UNL     1      14.564  -1.803  30.501  1.00  0.00     0.176 HD
ENDBRANCH   5   8
ENDBRANCH   1   4
BRANCH   1  11
HETATM   11  C5  UNL     1      15.264  -7.635  31.289  1.00  0.00     0.009 A 
HETATM   12  C6  UNL     1      14.411  -8.141  32.316  1.00  0.00     0.015 A 
HETATM   13  C7  UNL     1      13.841  -9.364  32.190  1.00  0.00     0.002 A 
HETATM   14  C8  UNL     1      14.069 -10.139  31.085  1.00  0.00     0.012 A 
HETATM   15  C9  UNL     1      14.909  -9.657  30.070  1.00  0.00    -0.025 A 
HETATM   16  C10 UNL     1      15.195 -10.474  29.005  1.00  0.00     0.012 A 
HETATM   17  C14 UNL     1      15.503  -8.407  30.183  1.00  0.00    -0.013 A 
HETATM   18  C11 UNL     1      16.084 -10.064  28.039  1.00  0.00     0.001 A 
HETATM   19  C12 UNL     1      16.696  -8.829  28.135  1.00  0.00     0.001 A 
HETATM   20  C13 UNL     1      16.411  -8.012  29.192  1.00  0.00     0.013 A 
ENDBRANCH   1  11
BRANCH   2  21
HETATM   21  N4  UNL     1      17.209  -6.260  33.109  1.00  0.00    -0.262 N 
HETATM   22  C3  UNL     1      18.447  -6.837  32.763  1.00  0.00     0.325 C 
HETATM   23  O2  UNL     1      18.815  -6.828  31.564  1.00  0.00    -0.261 OA
ATOM     24  H4  UNL     1      16.947  -6.286  34.094  1.00  0.00     0.190 HD
BRANCH  22  25
HETATM   25  C4  UNL     1      19.308  -7.441  33.766  1.00  0.00     0.324 C 
HETATM   26  N5  UNL     1      20.546  -6.885  34.165  1.00  0.00    -0.053 NA
HETATM   27  O3  UNL     1      18.986  -8.528  34.350  1.00  0.00    -0.266 OA
ENDBRANCH  22  25
ENDBRANCH   2  21
TORSDOF 5
ENDMDL
