MODEL 1
REMARK VINA RESULT: -6.207690461      0.000      0.000
REMARK  6 active torsions:
REMARK  status: ('A' for Active; 'I' for Inactive)
REMARK    1  A    between atoms: S1_2  and  C2_3 
REMARK    2  A    between atoms: C4_7  and  C5_8 
REMARK    3  A    between atoms: C5_8  and  O1_9 
REMARK    4  A    between atoms: C8_13  and  N2_14 
REMARK    5  A    between atoms: N2_14  and  N3_16 
REMARK    6  A    between atoms: N3_16  and  N4_17 
ROOT
HETATM    1  C5  UNL     1      -4.459   2.063  12.528  1.00  0.00     0.087 C 
HETATM    2  C6  UNL     1      -4.635   3.276  13.394  1.00  0.00     0.045 C 
HETATM    3  C7  UNL     1      -5.420   2.888  14.623  1.00  0.00     0.031 C 
HETATM    4  C8  UNL     1      -4.454   1.966  15.382  1.00  0.00     0.114 C 
HETATM    5  C9  UNL     1      -4.427   0.671  14.641  1.00  0.00     0.031 C 
HETATM    6  C10 UNL     1      -4.160   0.785  13.179  1.00  0.00     0.045 C 
ENDROOT
BRANCH   1   7
HETATM    7  C4  UNL     1      -3.366   2.439  11.561  1.00  0.00     0.007 A 
HETATM    8  C3  UNL     1      -2.351   1.549  11.291  1.00  0.00     0.101 A 
HETATM    9  N1  UNL     1      -1.384   1.920  10.450  1.00  0.00    -0.346 N 
HETATM   10  C2  UNL     1      -1.325   3.117   9.834  1.00  0.00     0.143 A 
ATOM     11  H1  UNL     1      -0.639   1.251  10.260  1.00  0.00     0.167 HD
HETATM   12  N5  UNL     1      -2.337   3.982  10.114  1.00  0.00    -0.346 N 
HETATM   13  C11 UNL     1      -3.339   3.672  10.950  1.00  0.00     0.101 A 
ATOM     14  H5  UNL     1      -2.333   4.901   9.671  1.00  0.00     0.167 HD
BRANCH  10  15
HETATM   15  S1  UNL     1       0.012   3.564   8.729  1.00  0.00    -0.098 SA
HETATM   16  C1  UNL     1       1.588   3.620   9.566  1.00  0.00     0.099 C 
ENDBRANCH  10  15
ENDBRANCH   1   7
BRANCH   1  17
HETATM   17  O1  UNL     1      -5.628   1.965  11.752  1.00  0.00    -0.385 OA
ATOM     18  H1  UNL     1      -6.273   2.501  12.197  1.00  0.00     0.211 HD
ENDBRANCH   1  17
BRANCH   4  19
HETATM   19  N2  UNL     1      -4.811   1.797  16.748  1.00  0.00    -0.248 N 
ATOM     20  H2  UNL     1      -4.736   2.594  17.381  1.00  0.00     0.197 HD
BRANCH  19  21
HETATM   21  N3  UNL     1      -5.213   0.706  17.195  1.00  0.00    -0.248 NA
BRANCH  21  22
HETATM   22  N4  UNL     1      -5.898  -0.190  17.731  1.00  0.00    -0.261 N 
ATOM     23  H42 UNL     1      -5.356  -0.192  18.595  1.00  0.00     0.193 HD
ATOM     24  H41 UNL     1      -6.599  -0.907  17.917  1.00  0.00     0.193 HD
ENDBRANCH  21  22
ENDBRANCH  19  21
ENDBRANCH   4  19
TORSDOF 6
ENDMDL
MODEL 2
REMARK VINA RESULT: -6.165595083      0.069      1.101
REMARK  6 active torsions:
REMARK  status: ('A' for Active; 'I' for Inactive)
REMARK    1  A    between atoms: S1_2  and  C2_3 
REMARK    2  A    between atoms: C4_7  and  C5_8 
REMARK    3  A    between atoms: C5_8  and  O1_9 
REMARK    4  A    between atoms: C8_13  and  N2_14 
REMARK    5  A    between atoms: N2_14  and  N3_16 
REMARK    6  A    between atoms: N3_16  and  N4_17 
ROOT
HETATM    1  C5  UNL     1      -4.433   2.056  12.557  1.00  0.00     0.087 C 
HETATM    2  C6  UNL     1      -4.599   3.268  13.425  1.00  0.00     0.045 C 
HETATM    3  C7  UNL     1      -5.400   2.888  14.646  1.00  0.00     0.031 C 
HETATM    4  C8  UNL     1      -4.454   1.950  15.411  1.00  0.00     0.114 C 
HETATM    5  C9  UNL     1      -4.439   0.657  14.666  1.00  0.00     0.031 C 
HETATM    6  C10 UNL     1      -4.157   0.771  13.206  1.00  0.00     0.045 C 
ENDROOT
BRANCH   1   7
HETATM    7  C4  UNL     1      -3.325   2.419  11.600  1.00  0.00     0.007 A 
HETATM    8  C3  UNL     1      -3.327   3.650  10.983  1.00  0.00     0.101 A 
HETATM    9  N1  UNL     1      -2.347   3.932  10.123  1.00  0.00    -0.346 N 
HETATM   10  C2  UNL     1      -1.341   3.093   9.808  1.00  0.00     0.143 A 
ATOM     11  H1  UNL     1      -2.361   4.846   9.672  1.00  0.00     0.167 HD
HETATM   12  N5  UNL     1      -1.357   1.883  10.429  1.00  0.00    -0.346 N 
HETATM   13  C11 UNL     1      -2.313   1.535  11.305  1.00  0.00     0.101 A 
ATOM     14  H5  UNL     1      -0.615   1.214  10.221  1.00  0.00     0.167 HD
BRANCH  10  15
HETATM   15  S1  UNL     1      -0.063   3.524   8.629  1.00  0.00    -0.098 SA
HETATM   16  C1  UNL     1       1.559   3.554   9.375  1.00  0.00     0.099 C 
ENDBRANCH  10  15
ENDBRANCH   1   7
BRANCH   1  17
HETATM   17  O1  UNL     1      -5.595   1.976  11.771  1.00  0.00    -0.385 OA
ATOM     18  H1  UNL     1      -5.869   1.068  11.816  1.00  0.00     0.211 HD
ENDBRANCH   1  17
BRANCH   4  19
HETATM   19  N2  UNL     1      -4.825   1.782  16.773  1.00  0.00    -0.248 N 
ATOM     20  H2  UNL     1      -4.764   2.581  17.404  1.00  0.00     0.197 HD
BRANCH  19  21
HETATM   21  N3  UNL     1      -5.224   0.690  17.218  1.00  0.00    -0.248 NA
BRANCH  21  22
HETATM   22  N4  UNL     1      -5.915  -0.215  17.732  1.00  0.00    -0.261 N 
ATOM     23  H42 UNL     1      -6.738   0.376  17.848  1.00  0.00     0.193 HD
ATOM     24  H41 UNL     1      -6.236  -1.106  18.110  1.00  0.00     0.193 HD
ENDBRANCH  21  22
ENDBRANCH  19  21
ENDBRANCH   4  19
TORSDOF 6
ENDMDL
MODEL 3
REMARK VINA RESULT: -6.101706664      3.770      4.704
REMARK  6 active torsions:
REMARK  status: ('A' for Active; 'I' for Inactive)
REMARK    1  A    between atoms: S1_2  and  C2_3 
REMARK    2  A    between atoms: C4_7  and  C5_8 
REMARK    3  A    between atoms: C5_8  and  O1_9 
REMARK    4  A    between atoms: C8_13  and  N2_14 
REMARK    5  A    between atoms: N2_14  and  N3_16 
REMARK    6  A    between atoms: N3_16  and  N4_17 
ROOT
HETATM    1  C5  UNL     1      -3.478   2.671  11.187  1.00  0.00     0.087 C 
HETATM    2  C6  UNL     1      -4.747   2.146  11.791  1.00  0.00     0.045 C 
HETATM    3  C7  UNL     1      -5.008   0.761  11.252  1.00  0.00     0.031 C 
HETATM    4  C8  UNL     1      -3.874  -0.075  11.864  1.00  0.00     0.114 C 
HETATM    5  C9  UNL     1      -2.629   0.288  11.125  1.00  0.00     0.031 C 
HETATM    6  C10 UNL     1      -2.348   1.750  11.039  1.00  0.00     0.045 C 
ENDROOT
BRANCH   1   7
HETATM    7  C4  UNL     1      -3.099   3.846  12.052  1.00  0.00     0.007 A 
HETATM    8  C3  UNL     1      -4.076   4.693  12.528  1.00  0.00     0.101 A 
HETATM    9  N1  UNL     1      -3.706   5.737  13.269  1.00  0.00    -0.346 N 
HETATM   10  C2  UNL     1      -2.432   6.033  13.594  1.00  0.00     0.143 A 
ATOM     11  H1  UNL     1      -4.440   6.356  13.615  1.00  0.00     0.167 HD
HETATM   12  N5  UNL     1      -1.484   5.185  13.114  1.00  0.00    -0.346 N 
HETATM   13  C11 UNL     1      -1.786   4.115  12.363  1.00  0.00     0.101 A 
ATOM     14  H5  UNL     1      -0.505   5.369  13.334  1.00  0.00     0.167 HD
BRANCH  10  15
HETATM   15  S1  UNL     1      -1.999   7.465  14.580  1.00  0.00    -0.098 SA
HETATM   16  C1  UNL     1      -0.632   8.374  13.879  1.00  0.00     0.099 C 
ENDBRANCH  10  15
ENDBRANCH   1   7
BRANCH   1  17
HETATM   17  O1  UNL     1      -3.836   3.221   9.943  1.00  0.00    -0.385 OA
ATOM     18  H1  UNL     1      -3.017   3.456   9.525  1.00  0.00     0.211 HD
ENDBRANCH   1  17
BRANCH   4  19
HETATM   19  N2  UNL     1      -4.136  -1.472  11.824  1.00  0.00    -0.248 N 
ATOM     20  H2  UNL     1      -5.074  -1.806  12.044  1.00  0.00     0.197 HD
BRANCH  19  21
HETATM   21  N3  UNL     1      -3.254  -2.300  11.529  1.00  0.00    -0.248 NA
BRANCH  21  22
HETATM   22  N4  UNL     1      -2.618  -3.359  11.341  1.00  0.00    -0.261 N 
ATOM     23  H42 UNL     1      -2.625  -3.627  12.325  1.00  0.00     0.193 HD
ATOM     24  H41 UNL     1      -2.108  -4.132  10.913  1.00  0.00     0.193 HD
ENDBRANCH  21  22
ENDBRANCH  19  21
ENDBRANCH   4  19
TORSDOF 6
ENDMDL
MODEL 4
REMARK VINA RESULT: -5.890045888      2.002      2.219
REMARK  6 active torsions:
REMARK  status: ('A' for Active; 'I' for Inactive)
REMARK    1  A    between atoms: S1_2  and  C2_3 
REMARK    2  A    between atoms: C4_7  and  C5_8 
REMARK    3  A    between atoms: C5_8  and  O1_9 
REMARK    4  A    between atoms: C8_13  and  N2_14 
REMARK    5  A    between atoms: N2_14  and  N3_16 
REMARK    6  A    between atoms: N3_16  and  N4_17 
ROOT
HETATM    1  C5  UNL     1      -3.823   3.125  13.430  1.00  0.00     0.087 C 
HETATM    2  C6  UNL     1      -3.720   3.324  14.913  1.00  0.00     0.045 C 
HETATM    3  C7  UNL     1      -4.710   2.415  15.598  1.00  0.00     0.031 C 
HETATM    4  C8  UNL     1      -4.149   1.012  15.322  1.00  0.00     0.114 C 
HETATM    5  C9  UNL     1      -4.432   0.712  13.888  1.00  0.00     0.031 C 
HETATM    6  C10 UNL     1      -3.989   1.760  12.924  1.00  0.00     0.045 C 
ENDROOT
BRANCH   1   7
HETATM    7  C4  UNL     1      -2.571   3.753  12.871  1.00  0.00     0.007 A 
HETATM    8  C3  UNL     1      -1.806   4.581  13.661  1.00  0.00     0.101 A 
HETATM    9  N1  UNL     1      -0.718   5.140  13.131  1.00  0.00    -0.346 N 
HETATM   10  C2  UNL     1      -0.303   4.954  11.862  1.00  0.00     0.143 A 
ATOM     11  H1  UNL     1      -0.160   5.752  13.727  1.00  0.00     0.167 HD
HETATM   12  N5  UNL     1      -1.073   4.133  11.099  1.00  0.00    -0.346 N 
HETATM   13  C11 UNL     1      -2.179   3.538  11.570  1.00  0.00     0.101 A 
ATOM     14  H5  UNL     1      -0.798   3.963  10.131  1.00  0.00     0.167 HD
BRANCH  10  15
HETATM   15  S1  UNL     1       1.159   5.751  11.202  1.00  0.00    -0.098 SA
HETATM   16  C1  UNL     1       2.564   4.651  11.161  1.00  0.00     0.099 C 
ENDBRANCH  10  15
ENDBRANCH   1   7
BRANCH   1  17
HETATM   17  O1  UNL     1      -4.879   3.947  12.998  1.00  0.00    -0.385 OA
ATOM     18  H1  UNL     1      -5.159   4.426  13.769  1.00  0.00     0.211 HD
ENDBRANCH   1  17
BRANCH   4  19
HETATM   19  N2  UNL     1      -4.683   0.023  16.194  1.00  0.00    -0.248 N 
ATOM     20  H2  UNL     1      -4.095  -0.764  16.468  1.00  0.00     0.197 HD
BRANCH  19  21
HETATM   21  N3  UNL     1      -5.847   0.089  16.633  1.00  0.00    -0.248 NA
BRANCH  21  22
HETATM   22  N4  UNL     1      -6.855   0.351  17.323  1.00  0.00    -0.261 N 
ATOM     23  H42 UNL     1      -6.890  -0.571  17.757  1.00  0.00     0.193 HD
ATOM     24  H41 UNL     1      -7.651   0.820  17.753  1.00  0.00     0.193 HD
ENDBRANCH  21  22
ENDBRANCH  19  21
ENDBRANCH   4  19
TORSDOF 6
ENDMDL
MODEL 5
REMARK VINA RESULT: -5.886441989      1.859      1.973
REMARK  6 active torsions:
REMARK  status: ('A' for Active; 'I' for Inactive)
REMARK    1  A    between atoms: S1_2  and  C2_3 
REMARK    2  A    between atoms: C4_7  and  C5_8 
REMARK    3  A    between atoms: C5_8  and  O1_9 
REMARK    4  A    between atoms: C8_13  and  N2_14 
REMARK    5  A    between atoms: N2_14  and  N3_16 
REMARK    6  A    between atoms: N3_16  and  N4_17 
ROOT
HETATM    1  C5  UNL     1      -3.752   3.094  13.324  1.00  0.00     0.087 C 
HETATM    2  C6  UNL     1      -3.610   3.329  14.798  1.00  0.00     0.045 C 
HETATM    3  C7  UNL     1      -4.607   2.464  15.529  1.00  0.00     0.031 C 
HETATM    4  C8  UNL     1      -4.089   1.040  15.278  1.00  0.00     0.114 C 
HETATM    5  C9  UNL     1      -4.412   0.710  13.859  1.00  0.00     0.031 C 
HETATM    6  C10 UNL     1      -3.964   1.721  12.858  1.00  0.00     0.045 C 
ENDROOT
BRANCH   1   7
HETATM    7  C4  UNL     1      -2.497   3.674  12.721  1.00  0.00     0.007 A 
HETATM    8  C3  UNL     1      -2.096   3.286  11.462  1.00  0.00     0.101 A 
HETATM    9  N1  UNL     1      -0.969   3.798  10.967  1.00  0.00    -0.346 N 
HETATM   10  C2  UNL     1      -0.180   4.678  11.613  1.00  0.00     0.143 A 
ATOM     11  H1  UNL     1      -0.684   3.501  10.034  1.00  0.00     0.167 HD
HETATM   12  N5  UNL     1      -0.593   5.048  12.855  1.00  0.00    -0.346 N 
HETATM   13  C11 UNL     1      -1.717   4.572  13.412  1.00  0.00     0.101 A 
ATOM     14  H5  UNL     1      -0.027   5.713  13.382  1.00  0.00     0.167 HD
BRANCH  10  15
HETATM   15  S1  UNL     1       1.336   5.315  10.900  1.00  0.00    -0.098 SA
HETATM   16  C1  UNL     1       2.207   4.076   9.955  1.00  0.00     0.099 C 
ENDBRANCH  10  15
ENDBRANCH   1   7
BRANCH   1  17
HETATM   17  O1  UNL     1      -4.795   3.932  12.893  1.00  0.00    -0.385 OA
ATOM     18  H1  UNL     1      -4.401   4.524  12.263  1.00  0.00     0.211 HD
ENDBRANCH   1  17
BRANCH   4  19
HETATM   19  N2  UNL     1      -4.628   0.088  16.187  1.00  0.00    -0.248 N 
ATOM     20  H2  UNL     1      -4.042  -0.688  16.496  1.00  0.00     0.197 HD
BRANCH  19  21
HETATM   21  N3  UNL     1      -5.793   0.174  16.618  1.00  0.00    -0.248 NA
BRANCH  21  22
HETATM   22  N4  UNL     1      -6.799   0.437  17.311  1.00  0.00    -0.261 N 
ATOM     23  H42 UNL     1      -6.268   0.547  18.175  1.00  0.00     0.193 HD
ATOM     24  H41 UNL     1      -7.753   0.617  17.622  1.00  0.00     0.193 HD
ENDBRANCH  21  22
ENDBRANCH  19  21
ENDBRANCH   4  19
TORSDOF 6
ENDMDL
