MODEL 1
REMARK VINA RESULT: -7.625756578      0.000      0.000
REMARK  4 active torsions:
REMARK  status: ('A' for Active; 'I' for Inactive)
REMARK    1  A    between atoms: C2_2  and  C4_5 
REMARK    2  A    between atoms: C5_6  and  C6_7 
REMARK    3  A    between atoms: C6_7  and  N2_8 
REMARK    4  A    between atoms: C14_17  and  O2_18 
ROOT
HETATM    1  C1  UNL     1      -4.810  -0.403  10.389  1.00  0.00     0.029 C 
HETATM    2  C2  UNL     1      -3.305  -0.529  10.507  1.00  0.00     0.111 C 
HETATM    3  C3  UNL     1      -2.917  -1.811  11.096  1.00  0.00     0.067 C 
HETATM    4  N1  UNL     1      -2.603  -2.827  11.545  1.00  0.00    -0.197 NA
ENDROOT
BRANCH   2   5
HETATM    5  C4  UNL     1      -2.795   0.583  11.340  1.00  0.00    -0.010 C 
HETATM    6  C5  UNL     1      -3.389   1.759  11.326  1.00  0.00     0.000 C 
BRANCH   6   7
HETATM    7  C6  UNL     1      -2.891   2.910  12.163  1.00  0.00     0.299 C 
BRANCH   7   8
HETATM    8  N2  UNL     1      -3.875   3.187  13.170  1.00  0.00     0.092 N 
HETATM    9  C7  UNL     1      -3.202   3.865  14.264  1.00  0.00     0.273 C 
HETATM   10  C8  UNL     1      -4.086   3.832  15.493  1.00  0.00     0.036 C 
HETATM   11  C9  UNL     1      -5.518   3.771  14.983  1.00  0.00     0.002 C 
HETATM   12  C10 UNL     1      -6.406   3.773  16.194  1.00  0.00     0.049 C 
HETATM   13  C15 UNL     1      -5.718   2.330  14.498  1.00  0.00     0.054 C 
HETATM   14  C11 UNL     1      -6.061   2.469  16.823  1.00  0.00     0.009 A 
HETATM   15  C12 UNL     1      -5.656   1.614  15.825  1.00  0.00    -0.018 A 
HETATM   16  C14 UNL     1      -5.984   1.772  18.009  1.00  0.00     0.189 A 
HETATM   17  C13 UNL     1      -5.348   0.424  16.445  1.00  0.00     0.153 A 
HETATM   18  O1  UNL     1      -5.557   0.566  17.732  1.00  0.00    -0.299 OA
HETATM   19  C16 UNL     1      -4.568   2.001  13.608  1.00  0.00     0.282 C 
BRANCH  16  20
HETATM   20  O2  UNL     1      -6.305   2.256  19.295  1.00  0.00    -0.340 OA
ATOM     21  H2  UNL     1      -5.721   2.313  20.043  1.00  0.00     0.220 HD
ENDBRANCH  16  20
ENDBRANCH   7   8
ENDBRANCH   6   7
ENDBRANCH   2   5
TORSDOF 4
ENDMDL
MODEL 2
REMARK VINA RESULT: -7.400115339      3.493      6.358
REMARK  4 active torsions:
REMARK  status: ('A' for Active; 'I' for Inactive)
REMARK    1  A    between atoms: C2_2  and  C4_5 
REMARK    2  A    between atoms: C5_6  and  C6_7 
REMARK    3  A    between atoms: C6_7  and  N2_8 
REMARK    4  A    between atoms: C14_17  and  O2_18 
ROOT
HETATM    1  C1  UNL     1      -6.372   1.975  19.104  1.00  0.00     0.029 C 
HETATM    2  C2  UNL     1      -6.840   1.895  17.666  1.00  0.00     0.111 C 
HETATM    3  C3  UNL     1      -6.057   0.925  16.899  1.00  0.00     0.067 C 
HETATM    4  N1  UNL     1      -5.453   0.151  16.291  1.00  0.00    -0.197 NA
ENDROOT
BRANCH   2   5
HETATM    5  C4  UNL     1      -6.727   3.235  17.050  1.00  0.00    -0.010 C 
HETATM    6  C5  UNL     1      -6.350   3.367  15.794  1.00  0.00     0.000 C 
BRANCH   6   7
HETATM    7  C6  UNL     1      -6.226   4.720  15.141  1.00  0.00     0.299 C 
BRANCH   7   8
HETATM    8  N2  UNL     1      -4.969   4.768  14.451  1.00  0.00     0.092 N 
HETATM    9  C7  UNL     1      -5.159   5.558  13.248  1.00  0.00     0.273 C 
HETATM   10  C8  UNL     1      -3.999   5.322  12.305  1.00  0.00     0.036 C 
HETATM   11  C9  UNL     1      -2.807   4.964  13.180  1.00  0.00     0.002 C 
HETATM   12  C10 UNL     1      -1.640   4.761  12.256  1.00  0.00     0.049 C 
HETATM   13  C15 UNL     1      -3.052   3.520  13.636  1.00  0.00     0.054 C 
HETATM   14  C11 UNL     1      -2.063   3.551  11.499  1.00  0.00     0.009 A 
HETATM   15  C12 UNL     1      -2.895   2.816  12.310  1.00  0.00    -0.018 A 
HETATM   16  C14 UNL     1      -1.955   2.871  10.306  1.00  0.00     0.189 A 
HETATM   17  C13 UNL     1      -3.262   1.710  11.577  1.00  0.00     0.153 A 
HETATM   18  O1  UNL     1      -2.683   1.786  10.402  1.00  0.00    -0.299 OA
HETATM   19  C16 UNL     1      -4.444   3.456  14.165  1.00  0.00     0.282 C 
BRANCH  16  20
HETATM   20  O2  UNL     1      -1.200   3.258   9.178  1.00  0.00    -0.340 OA
ATOM     21  H2  UNL     1      -1.540   3.569   8.347  1.00  0.00     0.220 HD
ENDBRANCH  16  20
ENDBRANCH   7   8
ENDBRANCH   6   7
ENDBRANCH   2   5
TORSDOF 4
ENDMDL
MODEL 3
REMARK VINA RESULT: -7.257247286      3.297      4.795
REMARK  4 active torsions:
REMARK  status: ('A' for Active; 'I' for Inactive)
REMARK    1  A    between atoms: C2_2  and  C4_5 
REMARK    2  A    between atoms: C5_6  and  C6_7 
REMARK    3  A    between atoms: C6_7  and  N2_8 
REMARK    4  A    between atoms: C14_17  and  O2_18 
ROOT
HETATM    1  C1  UNL     1      -7.112   8.215  11.316  1.00  0.00     0.029 C 
HETATM    2  C2  UNL     1      -6.148   7.464  10.420  1.00  0.00     0.111 C 
HETATM    3  C3  UNL     1      -6.842   6.824   9.302  1.00  0.00     0.067 C 
HETATM    4  N1  UNL     1      -7.381   6.329   8.408  1.00  0.00    -0.197 NA
ENDROOT
BRANCH   2   5
HETATM    5  C4  UNL     1      -5.441   6.443  11.225  1.00  0.00    -0.010 C 
HETATM    6  C5  UNL     1      -4.143   6.530  11.428  1.00  0.00     0.000 C 
BRANCH   6   7
HETATM    7  C6  UNL     1      -3.396   5.505  12.243  1.00  0.00     0.299 C 
BRANCH   7   8
HETATM    8  N2  UNL     1      -4.323   4.898  13.153  1.00  0.00     0.092 N 
HETATM    9  C7  UNL     1      -4.051   5.431  14.476  1.00  0.00     0.273 C 
HETATM   10  C8  UNL     1      -4.720   4.558  15.516  1.00  0.00     0.036 C 
HETATM   11  C9  UNL     1      -5.931   3.938  14.833  1.00  0.00     0.002 C 
HETATM   12  C10 UNL     1      -6.623   3.096  15.867  1.00  0.00     0.049 C 
HETATM   13  C15 UNL     1      -5.369   2.844  13.917  1.00  0.00     0.054 C 
HETATM   14  C11 UNL     1      -5.611   2.032  16.114  1.00  0.00     0.009 A 
HETATM   15  C12 UNL     1      -4.871   1.880  14.966  1.00  0.00    -0.018 A 
HETATM   16  C14 UNL     1      -5.118   1.136  17.037  1.00  0.00     0.189 A 
HETATM   17  C13 UNL     1      -3.952   0.890  15.234  1.00  0.00     0.153 A 
HETATM   18  O1  UNL     1      -4.136   0.483  16.467  1.00  0.00    -0.299 OA
HETATM   19  C16 UNL     1      -4.267   3.458  13.123  1.00  0.00     0.282 C 
BRANCH  16  20
HETATM   20  O2  UNL     1      -5.577   0.944  18.358  1.00  0.00    -0.340 OA
ATOM     21  H2  UNL     1      -5.751   0.113  18.783  1.00  0.00     0.220 HD
ENDBRANCH  16  20
ENDBRANCH   7   8
ENDBRANCH   6   7
ENDBRANCH   2   5
TORSDOF 4
ENDMDL
MODEL 4
REMARK VINA RESULT: -7.249778450      2.039      2.590
REMARK  4 active torsions:
REMARK  status: ('A' for Active; 'I' for Inactive)
REMARK    1  A    between atoms: C2_2  and  C4_5 
REMARK    2  A    between atoms: C5_6  and  C6_7 
REMARK    3  A    between atoms: C6_7  and  N2_8 
REMARK    4  A    between atoms: C14_17  and  O2_18 
ROOT
HETATM    1  C1  UNL     1      -0.367   3.073   9.109  1.00  0.00     0.029 C 
HETATM    2  C2  UNL     1      -0.375   2.831  10.604  1.00  0.00     0.111 C 
HETATM    3  C3  UNL     1      -1.122   1.620  10.948  1.00  0.00     0.067 C 
HETATM    4  N1  UNL     1      -1.696   0.657  11.226  1.00  0.00    -0.197 NA
ENDROOT
BRANCH   2   5
HETATM    5  C4  UNL     1      -0.978   4.003  11.277  1.00  0.00    -0.010 C 
HETATM    6  C5  UNL     1      -2.277   4.060  11.490  1.00  0.00     0.000 C 
BRANCH   6   7
HETATM    7  C6  UNL     1      -2.919   5.242  12.172  1.00  0.00     0.299 C 
BRANCH   7   8
HETATM    8  N2  UNL     1      -3.904   4.746  13.089  1.00  0.00     0.092 N 
HETATM    9  C7  UNL     1      -3.509   5.164  14.422  1.00  0.00     0.273 C 
HETATM   10  C8  UNL     1      -4.278   4.358  15.448  1.00  0.00     0.036 C 
HETATM   11  C9  UNL     1      -5.593   3.973  14.785  1.00  0.00     0.002 C 
HETATM   12  C10 UNL     1      -6.379   3.202  15.807  1.00  0.00     0.049 C 
HETATM   13  C15 UNL     1      -5.242   2.850  13.802  1.00  0.00     0.054 C 
HETATM   14  C11 UNL     1      -5.544   1.980  15.969  1.00  0.00     0.009 A 
HETATM   15  C12 UNL     1      -4.873   1.768  14.788  1.00  0.00    -0.018 A 
HETATM   16  C14 UNL     1      -5.174   0.972  16.832  1.00  0.00     0.189 A 
HETATM   17  C13 UNL     1      -4.117   0.633  14.978  1.00  0.00     0.153 A 
HETATM   18  O1  UNL     1      -4.327   0.200  16.198  1.00  0.00    -0.299 OA
HETATM   19  C16 UNL     1      -4.080   3.319  12.994  1.00  0.00     0.282 C 
BRANCH  16  20
HETATM   20  O2  UNL     1      -5.617   0.791  18.160  1.00  0.00    -0.340 OA
ATOM     21  H2  UNL     1      -6.423   0.373  18.437  1.00  0.00     0.220 HD
ENDBRANCH  16  20
ENDBRANCH   7   8
ENDBRANCH   6   7
ENDBRANCH   2   5
TORSDOF 4
ENDMDL
MODEL 5
REMARK VINA RESULT: -7.142033194      3.928      5.863
REMARK  4 active torsions:
REMARK  status: ('A' for Active; 'I' for Inactive)
REMARK    1  A    between atoms: C2_2  and  C4_5 
REMARK    2  A    between atoms: C5_6  and  C6_7 
REMARK    3  A    between atoms: C6_7  and  N2_8 
REMARK    4  A    between atoms: C14_17  and  O2_18 
ROOT
HETATM    1  C1  UNL     1      -7.487   7.608  11.682  1.00  0.00     0.029 C 
HETATM    2  C2  UNL     1      -7.012   8.021  10.304  1.00  0.00     0.111 C 
HETATM    3  C3  UNL     1      -7.468   7.085   9.276  1.00  0.00     0.067 C 
HETATM    4  N1  UNL     1      -7.837   6.359   8.457  1.00  0.00    -0.197 NA
ENDROOT
BRANCH   2   5
HETATM    5  C4  UNL     1      -5.533   8.087  10.306  1.00  0.00    -0.010 C 
HETATM    6  C5  UNL     1      -4.820   7.119  10.844  1.00  0.00     0.000 C 
BRANCH   6   7
HETATM    7  C6  UNL     1      -3.312   7.160  10.862  1.00  0.00     0.299 C 
BRANCH   7   8
HETATM    8  N2  UNL     1      -2.862   6.457  12.028  1.00  0.00     0.092 N 
HETATM    9  C7  UNL     1      -2.273   5.206  11.585  1.00  0.00     0.273 C 
HETATM   10  C8  UNL     1      -2.138   4.270  12.767  1.00  0.00     0.036 C 
HETATM   11  C9  UNL     1      -1.985   5.156  13.995  1.00  0.00     0.002 C 
HETATM   12  C10 UNL     1      -1.815   4.237  15.170  1.00  0.00     0.049 C 
HETATM   13  C15 UNL     1      -3.387   5.709  14.277  1.00  0.00     0.054 C 
HETATM   14  C11 UNL     1      -3.143   3.566  15.221  1.00  0.00     0.009 A 
HETATM   15  C12 UNL     1      -4.073   4.432  14.697  1.00  0.00    -0.018 A 
HETATM   16  C14 UNL     1      -3.815   2.420  15.586  1.00  0.00     0.189 A 
HETATM   17  C13 UNL     1      -5.283   3.777  14.763  1.00  0.00     0.153 A 
HETATM   18  O1  UNL     1      -5.080   2.595  15.294  1.00  0.00    -0.299 OA
HETATM   19  C16 UNL     1      -3.913   6.254  12.993  1.00  0.00     0.282 C 
BRANCH  16  20
HETATM   20  O2  UNL     1      -3.257   1.262  16.168  1.00  0.00    -0.340 OA
ATOM     21  H2  UNL     1      -2.390   1.177  16.545  1.00  0.00     0.220 HD
ENDBRANCH  16  20
ENDBRANCH   7   8
ENDBRANCH   6   7
ENDBRANCH   2   5
TORSDOF 4
ENDMDL
