MODEL 1
REMARK VINA RESULT: -7.784150821      0.000      0.000
REMARK  8 active torsions:
REMARK  status: ('A' for Active; 'I' for Inactive)
REMARK    1  A    between atoms: S1_2  and  C2_3 
REMARK    2  A    between atoms: C2_3  and  C3_4 
REMARK    3  A    between atoms: C2_3  and  N1_11 
REMARK    4  A    between atoms: C3_4  and  C4_5 
REMARK    5  A    between atoms: N1_11  and  C10_13 
REMARK    6  A    between atoms: C10_13  and  N2_15 
REMARK    7  A    between atoms: N2_15  and  C11_17 
REMARK    8  A    between atoms: C11_17  and  C12_18 
ROOT
HETATM    1  N1  UNL     1       9.859  -9.685  12.544  1.00  0.00    -0.354 N 
ATOM      2  H1  UNL     1       9.090 -10.304  12.800  1.00  0.00     0.163 HD
ENDROOT
BRANCH   1   3
HETATM    3  C2  UNL     1      11.038  -9.606  13.364  1.00  0.00     0.146 C 
BRANCH   3   4
HETATM    4  S1  UNL     1      10.664  -8.702  14.923  1.00  0.00    -0.148 SA
HETATM    5  C1  UNL     1       8.888  -8.587  15.178  1.00  0.00     0.092 C 
ENDBRANCH   3   4
BRANCH   3   6
HETATM    6  C3  UNL     1      11.505 -10.970  13.723  1.00  0.00     0.040 C 
BRANCH   6   7
HETATM    7  C4  UNL     1      12.961 -11.057  14.140  1.00  0.00    -0.012 C 
HETATM    8  C5  UNL     1      13.043 -11.961  15.306  1.00  0.00     0.005 C 
HETATM    9  C6  UNL     1      14.077 -13.045  15.218  1.00  0.00     0.000 C 
HETATM   10  C7  UNL     1      13.949 -13.636  13.816  1.00  0.00     0.000 C 
HETATM   11  C8  UNL     1      14.565 -12.599  12.907  1.00  0.00     0.000 C 
HETATM   12  C9  UNL     1      13.757 -11.364  12.939  1.00  0.00     0.005 C 
ENDBRANCH   6   7
ENDBRANCH   3   6
ENDBRANCH   1   3
BRANCH   1  13
HETATM   13  C10 UNL     1       9.785  -8.878  11.359  1.00  0.00     0.168 C 
HETATM   14  S2  UNL     1       9.460  -9.618   9.952  1.00  0.00    -0.041 SA
BRANCH  13  15
HETATM   15  N2  UNL     1      10.023  -7.497  11.476  1.00  0.00    -0.367 N 
ATOM     16  H2  UNL     1       9.269  -6.900  11.814  1.00  0.00     0.161 HD
BRANCH  15  17
HETATM   17  C11 UNL     1      11.278  -6.890  11.140  1.00  0.00     0.126 C 
BRANCH  17  18
HETATM   18  C12 UNL     1      11.139  -5.708  10.242  1.00  0.00     0.003 C 
HETATM   19  C13 UNL     1      10.855  -6.134   8.830  1.00  0.00     0.006 C 
HETATM   20  C14 UNL     1      11.892  -6.968   8.175  1.00  0.00     0.000 C 
HETATM   21  C15 UNL     1      13.047  -6.212   7.572  1.00  0.00     0.000 C 
HETATM   22  C16 UNL     1      13.217  -4.842   8.157  1.00  0.00     0.000 C 
HETATM   23  C17 UNL     1      13.495  -5.046   9.648  1.00  0.00     0.000 C 
HETATM   24  C18 UNL     1      12.244  -4.697  10.378  1.00  0.00     0.006 C 
ENDBRANCH  17  18
ENDBRANCH  15  17
ENDBRANCH  13  15
ENDBRANCH   1  13
TORSDOF 8
ENDMDL
MODEL 2
REMARK VINA RESULT: -7.729073326      1.045      1.104
REMARK  8 active torsions:
REMARK  status: ('A' for Active; 'I' for Inactive)
REMARK    1  A    between atoms: S1_2  and  C2_3 
REMARK    2  A    between atoms: C2_3  and  C3_4 
REMARK    3  A    between atoms: C2_3  and  N1_11 
REMARK    4  A    between atoms: C3_4  and  C4_5 
REMARK    5  A    between atoms: N1_11  and  C10_13 
REMARK    6  A    between atoms: C10_13  and  N2_15 
REMARK    7  A    between atoms: N2_15  and  C11_17 
REMARK    8  A    between atoms: C11_17  and  C12_18 
ROOT
HETATM    1  N1  UNL     1       9.654  -9.123  13.714  1.00  0.00    -0.354 N 
ATOM      2  H1  UNL     1       8.689  -9.372  13.931  1.00  0.00     0.163 HD
ENDROOT
BRANCH   1   3
HETATM    3  C2  UNL     1      10.668  -9.168  14.734  1.00  0.00     0.146 C 
BRANCH   3   4
HETATM    4  S1  UNL     1       9.987  -8.552  16.329  1.00  0.00    -0.148 SA
HETATM    5  C1  UNL     1       9.882  -9.885  17.531  1.00  0.00     0.092 C 
ENDBRANCH   3   4
BRANCH   3   6
HETATM    6  C3  UNL     1      11.128 -10.565  14.938  1.00  0.00     0.040 C 
BRANCH   6   7
HETATM    7  C4  UNL     1      12.633 -10.750  14.927  1.00  0.00    -0.012 C 
HETATM    8  C5  UNL     1      12.929 -12.083  15.493  1.00  0.00     0.005 C 
HETATM    9  C6  UNL     1      13.855 -12.943  14.684  1.00  0.00     0.000 C 
HETATM   10  C7  UNL     1      13.380 -12.829  13.238  1.00  0.00     0.000 C 
HETATM   11  C8  UNL     1      13.828 -11.457  12.795  1.00  0.00     0.000 C 
HETATM   12  C9  UNL     1      13.117 -10.424  13.574  1.00  0.00     0.005 C 
ENDBRANCH   6   7
ENDBRANCH   3   6
ENDBRANCH   1   3
BRANCH   1  13
HETATM   13  C10 UNL     1      10.025  -8.722  12.387  1.00  0.00     0.168 C 
HETATM   14  S2  UNL     1      10.095  -9.864  11.237  1.00  0.00    -0.041 SA
BRANCH  13  15
HETATM   15  N2  UNL     1      10.331  -7.368  12.160  1.00  0.00    -0.367 N 
ATOM     16  H2  UNL     1       9.711  -6.657  12.546  1.00  0.00     0.161 HD
BRANCH  15  17
HETATM   17  C11 UNL     1      11.477  -6.943  11.409  1.00  0.00     0.126 C 
BRANCH  17  18
HETATM   18  C12 UNL     1      11.193  -5.796  10.500  1.00  0.00     0.003 C 
HETATM   19  C13 UNL     1      10.799  -6.278   9.133  1.00  0.00     0.006 C 
HETATM   20  C14 UNL     1      11.811  -7.079   8.403  1.00  0.00     0.000 C 
HETATM   21  C15 UNL     1      12.864  -6.285   7.672  1.00  0.00     0.000 C 
HETATM   22  C16 UNL     1      13.017  -4.892   8.205  1.00  0.00     0.000 C 
HETATM   23  C17 UNL     1      13.445  -5.037   9.666  1.00  0.00     0.000 C 
HETATM   24  C18 UNL     1      12.252  -4.729  10.504  1.00  0.00     0.006 C 
ENDBRANCH  17  18
ENDBRANCH  15  17
ENDBRANCH  13  15
ENDBRANCH   1  13
TORSDOF 8
ENDMDL
MODEL 3
REMARK VINA RESULT: -7.653106181      2.117      6.775
REMARK  8 active torsions:
REMARK  status: ('A' for Active; 'I' for Inactive)
REMARK    1  A    between atoms: S1_2  and  C2_3 
REMARK    2  A    between atoms: C2_3  and  C3_4 
REMARK    3  A    between atoms: C2_3  and  N1_11 
REMARK    4  A    between atoms: C3_4  and  C4_5 
REMARK    5  A    between atoms: N1_11  and  C10_13 
REMARK    6  A    between atoms: C10_13  and  N2_15 
REMARK    7  A    between atoms: N2_15  and  C11_17 
REMARK    8  A    between atoms: C11_17  and  C12_18 
ROOT
HETATM    1  N1  UNL     1      11.955  -6.704  13.030  1.00  0.00    -0.354 N 
ATOM      2  H1  UNL     1      12.759  -6.133  13.293  1.00  0.00     0.163 HD
ENDROOT
BRANCH   1   3
HETATM    3  C2  UNL     1      11.170  -6.371  11.872  1.00  0.00     0.146 C 
BRANCH   3   4
HETATM    4  S1  UNL     1      11.781  -4.804  11.124  1.00  0.00    -0.148 SA
HETATM    5  C1  UNL     1      12.946  -5.146   9.799  1.00  0.00     0.092 C 
ENDBRANCH   3   4
BRANCH   3   6
HETATM    6  C3  UNL     1      11.282  -7.443  10.851  1.00  0.00     0.040 C 
BRANCH   6   7
HETATM    7  C4  UNL     1       9.998  -7.754  10.107  1.00  0.00    -0.012 C 
HETATM    8  C5  UNL     1      10.233  -7.494   8.671  1.00  0.00     0.005 C 
HETATM    9  C6  UNL     1       9.824  -8.594   7.735  1.00  0.00     0.000 C 
HETATM   10  C7  UNL     1      10.336  -9.890   8.359  1.00  0.00     0.000 C 
HETATM   11  C8  UNL     1       9.400 -10.154   9.513  1.00  0.00     0.000 C 
HETATM   12  C9  UNL     1       9.545  -9.091  10.527  1.00  0.00     0.005 C 
ENDBRANCH   6   7
ENDBRANCH   3   6
ENDBRANCH   1   3
BRANCH   1  13
HETATM   13  C10 UNL     1      11.589  -7.853  13.808  1.00  0.00     0.168 C 
HETATM   14  S2  UNL     1      10.017  -8.079  14.139  1.00  0.00    -0.041 SA
BRANCH  13  15
HETATM   15  N2  UNL     1      12.611  -8.706  14.261  1.00  0.00    -0.367 N 
ATOM     16  H2  UNL     1      13.498  -8.294  14.548  1.00  0.00     0.161 HD
BRANCH  15  17
HETATM   17  C11 UNL     1      12.461 -10.130  14.338  1.00  0.00     0.126 C 
BRANCH  17  18
HETATM   18  C12 UNL     1      12.655 -10.815  13.027  1.00  0.00     0.003 C 
HETATM   19  C13 UNL     1      11.427 -11.587  12.636  1.00  0.00     0.006 C 
HETATM   20  C14 UNL     1      11.014 -12.674  13.556  1.00  0.00     0.000 C 
HETATM   21  C15 UNL     1      11.733 -13.986  13.375  1.00  0.00     0.000 C 
HETATM   22  C16 UNL     1      13.050 -13.837  12.675  1.00  0.00     0.000 C 
HETATM   23  C17 UNL     1      13.907 -12.933  13.564  1.00  0.00     0.000 C 
HETATM   24  C18 UNL     1      13.939 -11.589  12.920  1.00  0.00     0.006 C 
ENDBRANCH  17  18
ENDBRANCH  15  17
ENDBRANCH  13  15
ENDBRANCH   1  13
TORSDOF 8
ENDMDL
MODEL 4
REMARK VINA RESULT: -7.621808517      0.761      1.274
REMARK  8 active torsions:
REMARK  status: ('A' for Active; 'I' for Inactive)
REMARK    1  A    between atoms: S1_2  and  C2_3 
REMARK    2  A    between atoms: C2_3  and  C3_4 
REMARK    3  A    between atoms: C2_3  and  N1_11 
REMARK    4  A    between atoms: C3_4  and  C4_5 
REMARK    5  A    between atoms: N1_11  and  C10_13 
REMARK    6  A    between atoms: C10_13  and  N2_15 
REMARK    7  A    between atoms: N2_15  and  C11_17 
REMARK    8  A    between atoms: C11_17  and  C12_18 
ROOT
HETATM    1  N1  UNL     1      10.419  -9.472  13.198  1.00  0.00    -0.354 N 
ATOM      2  H1  UNL     1       9.975 -10.381  13.332  1.00  0.00     0.163 HD
ENDROOT
BRANCH   1   3
HETATM    3  C2  UNL     1      11.323  -8.947  14.185  1.00  0.00     0.146 C 
BRANCH   3   4
HETATM    4  S1  UNL     1      10.473  -8.811  15.812  1.00  0.00    -0.148 SA
HETATM    5  C1  UNL     1       8.691  -8.928  15.608  1.00  0.00     0.092 C 
ENDBRANCH   3   4
BRANCH   3   6
HETATM    6  C3  UNL     1      12.487  -9.855  14.348  1.00  0.00     0.040 C 
BRANCH   6   7
HETATM    7  C4  UNL     1      12.364 -11.186  13.632  1.00  0.00    -0.012 C 
HETATM    8  C5  UNL     1      13.647 -11.452  12.948  1.00  0.00     0.005 C 
HETATM    9  C6  UNL     1      14.243 -12.808  13.185  1.00  0.00     0.000 C 
HETATM   10  C7  UNL     1      14.124 -13.065  14.685  1.00  0.00     0.000 C 
HETATM   11  C8  UNL     1      12.661 -13.368  14.906  1.00  0.00     0.000 C 
HETATM   12  C9  UNL     1      11.851 -12.173  14.598  1.00  0.00     0.005 C 
ENDBRANCH   6   7
ENDBRANCH   3   6
ENDBRANCH   1   3
BRANCH   1  13
HETATM   13  C10 UNL     1      10.152  -8.695  12.021  1.00  0.00     0.168 C 
HETATM   14  S2  UNL     1       9.563  -9.462  10.718  1.00  0.00    -0.041 SA
BRANCH  13  15
HETATM   15  N2  UNL     1      10.438  -7.318  12.051  1.00  0.00    -0.367 N 
ATOM     16  H2  UNL     1       9.774  -6.692  12.505  1.00  0.00     0.161 HD
BRANCH  15  17
HETATM   17  C11 UNL     1      11.622  -6.755  11.471  1.00  0.00     0.126 C 
BRANCH  17  18
HETATM   18  C12 UNL     1      11.341  -5.634  10.528  1.00  0.00     0.003 C 
HETATM   19  C13 UNL     1      10.845  -6.152   9.208  1.00  0.00     0.006 C 
HETATM   20  C14 UNL     1      11.773  -7.032   8.459  1.00  0.00     0.000 C 
HETATM   21  C15 UNL     1      12.819  -6.324   7.636  1.00  0.00     0.000 C 
HETATM   22  C16 UNL     1      13.068  -4.919   8.096  1.00  0.00     0.000 C 
HETATM   23  C17 UNL     1      13.573  -5.024   9.536  1.00  0.00     0.000 C 
HETATM   24  C18 UNL     1      12.448  -4.622  10.426  1.00  0.00     0.006 C 
ENDBRANCH  17  18
ENDBRANCH  15  17
ENDBRANCH  13  15
ENDBRANCH   1  13
TORSDOF 8
ENDMDL
MODEL 5
REMARK VINA RESULT: -7.600180923      1.286      6.961
REMARK  8 active torsions:
REMARK  status: ('A' for Active; 'I' for Inactive)
REMARK    1  A    between atoms: S1_2  and  C2_3 
REMARK    2  A    between atoms: C2_3  and  C3_4 
REMARK    3  A    between atoms: C2_3  and  N1_11 
REMARK    4  A    between atoms: C3_4  and  C4_5 
REMARK    5  A    between atoms: N1_11  and  C10_13 
REMARK    6  A    between atoms: C10_13  and  N2_15 
REMARK    7  A    between atoms: N2_15  and  C11_17 
REMARK    8  A    between atoms: C11_17  and  C12_18 
ROOT
HETATM    1  N1  UNL     1       9.918  -8.000  12.294  1.00  0.00    -0.354 N 
ATOM      2  H1  UNL     1       9.202  -7.314  12.056  1.00  0.00     0.163 HD
ENDROOT
BRANCH   1   3
HETATM    3  C2  UNL     1      10.512  -8.821  11.274  1.00  0.00     0.146 C 
BRANCH   3   4
HETATM    4  S1  UNL     1       9.211  -9.462  10.141  1.00  0.00    -0.148 SA
HETATM    5  C1  UNL     1       9.914  -9.881   8.540  1.00  0.00     0.092 C 
ENDBRANCH   3   4
BRANCH   3   6
HETATM    6  C3  UNL     1      11.471  -8.022  10.468  1.00  0.00     0.040 C 
BRANCH   6   7
HETATM    7  C4  UNL     1      11.066  -6.579  10.239  1.00  0.00    -0.012 C 
HETATM    8  C5  UNL     1      11.906  -5.730  11.109  1.00  0.00     0.005 C 
HETATM    9  C6  UNL     1      12.573  -4.567  10.436  1.00  0.00     0.000 C 
HETATM   10  C7  UNL     1      13.151  -5.110   9.131  1.00  0.00     0.000 C 
HETATM   11  C8  UNL     1      11.953  -5.294   8.231  1.00  0.00     0.000 C 
HETATM   12  C9  UNL     1      11.066  -6.335   8.786  1.00  0.00     0.005 C 
ENDBRANCH   6   7
ENDBRANCH   3   6
ENDBRANCH   1   3
BRANCH   1  13
HETATM   13  C10 UNL     1      10.349  -8.165  13.653  1.00  0.00     0.168 C 
HETATM   14  S2  UNL     1       9.216  -8.205  14.813  1.00  0.00    -0.041 SA
BRANCH  13  15
HETATM   15  N2  UNL     1      11.729  -8.258  13.909  1.00  0.00    -0.367 N 
ATOM     16  H2  UNL     1      12.325  -7.470  13.659  1.00  0.00     0.161 HD
BRANCH  15  17
HETATM   17  C11 UNL     1      12.335  -9.412  14.507  1.00  0.00     0.126 C 
BRANCH  17  18
HETATM   18  C12 UNL     1      11.956 -10.690  13.838  1.00  0.00     0.003 C 
HETATM   19  C13 UNL     1      11.858 -11.811  14.834  1.00  0.00     0.006 C 
HETATM   20  C14 UNL     1      13.099 -12.142  15.573  1.00  0.00     0.000 C 
HETATM   21  C15 UNL     1      14.063 -13.048  14.851  1.00  0.00     0.000 C 
HETATM   22  C16 UNL     1      13.860 -13.048  13.365  1.00  0.00     0.000 C 
HETATM   23  C17 UNL     1      14.104 -11.611  12.900  1.00  0.00     0.000 C 
HETATM   24  C18 UNL     1      12.770 -11.011  12.616  1.00  0.00     0.006 C 
ENDBRANCH  17  18
ENDBRANCH  15  17
ENDBRANCH  13  15
ENDBRANCH   1  13
TORSDOF 8
ENDMDL
