MODEL 1
REMARK VINA RESULT: -8.417334688      0.000      0.000
REMARK  10 active torsions:
REMARK  status: ('A' for Active; 'I' for Inactive)
REMARK    1  A    between atoms: C2_2  and  C3_3 
REMARK    2  A    between atoms: C6_6  and  C7_7 
REMARK    3  A    between atoms: C7_7  and  C8_8 
REMARK       I    between atoms: C8_8  and  N1_10 
REMARK    4  A    between atoms: N1_10  and  C9_12 
REMARK    5  A    between atoms: C9_12  and  C10_13 
REMARK    6  A    between atoms: C13_16  and  O2_17 
REMARK    7  A    between atoms: C19_23  and  C20_24 
REMARK    8  A    between atoms: C19_23  and  S1_27 
REMARK    9  A    between atoms: S1_27  and  N2_30 
REMARK   10  A    between atoms: N2_30  and  C23_32 
ROOT
HETATM    1  C3  UNL     1     -12.178  21.738  -1.322  1.00  0.00     0.012 C 
HETATM    2  C4  UNL     1     -12.272  20.234  -1.319  1.00  0.00     0.015 C 
HETATM    3  C5  UNL     1     -11.056  19.742  -2.087  1.00  0.00     0.017 C 
HETATM    4  C6  UNL     1     -10.111  20.864  -1.694  1.00  0.00     0.005 C 
HETATM    5  C17 UNL     1     -11.049  21.985  -2.219  1.00  0.00    -0.000 C 
HETATM    6  C18 UNL     1     -11.116  21.436  -3.643  1.00  0.00     0.033 C 
HETATM    7  C19 UNL     1     -11.159  19.935  -3.573  1.00  0.00     0.090 C 
ENDROOT
BRANCH   7   8
HETATM    8  C20 UNL     1     -12.369  19.314  -4.217  1.00  0.00     0.003 C 
HETATM    9  C21 UNL     1     -12.960  18.154  -3.459  1.00  0.00     0.011 C 
HETATM   10  C22 UNL     1     -13.390  20.123  -4.891  1.00  0.00     0.011 C 
ENDBRANCH   7   8
BRANCH   7  11
HETATM   11  S1  UNL     1      -9.773  19.122  -4.346  1.00  0.00     0.236 S 
HETATM   12  O3  UNL     1     -10.248  18.076  -5.268  1.00  0.00    -0.205 OA
HETATM   13  O4  UNL     1      -9.025  20.174  -5.216  1.00  0.00    -0.205 OA
BRANCH  11  14
HETATM   14  N2  UNL     1      -8.571  18.547  -3.352  1.00  0.00    -0.313 N 
ATOM     15  H2  UNL     1      -7.738  19.123  -3.233  1.00  0.00     0.172 HD
BRANCH  14  16
HETATM   16  C23 UNL     1      -8.619  17.331  -2.666  1.00  0.00     0.101 C 
HETATM   17  C24 UNL     1      -7.649  16.292  -3.275  1.00  0.00     0.010 C 
HETATM   18  C25 UNL     1      -6.261  16.833  -3.391  1.00  0.00     0.011 C 
HETATM   19  C29 UNL     1      -7.683  15.040  -2.440  1.00  0.00     0.011 C 
HETATM   20  C26 UNL     1      -5.768  17.205  -2.012  1.00  0.00    -0.013 C 
HETATM   21  C27 UNL     1      -5.708  15.934  -1.186  1.00  0.00     0.009 C 
HETATM   22  C32 UNL     1      -6.720  18.140  -1.313  1.00  0.00     0.011 C 
HETATM   23  C28 UNL     1      -7.084  15.330  -1.078  1.00  0.00    -0.013 C 
HETATM   24  C30 UNL     1      -8.053  16.308  -0.436  1.00  0.00     0.011 C 
HETATM   25  C31 UNL     1      -8.098  17.561  -1.267  1.00  0.00     0.010 C 
ENDBRANCH  14  16
ENDBRANCH  11  14
ENDBRANCH   7  11
BRANCH   4  26
HETATM   26  C7  UNL     1      -9.792  20.928  -0.261  1.00  0.00     0.108 C 
BRANCH  26  27
HETATM   27  C8  UNL     1      -8.342  21.131  -0.072  1.00  0.00     0.218 C 
HETATM   28  O1  UNL     1      -7.692  21.725  -0.950  1.00  0.00    -0.274 OA
HETATM   29  N1  UNL     1      -7.711  20.656   1.093  1.00  0.00    -0.357 N 
ATOM     30  H1  UNL     1      -8.277  20.169   1.789  1.00  0.00     0.162 HD
BRANCH  29  31
HETATM   31  C9  UNL     1      -6.294  20.827   1.348  1.00  0.00     0.161 C 
BRANCH  31  32
HETATM   32  C10 UNL     1      -5.620  19.555   1.722  1.00  0.00    -0.040 A 
HETATM   33  C11 UNL     1      -4.246  19.461   1.762  1.00  0.00     0.011 A 
HETATM   34  C12 UNL     1      -3.592  18.299   2.101  1.00  0.00     0.037 A 
HETATM   35  C13 UNL     1      -4.338  17.174   2.418  1.00  0.00     0.068 A 
HETATM   36  C15 UNL     1      -5.708  17.242   2.386  1.00  0.00     0.037 A 
HETATM   37  C16 UNL     1      -6.355  18.421   2.042  1.00  0.00     0.011 A 
BRANCH  35  38
HETATM   38  O2  UNL     1      -3.664  16.013   2.757  1.00  0.00    -0.356 OA
HETATM   39  C14 UNL     1      -3.705  15.429   4.037  1.00  0.00     0.210 C 
ENDBRANCH  35  38
ENDBRANCH  31  32
ENDBRANCH  29  31
ENDBRANCH  26  27
ENDBRANCH   4  26
BRANCH   1  40
HETATM   40  C2  UNL     1     -13.408  22.491  -1.451  1.00  0.00    -0.032 C 
HETATM   41  C1  UNL     1     -14.527  21.958  -1.836  1.00  0.00     0.007 C 
ENDBRANCH   1  40
TORSDOF 10
ENDMDL
MODEL 2
REMARK VINA RESULT: -8.258374503      1.032      1.241
REMARK  10 active torsions:
REMARK  status: ('A' for Active; 'I' for Inactive)
REMARK    1  A    between atoms: C2_2  and  C3_3 
REMARK    2  A    between atoms: C6_6  and  C7_7 
REMARK    3  A    between atoms: C7_7  and  C8_8 
REMARK       I    between atoms: C8_8  and  N1_10 
REMARK    4  A    between atoms: N1_10  and  C9_12 
REMARK    5  A    between atoms: C9_12  and  C10_13 
REMARK    6  A    between atoms: C13_16  and  O2_17 
REMARK    7  A    between atoms: C19_23  and  C20_24 
REMARK    8  A    between atoms: C19_23  and  S1_27 
REMARK    9  A    between atoms: S1_27  and  N2_30 
REMARK   10  A    between atoms: N2_30  and  C23_32 
ROOT
HETATM    1  C3  UNL     1     -11.373  22.400  -1.981  1.00  0.00     0.012 C 
HETATM    2  C4  UNL     1     -12.387  21.403  -1.480  1.00  0.00     0.015 C 
HETATM    3  C5  UNL     1     -11.775  20.033  -1.724  1.00  0.00     0.017 C 
HETATM    4  C6  UNL     1     -10.322  20.433  -1.536  1.00  0.00     0.005 C 
HETATM    5  C17 UNL     1     -10.372  21.544  -2.619  1.00  0.00    -0.000 C 
HETATM    6  C18 UNL     1     -10.822  20.607  -3.738  1.00  0.00     0.033 C 
HETATM    7  C19 UNL     1     -11.792  19.610  -3.165  1.00  0.00     0.090 C 
ENDROOT
BRANCH   7   8
HETATM    8  C20 UNL     1     -13.148  19.612  -3.818  1.00  0.00     0.003 C 
HETATM    9  C21 UNL     1     -14.292  19.291  -2.892  1.00  0.00     0.011 C 
HETATM   10  C22 UNL     1     -13.513  20.593  -4.845  1.00  0.00     0.011 C 
ENDBRANCH   7   8
BRANCH   7  11
HETATM   11  S1  UNL     1     -11.248  17.915  -3.264  1.00  0.00     0.236 S 
HETATM   12  O3  UNL     1     -12.059  17.070  -2.369  1.00  0.00    -0.205 OA
HETATM   13  O4  UNL     1     -11.512  17.410  -4.712  1.00  0.00    -0.205 OA
BRANCH  11  14
HETATM   14  N2  UNL     1      -9.624  17.619  -3.063  1.00  0.00    -0.313 N 
ATOM     15  H2  UNL     1      -8.968  18.242  -3.533  1.00  0.00     0.172 HD
BRANCH  14  16
HETATM   16  C23 UNL     1      -9.094  16.580  -2.296  1.00  0.00     0.101 C 
HETATM   17  C24 UNL     1      -7.957  15.842  -3.041  1.00  0.00     0.010 C 
HETATM   18  C25 UNL     1      -6.909  16.788  -3.529  1.00  0.00     0.011 C 
HETATM   19  C29 UNL     1      -7.372  14.796  -2.130  1.00  0.00     0.011 C 
HETATM   20  C26 UNL     1      -6.320  17.513  -2.342  1.00  0.00    -0.013 C 
HETATM   21  C27 UNL     1      -5.643  16.480  -1.461  1.00  0.00     0.009 C 
HETATM   22  C32 UNL     1      -7.384  18.175  -1.507  1.00  0.00     0.011 C 
HETATM   23  C28 UNL     1      -6.658  15.478  -0.979  1.00  0.00    -0.013 C 
HETATM   24  C30 UNL     1      -7.765  16.164  -0.197  1.00  0.00     0.011 C 
HETATM   25  C31 UNL     1      -8.422  17.185  -1.086  1.00  0.00     0.010 C 
ENDBRANCH  14  16
ENDBRANCH  11  14
ENDBRANCH   7  11
BRANCH   4  26
HETATM   26  C7  UNL     1      -9.979  20.887  -0.181  1.00  0.00     0.108 C 
BRANCH  26  27
HETATM   27  C8  UNL     1      -8.524  21.108  -0.072  1.00  0.00     0.218 C 
HETATM   28  O1  UNL     1      -7.929  21.706  -0.986  1.00  0.00    -0.274 OA
HETATM   29  N1  UNL     1      -7.824  20.643   1.058  1.00  0.00    -0.357 N 
ATOM     30  H1  UNL     1      -8.344  20.152   1.785  1.00  0.00     0.162 HD
BRANCH  29  31
HETATM   31  C9  UNL     1      -6.397  20.832   1.234  1.00  0.00     0.161 C 
BRANCH  31  32
HETATM   32  C10 UNL     1      -5.699  19.586   1.651  1.00  0.00    -0.040 A 
HETATM   33  C11 UNL     1      -4.325  19.519   1.695  1.00  0.00     0.011 A 
HETATM   34  C12 UNL     1      -3.649  18.381   2.073  1.00  0.00     0.037 A 
HETATM   35  C13 UNL     1      -4.375  17.253   2.425  1.00  0.00     0.068 A 
HETATM   36  C15 UNL     1      -5.746  17.295   2.389  1.00  0.00     0.037 A 
HETATM   37  C16 UNL     1      -6.414  18.449   2.006  1.00  0.00     0.011 A 
BRANCH  35  38
HETATM   38  O2  UNL     1      -3.679  16.117   2.803  1.00  0.00    -0.356 OA
HETATM   39  C14 UNL     1      -3.802  15.507   4.066  1.00  0.00     0.210 C 
ENDBRANCH  35  38
ENDBRANCH  31  32
ENDBRANCH  29  31
ENDBRANCH  26  27
ENDBRANCH   4  26
BRANCH   1  40
HETATM   40  C2  UNL     1     -11.867  23.587  -2.646  1.00  0.00    -0.032 C 
HETATM   41  C1  UNL     1     -13.124  23.905  -2.687  1.00  0.00     0.007 C 
ENDBRANCH   1  40
TORSDOF 10
ENDMDL
MODEL 3
REMARK VINA RESULT: -8.133571203      1.125      1.716
REMARK  10 active torsions:
REMARK  status: ('A' for Active; 'I' for Inactive)
REMARK    1  A    between atoms: C2_2  and  C3_3 
REMARK    2  A    between atoms: C6_6  and  C7_7 
REMARK    3  A    between atoms: C7_7  and  C8_8 
REMARK       I    between atoms: C8_8  and  N1_10 
REMARK    4  A    between atoms: N1_10  and  C9_12 
REMARK    5  A    between atoms: C9_12  and  C10_13 
REMARK    6  A    between atoms: C13_16  and  O2_17 
REMARK    7  A    between atoms: C19_23  and  C20_24 
REMARK    8  A    between atoms: C19_23  and  S1_27 
REMARK    9  A    between atoms: S1_27  and  N2_30 
REMARK   10  A    between atoms: N2_30  and  C23_32 
ROOT
HETATM    1  C3  UNL     1     -11.875  21.601  -1.350  1.00  0.00     0.012 C 
HETATM    2  C4  UNL     1     -11.781  20.155  -1.765  1.00  0.00     0.015 C 
HETATM    3  C5  UNL     1     -10.366  19.966  -2.287  1.00  0.00     0.017 C 
HETATM    4  C6  UNL     1      -9.688  20.979  -1.381  1.00  0.00     0.005 C 
HETATM    5  C17 UNL     1     -10.604  22.152  -1.822  1.00  0.00    -0.000 C 
HETATM    6  C18 UNL     1     -10.262  22.027  -3.305  1.00  0.00     0.033 C 
HETATM    7  C19 UNL     1     -10.136  20.568  -3.644  1.00  0.00     0.090 C 
ENDROOT
BRANCH   7   8
HETATM    8  C20 UNL     1     -11.072  20.093  -4.723  1.00  0.00     0.003 C 
HETATM    9  C21 UNL     1     -11.502  18.655  -4.593  1.00  0.00     0.011 C 
HETATM   10  C22 UNL     1     -12.132  20.951  -5.263  1.00  0.00     0.011 C 
ENDBRANCH   7   8
BRANCH   7  11
HETATM   11  S1  UNL     1      -8.516  20.082  -4.210  1.00  0.00     0.236 S 
HETATM   12  O3  UNL     1      -8.374  20.372  -5.648  1.00  0.00    -0.205 OA
HETATM   13  O4  UNL     1      -7.466  20.964  -3.474  1.00  0.00    -0.205 OA
BRANCH  11  14
HETATM   14  N2  UNL     1      -8.012  18.539  -3.855  1.00  0.00    -0.313 N 
ATOM     15  H2  UNL     1      -8.099  17.832  -4.585  1.00  0.00     0.172 HD
BRANCH  14  16
HETATM   16  C23 UNL     1      -7.477  18.139  -2.628  1.00  0.00     0.101 C 
HETATM   17  C24 UNL     1      -8.499  17.332  -1.794  1.00  0.00     0.010 C 
HETATM   18  C25 UNL     1      -9.071  16.191  -2.572  1.00  0.00     0.011 C 
HETATM   19  C29 UNL     1      -7.835  16.857  -0.530  1.00  0.00     0.011 C 
HETATM   20  C26 UNL     1      -7.946  15.270  -2.980  1.00  0.00    -0.013 C 
HETATM   21  C27 UNL     1      -7.326  14.709  -1.714  1.00  0.00     0.009 C 
HETATM   22  C32 UNL     1      -6.857  16.010  -3.713  1.00  0.00     0.011 C 
HETATM   23  C28 UNL     1      -6.772  15.832  -0.877  1.00  0.00    -0.013 C 
HETATM   24  C30 UNL     1      -5.726  16.616  -1.650  1.00  0.00     0.011 C 
HETATM   25  C31 UNL     1      -6.358  17.162  -2.901  1.00  0.00     0.010 C 
ENDBRANCH  14  16
ENDBRANCH  11  14
ENDBRANCH   7  11
BRANCH   4  26
HETATM   26  C7  UNL     1      -9.728  20.650   0.050  1.00  0.00     0.108 C 
BRANCH  26  27
HETATM   27  C8  UNL     1      -8.412  20.904   0.669  1.00  0.00     0.218 C 
HETATM   28  O1  UNL     1      -7.697  21.818   0.223  1.00  0.00    -0.274 OA
HETATM   29  N1  UNL     1      -7.979  20.115   1.750  1.00  0.00    -0.357 N 
ATOM     30  H1  UNL     1      -8.590  19.370   2.086  1.00  0.00     0.162 HD
BRANCH  29  31
HETATM   31  C9  UNL     1      -6.702  20.313   2.410  1.00  0.00     0.161 C 
BRANCH  31  32
HETATM   32  C10 UNL     1      -5.744  19.205   2.153  1.00  0.00    -0.040 A 
HETATM   33  C11 UNL     1      -4.465  19.457   1.710  1.00  0.00     0.011 A 
HETATM   34  C12 UNL     1      -3.555  18.455   1.461  1.00  0.00     0.037 A 
HETATM   35  C13 UNL     1      -3.934  17.137   1.661  1.00  0.00     0.068 A 
HETATM   36  C15 UNL     1      -5.204  16.859   2.102  1.00  0.00     0.037 A 
HETATM   37  C16 UNL     1      -6.111  17.880   2.350  1.00  0.00     0.011 A 
BRANCH  35  38
HETATM   38  O2  UNL     1      -3.007  16.140   1.405  1.00  0.00    -0.356 OA
HETATM   39  C14 UNL     1      -1.711  16.385   0.914  1.00  0.00     0.210 C 
ENDBRANCH  35  38
ENDBRANCH  31  32
ENDBRANCH  29  31
ENDBRANCH  26  27
ENDBRANCH   4  26
BRANCH   1  40
HETATM   40  C2  UNL     1     -13.122  22.294  -1.597  1.00  0.00    -0.032 C 
HETATM   41  C1  UNL     1     -14.129  21.745  -2.205  1.00  0.00     0.007 C 
ENDBRANCH   1  40
TORSDOF 10
ENDMDL
MODEL 4
REMARK VINA RESULT: -7.890978181      1.745      2.448
REMARK  10 active torsions:
REMARK  status: ('A' for Active; 'I' for Inactive)
REMARK    1  A    between atoms: C2_2  and  C3_3 
REMARK    2  A    between atoms: C6_6  and  C7_7 
REMARK    3  A    between atoms: C7_7  and  C8_8 
REMARK       I    between atoms: C8_8  and  N1_10 
REMARK    4  A    between atoms: N1_10  and  C9_12 
REMARK    5  A    between atoms: C9_12  and  C10_13 
REMARK    6  A    between atoms: C13_16  and  O2_17 
REMARK    7  A    between atoms: C19_23  and  C20_24 
REMARK    8  A    between atoms: C19_23  and  S1_27 
REMARK    9  A    between atoms: S1_27  and  N2_30 
REMARK   10  A    between atoms: N2_30  and  C23_32 
ROOT
HETATM    1  C3  UNL     1      -8.433  23.177  -3.457  1.00  0.00     0.012 C 
HETATM    2  C4  UNL     1      -9.842  22.920  -2.986  1.00  0.00     0.015 C 
HETATM    3  C5  UNL     1      -9.926  21.424  -2.729  1.00  0.00     0.017 C 
HETATM    4  C6  UNL     1      -8.483  21.220  -2.300  1.00  0.00     0.005 C 
HETATM    5  C17 UNL     1      -7.894  21.824  -3.603  1.00  0.00    -0.000 C 
HETATM    6  C18 UNL     1      -8.615  20.849  -4.531  1.00  0.00     0.033 C 
HETATM    7  C19 UNL     1      -9.993  20.598  -3.981  1.00  0.00     0.090 C 
ENDROOT
BRANCH   7   8
HETATM    8  C20 UNL     1     -11.114  20.948  -4.921  1.00  0.00     0.003 C 
HETATM    9  C21 UNL     1     -12.360  21.464  -4.249  1.00  0.00     0.011 C 
HETATM   10  C22 UNL     1     -10.868  21.589  -6.217  1.00  0.00     0.011 C 
ENDBRANCH   7   8
BRANCH   7  11
HETATM   11  S1  UNL     1     -10.304  18.903  -3.523  1.00  0.00     0.236 S 
HETATM   12  O3  UNL     1     -11.027  18.848  -2.240  1.00  0.00    -0.205 OA
HETATM   13  O4  UNL     1     -11.251  18.284  -4.592  1.00  0.00    -0.205 OA
BRANCH  11  14
HETATM   14  N2  UNL     1      -9.010  17.858  -3.530  1.00  0.00    -0.313 N 
ATOM     15  H2  UNL     1      -8.321  17.964  -4.274  1.00  0.00     0.172 HD
BRANCH  14  16
HETATM   16  C23 UNL     1      -8.800  16.847  -2.590  1.00  0.00     0.101 C 
HETATM   17  C24 UNL     1      -7.737  15.832  -3.071  1.00  0.00     0.010 C 
HETATM   18  C25 UNL     1      -6.470  16.509  -3.482  1.00  0.00     0.011 C 
HETATM   19  C29 UNL     1      -7.493  14.823  -1.981  1.00  0.00     0.011 C 
HETATM   20  C26 UNL     1      -5.917  17.263  -2.295  1.00  0.00    -0.013 C 
HETATM   21  C27 UNL     1      -5.578  16.246  -1.221  1.00  0.00     0.009 C 
HETATM   22  C32 UNL     1      -6.936  18.202  -1.706  1.00  0.00     0.011 C 
HETATM   23  C28 UNL     1      -6.823  15.508  -0.806  1.00  0.00    -0.013 C 
HETATM   24  C30 UNL     1      -7.872  16.473  -0.279  1.00  0.00     0.011 C 
HETATM   25  C31 UNL     1      -8.193  17.473  -1.357  1.00  0.00     0.010 C 
ENDBRANCH  14  16
ENDBRANCH  11  14
ENDBRANCH   7  11
BRANCH   4  26
HETATM   26  C7  UNL     1      -8.106  21.908  -1.057  1.00  0.00     0.108 C 
BRANCH  26  27
HETATM   27  C8  UNL     1      -8.189  20.979   0.085  1.00  0.00     0.218 C 
HETATM   28  O1  UNL     1      -9.282  20.455   0.365  1.00  0.00    -0.274 OA
HETATM   29  N1  UNL     1      -7.040  20.693   0.846  1.00  0.00    -0.357 N 
ATOM     30  H1  UNL     1      -6.162  21.146   0.590  1.00  0.00     0.162 HD
BRANCH  29  31
HETATM   31  C9  UNL     1      -7.048  19.785   1.976  1.00  0.00     0.161 C 
BRANCH  31  32
HETATM   32  C10 UNL     1      -5.871  18.875   1.992  1.00  0.00    -0.040 A 
HETATM   33  C11 UNL     1      -4.620  19.322   1.626  1.00  0.00     0.011 A 
HETATM   34  C12 UNL     1      -3.512  18.506   1.627  1.00  0.00     0.037 A 
HETATM   35  C13 UNL     1      -3.652  17.181   2.010  1.00  0.00     0.068 A 
HETATM   36  C15 UNL     1      -4.889  16.711   2.378  1.00  0.00     0.037 A 
HETATM   37  C16 UNL     1      -5.997  17.546   2.373  1.00  0.00     0.011 A 
BRANCH  35  38
HETATM   38  O2  UNL     1      -2.527  16.373   2.004  1.00  0.00    -0.356 OA
HETATM   39  C14 UNL     1      -1.643  16.269   0.914  1.00  0.00     0.210 C 
ENDBRANCH  35  38
ENDBRANCH  31  32
ENDBRANCH  29  31
ENDBRANCH  26  27
ENDBRANCH   4  26
BRANCH   1  40
HETATM   40  C2  UNL     1      -8.240  24.169  -4.493  1.00  0.00    -0.032 C 
HETATM   41  C1  UNL     1      -9.222  24.766  -5.096  1.00  0.00     0.007 C 
ENDBRANCH   1  40
TORSDOF 10
ENDMDL
MODEL 5
REMARK VINA RESULT: -7.433751331      2.259      3.348
REMARK  10 active torsions:
REMARK  status: ('A' for Active; 'I' for Inactive)
REMARK    1  A    between atoms: C2_2  and  C3_3 
REMARK    2  A    between atoms: C6_6  and  C7_7 
REMARK    3  A    between atoms: C7_7  and  C8_8 
REMARK       I    between atoms: C8_8  and  N1_10 
REMARK    4  A    between atoms: N1_10  and  C9_12 
REMARK    5  A    between atoms: C9_12  and  C10_13 
REMARK    6  A    between atoms: C13_16  and  O2_17 
REMARK    7  A    between atoms: C19_23  and  C20_24 
REMARK    8  A    between atoms: C19_23  and  S1_27 
REMARK    9  A    between atoms: S1_27  and  N2_30 
REMARK   10  A    between atoms: N2_30  and  C23_32 
ROOT
HETATM    1  C3  UNL     1      -7.251  23.371  -3.615  1.00  0.00     0.012 C 
HETATM    2  C4  UNL     1      -8.756  23.301  -3.555  1.00  0.00     0.015 C 
HETATM    3  C5  UNL     1      -9.096  21.825  -3.427  1.00  0.00     0.017 C 
HETATM    4  C6  UNL     1      -7.864  21.409  -2.642  1.00  0.00     0.005 C 
HETATM    5  C17 UNL     1      -6.869  21.961  -3.698  1.00  0.00    -0.000 C 
HETATM    6  C18 UNL     1      -7.426  21.122  -4.846  1.00  0.00     0.033 C 
HETATM    7  C19 UNL     1      -8.922  21.050  -4.702  1.00  0.00     0.090 C 
ENDROOT
BRANCH   7   8
HETATM    8  C20 UNL     1      -9.689  21.580  -5.883  1.00  0.00     0.003 C 
HETATM    9  C21 UNL     1     -11.037  22.164  -5.547  1.00  0.00     0.011 C 
HETATM   10  C22 UNL     1      -9.027  22.289  -6.984  1.00  0.00     0.011 C 
ENDBRANCH   7   8
BRANCH   7  11
HETATM   11  S1  UNL     1      -9.558  19.404  -4.455  1.00  0.00     0.236 S 
HETATM   12  O3  UNL     1     -10.630  19.421  -3.444  1.00  0.00    -0.205 OA
HETATM   13  O4  UNL     1     -10.213  18.937  -5.788  1.00  0.00    -0.205 OA
BRANCH  11  14
HETATM   14  N2  UNL     1      -8.458  18.196  -4.145  1.00  0.00    -0.313 N 
ATOM     15  H2  UNL     1      -8.190  17.590  -4.919  1.00  0.00     0.172 HD
BRANCH  14  16
HETATM   16  C23 UNL     1      -7.875  17.952  -2.900  1.00  0.00     0.101 C 
HETATM   17  C24 UNL     1      -8.780  17.070  -2.007  1.00  0.00     0.010 C 
HETATM   18  C25 UNL     1      -9.192  15.815  -2.706  1.00  0.00     0.011 C 
HETATM   19  C29 UNL     1      -8.058  16.771  -0.721  1.00  0.00     0.011 C 
HETATM   20  C26 UNL     1      -7.952  15.030  -3.064  1.00  0.00    -0.013 C 
HETATM   21  C27 UNL     1      -7.264  14.640  -1.769  1.00  0.00     0.009 C 
HETATM   22  C32 UNL     1      -6.973  15.861  -3.851  1.00  0.00     0.011 C 
HETATM   23  C28 UNL     1      -6.866  15.879  -1.010  1.00  0.00    -0.013 C 
HETATM   24  C30 UNL     1      -5.935  16.745  -1.840  1.00  0.00     0.011 C 
HETATM   25  C31 UNL     1      -6.634  17.120  -3.119  1.00  0.00     0.010 C 
ENDBRANCH  14  16
ENDBRANCH  11  14
ENDBRANCH   7  11
BRANCH   4  26
HETATM   26  C7  UNL     1      -7.757  22.003  -1.302  1.00  0.00     0.108 C 
BRANCH  26  27
HETATM   27  C8  UNL     1      -7.934  20.965  -0.269  1.00  0.00     0.218 C 
HETATM   28  O1  UNL     1      -8.885  20.169  -0.363  1.00  0.00    -0.274 OA
HETATM   29  N1  UNL     1      -7.032  20.882   0.808  1.00  0.00    -0.357 N 
ATOM     30  H1  UNL     1      -6.266  21.556   0.854  1.00  0.00     0.162 HD
BRANCH  29  31
HETATM   31  C9  UNL     1      -7.141  19.884   1.854  1.00  0.00     0.161 C 
BRANCH  31  32
HETATM   32  C10 UNL     1      -5.967  18.972   1.904  1.00  0.00    -0.040 A 
HETATM   33  C11 UNL     1      -6.115  17.634   2.191  1.00  0.00     0.011 A 
HETATM   34  C12 UNL     1      -5.049  16.765   2.247  1.00  0.00     0.037 A 
HETATM   35  C13 UNL     1      -3.773  17.248   2.007  1.00  0.00     0.068 A 
HETATM   36  C15 UNL     1      -3.598  18.579   1.718  1.00  0.00     0.037 A 
HETATM   37  C16 UNL     1      -4.682  19.444   1.664  1.00  0.00     0.011 A 
BRANCH  35  38
HETATM   38  O2  UNL     1      -2.711  16.361   2.068  1.00  0.00    -0.356 OA
HETATM   39  C14 UNL     1      -1.779  16.182   1.028  1.00  0.00     0.210 C 
ENDBRANCH  35  38
ENDBRANCH  31  32
ENDBRANCH  29  31
ENDBRANCH  26  27
ENDBRANCH   4  26
BRANCH   1  40
HETATM   40  C2  UNL     1      -6.657  24.355  -4.495  1.00  0.00    -0.032 C 
HETATM   41  C1  UNL     1      -7.352  25.246  -5.134  1.00  0.00     0.007 C 
ENDBRANCH   1  40
TORSDOF 10
ENDMDL
