MODEL 1
REMARK VINA RESULT: -7.179186896      0.000      0.000
REMARK  9 active torsions:
REMARK  status: ('A' for Active; 'I' for Inactive)
REMARK    1  A    between atoms: C2_2  and  C3_3 
REMARK    2  A    between atoms: N1_6  and  C6_7 
REMARK    3  A    between atoms: C8_9  and  C9_10 
REMARK    4  A    between atoms: C9_10  and  C10_11 
REMARK    5  A    between atoms: C11_13  and  O2_14 
REMARK    6  A    between atoms: C13_16  and  O3_17 
REMARK    7  A    between atoms: C14_19  and  O4_20 
REMARK    8  A    between atoms: C15_22  and  C16_23 
REMARK    9  A    between atoms: C16_23  and  O5_24 
ROOT
HETATM    1  C10 UNL     1      -4.639   3.932  14.699  1.00  0.00     0.136 C 
HETATM    2  O1  UNL     1      -5.504   3.498  13.720  1.00  0.00    -0.353 OA
HETATM    3  C11 UNL     1      -5.130   2.225  13.303  1.00  0.00     0.290 C 
HETATM    4  C13 UNL     1      -4.252   1.473  14.218  1.00  0.00     0.202 C 
HETATM    5  C14 UNL     1      -4.417   1.743  15.675  1.00  0.00     0.160 C 
HETATM    6  C15 UNL     1      -4.970   3.154  15.950  1.00  0.00     0.070 C 
ENDROOT
BRANCH   1   7
HETATM    7  C9  UNL     1      -4.464   5.380  14.855  1.00  0.00     0.065 C 
BRANCH   7   8
HETATM    8  C8  UNL     1      -3.112   5.968  14.856  1.00  0.00     0.130 C 
HETATM    9  C7  UNL     1      -2.203   5.025  14.103  1.00  0.00     0.096 C 
HETATM   10  C6  UNL     1      -1.173   5.678  13.259  1.00  0.00     0.362 C 
HETATM   11  O7  UNL     1      -1.240   7.060  13.201  1.00  0.00    -0.332 OA
HETATM   12  C17 UNL     1      -2.620   7.355  13.075  1.00  0.00     0.341 C 
HETATM   13  O6  UNL     1      -3.138   7.241  14.359  1.00  0.00    -0.361 OA
BRANCH  10  14
HETATM   14  N1  UNL     1      -1.238   5.210  11.865  1.00  0.00     0.117 N 
HETATM   15  C5  UNL     1      -1.455   3.783  11.811  1.00  0.00     0.276 C 
HETATM   16  C4  UNL     1      -0.350   3.183  11.003  1.00  0.00     0.036 C 
HETATM   17  C3  UNL     1       0.786   4.162  11.269  1.00  0.00     0.015 C 
HETATM   18  C18 UNL     1       0.054   5.475  11.267  1.00  0.00     0.280 C 
BRANCH  17  19
HETATM   19  C2  UNL     1       1.815   4.096  10.155  1.00  0.00     0.002 C 
HETATM   20  C1  UNL     1       1.115   4.361   8.848  1.00  0.00     0.005 C 
ENDBRANCH  17  19
ENDBRANCH  10  14
ENDBRANCH   7   8
ENDBRANCH   1   7
BRANCH   6  21
HETATM   21  C16 UNL     1      -6.471   2.939  16.129  1.00  0.00     0.174 C 
BRANCH  21  22
HETATM   22  O5  UNL     1      -6.674   1.693  16.767  1.00  0.00    -0.400 OA
ATOM     23  H5  UNL     1      -7.601   1.486  16.739  1.00  0.00     0.209 HD
ENDBRANCH  21  22
ENDBRANCH   6  21
BRANCH   3  24
HETATM   24  O2  UNL     1      -4.590   2.364  12.032  1.00  0.00    -0.363 OA
HETATM   25  C12 UNL     1      -5.165   1.522  11.096  1.00  0.00     0.204 C 
ENDBRANCH   3  24
BRANCH   5  26
HETATM   26  O4  UNL     1      -3.167   1.721  16.339  1.00  0.00    -0.392 OA
ATOM     27  H4  UNL     1      -2.868   2.602  16.530  1.00  0.00     0.210 HD
ENDBRANCH   5  26
BRANCH   4  28
HETATM   28  O3  UNL     1      -4.504   0.091  14.039  1.00  0.00    -0.388 OA
ATOM     29  H3  UNL     1      -4.288  -0.358  14.848  1.00  0.00     0.210 HD
ENDBRANCH   4  28
TORSDOF 9
ENDMDL
MODEL 2
REMARK VINA RESULT: -6.952074086      3.267      4.717
REMARK  9 active torsions:
REMARK  status: ('A' for Active; 'I' for Inactive)
REMARK    1  A    between atoms: C2_2  and  C3_3 
REMARK    2  A    between atoms: N1_6  and  C6_7 
REMARK    3  A    between atoms: C8_9  and  C9_10 
REMARK    4  A    between atoms: C9_10  and  C10_11 
REMARK    5  A    between atoms: C11_13  and  O2_14 
REMARK    6  A    between atoms: C13_16  and  O3_17 
REMARK    7  A    between atoms: C14_19  and  O4_20 
REMARK    8  A    between atoms: C15_22  and  C16_23 
REMARK    9  A    between atoms: C16_23  and  O5_24 
ROOT
HETATM    1  C10 UNL     1      -3.796   3.148  13.820  1.00  0.00     0.136 C 
HETATM    2  O1  UNL     1      -4.730   2.465  13.075  1.00  0.00    -0.353 OA
HETATM    3  C11 UNL     1      -4.740   1.127  13.456  1.00  0.00     0.290 C 
HETATM    4  C13 UNL     1      -4.139   0.822  14.768  1.00  0.00     0.202 C 
HETATM    5  C14 UNL     1      -4.247   1.879  15.814  1.00  0.00     0.160 C 
HETATM    6  C15 UNL     1      -4.366   3.291  15.210  1.00  0.00     0.070 C 
ENDROOT
BRANCH   1   7
HETATM    7  C9  UNL     1      -3.207   4.353  13.226  1.00  0.00     0.065 C 
BRANCH   7   8
HETATM    8  C8  UNL     1      -3.159   4.510  11.760  1.00  0.00     0.130 C 
HETATM    9  C7  UNL     1      -4.399   5.264  11.340  1.00  0.00     0.096 C 
HETATM   10  C6  UNL     1      -4.205   6.237  10.238  1.00  0.00     0.362 C 
HETATM   11  O7  UNL     1      -2.898   6.392   9.806  1.00  0.00    -0.332 OA
HETATM   12  C17 UNL     1      -2.121   6.424  10.990  1.00  0.00     0.341 C 
HETATM   13  O6  UNL     1      -1.986   5.096  11.376  1.00  0.00    -0.361 OA
BRANCH  10  14
HETATM   14  N1  UNL     1      -4.669   7.582  10.615  1.00  0.00     0.117 N 
HETATM   15  C5  UNL     1      -5.562   7.519  11.747  1.00  0.00     0.276 C 
HETATM   16  C4  UNL     1      -6.844   8.179  11.355  1.00  0.00     0.036 C 
HETATM   17  C3  UNL     1      -6.873   7.918   9.855  1.00  0.00     0.015 C 
HETATM   18  C18 UNL     1      -5.425   8.100   9.494  1.00  0.00     0.280 C 
BRANCH  17  19
HETATM   19  C2  UNL     1      -7.754   8.938   9.156  1.00  0.00     0.002 C 
HETATM   20  C1  UNL     1      -8.950   8.220   8.588  1.00  0.00     0.005 C 
ENDBRANCH  17  19
ENDBRANCH  10  14
ENDBRANCH   7   8
ENDBRANCH   1   7
BRANCH   6  21
HETATM   21  C16 UNL     1      -5.868   3.569  15.205  1.00  0.00     0.174 C 
BRANCH  21  22
HETATM   22  O5  UNL     1      -6.113   4.698  14.387  1.00  0.00    -0.400 OA
ATOM     23  H5  UNL     1      -7.052   4.810  14.300  1.00  0.00     0.209 HD
ENDBRANCH  21  22
ENDBRANCH   6  21
BRANCH   3  24
HETATM   24  O2  UNL     1      -4.157   0.412  12.419  1.00  0.00    -0.363 OA
HETATM   25  C12 UNL     1      -4.846   0.517  11.224  1.00  0.00     0.204 C 
ENDBRANCH   3  24
BRANCH   5  26
HETATM   26  O4  UNL     1      -3.072   1.933  16.602  1.00  0.00    -0.392 OA
ATOM     27  H4  UNL     1      -3.055   1.223  17.234  1.00  0.00     0.210 HD
ENDBRANCH   5  26
BRANCH   4  28
HETATM   28  O3  UNL     1      -4.783  -0.325  15.294  1.00  0.00    -0.388 OA
ATOM     29  H3  UNL     1      -4.115  -0.958  15.531  1.00  0.00     0.210 HD
ENDBRANCH   4  28
TORSDOF 9
ENDMDL
MODEL 3
REMARK VINA RESULT: -6.930137466      2.526      4.955
REMARK  9 active torsions:
REMARK  status: ('A' for Active; 'I' for Inactive)
REMARK    1  A    between atoms: C2_2  and  C3_3 
REMARK    2  A    between atoms: N1_6  and  C6_7 
REMARK    3  A    between atoms: C8_9  and  C9_10 
REMARK    4  A    between atoms: C9_10  and  C10_11 
REMARK    5  A    between atoms: C11_13  and  O2_14 
REMARK    6  A    between atoms: C13_16  and  O3_17 
REMARK    7  A    between atoms: C14_19  and  O4_20 
REMARK    8  A    between atoms: C15_22  and  C16_23 
REMARK    9  A    between atoms: C16_23  and  O5_24 
ROOT
HETATM    1  C10 UNL     1      -3.951   1.857  12.673  1.00  0.00     0.136 C 
HETATM    2  O1  UNL     1      -4.876   2.386  11.803  1.00  0.00    -0.353 OA
HETATM    3  C11 UNL     1      -4.238   3.245  10.914  1.00  0.00     0.290 C 
HETATM    4  C13 UNL     1      -2.778   3.084  10.790  1.00  0.00     0.202 C 
HETATM    5  C14 UNL     1      -2.238   1.709  10.989  1.00  0.00     0.160 C 
HETATM    6  C15 UNL     1      -3.143   0.849  11.892  1.00  0.00     0.070 C 
ENDROOT
BRANCH   1   7
HETATM    7  C9  UNL     1      -4.430   1.432  13.993  1.00  0.00     0.065 C 
BRANCH   7   8
HETATM    8  C8  UNL     1      -4.561   2.414  15.085  1.00  0.00     0.130 C 
HETATM    9  C7  UNL     1      -3.450   3.425  14.928  1.00  0.00     0.096 C 
HETATM   10  C6  UNL     1      -3.817   4.824  15.252  1.00  0.00     0.362 C 
HETATM   11  O7  UNL     1      -5.150   5.032  15.564  1.00  0.00    -0.332 OA
HETATM   12  C17 UNL     1      -5.873   4.258  14.623  1.00  0.00     0.341 C 
HETATM   13  O6  UNL     1      -5.817   2.954  15.100  1.00  0.00    -0.361 OA
BRANCH  10  14
HETATM   14  N1  UNL     1      -3.516   5.736  14.135  1.00  0.00     0.117 N 
HETATM   15  C5  UNL     1      -2.200   5.477  13.602  1.00  0.00     0.276 C 
HETATM   16  C4  UNL     1      -1.426   6.755  13.657  1.00  0.00     0.036 C 
HETATM   17  C3  UNL     1      -2.062   7.444  14.856  1.00  0.00     0.015 C 
HETATM   18  C18 UNL     1      -3.510   7.080  14.674  1.00  0.00     0.280 C 
BRANCH  17  19
HETATM   19  C2  UNL     1      -1.851   8.945  14.780  1.00  0.00     0.002 C 
HETATM   20  C1  UNL     1      -1.008   9.364  15.955  1.00  0.00     0.005 C 
ENDBRANCH  17  19
ENDBRANCH  10  14
ENDBRANCH   7   8
ENDBRANCH   1   7
BRANCH   6  21
HETATM   21  C16 UNL     1      -3.994   0.046  10.911  1.00  0.00     0.174 C 
BRANCH  21  22
HETATM   22  O5  UNL     1      -3.317  -0.011   9.670  1.00  0.00    -0.400 OA
ATOM     23  H5  UNL     1      -3.757   0.569   9.059  1.00  0.00     0.209 HD
ENDBRANCH  21  22
ENDBRANCH   6  21
BRANCH   3  24
HETATM   24  O2  UNL     1      -4.609   4.535  11.268  1.00  0.00    -0.363 OA
HETATM   25  C12 UNL     1      -4.293   5.481  10.309  1.00  0.00     0.204 C 
ENDBRANCH   3  24
BRANCH   5  26
HETATM   26  O4  UNL     1      -0.997   1.745  11.670  1.00  0.00    -0.392 OA
ATOM     27  H4  UNL     1      -0.497   0.954  11.507  1.00  0.00     0.210 HD
ENDBRANCH   5  26
BRANCH   4  28
HETATM   28  O3  UNL     1      -2.397   3.475   9.483  1.00  0.00    -0.388 OA
ATOM     29  H3  UNL     1      -1.508   3.807   9.520  1.00  0.00     0.210 HD
ENDBRANCH   4  28
TORSDOF 9
ENDMDL
MODEL 4
REMARK VINA RESULT: -6.852726737      2.005      4.906
REMARK  9 active torsions:
REMARK  status: ('A' for Active; 'I' for Inactive)
REMARK    1  A    between atoms: C2_2  and  C3_3 
REMARK    2  A    between atoms: N1_6  and  C6_7 
REMARK    3  A    between atoms: C8_9  and  C9_10 
REMARK    4  A    between atoms: C9_10  and  C10_11 
REMARK    5  A    between atoms: C11_13  and  O2_14 
REMARK    6  A    between atoms: C13_16  and  O3_17 
REMARK    7  A    between atoms: C14_19  and  O4_20 
REMARK    8  A    between atoms: C15_22  and  C16_23 
REMARK    9  A    between atoms: C16_23  and  O5_24 
ROOT
HETATM    1  C10 UNL     1      -2.708   2.260  11.720  1.00  0.00     0.136 C 
HETATM    2  O1  UNL     1      -2.908   1.451  12.815  1.00  0.00    -0.353 OA
HETATM    3  C11 UNL     1      -3.955   1.956  13.579  1.00  0.00     0.290 C 
HETATM    4  C13 UNL     1      -4.859   2.902  12.897  1.00  0.00     0.202 C 
HETATM    5  C14 UNL     1      -5.056   2.700  11.434  1.00  0.00     0.160 C 
HETATM    6  C15 UNL     1      -3.853   2.002  10.771  1.00  0.00     0.070 C 
ENDROOT
BRANCH   1   7
HETATM    7  C9  UNL     1      -1.363   2.283  11.133  1.00  0.00     0.065 C 
BRANCH   7   8
HETATM    8  C8  UNL     1      -0.843   3.519  10.520  1.00  0.00     0.130 C 
HETATM    9  C7  UNL     1      -1.416   4.687  11.289  1.00  0.00     0.096 C 
HETATM   10  C6  UNL     1      -0.493   5.831  11.482  1.00  0.00     0.362 C 
HETATM   11  O7  UNL     1       0.797   5.640  11.015  1.00  0.00    -0.332 OA
HETATM   12  C17 UNL     1       1.136   4.321  11.402  1.00  0.00     0.341 C 
HETATM   13  O6  UNL     1       0.523   3.495  10.468  1.00  0.00    -0.361 OA
BRANCH  10  14
HETATM   14  N1  UNL     1      -0.360   6.186  12.904  1.00  0.00     0.117 N 
HETATM   15  C5  UNL     1      -1.458   5.649  13.673  1.00  0.00     0.276 C 
HETATM   16  C4  UNL     1      -2.113   6.785  14.390  1.00  0.00     0.036 C 
HETATM   17  C3  UNL     1      -1.836   7.943  13.440  1.00  0.00     0.015 C 
HETATM   18  C18 UNL     1      -0.435   7.630  12.991  1.00  0.00     0.280 C 
BRANCH  17  19
HETATM   19  C2  UNL     1      -1.900   9.265  14.182  1.00  0.00     0.002 C 
HETATM   20  C1  UNL     1      -1.453   9.034  15.602  1.00  0.00     0.005 C 
ENDBRANCH  17  19
ENDBRANCH  10  14
ENDBRANCH   7   8
ENDBRANCH   1   7
BRANCH   6  21
HETATM   21  C16 UNL     1      -4.255   0.530  10.721  1.00  0.00     0.174 C 
BRANCH  21  22
HETATM   22  O5  UNL     1      -3.596  -0.079   9.627  1.00  0.00    -0.400 OA
ATOM     23  H5  UNL     1      -3.634  -1.022   9.738  1.00  0.00     0.209 HD
ENDBRANCH  21  22
ENDBRANCH   6  21
BRANCH   3  24
HETATM   24  O2  UNL     1      -3.390   2.488  14.730  1.00  0.00    -0.363 OA
HETATM   25  C12 UNL     1      -3.862   1.905  15.893  1.00  0.00     0.204 C 
ENDBRANCH   3  24
BRANCH   5  26
HETATM   26  O4  UNL     1      -5.156   3.941  10.760  1.00  0.00    -0.392 OA
ATOM     27  H4  UNL     1      -5.221   3.813   9.821  1.00  0.00     0.210 HD
ENDBRANCH   5  26
BRANCH   4  28
HETATM   28  O3  UNL     1      -6.141   2.794  13.489  1.00  0.00    -0.388 OA
ATOM     29  H3  UNL     1      -6.610   3.605  13.331  1.00  0.00     0.210 HD
ENDBRANCH   4  28
TORSDOF 9
ENDMDL
MODEL 5
REMARK VINA RESULT: -6.852180462      2.209      3.954
REMARK  9 active torsions:
REMARK  status: ('A' for Active; 'I' for Inactive)
REMARK    1  A    between atoms: C2_2  and  C3_3 
REMARK    2  A    between atoms: N1_6  and  C6_7 
REMARK    3  A    between atoms: C8_9  and  C9_10 
REMARK    4  A    between atoms: C9_10  and  C10_11 
REMARK    5  A    between atoms: C11_13  and  O2_14 
REMARK    6  A    between atoms: C13_16  and  O3_17 
REMARK    7  A    between atoms: C14_19  and  O4_20 
REMARK    8  A    between atoms: C15_22  and  C16_23 
REMARK    9  A    between atoms: C16_23  and  O5_24 
ROOT
HETATM    1  C10 UNL     1      -4.184   3.599  14.604  1.00  0.00     0.136 C 
HETATM    2  O1  UNL     1      -5.044   3.194  13.609  1.00  0.00    -0.353 OA
HETATM    3  C11 UNL     1      -4.877   1.832  13.379  1.00  0.00     0.290 C 
HETATM    4  C13 UNL     1      -4.212   1.069  14.452  1.00  0.00     0.202 C 
HETATM    5  C14 UNL     1      -4.424   1.553  15.846  1.00  0.00     0.160 C 
HETATM    6  C15 UNL     1      -4.733   3.060  15.903  1.00  0.00     0.070 C 
ENDROOT
BRANCH   1   7
HETATM    7  C9  UNL     1      -3.764   5.006  14.604  1.00  0.00     0.065 C 
BRANCH   7   8
HETATM    8  C8  UNL     1      -3.475   5.692  13.331  1.00  0.00     0.130 C 
HETATM    9  C7  UNL     1      -3.183   7.140  13.648  1.00  0.00     0.096 C 
HETATM   10  C6  UNL     1      -2.114   7.763  12.831  1.00  0.00     0.362 C 
HETATM   11  O7  UNL     1      -1.463   6.912  11.953  1.00  0.00    -0.332 OA
HETATM   12  C17 UNL     1      -1.257   5.717  12.686  1.00  0.00     0.341 C 
HETATM   13  O6  UNL     1      -2.476   5.051  12.652  1.00  0.00    -0.361 OA
BRANCH  10  14
HETATM   14  N1  UNL     1      -1.062   8.355  13.675  1.00  0.00     0.117 N 
HETATM   15  C5  UNL     1      -1.447   8.332  15.067  1.00  0.00     0.276 C 
HETATM   16  C4  UNL     1      -1.379   9.733  15.583  1.00  0.00     0.036 C 
HETATM   17  C3  UNL     1      -1.678  10.534  14.323  1.00  0.00     0.015 C 
HETATM   18  C18 UNL     1      -0.934   9.743  13.283  1.00  0.00     0.280 C 
BRANCH  17  19
HETATM   19  C2  UNL     1      -1.128  11.944  14.448  1.00  0.00     0.002 C 
HETATM   20  C1  UNL     1       0.173  11.880  15.204  1.00  0.00     0.005 C 
ENDBRANCH  17  19
ENDBRANCH  10  14
ENDBRANCH   7   8
ENDBRANCH   1   7
BRANCH   6  21
HETATM   21  C16 UNL     1      -6.257   3.128  15.970  1.00  0.00     0.174 C 
BRANCH  21  22
HETATM   22  O5  UNL     1      -6.722   2.037  16.742  1.00  0.00    -0.400 OA
ATOM     23  H5  UNL     1      -7.672   2.056  16.751  1.00  0.00     0.209 HD
ENDBRANCH  21  22
ENDBRANCH   6  21
BRANCH   3  24
HETATM   24  O2  UNL     1      -4.236   1.709  12.154  1.00  0.00    -0.363 OA
HETATM   25  C12 UNL     1      -5.094   1.397  11.114  1.00  0.00     0.204 C 
ENDBRANCH   3  24
BRANCH   5  26
HETATM   26  O4  UNL     1      -3.246   1.406  16.618  1.00  0.00    -0.392 OA
ATOM     27  H4  UNL     1      -2.658   2.140  16.482  1.00  0.00     0.210 HD
ENDBRANCH   5  26
BRANCH   4  28
HETATM   28  O3  UNL     1      -4.695  -0.262  14.415  1.00  0.00    -0.388 OA
ATOM     29  H3  UNL     1      -4.976  -0.451  13.527  1.00  0.00     0.210 HD
ENDBRANCH   4  28
TORSDOF 9
ENDMDL
