MODEL 1
REMARK VINA RESULT: -7.741940192      0.000      0.000
REMARK  9 active torsions:
REMARK  status: ('A' for Active; 'I' for Inactive)
REMARK    1  A    between atoms: C2_2  and  C3_3 
REMARK    2  A    between atoms: C7_7  and  O1_8 
REMARK    3  A    between atoms: O1_8  and  C8_9 
REMARK    4  A    between atoms: C9_11  and  C10_12 
REMARK    5  A    between atoms: C10_12  and  O3_13 
REMARK    6  A    between atoms: C11_15  and  O4_16 
REMARK    7  A    between atoms: C12_18  and  O5_19 
REMARK    8  A    between atoms: C13_21  and  C14_22 
REMARK    9  A    between atoms: C14_22  and  C15_23 
ROOT
HETATM    1  C3  UNL     1      -0.955   4.456  12.215  1.00  0.00     0.073 C 
HETATM    2  C4  UNL     1      -1.509   5.800  12.617  1.00  0.00     0.155 C 
HETATM    3  C5  UNL     1      -2.017   5.680  14.025  1.00  0.00     0.004 C 
HETATM    4  C6  UNL     1      -2.891   4.842  14.470  1.00  0.00     0.008 C 
HETATM    5  C7  UNL     1      -3.675   3.744  13.794  1.00  0.00     0.178 C 
HETATM    6  C13 UNL     1      -3.196   3.320  12.512  1.00  0.00    -0.021 C 
HETATM    7  C19 UNL     1      -2.342   4.280  11.714  1.00  0.00     0.164 C 
HETATM    8  O8  UNL     1      -2.607   5.591  11.779  1.00  0.00    -0.371 OA
ENDROOT
BRANCH   5   9
HETATM    9  O1  UNL     1      -3.527   2.682  14.747  1.00  0.00    -0.345 OA
BRANCH   9  10
HETATM   10  C8  UNL     1      -4.173   2.887  15.923  1.00  0.00     0.292 C 
HETATM   11  O2  UNL     1      -5.558   2.869  15.625  1.00  0.00    -0.348 OA
HETATM   12  C9  UNL     1      -6.114   2.575  16.855  1.00  0.00     0.179 C 
HETATM   13  C11 UNL     1      -5.375   1.307  17.230  1.00  0.00     0.182 C 
HETATM   14  C12 UNL     1      -3.969   1.660  16.823  1.00  0.00     0.204 C 
BRANCH  12  15
HETATM   15  C10 UNL     1      -7.595   2.309  16.776  1.00  0.00     0.198 C 
BRANCH  15  16
HETATM   16  O3  UNL     1      -7.812   0.974  17.087  1.00  0.00    -0.398 OA
ATOM     17  H3  UNL     1      -8.207   0.932  17.950  1.00  0.00     0.209 HD
ENDBRANCH  15  16
ENDBRANCH  12  15
BRANCH  13  18
HETATM   18  O4  UNL     1      -5.497   0.987  18.567  1.00  0.00    -0.390 OA
ATOM     19  H4  UNL     1      -4.659   0.846  18.994  1.00  0.00     0.210 HD
ENDBRANCH  13  18
BRANCH  14  20
HETATM   20  O5  UNL     1      -3.384   0.618  16.108  1.00  0.00    -0.388 OA
ATOM     21  H5  UNL     1      -2.790   0.125  16.661  1.00  0.00     0.210 HD
ENDBRANCH  14  20
ENDBRANCH   9  10
ENDBRANCH   5   9
BRANCH   6  22
HETATM   22  C14 UNL     1      -4.127   2.604  11.615  1.00  0.00    -0.004 C 
BRANCH  22  23
HETATM   23  C15 UNL     1      -4.200   1.189  11.400  1.00  0.00     0.110 C 
HETATM   24  C16 UNL     1      -2.729   0.728  10.927  1.00  0.00     0.045 C 
HETATM   25  C17 UNL     1      -2.877  -0.756  10.958  1.00  0.00     0.180 C 
HETATM   26  O6  UNL     1      -4.020  -1.045  11.755  1.00  0.00    -0.321 OA
HETATM   27  C18 UNL     1      -4.333   0.181  12.449  1.00  0.00     0.266 C 
HETATM   28  O7  UNL     1      -4.613   0.116  13.648  1.00  0.00    -0.265 OA
ENDBRANCH  22  23
ENDBRANCH   6  22
BRANCH   1  29
HETATM   29  C2  UNL     1       0.087   4.517  11.163  1.00  0.00    -0.027 C 
HETATM   30  C1  UNL     1       0.186   3.693  10.156  1.00  0.00     0.007 C 
ENDBRANCH   1  29
TORSDOF 9
ENDMDL
MODEL 2
REMARK VINA RESULT: -7.699563470      2.122      6.031
REMARK  9 active torsions:
REMARK  status: ('A' for Active; 'I' for Inactive)
REMARK    1  A    between atoms: C2_2  and  C3_3 
REMARK    2  A    between atoms: C7_7  and  O1_8 
REMARK    3  A    between atoms: O1_8  and  C8_9 
REMARK    4  A    between atoms: C9_11  and  C10_12 
REMARK    5  A    between atoms: C10_12  and  O3_13 
REMARK    6  A    between atoms: C11_15  and  O4_16 
REMARK    7  A    between atoms: C12_18  and  O5_19 
REMARK    8  A    between atoms: C13_21  and  C14_22 
REMARK    9  A    between atoms: C14_22  and  C15_23 
ROOT
HETATM    1  C3  UNL     1      -3.982   1.225  12.071  1.00  0.00     0.073 C 
HETATM    2  C4  UNL     1      -4.684   1.923  10.934  1.00  0.00     0.155 C 
HETATM    3  C5  UNL     1      -4.025   3.259  10.742  1.00  0.00     0.004 C 
HETATM    4  C6  UNL     1      -3.873   4.187  11.625  1.00  0.00     0.008 C 
HETATM    5  C7  UNL     1      -4.269   4.275  13.078  1.00  0.00     0.178 C 
HETATM    6  C13 UNL     1      -4.611   3.039  13.719  1.00  0.00    -0.021 C 
HETATM    7  C19 UNL     1      -5.059   1.884  12.851  1.00  0.00     0.164 C 
HETATM    8  O8  UNL     1      -5.790   2.140  11.759  1.00  0.00    -0.371 OA
ENDROOT
BRANCH   5   9
HETATM    9  O1  UNL     1      -3.067   4.809  13.653  1.00  0.00    -0.345 OA
BRANCH   9  10
HETATM   10  C8  UNL     1      -2.842   6.117  13.372  1.00  0.00     0.292 C 
HETATM   11  O2  UNL     1      -2.895   6.804  14.610  1.00  0.00    -0.348 OA
HETATM   12  C9  UNL     1      -2.184   7.956  14.331  1.00  0.00     0.179 C 
HETATM   13  C11 UNL     1      -0.882   7.391  13.800  1.00  0.00     0.182 C 
HETATM   14  C12 UNL     1      -1.386   6.283  12.914  1.00  0.00     0.204 C 
BRANCH  12  15
HETATM   15  C10 UNL     1      -1.925   8.793  15.557  1.00  0.00     0.198 C 
BRANCH  15  16
HETATM   16  O3  UNL     1      -1.465  10.034  15.144  1.00  0.00    -0.398 OA
ATOM     17  H3  UNL     1      -0.573  10.137  15.453  1.00  0.00     0.209 HD
ENDBRANCH  15  16
ENDBRANCH  12  15
BRANCH  13  18
HETATM   18  O4  UNL     1      -0.120   8.328  13.131  1.00  0.00    -0.390 OA
ATOM     19  H4  UNL     1       0.807   8.119  13.127  1.00  0.00     0.210 HD
ENDBRANCH  13  18
BRANCH  14  20
HETATM   20  O5  UNL     1      -0.667   5.111  13.128  1.00  0.00    -0.388 OA
ATOM     21  H5  UNL     1      -0.385   4.735  12.303  1.00  0.00     0.210 HD
ENDBRANCH  14  20
ENDBRANCH   9  10
ENDBRANCH   5   9
BRANCH   6  22
HETATM   22  C14 UNL     1      -5.416   3.087  14.956  1.00  0.00    -0.004 C 
BRANCH  22  23
HETATM   23  C15 UNL     1      -5.145   2.408  16.188  1.00  0.00     0.110 C 
HETATM   24  C16 UNL     1      -6.454   2.607  17.110  1.00  0.00     0.045 C 
HETATM   25  C17 UNL     1      -6.143   1.684  18.240  1.00  0.00     0.180 C 
HETATM   26  O6  UNL     1      -5.123   0.799  17.788  1.00  0.00    -0.321 OA
HETATM   27  C18 UNL     1      -5.074   0.958  16.356  1.00  0.00     0.266 C 
HETATM   28  O7  UNL     1      -4.993  -0.056  15.660  1.00  0.00    -0.265 OA
ENDBRANCH  22  23
ENDBRANCH   6  22
BRANCH   1  29
HETATM   29  C2  UNL     1      -4.060  -0.254  12.020  1.00  0.00    -0.027 C 
HETATM   30  C1  UNL     1      -3.186  -1.032  11.443  1.00  0.00     0.007 C 
ENDBRANCH   1  29
TORSDOF 9
ENDMDL
MODEL 3
REMARK VINA RESULT: -7.606536925      2.129      5.704
REMARK  9 active torsions:
REMARK  status: ('A' for Active; 'I' for Inactive)
REMARK    1  A    between atoms: C2_2  and  C3_3 
REMARK    2  A    between atoms: C7_7  and  O1_8 
REMARK    3  A    between atoms: O1_8  and  C8_9 
REMARK    4  A    between atoms: C9_11  and  C10_12 
REMARK    5  A    between atoms: C10_12  and  O3_13 
REMARK    6  A    between atoms: C11_15  and  O4_16 
REMARK    7  A    between atoms: C12_18  and  O5_19 
REMARK    8  A    between atoms: C13_21  and  C14_22 
REMARK    9  A    between atoms: C14_22  and  C15_23 
ROOT
HETATM    1  C3  UNL     1      -5.082   5.869  12.812  1.00  0.00     0.073 C 
HETATM    2  C4  UNL     1      -3.610   6.007  13.106  1.00  0.00     0.155 C 
HETATM    3  C5  UNL     1      -2.940   4.730  12.688  1.00  0.00     0.004 C 
HETATM    4  C6  UNL     1      -3.221   3.536  13.085  1.00  0.00     0.008 C 
HETATM    5  C7  UNL     1      -4.254   3.008  14.048  1.00  0.00     0.178 C 
HETATM    6  C13 UNL     1      -5.324   3.902  14.385  1.00  0.00    -0.021 C 
HETATM    7  C19 UNL     1      -5.093   5.387  14.216  1.00  0.00     0.164 C 
HETATM    8  O8  UNL     1      -3.878   5.887  14.472  1.00  0.00    -0.371 OA
ENDROOT
BRANCH   5   9
HETATM    9  O1  UNL     1      -4.766   1.890  13.308  1.00  0.00    -0.345 OA
BRANCH   9  10
HETATM   10  C8  UNL     1      -3.869   1.314  12.468  1.00  0.00     0.292 C 
HETATM   11  O2  UNL     1      -3.889  -0.073  12.756  1.00  0.00    -0.348 OA
HETATM   12  C9  UNL     1      -3.384  -0.616  11.590  1.00  0.00     0.179 C 
HETATM   13  C11 UNL     1      -4.306  -0.017  10.548  1.00  0.00     0.182 C 
HETATM   14  C12 UNL     1      -4.405   1.405  11.032  1.00  0.00     0.204 C 
BRANCH  12  15
HETATM   15  C10 UNL     1      -3.475  -2.120  11.560  1.00  0.00     0.198 C 
BRANCH  15  16
HETATM   16  O3  UNL     1      -2.187  -2.633  11.598  1.00  0.00    -0.398 OA
ATOM     17  H3  UNL     1      -1.776  -2.342  12.404  1.00  0.00     0.209 HD
ENDBRANCH  15  16
ENDBRANCH  12  15
BRANCH  13  18
HETATM   18  O4  UNL     1      -3.814  -0.129   9.263  1.00  0.00    -0.390 OA
ATOM     19  H4  UNL     1      -4.181   0.514   8.668  1.00  0.00     0.210 HD
ENDBRANCH  13  18
BRANCH  14  20
HETATM   20  O5  UNL     1      -5.727   1.839  11.027  1.00  0.00    -0.388 OA
ATOM     21  H5  UNL     1      -5.816   2.651  11.512  1.00  0.00     0.210 HD
ENDBRANCH  14  20
ENDBRANCH   9  10
ENDBRANCH   5   9
BRANCH   6  22
HETATM   22  C14 UNL     1      -6.094   3.644  15.618  1.00  0.00    -0.004 C 
BRANCH  22  23
HETATM   23  C15 UNL     1      -5.665   2.896  16.763  1.00  0.00     0.110 C 
HETATM   24  C16 UNL     1      -6.805   3.098  17.886  1.00  0.00     0.045 C 
HETATM   25  C17 UNL     1      -6.362   2.111  18.915  1.00  0.00     0.180 C 
HETATM   26  O6  UNL     1      -5.465   1.213  18.271  1.00  0.00    -0.321 OA
HETATM   27  C18 UNL     1      -5.632   1.439  16.856  1.00  0.00     0.266 C 
HETATM   28  O7  UNL     1      -5.705   0.456  16.115  1.00  0.00    -0.265 OA
ENDBRANCH  22  23
ENDBRANCH   6  22
BRANCH   1  29
HETATM   29  C2  UNL     1      -5.783   7.155  12.586  1.00  0.00    -0.027 C 
HETATM   30  C1  UNL     1      -5.782   7.823  11.465  1.00  0.00     0.007 C 
ENDBRANCH   1  29
TORSDOF 9
ENDMDL
MODEL 4
REMARK VINA RESULT: -7.428094119      1.652      5.281
REMARK  9 active torsions:
REMARK  status: ('A' for Active; 'I' for Inactive)
REMARK    1  A    between atoms: C2_2  and  C3_3 
REMARK    2  A    between atoms: C7_7  and  O1_8 
REMARK    3  A    between atoms: O1_8  and  C8_9 
REMARK    4  A    between atoms: C9_11  and  C10_12 
REMARK    5  A    between atoms: C10_12  and  O3_13 
REMARK    6  A    between atoms: C11_15  and  O4_16 
REMARK    7  A    between atoms: C12_18  and  O5_19 
REMARK    8  A    between atoms: C13_21  and  C14_22 
REMARK    9  A    between atoms: C14_22  and  C15_23 
ROOT
HETATM    1  C3  UNL     1      -2.878   6.140  14.277  1.00  0.00     0.073 C 
HETATM    2  C4  UNL     1      -1.460   5.642  14.401  1.00  0.00     0.155 C 
HETATM    3  C5  UNL     1      -1.066   5.054  13.077  1.00  0.00     0.004 C 
HETATM    4  C6  UNL     1      -1.666   4.113  12.432  1.00  0.00     0.008 C 
HETATM    5  C7  UNL     1      -2.902   3.305  12.740  1.00  0.00     0.178 C 
HETATM    6  C13 UNL     1      -3.762   3.826  13.762  1.00  0.00    -0.021 C 
HETATM    7  C19 UNL     1      -3.169   4.774  14.780  1.00  0.00     0.164 C 
HETATM    8  O8  UNL     1      -1.909   4.580  15.189  1.00  0.00    -0.371 OA
ENDROOT
BRANCH   5   9
HETATM    9  O1  UNL     1      -3.572   3.342  11.472  1.00  0.00    -0.345 OA
BRANCH   9  10
HETATM   10  C8  UNL     1      -3.508   2.184  10.768  1.00  0.00     0.292 C 
HETATM   11  O2  UNL     1      -2.965   1.214  11.646  1.00  0.00    -0.348 OA
HETATM   12  C9  UNL     1      -3.394   0.033  11.072  1.00  0.00     0.179 C 
HETATM   13  C11 UNL     1      -4.888   0.261  10.981  1.00  0.00     0.182 C 
HETATM   14  C12 UNL     1      -4.935   1.686  10.499  1.00  0.00     0.204 C 
BRANCH  12  15
HETATM   15  C10 UNL     1      -3.104  -1.172  11.930  1.00  0.00     0.198 C 
BRANCH  15  16
HETATM   16  O3  UNL     1      -3.075  -2.290  11.111  1.00  0.00    -0.398 OA
ATOM     17  H3  UNL     1      -2.226  -2.323  10.686  1.00  0.00     0.209 HD
ENDBRANCH  15  16
ENDBRANCH  12  15
BRANCH  13  18
HETATM   18  O4  UNL     1      -5.520  -0.628  10.134  1.00  0.00    -0.390 OA
ATOM     19  H4  UNL     1      -5.425  -1.533  10.407  1.00  0.00     0.210 HD
ENDBRANCH  13  18
BRANCH  14  20
HETATM   20  O5  UNL     1      -5.860   2.427  11.229  1.00  0.00    -0.388 OA
ATOM     21  H5  UNL     1      -6.682   2.495  10.758  1.00  0.00     0.210 HD
ENDBRANCH  14  20
ENDBRANCH   9  10
ENDBRANCH   5   9
BRANCH   6  22
HETATM   22  C14 UNL     1      -4.713   2.905  14.418  1.00  0.00    -0.004 C 
BRANCH  22  23
HETATM   23  C15 UNL     1      -4.578   2.304  15.712  1.00  0.00     0.110 C 
HETATM   24  C16 UNL     1      -5.889   2.734  16.547  1.00  0.00     0.045 C 
HETATM   25  C17 UNL     1      -5.740   1.879  17.762  1.00  0.00     0.180 C 
HETATM   26  O6  UNL     1      -4.818   0.845  17.433  1.00  0.00    -0.321 OA
HETATM   27  C18 UNL     1      -4.691   0.876  15.997  1.00  0.00     0.266 C 
HETATM   28  O7  UNL     1      -4.706  -0.196  15.388  1.00  0.00    -0.265 OA
ENDBRANCH  22  23
ENDBRANCH   6  22
BRANCH   1  29
HETATM   29  C2  UNL     1      -3.222   7.238  15.211  1.00  0.00    -0.027 C 
HETATM   30  C1  UNL     1      -2.470   8.275  15.460  1.00  0.00     0.007 C 
ENDBRANCH   1  29
TORSDOF 9
ENDMDL
MODEL 5
REMARK VINA RESULT: -7.399224481      2.092      5.565
REMARK  9 active torsions:
REMARK  status: ('A' for Active; 'I' for Inactive)
REMARK    1  A    between atoms: C2_2  and  C3_3 
REMARK    2  A    between atoms: C7_7  and  O1_8 
REMARK    3  A    between atoms: O1_8  and  C8_9 
REMARK    4  A    between atoms: C9_11  and  C10_12 
REMARK    5  A    between atoms: C10_12  and  O3_13 
REMARK    6  A    between atoms: C11_15  and  O4_16 
REMARK    7  A    between atoms: C12_18  and  O5_19 
REMARK    8  A    between atoms: C13_21  and  C14_22 
REMARK    9  A    between atoms: C14_22  and  C15_23 
ROOT
HETATM    1  C3  UNL     1      -4.736   6.002  13.246  1.00  0.00     0.073 C 
HETATM    2  C4  UNL     1      -3.728   6.640  14.168  1.00  0.00     0.155 C 
HETATM    3  C5  UNL     1      -2.517   5.752  14.203  1.00  0.00     0.004 C 
HETATM    4  C6  UNL     1      -2.476   4.503  14.521  1.00  0.00     0.008 C 
HETATM    5  C7  UNL     1      -3.549   3.531  14.945  1.00  0.00     0.178 C 
HETATM    6  C13 UNL     1      -4.902   3.927  14.685  1.00  0.00    -0.021 C 
HETATM    7  C19 UNL     1      -5.197   5.402  14.524  1.00  0.00     0.164 C 
HETATM    8  O8  UNL     1      -4.514   6.284  15.265  1.00  0.00    -0.371 OA
ENDROOT
BRANCH   5   9
HETATM    9  O1  UNL     1      -3.211   2.390  14.144  1.00  0.00    -0.345 OA
BRANCH   9  10
HETATM   10  C8  UNL     1      -3.486   2.530  12.822  1.00  0.00     0.292 C 
HETATM   11  O2  UNL     1      -2.235   2.651  12.167  1.00  0.00    -0.348 OA
HETATM   12  C9  UNL     1      -2.551   2.283  10.873  1.00  0.00     0.179 C 
HETATM   13  C11 UNL     1      -3.196   0.930  11.089  1.00  0.00     0.182 C 
HETATM   14  C12 UNL     1      -4.058   1.207  12.292  1.00  0.00     0.204 C 
BRANCH  12  15
HETATM   15  C10 UNL     1      -1.335   2.145   9.994  1.00  0.00     0.198 C 
BRANCH  15  16
HETATM   16  O3  UNL     1      -1.337   3.193   9.085  1.00  0.00    -0.398 OA
ATOM     17  H3  UNL     1      -0.575   3.733   9.255  1.00  0.00     0.209 HD
ENDBRANCH  15  16
ENDBRANCH  12  15
BRANCH  13  18
HETATM   18  O4  UNL     1      -3.908   0.490   9.991  1.00  0.00    -0.390 OA
ATOM     19  H4  UNL     1      -3.928  -0.457   9.916  1.00  0.00     0.210 HD
ENDBRANCH  13  18
BRANCH  14  20
HETATM   20  O5  UNL     1      -3.925   0.198  13.240  1.00  0.00    -0.388 OA
ATOM     21  H5  UNL     1      -4.644  -0.419  13.178  1.00  0.00     0.210 HD
ENDBRANCH  14  20
ENDBRANCH   9  10
ENDBRANCH   5   9
BRANCH   6  22
HETATM   22  C14 UNL     1      -5.985   3.273  15.448  1.00  0.00    -0.004 C 
BRANCH  22  23
HETATM   23  C15 UNL     1      -5.842   2.413  16.585  1.00  0.00     0.110 C 
HETATM   24  C16 UNL     1      -7.335   2.123  17.121  1.00  0.00     0.045 C 
HETATM   25  C17 UNL     1      -7.066   1.062  18.136  1.00  0.00     0.180 C 
HETATM   26  O6  UNL     1      -5.774   0.536  17.857  1.00  0.00    -0.321 OA
HETATM   27  C18 UNL     1      -5.434   1.012  16.539  1.00  0.00     0.266 C 
HETATM   28  O7  UNL     1      -4.928   0.215  15.745  1.00  0.00    -0.265 OA
ENDBRANCH  22  23
ENDBRANCH   6  22
BRANCH   1  29
HETATM   29  C2  UNL     1      -5.685   6.956  12.625  1.00  0.00    -0.027 C 
HETATM   30  C1  UNL     1      -5.494   7.572  11.491  1.00  0.00     0.007 C 
ENDBRANCH   1  29
TORSDOF 9
ENDMDL
