MODEL 1
REMARK VINA RESULT: -9.017264870      0.000      0.000
REMARK  14 active torsions:
REMARK  status: ('A' for Active; 'I' for Inactive)
REMARK    1  A    between atoms: C1_2  and  C2_4 
REMARK       I    between atoms: C2_4  and  N2_6 
REMARK    2  A    between atoms: N2_6  and  C3_8 
REMARK    3  A    between atoms: C4_9  and  C5_10 
REMARK    4  A    between atoms: C6_15  and  C7_16 
REMARK    5  A    between atoms: N4_17  and  N5_19 
REMARK    6  A    between atoms: C9_25  and  S1_26 
REMARK    7  A    between atoms: S1_26  and  C10_27 
REMARK    8  A    between atoms: C10_27  and  C11_28 
REMARK       I    between atoms: C11_28  and  N8_30 
REMARK    9  A    between atoms: C12_32  and  C13_33 
REMARK   10  A    between atoms: C15_37  and  N10_38 
REMARK   11  A    between atoms: N10_38  and  O6_39 
REMARK       I    between atoms: N10_38  and  C16_44 
REMARK   12  A    between atoms: O6_39  and  S2_40 
REMARK   13  A    between atoms: C16_44  and  C17_46 
REMARK   14  A    between atoms: N11_50  and  O13_51 
ROOT
HETATM    1  N5  UNL     1      -5.455 -22.861  -8.700  1.00  0.00    -0.227 N 
HETATM    2  C8  UNL     1      -6.536 -22.184  -9.169  1.00  0.00     0.225 A 
HETATM    3  N6  UNL     1      -6.374 -22.055 -10.492  1.00  0.00    -0.292 N 
ATOM      4  H6  UNL     1      -7.028 -21.589 -11.122  1.00  0.00     0.187 HD
HETATM    5  N7  UNL     1      -5.253 -22.615 -10.854  1.00  0.00    -0.277 N 
ATOM      6  H7  UNL     1      -4.891 -22.658 -11.807  1.00  0.00     0.189 HD
HETATM    7  C9  UNL     1      -4.659 -23.122  -9.778  1.00  0.00     0.182 A 
ENDROOT
BRANCH   7   8
HETATM    8  S1  UNL     1      -3.102 -23.979  -9.628  1.00  0.00    -0.081 SA
BRANCH   8   9
HETATM    9  C10 UNL     1      -3.540 -25.719  -9.223  1.00  0.00     0.185 C 
BRANCH   9  10
HETATM   10  C11 UNL     1      -2.718 -26.059  -8.033  1.00  0.00     0.231 C 
HETATM   11  O5  UNL     1      -2.945 -25.281  -7.023  1.00  0.00    -0.272 OA
HETATM   12  N8  UNL     1      -1.790 -27.047  -7.870  1.00  0.00    -0.336 N 
HETATM   13  C12 UNL     1      -0.555 -27.048  -7.907  1.00  0.00     0.104 C 
ATOM     14  H8  UNL     1      -2.195 -27.964  -7.680  1.00  0.00     0.168 HD
BRANCH  13  15
HETATM   15  C13 UNL     1       0.344 -25.940  -8.154  1.00  0.00    -0.002 A 
HETATM   16  C14 UNL     1       1.271 -25.733  -9.142  1.00  0.00     0.102 A 
HETATM   17  N9  UNL     1       1.889 -24.528  -9.005  1.00  0.00    -0.349 N 
HETATM   18  C15 UNL     1       1.347 -23.962  -7.920  1.00  0.00     0.139 A 
ATOM     19  H9  UNL     1       2.614 -24.137  -9.605  1.00  0.00     0.166 HD
HETATM   20  C18 UNL     1       0.395 -24.783  -7.358  1.00  0.00     0.065 A 
BRANCH  18  21
HETATM   21  N10 UNL     1       1.695 -22.676  -7.431  1.00  0.00    -0.143 N 
HETATM   22  C16 UNL     1       2.640 -21.878  -8.094  1.00  0.00     0.351 C 
HETATM   23  O10 UNL     1       2.972 -20.751  -7.544  1.00  0.00    -0.258 OA
BRANCH  21  24
HETATM   24  O6  UNL     1       1.081 -22.252  -6.308  1.00  0.00    -0.120 OA
BRANCH  24  25
HETATM   25  S2  UNL     1      -0.349 -21.429  -6.593  1.00  0.00     0.274 S 
HETATM   26  O7  UNL     1      -1.519 -22.194  -5.987  1.00  0.00    -0.571 OA
HETATM   27  O8  UNL     1      -0.345 -20.097  -5.852  1.00  0.00    -0.571 OA
HETATM   28  O9  UNL     1      -0.631 -21.209  -8.231  1.00  0.00    -0.571 OA
ENDBRANCH  24  25
ENDBRANCH  21  24
BRANCH  22  29
HETATM   29  C17 UNL     1       3.300 -22.173  -9.348  1.00  0.00     0.272 C 
HETATM   30  O11 UNL     1       4.459 -22.614  -9.414  1.00  0.00    -0.640 OA
HETATM   31  O12 UNL     1       2.662 -21.977 -10.593  1.00  0.00    -0.640 OA
ENDBRANCH  22  29
ENDBRANCH  18  21
ENDBRANCH  13  15
ENDBRANCH   9  10
ENDBRANCH   8   9
ENDBRANCH   7   8
BRANCH   1  32
HETATM   32  N4  UNL     1      -5.178 -23.220  -7.402  1.00  0.00    -0.299 N 
HETATM   33  C7  UNL     1      -4.883 -22.391  -6.493  1.00  0.00     0.158 C 
ATOM     34  H4  UNL     1      -5.213 -24.210  -7.158  1.00  0.00     0.186 HD
BRANCH  33  35
HETATM   35  C6  UNL     1      -4.775 -20.938  -6.613  1.00  0.00     0.154 A 
HETATM   36  N3  UNL     1      -3.787 -20.324  -7.274  1.00  0.00    -0.332 N 
HETATM   37  C4  UNL     1      -3.699 -18.952  -7.354  1.00  0.00     0.144 A 
ATOM     38  H3  UNL     1      -3.075 -20.891  -7.734  1.00  0.00     0.168 HD
HETATM   39  C3  UNL     1      -4.639 -18.163  -6.745  1.00  0.00     0.140 A 
HETATM   40  C19 UNL     1      -5.659 -18.798  -6.066  1.00  0.00     0.302 A 
HETATM   41  N11 UNL     1      -5.699 -20.138  -6.020  1.00  0.00    -0.167 N 
HETATM   42  O14 UNL     1      -6.534 -18.075  -5.504  1.00  0.00    -0.263 OA
BRANCH  37  43
HETATM   43  C5  UNL     1      -2.615 -18.340  -8.107  1.00  0.00     0.229 C 
HETATM   44  O3  UNL     1      -2.464 -18.631  -9.315  1.00  0.00    -0.643 OA
HETATM   45  O4  UNL     1      -1.728 -17.440  -7.555  1.00  0.00    -0.643 OA
ENDBRANCH  37  43
BRANCH  39  46
HETATM   46  N2  UNL     1      -4.552 -16.725  -6.769  1.00  0.00    -0.312 N 
HETATM   47  C2  UNL     1      -5.408 -15.941  -7.549  1.00  0.00     0.311 C 
HETATM   48  O2  UNL     1      -6.282 -16.496  -8.260  1.00  0.00    -0.262 OA
ATOM     49  H2  UNL     1      -3.843 -16.263  -6.198  1.00  0.00     0.169 HD
BRANCH  47  50
HETATM   50  C1  UNL     1      -5.309 -14.499  -7.554  1.00  0.00     0.322 C 
HETATM   51  N1  UNL     1      -5.716 -13.710  -8.682  1.00  0.00    -0.053 NA
HETATM   52  O1  UNL     1      -4.860 -13.843  -6.559  1.00  0.00    -0.266 OA
ENDBRANCH  47  50
ENDBRANCH  39  46
BRANCH  41  53
HETATM   53  O13 UNL     1      -6.719 -20.756  -5.342  1.00  0.00    -0.278 OA
ATOM     54  H13 UNL     1      -6.869 -20.484  -4.444  1.00  0.00     0.245 HD
ENDBRANCH  41  53
ENDBRANCH  33  35
ENDBRANCH   1  32
TORSDOF 14
ENDMDL
MODEL 2
REMARK VINA RESULT: -8.905667097      2.157      3.254
REMARK  14 active torsions:
REMARK  status: ('A' for Active; 'I' for Inactive)
REMARK    1  A    between atoms: C1_2  and  C2_4 
REMARK       I    between atoms: C2_4  and  N2_6 
REMARK    2  A    between atoms: N2_6  and  C3_8 
REMARK    3  A    between atoms: C4_9  and  C5_10 
REMARK    4  A    between atoms: C6_15  and  C7_16 
REMARK    5  A    between atoms: N4_17  and  N5_19 
REMARK    6  A    between atoms: C9_25  and  S1_26 
REMARK    7  A    between atoms: S1_26  and  C10_27 
REMARK    8  A    between atoms: C10_27  and  C11_28 
REMARK       I    between atoms: C11_28  and  N8_30 
REMARK    9  A    between atoms: C12_32  and  C13_33 
REMARK   10  A    between atoms: C15_37  and  N10_38 
REMARK   11  A    between atoms: N10_38  and  O6_39 
REMARK       I    between atoms: N10_38  and  C16_44 
REMARK   12  A    between atoms: O6_39  and  S2_40 
REMARK   13  A    between atoms: C16_44  and  C17_46 
REMARK   14  A    between atoms: N11_50  and  O13_51 
ROOT
HETATM    1  N5  UNL     1      -5.649 -23.569  -9.542  1.00  0.00    -0.227 N 
HETATM    2  C8  UNL     1      -6.626 -22.726  -9.965  1.00  0.00     0.225 A 
HETATM    3  N6  UNL     1      -6.281 -22.308 -11.190  1.00  0.00    -0.292 N 
ATOM      4  H6  UNL     1      -6.824 -21.664 -11.766  1.00  0.00     0.187 HD
HETATM    5  N7  UNL     1      -5.146 -22.851 -11.535  1.00  0.00    -0.277 N 
ATOM      6  H7  UNL     1      -4.661 -22.699 -12.420  1.00  0.00     0.189 HD
HETATM    7  C9  UNL     1      -4.726 -23.634 -10.546  1.00  0.00     0.182 A 
ENDROOT
BRANCH   7   8
HETATM    8  S1  UNL     1      -3.241 -24.614 -10.415  1.00  0.00    -0.081 SA
BRANCH   8   9
HETATM    9  C10 UNL     1      -3.309 -25.792 -11.827  1.00  0.00     0.185 C 
BRANCH   9  10
HETATM   10  C11 UNL     1      -2.496 -26.958 -11.396  1.00  0.00     0.231 C 
HETATM   11  O5  UNL     1      -3.151 -27.780 -10.639  1.00  0.00    -0.272 OA
HETATM   12  N8  UNL     1      -1.197 -27.268 -11.684  1.00  0.00    -0.336 N 
HETATM   13  C12 UNL     1      -0.146 -27.133 -11.050  1.00  0.00     0.104 C 
ATOM     14  H8  UNL     1      -1.071 -27.693 -12.603  1.00  0.00     0.168 HD
BRANCH  13  15
HETATM   15  C13 UNL     1       0.049 -26.570  -9.730  1.00  0.00    -0.002 A 
HETATM   16  C14 UNL     1      -0.048 -27.135  -8.485  1.00  0.00     0.102 A 
HETATM   17  N9  UNL     1       0.242 -26.237  -7.504  1.00  0.00    -0.349 N 
HETATM   18  C15 UNL     1       0.528 -25.091  -8.132  1.00  0.00     0.139 A 
ATOM     19  H9  UNL     1       0.242 -26.404  -6.498  1.00  0.00     0.166 HD
HETATM   20  C18 UNL     1       0.424 -25.237  -9.498  1.00  0.00     0.065 A 
BRANCH  18  21
HETATM   21  N10 UNL     1       0.909 -23.892  -7.474  1.00  0.00    -0.143 N 
HETATM   22  C16 UNL     1      -0.000 -23.182  -6.673  1.00  0.00     0.351 C 
HETATM   23  O10 UNL     1       0.391 -22.052  -6.172  1.00  0.00    -0.258 OA
BRANCH  21  24
HETATM   24  O6  UNL     1       2.176 -23.466  -7.646  1.00  0.00    -0.120 OA
BRANCH  24  25
HETATM   25  S2  UNL     1       2.327 -22.239  -8.775  1.00  0.00     0.274 S 
HETATM   26  O7  UNL     1       3.262 -22.675  -9.895  1.00  0.00    -0.571 OA
HETATM   27  O8  UNL     1       0.991 -21.997  -9.470  1.00  0.00    -0.571 OA
HETATM   28  O9  UNL     1       2.916 -20.826  -8.091  1.00  0.00    -0.571 OA
ENDBRANCH  24  25
ENDBRANCH  21  24
BRANCH  22  29
HETATM   29  C17 UNL     1      -1.351 -23.576  -6.334  1.00  0.00     0.272 C 
HETATM   30  O11 UNL     1      -1.993 -24.416  -6.986  1.00  0.00    -0.640 OA
HETATM   31  O12 UNL     1      -2.035 -23.027  -5.228  1.00  0.00    -0.640 OA
ENDBRANCH  22  29
ENDBRANCH  18  21
ENDBRANCH  13  15
ENDBRANCH   9  10
ENDBRANCH   8   9
ENDBRANCH   7   8
BRANCH   1  32
HETATM   32  N4  UNL     1      -5.566 -24.236  -8.343  1.00  0.00    -0.299 N 
HETATM   33  C7  UNL     1      -5.230 -23.684  -7.255  1.00  0.00     0.158 C 
ATOM     34  H4  UNL     1      -5.787 -25.232  -8.329  1.00  0.00     0.186 HD
BRANCH  33  35
HETATM   35  C6  UNL     1      -4.874 -22.283  -7.040  1.00  0.00     0.154 A 
HETATM   36  N3  UNL     1      -3.862 -21.674  -7.669  1.00  0.00    -0.332 N 
HETATM   37  C4  UNL     1      -3.536 -20.358  -7.432  1.00  0.00     0.144 A 
ATOM     38  H3  UNL     1      -3.314 -22.203  -8.347  1.00  0.00     0.168 HD
HETATM   39  C3  UNL     1      -4.252 -19.621  -6.526  1.00  0.00     0.140 A 
HETATM   40  C19 UNL     1      -5.297 -20.249  -5.880  1.00  0.00     0.302 A 
HETATM   41  N11 UNL     1      -5.575 -21.534  -6.148  1.00  0.00    -0.167 N 
HETATM   42  O14 UNL     1      -5.967 -19.573  -5.044  1.00  0.00    -0.263 OA
BRANCH  37  43
HETATM   43  C5  UNL     1      -2.441 -19.742  -8.164  1.00  0.00     0.229 C 
HETATM   44  O3  UNL     1      -2.689 -18.879  -9.035  1.00  0.00    -0.643 OA
HETATM   45  O4  UNL     1      -1.116 -20.062  -7.948  1.00  0.00    -0.643 OA
ENDBRANCH  37  43
BRANCH  39  46
HETATM   46  N2  UNL     1      -3.909 -18.255  -6.219  1.00  0.00    -0.312 N 
HETATM   47  C2  UNL     1      -2.970 -17.927  -5.237  1.00  0.00     0.311 C 
HETATM   48  O2  UNL     1      -2.403 -18.842  -4.590  1.00  0.00    -0.262 OA
ATOM     49  H2  UNL     1      -4.366 -17.503  -6.736  1.00  0.00     0.169 HD
BRANCH  47  50
HETATM   50  C1  UNL     1      -2.634 -16.551  -4.949  1.00  0.00     0.322 C 
HETATM   51  N1  UNL     1      -2.980 -15.925  -3.704  1.00  0.00    -0.053 NA
HETATM   52  O1  UNL     1      -2.011 -15.813  -5.779  1.00  0.00    -0.266 OA
ENDBRANCH  47  50
ENDBRANCH  39  46
BRANCH  41  53
HETATM   53  O13 UNL     1      -6.616 -22.146  -5.499  1.00  0.00    -0.278 OA
ATOM     54  H13 UNL     1      -6.831 -21.829  -4.630  1.00  0.00     0.245 HD
ENDBRANCH  41  53
ENDBRANCH  33  35
ENDBRANCH   1  32
TORSDOF 14
ENDMDL
MODEL 3
REMARK VINA RESULT: -8.847218996      2.270      3.154
REMARK  14 active torsions:
REMARK  status: ('A' for Active; 'I' for Inactive)
REMARK    1  A    between atoms: C1_2  and  C2_4 
REMARK       I    between atoms: C2_4  and  N2_6 
REMARK    2  A    between atoms: N2_6  and  C3_8 
REMARK    3  A    between atoms: C4_9  and  C5_10 
REMARK    4  A    between atoms: C6_15  and  C7_16 
REMARK    5  A    between atoms: N4_17  and  N5_19 
REMARK    6  A    between atoms: C9_25  and  S1_26 
REMARK    7  A    between atoms: S1_26  and  C10_27 
REMARK    8  A    between atoms: C10_27  and  C11_28 
REMARK       I    between atoms: C11_28  and  N8_30 
REMARK    9  A    between atoms: C12_32  and  C13_33 
REMARK   10  A    between atoms: C15_37  and  N10_38 
REMARK   11  A    between atoms: N10_38  and  O6_39 
REMARK       I    between atoms: N10_38  and  C16_44 
REMARK   12  A    between atoms: O6_39  and  S2_40 
REMARK   13  A    between atoms: C16_44  and  C17_46 
REMARK   14  A    between atoms: N11_50  and  O13_51 
ROOT
HETATM    1  N5  UNL     1      -4.906 -24.641  -8.910  1.00  0.00    -0.227 N 
HETATM    2  C8  UNL     1      -4.744 -25.093  -7.639  1.00  0.00     0.225 A 
HETATM    3  N6  UNL     1      -3.594 -25.778  -7.609  1.00  0.00    -0.292 N 
ATOM      4  H6  UNL     1      -3.205 -26.238  -6.786  1.00  0.00     0.187 HD
HETATM    5  N7  UNL     1      -3.046 -25.768  -8.793  1.00  0.00    -0.277 N 
ATOM      6  H7  UNL     1      -2.164 -26.216  -9.043  1.00  0.00     0.189 HD
HETATM    7  C9  UNL     1      -3.825 -25.078  -9.621  1.00  0.00     0.182 A 
ENDROOT
BRANCH   7   8
HETATM    8  S1  UNL     1      -3.627 -24.737 -11.360  1.00  0.00    -0.081 SA
BRANCH   8   9
HETATM    9  C10 UNL     1      -4.058 -26.307 -12.217  1.00  0.00     0.185 C 
BRANCH   9  10
HETATM   10  C11 UNL     1      -2.894 -27.202 -11.993  1.00  0.00     0.231 C 
HETATM   11  O5  UNL     1      -3.108 -28.090 -11.075  1.00  0.00    -0.272 OA
HETATM   12  N8  UNL     1      -1.673 -27.213 -12.606  1.00  0.00    -0.336 N 
HETATM   13  C12 UNL     1      -0.567 -26.776 -12.272  1.00  0.00     0.104 C 
ATOM     14  H8  UNL     1      -1.676 -27.671 -13.517  1.00  0.00     0.168 HD
BRANCH  13  15
HETATM   15  C13 UNL     1      -0.200 -26.073 -11.061  1.00  0.00    -0.002 A 
HETATM   16  C14 UNL     1       0.392 -26.514  -9.905  1.00  0.00     0.102 A 
HETATM   17  N9  UNL     1       0.576 -25.498  -9.018  1.00  0.00    -0.349 N 
HETATM   18  C15 UNL     1       0.099 -24.401  -9.616  1.00  0.00     0.139 A 
ATOM     19  H9  UNL     1       0.993 -25.561  -8.089  1.00  0.00     0.166 HD
HETATM   20  C18 UNL     1      -0.390 -24.694 -10.870  1.00  0.00     0.065 A 
BRANCH  18  21
HETATM   21  N10 UNL     1       0.118 -23.103  -9.039  1.00  0.00    -0.143 N 
HETATM   22  C16 UNL     1       1.241 -22.270  -9.162  1.00  0.00     0.351 C 
HETATM   23  O10 UNL     1       1.220 -21.134  -8.538  1.00  0.00    -0.258 OA
BRANCH  21  24
HETATM   24  O6  UNL     1      -0.985 -22.705  -8.373  1.00  0.00    -0.120 OA
BRANCH  24  25
HETATM   25  S2  UNL     1      -0.943 -23.047  -6.736  1.00  0.00     0.274 S 
HETATM   26  O7  UNL     1      -0.755 -21.762  -5.940  1.00  0.00    -0.571 OA
HETATM   27  O8  UNL     1      -2.295 -23.582  -6.276  1.00  0.00    -0.571 OA
HETATM   28  O9  UNL     1       0.291 -24.115  -6.348  1.00  0.00    -0.571 OA
ENDBRANCH  24  25
ENDBRANCH  21  24
BRANCH  22  29
HETATM   29  C17 UNL     1       2.443 -22.538  -9.921  1.00  0.00     0.272 C 
HETATM   30  O11 UNL     1       3.416 -23.150  -9.452  1.00  0.00    -0.640 OA
HETATM   31  O12 UNL     1       2.591 -22.118 -11.261  1.00  0.00    -0.640 OA
ENDBRANCH  22  29
ENDBRANCH  18  21
ENDBRANCH  13  15
ENDBRANCH   9  10
ENDBRANCH   8   9
ENDBRANCH   7   8
BRANCH   1  32
HETATM   32  N4  UNL     1      -5.944 -23.897  -9.419  1.00  0.00    -0.299 N 
HETATM   33  C7  UNL     1      -6.147 -22.684  -9.125  1.00  0.00     0.158 C 
ATOM     34  H4  UNL     1      -6.586 -24.349 -10.070  1.00  0.00     0.186 HD
BRANCH  33  35
HETATM   35  C6  UNL     1      -5.362 -21.843  -8.223  1.00  0.00     0.154 A 
HETATM   36  N3  UNL     1      -4.360 -21.057  -8.632  1.00  0.00    -0.332 N 
HETATM   37  C4  UNL     1      -3.625 -20.289  -7.757  1.00  0.00     0.144 A 
ATOM     38  H3  UNL     1      -4.134 -21.024  -9.626  1.00  0.00     0.168 HD
HETATM   39  C3  UNL     1      -3.903 -20.312  -6.416  1.00  0.00     0.140 A 
HETATM   40  C19 UNL     1      -4.938 -21.122  -5.995  1.00  0.00     0.302 A 
HETATM   41  N11 UNL     1      -5.625 -21.848  -6.889  1.00  0.00    -0.167 N 
HETATM   42  O14 UNL     1      -5.204 -21.145  -4.757  1.00  0.00    -0.263 OA
BRANCH  37  43
HETATM   43  C5  UNL     1      -2.562 -19.434  -8.264  1.00  0.00     0.229 C 
HETATM   44  O3  UNL     1      -2.785 -18.690  -9.244  1.00  0.00    -0.643 OA
HETATM   45  O4  UNL     1      -1.298 -19.396  -7.712  1.00  0.00    -0.643 OA
ENDBRANCH  37  43
BRANCH  39  46
HETATM   46  N2  UNL     1      -3.123 -19.558  -5.467  1.00  0.00    -0.312 N 
HETATM   47  C2  UNL     1      -3.501 -18.280  -5.044  1.00  0.00     0.311 C 
HETATM   48  O2  UNL     1      -4.547 -17.758  -5.502  1.00  0.00    -0.262 OA
ATOM     49  H2  UNL     1      -2.269 -19.970  -5.091  1.00  0.00     0.169 HD
BRANCH  47  50
HETATM   50  C1  UNL     1      -2.709 -17.542  -4.085  1.00  0.00     0.322 C 
HETATM   51  N1  UNL     1      -3.141 -16.283  -3.546  1.00  0.00    -0.053 NA
HETATM   52  O1  UNL     1      -1.585 -17.964  -3.661  1.00  0.00    -0.266 OA
ENDBRANCH  47  50
ENDBRANCH  39  46
BRANCH  41  53
HETATM   53  O13 UNL     1      -6.652 -22.648  -6.458  1.00  0.00    -0.278 OA
ATOM     54  H13 UNL     1      -7.453 -22.638  -6.969  1.00  0.00     0.245 HD
ENDBRANCH  41  53
ENDBRANCH  33  35
ENDBRANCH   1  32
TORSDOF 14
ENDMDL
MODEL 4
REMARK VINA RESULT: -8.758636325      2.003      3.260
REMARK  14 active torsions:
REMARK  status: ('A' for Active; 'I' for Inactive)
REMARK    1  A    between atoms: C1_2  and  C2_4 
REMARK       I    between atoms: C2_4  and  N2_6 
REMARK    2  A    between atoms: N2_6  and  C3_8 
REMARK    3  A    between atoms: C4_9  and  C5_10 
REMARK    4  A    between atoms: C6_15  and  C7_16 
REMARK    5  A    between atoms: N4_17  and  N5_19 
REMARK    6  A    between atoms: C9_25  and  S1_26 
REMARK    7  A    between atoms: S1_26  and  C10_27 
REMARK    8  A    between atoms: C10_27  and  C11_28 
REMARK       I    between atoms: C11_28  and  N8_30 
REMARK    9  A    between atoms: C12_32  and  C13_33 
REMARK   10  A    between atoms: C15_37  and  N10_38 
REMARK   11  A    between atoms: N10_38  and  O6_39 
REMARK       I    between atoms: N10_38  and  C16_44 
REMARK   12  A    between atoms: O6_39  and  S2_40 
REMARK   13  A    between atoms: C16_44  and  C17_46 
REMARK   14  A    between atoms: N11_50  and  O13_51 
ROOT
HETATM    1  N5  UNL     1      -4.822 -24.095  -8.576  1.00  0.00    -0.227 N 
HETATM    2  C8  UNL     1      -5.028 -24.320  -7.252  1.00  0.00     0.225 A 
HETATM    3  N6  UNL     1      -3.977 -25.018  -6.804  1.00  0.00    -0.292 N 
ATOM      4  H6  UNL     1      -3.848 -25.335  -5.843  1.00  0.00     0.187 HD
HETATM    5  N7  UNL     1      -3.141 -25.231  -7.783  1.00  0.00    -0.277 N 
ATOM      6  H7  UNL     1      -2.259 -25.738  -7.711  1.00  0.00     0.189 HD
HETATM    7  C9  UNL     1      -3.628 -24.677  -8.891  1.00  0.00     0.182 A 
ENDROOT
BRANCH   7   8
HETATM    8  S1  UNL     1      -2.962 -24.654 -10.545  1.00  0.00    -0.081 SA
BRANCH   8   9
HETATM    9  C10 UNL     1      -3.420 -26.278 -11.278  1.00  0.00     0.185 C 
BRANCH   9  10
HETATM   10  C11 UNL     1      -2.305 -27.193 -10.918  1.00  0.00     0.231 C 
HETATM   11  O5  UNL     1      -2.666 -28.134 -10.106  1.00  0.00    -0.272 OA
HETATM   12  N8  UNL     1      -1.000 -27.173 -11.318  1.00  0.00    -0.336 N 
HETATM   13  C12 UNL     1       0.034 -26.765 -10.778  1.00  0.00     0.104 C 
ATOM     14  H8  UNL     1      -0.848 -27.574 -12.244  1.00  0.00     0.168 HD
BRANCH  13  15
HETATM   15  C13 UNL     1       0.190 -26.140  -9.482  1.00  0.00    -0.002 A 
HETATM   16  C14 UNL     1      -0.009 -26.626  -8.215  1.00  0.00     0.102 A 
HETATM   17  N9  UNL     1       0.283 -25.693  -7.269  1.00  0.00    -0.349 N 
HETATM   18  C15 UNL     1       0.672 -24.603  -7.940  1.00  0.00     0.139 A 
ATOM     19  H9  UNL     1       0.217 -25.802  -6.257  1.00  0.00     0.166 HD
HETATM   20  C18 UNL     1       0.635 -24.820  -9.299  1.00  0.00     0.065 A 
BRANCH  18  21
HETATM   21  N10 UNL     1       1.091 -23.393  -7.325  1.00  0.00    -0.143 N 
HETATM   22  C16 UNL     1       0.175 -22.561  -6.661  1.00  0.00     0.351 C 
HETATM   23  O10 UNL     1       0.612 -21.431  -6.198  1.00  0.00    -0.258 OA
BRANCH  21  24
HETATM   24  O6  UNL     1       2.399 -23.078  -7.403  1.00  0.00    -0.120 OA
BRANCH  24  25
HETATM   25  S2  UNL     1       2.767 -22.028  -8.653  1.00  0.00     0.274 S 
HETATM   26  O7  UNL     1       3.410 -20.764  -8.098  1.00  0.00    -0.571 OA
HETATM   27  O8  UNL     1       3.838 -22.635  -9.552  1.00  0.00    -0.571 OA
HETATM   28  O9  UNL     1       1.406 -21.604  -9.538  1.00  0.00    -0.571 OA
ENDBRANCH  24  25
ENDBRANCH  21  24
BRANCH  22  29
HETATM   29  C17 UNL     1      -1.228 -22.826  -6.428  1.00  0.00     0.272 C 
HETATM   30  O11 UNL     1      -2.134 -22.302  -7.097  1.00  0.00    -0.640 OA
HETATM   31  O12 UNL     1      -1.665 -23.706  -5.414  1.00  0.00    -0.640 OA
ENDBRANCH  22  29
ENDBRANCH  18  21
ENDBRANCH  13  15
ENDBRANCH   9  10
ENDBRANCH   8   9
ENDBRANCH   7   8
BRANCH   1  32
HETATM   32  N4  UNL     1      -5.636 -23.426  -9.459  1.00  0.00    -0.299 N 
HETATM   33  C7  UNL     1      -5.828 -22.176  -9.427  1.00  0.00     0.158 C 
ATOM     34  H4  UNL     1      -6.113 -23.968 -10.180  1.00  0.00     0.186 HD
BRANCH  33  35
HETATM   35  C6  UNL     1      -5.254 -21.211  -8.491  1.00  0.00     0.154 A 
HETATM   36  N3  UNL     1      -4.116 -20.547  -8.721  1.00  0.00    -0.332 N 
HETATM   37  C4  UNL     1      -3.587 -19.657  -7.812  1.00  0.00     0.144 A 
ATOM     38  H3  UNL     1      -3.622 -20.704  -9.600  1.00  0.00     0.168 HD
HETATM   39  C3  UNL     1      -4.225 -19.425  -6.623  1.00  0.00     0.140 A 
HETATM   40  C19 UNL     1      -5.401 -20.109  -6.387  1.00  0.00     0.302 A 
HETATM   41  N11 UNL     1      -5.873 -20.963  -7.306  1.00  0.00    -0.167 N 
HETATM   42  O14 UNL     1      -5.998 -19.896  -5.291  1.00  0.00    -0.263 OA
BRANCH  37  43
HETATM   43  C5  UNL     1      -2.359 -18.946  -8.129  1.00  0.00     0.229 C 
HETATM   44  O3  UNL     1      -2.262 -18.336  -9.217  1.00  0.00    -0.643 OA
HETATM   45  O4  UNL     1      -1.273 -18.903  -7.279  1.00  0.00    -0.643 OA
ENDBRANCH  37  43
BRANCH  39  46
HETATM   46  N2  UNL     1      -3.677 -18.536  -5.629  1.00  0.00    -0.312 N 
HETATM   47  C2  UNL     1      -3.965 -17.168  -5.615  1.00  0.00     0.311 C 
HETATM   48  O2  UNL     1      -4.721 -16.685  -6.492  1.00  0.00    -0.262 OA
ATOM     49  H2  UNL     1      -3.058 -18.918  -4.913  1.00  0.00     0.169 HD
BRANCH  47  50
HETATM   50  C1  UNL     1      -3.411 -16.295  -4.605  1.00  0.00     0.322 C 
HETATM   51  N1  UNL     1      -2.686 -15.102  -4.942  1.00  0.00    -0.053 NA
HETATM   52  O1  UNL     1      -3.533 -16.529  -3.359  1.00  0.00    -0.266 OA
ENDBRANCH  47  50
ENDBRANCH  39  46
BRANCH  41  53
HETATM   53  O13 UNL     1      -7.043 -21.636  -7.060  1.00  0.00    -0.278 OA
ATOM     54  H13 UNL     1      -7.762 -21.134  -6.694  1.00  0.00     0.245 HD
ENDBRANCH  41  53
ENDBRANCH  33  35
ENDBRANCH   1  32
TORSDOF 14
ENDMDL
MODEL 5
REMARK VINA RESULT: -8.739181144      2.431      7.507
REMARK  14 active torsions:
REMARK  status: ('A' for Active; 'I' for Inactive)
REMARK    1  A    between atoms: C1_2  and  C2_4 
REMARK       I    between atoms: C2_4  and  N2_6 
REMARK    2  A    between atoms: N2_6  and  C3_8 
REMARK    3  A    between atoms: C4_9  and  C5_10 
REMARK    4  A    between atoms: C6_15  and  C7_16 
REMARK    5  A    between atoms: N4_17  and  N5_19 
REMARK    6  A    between atoms: C9_25  and  S1_26 
REMARK    7  A    between atoms: S1_26  and  C10_27 
REMARK    8  A    between atoms: C10_27  and  C11_28 
REMARK       I    between atoms: C11_28  and  N8_30 
REMARK    9  A    between atoms: C12_32  and  C13_33 
REMARK   10  A    between atoms: C15_37  and  N10_38 
REMARK   11  A    between atoms: N10_38  and  O6_39 
REMARK       I    between atoms: N10_38  and  C16_44 
REMARK   12  A    between atoms: O6_39  and  S2_40 
REMARK   13  A    between atoms: C16_44  and  C17_46 
REMARK   14  A    between atoms: N11_50  and  O13_51 
ROOT
HETATM    1  N5  UNL     1      -5.193 -24.105  -9.471  1.00  0.00    -0.227 N 
HETATM    2  C8  UNL     1      -4.701 -24.286 -10.725  1.00  0.00     0.225 A 
HETATM    3  N6  UNL     1      -4.763 -23.101 -11.346  1.00  0.00    -0.292 N 
ATOM      4  H6  UNL     1      -4.462 -22.923 -12.304  1.00  0.00     0.187 HD
HETATM    5  N7  UNL     1      -5.267 -22.208 -10.539  1.00  0.00    -0.277 N 
ATOM      6  H7  UNL     1      -5.423 -21.226 -10.764  1.00  0.00     0.189 HD
HETATM    7  C9  UNL     1      -5.545 -22.789  -9.375  1.00  0.00     0.182 A 
ENDROOT
BRANCH   7   8
HETATM    8  S1  UNL     1      -6.268 -22.101  -7.897  1.00  0.00    -0.081 SA
BRANCH   8   9
HETATM    9  C10 UNL     1      -8.084 -22.106  -8.195  1.00  0.00     0.185 C 
BRANCH   9  10
HETATM   10  C11 UNL     1      -8.395 -20.747  -8.709  1.00  0.00     0.231 C 
HETATM   11  O5  UNL     1      -8.023 -20.573  -9.936  1.00  0.00    -0.272 OA
HETATM   12  N8  UNL     1      -9.002 -19.697  -8.080  1.00  0.00    -0.336 N 
HETATM   13  C12 UNL     1      -8.559 -18.677  -7.541  1.00  0.00     0.104 C 
ATOM     14  H8  UNL     1     -10.018 -19.769  -8.050  1.00  0.00     0.168 HD
BRANCH  13  15
HETATM   15  C13 UNL     1      -7.181 -18.256  -7.397  1.00  0.00    -0.002 A 
HETATM   16  C14 UNL     1      -6.489 -17.221  -7.971  1.00  0.00     0.102 A 
HETATM   17  N9  UNL     1      -5.202 -17.176  -7.532  1.00  0.00    -0.349 N 
HETATM   18  C15 UNL     1      -5.074 -18.190  -6.669  1.00  0.00     0.139 A 
ATOM     19  H9  UNL     1      -4.482 -16.506  -7.804  1.00  0.00     0.166 HD
HETATM   20  C18 UNL     1      -6.256 -18.886  -6.548  1.00  0.00     0.065 A 
BRANCH  18  21
HETATM   21  N10 UNL     1      -3.883 -18.491  -5.958  1.00  0.00    -0.143 N 
HETATM   22  C16 UNL     1      -2.824 -19.179  -6.572  1.00  0.00     0.351 C 
HETATM   23  O10 UNL     1      -1.803 -19.494  -5.838  1.00  0.00    -0.258 OA
BRANCH  21  24
HETATM   24  O6  UNL     1      -3.808 -18.086  -4.674  1.00  0.00    -0.120 OA
BRANCH  24  25
HETATM   25  S2  UNL     1      -3.371 -16.481  -4.498  1.00  0.00     0.274 S 
HETATM   26  O7  UNL     1      -4.531 -15.578  -4.899  1.00  0.00    -0.571 OA
HETATM   27  O8  UNL     1      -3.132 -16.159  -3.027  1.00  0.00    -0.571 OA
HETATM   28  O9  UNL     1      -2.030 -16.089  -5.426  1.00  0.00    -0.571 OA
ENDBRANCH  24  25
ENDBRANCH  21  24
BRANCH  22  29
HETATM   29  C17 UNL     1      -2.740 -19.584  -7.959  1.00  0.00     0.272 C 
HETATM   30  O11 UNL     1      -2.809 -20.771  -8.321  1.00  0.00    -0.640 OA
HETATM   31  O12 UNL     1      -2.572 -18.649  -9.003  1.00  0.00    -0.640 OA
ENDBRANCH  22  29
ENDBRANCH  18  21
ENDBRANCH  13  15
ENDBRANCH   9  10
ENDBRANCH   8   9
ENDBRANCH   7   8
BRANCH   1  32
HETATM   32  N4  UNL     1      -5.335 -25.040  -8.473  1.00  0.00    -0.299 N 
HETATM   33  C7  UNL     1      -4.384 -25.423  -7.732  1.00  0.00     0.158 C 
ATOM     34  H4  UNL     1      -6.257 -25.448  -8.322  1.00  0.00     0.186 HD
BRANCH  33  35
HETATM   35  C6  UNL     1      -2.992 -24.979  -7.768  1.00  0.00     0.154 A 
HETATM   36  N3  UNL     1      -2.078 -25.480  -8.606  1.00  0.00    -0.332 N 
HETATM   37  C4  UNL     1      -0.768 -25.057  -8.604  1.00  0.00     0.144 A 
ATOM     38  H3  UNL     1      -2.363 -26.201  -9.271  1.00  0.00     0.168 HD
HETATM   39  C3  UNL     1      -0.356 -24.092  -7.724  1.00  0.00     0.140 A 
HETATM   40  C19 UNL     1      -1.299 -23.574  -6.861  1.00  0.00     0.302 A 
HETATM   41  N11 UNL     1      -2.563 -24.020  -6.905  1.00  0.00    -0.167 N 
HETATM   42  O14 UNL     1      -0.926 -22.678  -6.046  1.00  0.00    -0.263 OA
BRANCH  37  43
HETATM   43  C5  UNL     1       0.174 -25.622  -9.557  1.00  0.00     0.229 C 
HETATM   44  O3  UNL     1      -0.109 -25.626 -10.776  1.00  0.00    -0.643 OA
HETATM   45  O4  UNL     1       1.389 -26.162  -9.186  1.00  0.00    -0.643 OA
ENDBRANCH  37  43
BRANCH  39  46
HETATM   46  N2  UNL     1       1.018 -23.659  -7.663  1.00  0.00    -0.312 N 
HETATM   47  C2  UNL     1       1.478 -22.544  -8.371  1.00  0.00     0.311 C 
HETATM   48  O2  UNL     1       0.681 -21.893  -9.090  1.00  0.00    -0.262 OA
ATOM     49  H2  UNL     1       1.675 -24.183  -7.085  1.00  0.00     0.169 HD
BRANCH  47  50
HETATM   50  C1  UNL     1       2.858 -22.121  -8.290  1.00  0.00     0.322 C 
HETATM   51  N1  UNL     1       3.341 -21.293  -7.222  1.00  0.00    -0.053 NA
HETATM   52  O1  UNL     1       3.726 -22.458  -9.159  1.00  0.00    -0.266 OA
ENDBRANCH  47  50
ENDBRANCH  39  46
BRANCH  41  53
HETATM   53  O13 UNL     1      -3.491 -23.495  -6.041  1.00  0.00    -0.278 OA
ATOM     54  H13 UNL     1      -3.251 -23.452  -5.123  1.00  0.00     0.245 HD
ENDBRANCH  41  53
ENDBRANCH  33  35
ENDBRANCH   1  32
TORSDOF 14
ENDMDL
