MODEL 1
REMARK VINA RESULT: -4.660497838      0.000      0.000
REMARK  1 active torsions:
REMARK  status: ('A' for Active; 'I' for Inactive)
REMARK    1  A    between atoms: O1_1  and  C1_3 
ROOT
HETATM    1  C1  UNL     1     -35.424 -38.804  56.650  1.00  0.00     0.118 C 
HETATM    2  C2  UNL     1     -34.419 -39.204  57.744  1.00  0.00     0.036 C 
HETATM    3  C3  UNL     1     -35.225 -40.227  58.452  1.00  0.00    -0.008 C 
HETATM    4  C4  UNL     1     -34.516 -41.080  59.426  1.00  0.00     0.005 C 
HETATM    5  C5  UNL     1     -35.491 -42.152  59.886  1.00  0.00     0.000 C 
HETATM    6  C6  UNL     1     -36.876 -41.929  59.345  1.00  0.00     0.000 C 
HETATM    7  C7  UNL     1     -36.879 -41.868  57.825  1.00  0.00     0.005 C 
HETATM    8  C8  UNL     1     -35.686 -41.128  57.299  1.00  0.00    -0.008 C 
HETATM    9  C9  UNL     1     -35.991 -40.141  56.231  1.00  0.00     0.036 C 
ENDROOT
BRANCH   1  10
HETATM   10  O1  UNL     1     -36.465 -38.081  57.262  1.00  0.00    -0.396 OA
ATOM     11  H1  UNL     1     -37.231 -38.642  57.295  1.00  0.00     0.210 HD
ENDBRANCH   1  10
TORSDOF 1
ENDMDL
MODEL 2
REMARK VINA RESULT: -4.551636892      1.946      3.451
REMARK  1 active torsions:
REMARK  status: ('A' for Active; 'I' for Inactive)
REMARK    1  A    between atoms: O1_1  and  C1_3 
ROOT
HETATM    1  C1  UNL     1     -36.223 -41.649  59.062  1.00  0.00     0.118 C 
HETATM    2  C2  UNL     1     -35.506 -40.310  59.306  1.00  0.00     0.036 C 
HETATM    3  C3  UNL     1     -34.789 -40.179  58.015  1.00  0.00    -0.008 C 
HETATM    4  C4  UNL     1     -34.183 -38.867  57.718  1.00  0.00     0.005 C 
HETATM    5  C5  UNL     1     -33.667 -38.918  56.289  1.00  0.00     0.000 C 
HETATM    6  C6  UNL     1     -33.788 -40.293  55.690  1.00  0.00     0.000 C 
HETATM    7  C7  UNL     1     -35.226 -40.790  55.722  1.00  0.00     0.005 C 
HETATM    8  C8  UNL     1     -35.914 -40.409  56.999  1.00  0.00    -0.008 C 
HETATM    9  C9  UNL     1     -36.693 -41.504  57.633  1.00  0.00     0.036 C 
ENDROOT
BRANCH   1  10
HETATM   10  O1  UNL     1     -35.255 -42.670  59.083  1.00  0.00    -0.396 OA
ATOM     11  H1  UNL     1     -35.640 -43.446  58.693  1.00  0.00     0.210 HD
ENDBRANCH   1  10
TORSDOF 1
ENDMDL
MODEL 3
REMARK VINA RESULT: -4.546549213      1.459      2.439
REMARK  1 active torsions:
REMARK  status: ('A' for Active; 'I' for Inactive)
REMARK    1  A    between atoms: O1_1  and  C1_3 
ROOT
HETATM    1  C1  UNL     1     -35.405 -36.749  57.081  1.00  0.00     0.118 C 
HETATM    2  C2  UNL     1     -35.333 -37.706  58.283  1.00  0.00     0.036 C 
HETATM    3  C3  UNL     1     -35.782 -38.957  57.625  1.00  0.00    -0.008 C 
HETATM    4  C4  UNL     1     -35.590 -40.212  58.376  1.00  0.00     0.005 C 
HETATM    5  C5  UNL     1     -35.954 -41.358  57.446  1.00  0.00     0.000 C 
HETATM    6  C6  UNL     1     -36.527 -40.871  56.143  1.00  0.00     0.000 C 
HETATM    7  C7  UNL     1     -35.568 -39.931  55.429  1.00  0.00     0.005 C 
HETATM    8  C8  UNL     1     -34.874 -39.014  56.390  1.00  0.00    -0.008 C 
HETATM    9  C9  UNL     1     -34.829 -37.590  55.966  1.00  0.00     0.036 C 
ENDROOT
BRANCH   1  10
HETATM   10  O1  UNL     1     -36.762 -36.530  56.783  1.00  0.00    -0.396 OA
ATOM     11  H1  UNL     1     -37.256 -37.276  57.101  1.00  0.00     0.210 HD
ENDBRANCH   1  10
TORSDOF 1
ENDMDL
MODEL 4
REMARK VINA RESULT: -4.533068235      1.640      3.969
REMARK  1 active torsions:
REMARK  status: ('A' for Active; 'I' for Inactive)
REMARK    1  A    between atoms: O1_1  and  C1_3 
ROOT
HETATM    1  C1  UNL     1     -35.743 -41.178  57.343  1.00  0.00     0.118 C 
HETATM    2  C2  UNL     1     -35.134 -40.591  56.058  1.00  0.00     0.036 C 
HETATM    3  C3  UNL     1     -35.386 -39.152  56.304  1.00  0.00    -0.008 C 
HETATM    4  C4  UNL     1     -34.697 -38.192  55.420  1.00  0.00     0.005 C 
HETATM    5  C5  UNL     1     -34.962 -36.798  55.967  1.00  0.00     0.000 C 
HETATM    6  C6  UNL     1     -35.940 -36.814  57.110  1.00  0.00     0.000 C 
HETATM    7  C7  UNL     1     -35.462 -37.713  58.240  1.00  0.00     0.005 C 
HETATM    8  C8  UNL     1     -34.821 -38.964  57.718  1.00  0.00    -0.008 C 
HETATM    9  C9  UNL     1     -35.254 -40.213  58.399  1.00  0.00     0.036 C 
ENDROOT
BRANCH   1  10
HETATM   10  O1  UNL     1     -37.140 -41.039  57.263  1.00  0.00    -0.396 OA
ATOM     11  H1  UNL     1     -37.533 -41.842  57.585  1.00  0.00     0.210 HD
ENDBRANCH   1  10
TORSDOF 1
ENDMDL
MODEL 5
REMARK VINA RESULT: -4.453150755      2.604      3.793
REMARK  1 active torsions:
REMARK  status: ('A' for Active; 'I' for Inactive)
REMARK    1  A    between atoms: O1_1  and  C1_3 
ROOT
HETATM    1  C1  UNL     1     -33.889 -40.894  53.799  1.00  0.00     0.118 C 
HETATM    2  C2  UNL     1     -35.343 -40.833  54.297  1.00  0.00     0.036 C 
HETATM    3  C3  UNL     1     -35.097 -40.559  55.733  1.00  0.00    -0.008 C 
HETATM    4  C4  UNL     1     -36.259 -40.146  56.543  1.00  0.00     0.005 C 
HETATM    5  C5  UNL     1     -35.740 -39.754  57.917  1.00  0.00     0.000 C 
HETATM    6  C6  UNL     1     -34.273 -40.046  58.073  1.00  0.00     0.000 C 
HETATM    7  C7  UNL     1     -33.447 -39.343  57.007  1.00  0.00     0.005 C 
HETATM    8  C8  UNL     1     -34.130 -39.370  55.672  1.00  0.00    -0.008 C 
HETATM    9  C9  UNL     1     -33.250 -39.738  54.533  1.00  0.00     0.036 C 
ENDROOT
BRANCH   1  10
HETATM   10  O1  UNL     1     -33.310 -42.076  54.296  1.00  0.00    -0.396 OA
ATOM     11  H1  UNL     1     -33.989 -42.572  54.739  1.00  0.00     0.210 HD
ENDBRANCH   1  10
TORSDOF 1
ENDMDL
