MODEL 1
REMARK VINA RESULT: -9.331580462      0.000      0.000
REMARK  4 active torsions:
REMARK  status: ('A' for Active; 'I' for Inactive)
REMARK    1  A    between atoms: N2_7  and  N3_9 
REMARK    2  A    between atoms: C4_11  and  C5_12 
REMARK    3  A    between atoms: C6_13  and  O2_14 
REMARK    4  A    between atoms: C9_19  and  C10_20 
ROOT
HETATM    1  C5  UNL     1      31.202  -5.886  13.114  1.00  0.00     0.021 A 
HETATM    2  C6  UNL     1      31.512  -6.343  11.837  1.00  0.00     0.080 A 
HETATM    3  C7  UNL     1      32.664  -7.038  11.571  1.00  0.00     0.080 A 
HETATM    4  C8  UNL     1      33.516  -7.266  12.635  1.00  0.00     0.133 A 
HETATM    5  F1  UNL     1      34.655  -7.947  12.384  1.00  0.00    -0.205 F 
HETATM    6  C9  UNL     1      33.260  -6.833  13.929  1.00  0.00     0.054 A 
HETATM    7  C12 UNL     1      32.088  -6.146  14.127  1.00  0.00    -0.031 A 
HETATM    8  C13 UNL     1      31.728  -5.717  15.501  1.00  0.00     0.050 C 
ENDROOT
BRANCH   1   9
HETATM    9  C4  UNL     1      29.978  -5.127  13.374  1.00  0.00     0.122 C 
HETATM   10  N3  UNL     1      28.931  -5.737  13.580  1.00  0.00    -0.309 N 
ATOM     11  H3  UNL     1      29.216  -6.714  13.513  1.00  0.00     0.186 HD
BRANCH  10  12
HETATM   12  N2  UNL     1      27.666  -5.817  13.836  1.00  0.00    -0.278 N 
HETATM   13  C3  UNL     1      26.875  -5.012  14.461  1.00  0.00     0.192 A 
HETATM   14  O1  UNL     1      27.079  -3.875  15.036  1.00  0.00    -0.218 OA
HETATM   15  C14 UNL     1      25.509  -5.285  14.639  1.00  0.00     0.017 A 
HETATM   16  N1  UNL     1      25.991  -3.377  15.571  1.00  0.00    -0.263 N 
HETATM   17  C2  UNL     1      24.973  -4.242  15.338  1.00  0.00     0.039 A 
ATOM     18  H1  UNL     1      25.922  -2.492  16.074  1.00  0.00     0.194 HD
HETATM   19  C1  UNL     1      23.543  -4.110  15.765  1.00  0.00     0.071 C 
HETATM   20  C15 UNL     1      24.815  -6.509  14.131  1.00  0.00     0.055 C 
ATOM     21  H2  UNL     1      27.217  -6.662  13.482  1.00  0.00     0.189 HD
ENDBRANCH  10  12
ENDBRANCH   1   9
BRANCH   2  22
HETATM   22  O2  UNL     1      30.592  -6.062  10.842  1.00  0.00    -0.360 OA
ATOM     23  H2  UNL     1      30.497  -6.714  10.158  1.00  0.00     0.217 HD
ENDBRANCH   2  22
BRANCH   6  24
HETATM   24  C10 UNL     1      34.247  -7.166  14.945  1.00  0.00     0.197 C 
HETATM   25  F2  UNL     1      34.104  -8.403  15.576  1.00  0.00    -0.199 F 
HETATM   26  C11 UNL     1      35.247  -6.449  15.330  1.00  0.00     0.306 C 
HETATM   27  F3  UNL     1      35.546  -5.242  14.833  1.00  0.00    -0.170 F 
HETATM   28  F4  UNL     1      36.082  -6.909  16.306  1.00  0.00    -0.170 F 
ENDBRANCH   6  24
TORSDOF 4
ENDMDL
MODEL 2
REMARK VINA RESULT: -8.814723140      0.429      1.119
REMARK  4 active torsions:
REMARK  status: ('A' for Active; 'I' for Inactive)
REMARK    1  A    between atoms: N2_7  and  N3_9 
REMARK    2  A    between atoms: C4_11  and  C5_12 
REMARK    3  A    between atoms: C6_13  and  O2_14 
REMARK    4  A    between atoms: C9_19  and  C10_20 
ROOT
HETATM    1  C5  UNL     1      31.119  -5.766  12.908  1.00  0.00     0.021 A 
HETATM    2  C6  UNL     1      31.333  -6.358  11.667  1.00  0.00     0.080 A 
HETATM    3  C7  UNL     1      32.495  -7.021  11.366  1.00  0.00     0.080 A 
HETATM    4  C8  UNL     1      33.458  -7.075  12.355  1.00  0.00     0.133 A 
HETATM    5  F1  UNL     1      34.608  -7.723  12.069  1.00  0.00    -0.205 F 
HETATM    6  C9  UNL     1      33.301  -6.503  13.611  1.00  0.00     0.054 A 
HETATM    7  C12 UNL     1      32.114  -5.857  13.848  1.00  0.00    -0.031 A 
HETATM    8  C13 UNL     1      31.860  -5.283  15.192  1.00  0.00     0.050 C 
ENDROOT
BRANCH   1   9
HETATM    9  C4  UNL     1      29.882  -5.044  13.203  1.00  0.00     0.122 C 
HETATM   10  N3  UNL     1      28.874  -5.684  13.496  1.00  0.00    -0.309 N 
ATOM     11  H3  UNL     1      29.195  -6.651  13.456  1.00  0.00     0.186 HD
BRANCH  10  12
HETATM   12  N2  UNL     1      27.630  -5.801  13.826  1.00  0.00    -0.278 N 
HETATM   13  C3  UNL     1      26.829  -4.980  14.418  1.00  0.00     0.192 A 
HETATM   14  O1  UNL     1      27.000  -3.786  14.876  1.00  0.00    -0.218 OA
HETATM   15  C14 UNL     1      25.490  -5.302  14.695  1.00  0.00     0.017 A 
HETATM   16  N1  UNL     1      25.915  -3.293  15.421  1.00  0.00    -0.263 N 
HETATM   17  C2  UNL     1      24.935  -4.226  15.325  1.00  0.00     0.039 A 
ATOM     18  H1  UNL     1      25.824  -2.370  15.845  1.00  0.00     0.194 HD
HETATM   19  C1  UNL     1      23.522  -4.123  15.816  1.00  0.00     0.071 C 
HETATM   20  C15 UNL     1      24.837  -6.601  14.340  1.00  0.00     0.055 C 
ATOM     21  H2  UNL     1      27.208  -6.696  13.577  1.00  0.00     0.189 HD
ENDBRANCH  10  12
ENDBRANCH   1   9
BRANCH   2  22
HETATM   22  O2  UNL     1      30.307  -6.246  10.745  1.00  0.00    -0.360 OA
ATOM     23  H2  UNL     1      30.526  -5.841   9.915  1.00  0.00     0.217 HD
ENDBRANCH   2  22
BRANCH   6  24
HETATM   24  C10 UNL     1      34.400  -6.660  14.551  1.00  0.00     0.197 C 
HETATM   25  F2  UNL     1      35.350  -5.637  14.581  1.00  0.00    -0.199 F 
HETATM   26  C11 UNL     1      34.598  -7.636  15.369  1.00  0.00     0.306 C 
HETATM   27  F3  UNL     1      33.789  -8.697  15.487  1.00  0.00    -0.170 F 
HETATM   28  F4  UNL     1      35.690  -7.633  16.188  1.00  0.00    -0.170 F 
ENDBRANCH   6  24
TORSDOF 4
ENDMDL
MODEL 3
REMARK VINA RESULT: -8.771465802      1.565      2.822
REMARK  4 active torsions:
REMARK  status: ('A' for Active; 'I' for Inactive)
REMARK    1  A    between atoms: N2_7  and  N3_9 
REMARK    2  A    between atoms: C4_11  and  C5_12 
REMARK    3  A    between atoms: C6_13  and  O2_14 
REMARK    4  A    between atoms: C9_19  and  C10_20 
ROOT
HETATM    1  C5  UNL     1      31.833  -6.120  13.360  1.00  0.00     0.021 A 
HETATM    2  C6  UNL     1      32.028  -5.886  14.718  1.00  0.00     0.080 A 
HETATM    3  C7  UNL     1      33.120  -6.369  15.391  1.00  0.00     0.080 A 
HETATM    4  C8  UNL     1      34.029  -7.109  14.659  1.00  0.00     0.133 A 
HETATM    5  F1  UNL     1      35.108  -7.592  15.312  1.00  0.00    -0.205 F 
HETATM    6  C9  UNL     1      33.887  -7.375  13.303  1.00  0.00     0.054 A 
HETATM    7  C12 UNL     1      32.772  -6.861  12.689  1.00  0.00    -0.031 A 
HETATM    8  C13 UNL     1      32.599  -7.055  11.229  1.00  0.00     0.050 C 
ENDROOT
BRANCH   1   9
HETATM    9  C4  UNL     1      30.649  -5.615  12.663  1.00  0.00     0.122 C 
HETATM   10  N3  UNL     1      29.545  -5.756  13.185  1.00  0.00    -0.309 N 
ATOM     11  H3  UNL     1      29.762  -6.235  14.059  1.00  0.00     0.186 HD
BRANCH  10  12
HETATM   12  N2  UNL     1      28.260  -5.629  13.231  1.00  0.00    -0.278 N 
HETATM   13  C3  UNL     1      27.484  -5.184  14.161  1.00  0.00     0.192 A 
HETATM   14  O1  UNL     1      27.728  -4.727  15.342  1.00  0.00    -0.218 OA
HETATM   15  C14 UNL     1      26.088  -5.129  14.017  1.00  0.00     0.017 A 
HETATM   16  N1  UNL     1      26.640  -4.379  15.985  1.00  0.00    -0.263 N 
HETATM   17  C2  UNL     1      25.579  -4.618  15.176  1.00  0.00     0.039 A 
ATOM     18  H1  UNL     1      26.600  -3.994  16.929  1.00  0.00     0.194 HD
HETATM   19  C1  UNL     1      24.129  -4.390  15.476  1.00  0.00     0.071 C 
HETATM   20  C15 UNL     1      25.344  -5.562  12.793  1.00  0.00     0.055 C 
ATOM     21  H2  UNL     1      27.775  -5.934  12.386  1.00  0.00     0.189 HD
ENDBRANCH  10  12
ENDBRANCH   1   9
BRANCH   2  22
HETATM   22  O2  UNL     1      31.059  -5.135  15.359  1.00  0.00    -0.360 OA
ATOM     23  H2  UNL     1      30.374  -5.619  15.804  1.00  0.00     0.217 HD
ENDBRANCH   2  22
BRANCH   6  24
HETATM   24  C10 UNL     1      34.937  -8.155  12.668  1.00  0.00     0.197 C 
HETATM   25  F2  UNL     1      35.879  -7.446  11.920  1.00  0.00    -0.199 F 
HETATM   26  C11 UNL     1      35.106  -9.433  12.720  1.00  0.00     0.306 C 
HETATM   27  F3  UNL     1      34.309 -10.271  13.395  1.00  0.00    -0.170 F 
HETATM   28  F4  UNL     1      36.148 -10.013  12.058  1.00  0.00    -0.170 F 
ENDBRANCH   6  24
TORSDOF 4
ENDMDL
MODEL 4
REMARK VINA RESULT: -8.688515410      5.199      7.564
REMARK  4 active torsions:
REMARK  status: ('A' for Active; 'I' for Inactive)
REMARK    1  A    between atoms: N2_7  and  N3_9 
REMARK    2  A    between atoms: C4_11  and  C5_12 
REMARK    3  A    between atoms: C6_13  and  O2_14 
REMARK    4  A    between atoms: C9_19  and  C10_20 
ROOT
HETATM    1  C5  UNL     1      30.771  -5.873  10.245  1.00  0.00     0.021 A 
HETATM    2  C6  UNL     1      31.713  -6.893  10.347  1.00  0.00     0.080 A 
HETATM    3  C7  UNL     1      32.294  -7.231  11.542  1.00  0.00     0.080 A 
HETATM    4  C8  UNL     1      31.906  -6.508  12.654  1.00  0.00     0.133 A 
HETATM    5  F1  UNL     1      32.474  -6.831  13.835  1.00  0.00    -0.205 F 
HETATM    6  C9  UNL     1      30.973  -5.480  12.612  1.00  0.00     0.054 A 
HETATM    7  C12 UNL     1      30.427  -5.194  11.386  1.00  0.00    -0.031 A 
HETATM    8  C13 UNL     1      29.376  -4.151  11.290  1.00  0.00     0.050 C 
ENDROOT
BRANCH   1   9
HETATM    9  C4  UNL     1      30.178  -5.511   8.958  1.00  0.00     0.122 C 
HETATM   10  N3  UNL     1      30.917  -5.207   8.025  1.00  0.00    -0.309 N 
ATOM     11  H3  UNL     1      31.849  -5.297   8.430  1.00  0.00     0.186 HD
BRANCH  10  12
HETATM   12  N2  UNL     1      31.160  -4.835   6.811  1.00  0.00    -0.278 N 
HETATM   13  C3  UNL     1      31.579  -3.711   6.336  1.00  0.00     0.192 A 
HETATM   14  O1  UNL     1      31.889  -2.596   6.906  1.00  0.00    -0.218 OA
HETATM   15  C14 UNL     1      31.780  -3.501   4.962  1.00  0.00     0.017 A 
HETATM   16  N1  UNL     1      32.272  -1.679   6.050  1.00  0.00    -0.263 N 
HETATM   17  C2  UNL     1      32.217  -2.217   4.806  1.00  0.00     0.039 A 
ATOM     18  H1  UNL     1      32.561  -0.729   6.280  1.00  0.00     0.194 HD
HETATM   19  C1  UNL     1      32.550  -1.551   3.506  1.00  0.00     0.071 C 
HETATM   20  C15 UNL     1      31.546  -4.531   3.903  1.00  0.00     0.055 C 
ATOM     21  H2  UNL     1      30.990  -5.553   6.107  1.00  0.00     0.189 HD
ENDBRANCH  10  12
ENDBRANCH   1   9
BRANCH   2  22
HETATM   22  O2  UNL     1      32.033  -7.555   9.175  1.00  0.00    -0.360 OA
ATOM     23  H2  UNL     1      32.755  -8.170   9.221  1.00  0.00     0.217 HD
ENDBRANCH   2  22
BRANCH   6  24
HETATM   24  C10 UNL     1      30.656  -4.823  13.871  1.00  0.00     0.197 C 
HETATM   25  F2  UNL     1      31.244  -3.576  14.093  1.00  0.00    -0.199 F 
HETATM   26  C11 UNL     1      29.888  -5.258  14.810  1.00  0.00     0.306 C 
HETATM   27  F3  UNL     1      29.234  -6.426  14.769  1.00  0.00    -0.170 F 
HETATM   28  F4  UNL     1      29.699  -4.516  15.940  1.00  0.00    -0.170 F 
ENDBRANCH   6  24
TORSDOF 4
ENDMDL
MODEL 5
REMARK VINA RESULT: -8.654000694      3.697      6.371
REMARK  4 active torsions:
REMARK  status: ('A' for Active; 'I' for Inactive)
REMARK    1  A    between atoms: N2_7  and  N3_9 
REMARK    2  A    between atoms: C4_11  and  C5_12 
REMARK    3  A    between atoms: C6_13  and  O2_14 
REMARK    4  A    between atoms: C9_19  and  C10_20 
ROOT
HETATM    1  C5  UNL     1      31.407  -6.378  12.344  1.00  0.00     0.021 A 
HETATM    2  C6  UNL     1      30.492  -5.664  13.113  1.00  0.00     0.080 A 
HETATM    3  C7  UNL     1      30.692  -5.424  14.448  1.00  0.00     0.080 A 
HETATM    4  C8  UNL     1      31.851  -5.928  15.007  1.00  0.00     0.133 A 
HETATM    5  F1  UNL     1      32.058  -5.701  16.322  1.00  0.00    -0.205 F 
HETATM    6  C9  UNL     1      32.798  -6.649  14.291  1.00  0.00     0.054 A 
HETATM    7  C12 UNL     1      32.538  -6.851  12.958  1.00  0.00    -0.031 A 
HETATM    8  C13 UNL     1      33.544  -7.555  12.126  1.00  0.00     0.050 C 
ENDROOT
BRANCH   1   9
HETATM    9  C4  UNL     1      31.165  -6.643  10.926  1.00  0.00     0.122 C 
HETATM   10  N3  UNL     1      31.187  -5.705  10.132  1.00  0.00    -0.309 N 
ATOM     11  H3  UNL     1      31.393  -4.903  10.729  1.00  0.00     0.186 HD
BRANCH  10  12
HETATM   12  N2  UNL     1      31.093  -5.179   8.955  1.00  0.00    -0.278 N 
HETATM   13  C3  UNL     1      31.336  -5.668   7.786  1.00  0.00     0.192 A 
HETATM   14  O1  UNL     1      31.753  -6.828   7.406  1.00  0.00    -0.218 OA
HETATM   15  C14 UNL     1      31.171  -4.922   6.608  1.00  0.00     0.017 A 
HETATM   16  N1  UNL     1      31.878  -6.919   6.104  1.00  0.00    -0.263 N 
HETATM   17  C2  UNL     1      31.517  -5.729   5.563  1.00  0.00     0.039 A 
ATOM     18  H1  UNL     1      32.193  -7.741   5.588  1.00  0.00     0.194 HD
HETATM   19  C1  UNL     1      31.505  -5.348   4.113  1.00  0.00     0.071 C 
HETATM   20  C15 UNL     1      30.697  -3.503   6.561  1.00  0.00     0.055 C 
ATOM     21  H2  UNL     1      30.770  -4.211   8.950  1.00  0.00     0.189 HD
ENDBRANCH  10  12
ENDBRANCH   1   9
BRANCH   2  22
HETATM   22  O2  UNL     1      29.364  -5.203  12.458  1.00  0.00    -0.360 OA
ATOM     23  H2  UNL     1      29.511  -4.636  11.711  1.00  0.00     0.217 HD
ENDBRANCH   2  22
BRANCH   6  24
HETATM   24  C10 UNL     1      33.975  -7.099  15.017  1.00  0.00     0.197 C 
HETATM   25  F2  UNL     1      33.945  -8.406  15.509  1.00  0.00    -0.199 F 
HETATM   26  C11 UNL     1      35.051  -6.431  15.258  1.00  0.00     0.306 C 
HETATM   27  F3  UNL     1      35.262  -5.171  14.858  1.00  0.00    -0.170 F 
HETATM   28  F4  UNL     1      36.069  -7.004  15.964  1.00  0.00    -0.170 F 
ENDBRANCH   6  24
TORSDOF 4
ENDMDL
