MODEL 1
REMARK VINA RESULT: -8.189798508      0.000      0.000
REMARK  4 active torsions:
REMARK  status: ('A' for Active; 'I' for Inactive)
REMARK    1  A    between atoms: N1_2  and  C1_4 
REMARK    2  A    between atoms: C2_9  and  S1_10 
REMARK    3  A    between atoms: S1_10  and  C3_11 
REMARK    4  A    between atoms: C3_11  and  C4_12 
ROOT
HETATM    1  S1  UNL     1      30.095  -5.543  15.463  1.00  0.00    -0.099 SA
ENDROOT
BRANCH   1   2
HETATM    2  C2  UNL     1      30.005  -3.762  15.648  1.00  0.00     0.130 A 
HETATM    3  N3  UNL     1      29.757  -3.063  16.769  1.00  0.00    -0.286 N 
HETATM    4  N2  UNL     1      29.786  -1.808  16.749  1.00  0.00    -0.278 N 
ATOM      5  H3  UNL     1      29.544  -3.554  17.638  1.00  0.00     0.188 HD
HETATM    6  C1  UNL     1      30.058  -1.168  15.599  1.00  0.00     0.176 A 
ATOM      7  H2  UNL     1      29.605  -1.277  17.602  1.00  0.00     0.189 HD
HETATM    8  S2  UNL     1      30.282  -2.474  14.527  1.00  0.00    -0.025 SA
BRANCH   6   9
HETATM    9  N1  UNL     1      30.136   0.124  15.330  1.00  0.00    -0.277 N 
HETATM   10 CL1  UNL     1      31.574   0.674  14.578  1.00  0.00     0.013 Cl
ATOM     11  H1  UNL     1      29.375   0.764  15.559  1.00  0.00     0.182 HD
ENDBRANCH   6   9
ENDBRANCH   1   2
BRANCH   1  12
HETATM   12  C3  UNL     1      31.871  -5.962  15.411  1.00  0.00     0.121 C 
BRANCH  12  13
HETATM   13  C4  UNL     1      32.405  -6.315  14.107  1.00  0.00    -0.025 A 
HETATM   14  C5  UNL     1      31.641  -6.154  12.968  1.00  0.00     0.035 A 
HETATM   15  C6  UNL     1      31.986  -6.671  11.731  1.00  0.00     0.056 A 
HETATM   16 CL2  UNL     1      30.901  -6.449  10.387  1.00  0.00    -0.083 Cl
HETATM   17  C7  UNL     1      33.134  -7.373  11.626  1.00  0.00     0.057 A 
HETATM   18 CL3  UNL     1      33.569  -8.037  10.041  1.00  0.00    -0.082 Cl
HETATM   19  C8  UNL     1      33.932  -7.562  12.717  1.00  0.00     0.050 A 
HETATM   20  C9  UNL     1      33.584  -7.042  13.965  1.00  0.00     0.042 A 
HETATM   21 CL4  UNL     1      34.600  -7.252  15.355  1.00  0.00    -0.084 Cl
ENDBRANCH  12  13
ENDBRANCH   1  12
TORSDOF 4
ENDMDL
MODEL 2
REMARK VINA RESULT: -7.996059079      1.562      1.867
REMARK  4 active torsions:
REMARK  status: ('A' for Active; 'I' for Inactive)
REMARK    1  A    between atoms: N1_2  and  C1_4 
REMARK    2  A    between atoms: C2_9  and  S1_10 
REMARK    3  A    between atoms: S1_10  and  C3_11 
REMARK    4  A    between atoms: C3_11  and  C4_12 
ROOT
HETATM    1  S1  UNL     1      29.090  -3.974  13.073  1.00  0.00    -0.099 SA
ENDROOT
BRANCH   1   2
HETATM    2  C2  UNL     1      29.473  -2.903  14.459  1.00  0.00     0.130 A 
HETATM    3  N3  UNL     1      29.299  -3.156  15.767  1.00  0.00    -0.286 N 
HETATM    4  N2  UNL     1      29.675  -2.322  16.627  1.00  0.00    -0.278 N 
ATOM      5  H3  UNL     1      28.859  -4.029  16.062  1.00  0.00     0.188 HD
HETATM    6  C1  UNL     1      30.244  -1.170  16.231  1.00  0.00     0.176 A 
ATOM      7  H2  UNL     1      29.549  -2.517  17.621  1.00  0.00     0.189 HD
HETATM    8  S2  UNL     1      30.221  -1.346  14.536  1.00  0.00    -0.025 SA
BRANCH   6   9
HETATM    9  N1  UNL     1      30.705  -0.151  16.935  1.00  0.00    -0.277 N 
HETATM   10 CL1  UNL     1      32.332   0.309  16.658  1.00  0.00     0.013 Cl
ATOM     11  H1  UNL     1      30.119   0.340  17.611  1.00  0.00     0.182 HD
ENDBRANCH   6   9
ENDBRANCH   1   2
BRANCH   1  12
HETATM   12  C3  UNL     1      29.618  -5.652  13.563  1.00  0.00     0.121 C 
BRANCH  12  13
HETATM   13  C4  UNL     1      30.963  -6.036  13.171  1.00  0.00    -0.025 A 
HETATM   14  C5  UNL     1      31.233  -6.428  11.876  1.00  0.00     0.035 A 
HETATM   15  C6  UNL     1      32.423  -7.019  11.483  1.00  0.00     0.056 A 
HETATM   16 CL2  UNL     1      32.611  -7.524   9.826  1.00  0.00    -0.083 Cl
HETATM   17  C7  UNL     1      33.375  -7.226  12.415  1.00  0.00     0.057 A 
HETATM   18 CL3  UNL     1      34.894  -7.987  11.908  1.00  0.00    -0.082 Cl
HETATM   19  C8  UNL     1      33.167  -6.856  13.712  1.00  0.00     0.050 A 
HETATM   20  C9  UNL     1      31.967  -6.261  14.110  1.00  0.00     0.042 A 
HETATM   21 CL4  UNL     1      31.697  -5.762  15.748  1.00  0.00    -0.084 Cl
ENDBRANCH  12  13
ENDBRANCH   1  12
TORSDOF 4
ENDMDL
MODEL 3
REMARK VINA RESULT: -7.915468004      1.213      2.700
REMARK  4 active torsions:
REMARK  status: ('A' for Active; 'I' for Inactive)
REMARK    1  A    between atoms: N1_2  and  C1_4 
REMARK    2  A    between atoms: C2_9  and  S1_10 
REMARK    3  A    between atoms: S1_10  and  C3_11 
REMARK    4  A    between atoms: C3_11  and  C4_12 
ROOT
HETATM    1  S1  UNL     1      29.995  -4.264  15.180  1.00  0.00    -0.099 SA
ENDROOT
BRANCH   1   2
HETATM    2  C2  UNL     1      30.153  -2.497  15.444  1.00  0.00     0.130 A 
HETATM    3  N3  UNL     1      30.073  -1.828  16.606  1.00  0.00    -0.286 N 
HETATM    4  N2  UNL     1      30.267  -0.588  16.636  1.00  0.00    -0.278 N 
ATOM      5  H3  UNL     1      29.853  -2.330  17.467  1.00  0.00     0.188 HD
HETATM    6  C1  UNL     1      30.546   0.068  15.496  1.00  0.00     0.176 A 
ATOM      7  H2  UNL     1      30.212  -0.080  17.519  1.00  0.00     0.189 HD
HETATM    8  S2  UNL     1      30.525  -1.202  14.359  1.00  0.00    -0.025 SA
BRANCH   6   9
HETATM    9  N1  UNL     1      30.776   1.351  15.275  1.00  0.00    -0.277 N 
HETATM   10 CL1  UNL     1      32.291   1.758  14.585  1.00  0.00     0.013 Cl
ATOM     11  H1  UNL     1      30.085   2.065  15.503  1.00  0.00     0.182 HD
ENDBRANCH   6   9
ENDBRANCH   1   2
BRANCH   1  12
HETATM   12  C3  UNL     1      30.263  -4.540  13.396  1.00  0.00     0.121 C 
BRANCH  12  13
HETATM   13  C4  UNL     1      31.104  -5.672  13.046  1.00  0.00    -0.025 A 
HETATM   14  C5  UNL     1      32.035  -6.159  13.941  1.00  0.00     0.035 A 
HETATM   15  C6  UNL     1      33.019  -7.075  13.606  1.00  0.00     0.056 A 
HETATM   16 CL2  UNL     1      34.172  -7.561  14.818  1.00  0.00    -0.083 Cl
HETATM   17  C7  UNL     1      33.075  -7.519  12.334  1.00  0.00     0.057 A 
HETATM   18 CL3  UNL     1      34.340  -8.688  11.909  1.00  0.00    -0.082 Cl
HETATM   19  C8  UNL     1      32.180  -7.076  11.405  1.00  0.00     0.050 A 
HETATM   20  C9  UNL     1      31.188  -6.151  11.741  1.00  0.00     0.042 A 
HETATM   21 CL4  UNL     1      30.027  -5.598  10.578  1.00  0.00    -0.084 Cl
ENDBRANCH  12  13
ENDBRANCH   1  12
TORSDOF 4
ENDMDL
MODEL 4
REMARK VINA RESULT: -7.906673868      1.372      2.745
REMARK  4 active torsions:
REMARK  status: ('A' for Active; 'I' for Inactive)
REMARK    1  A    between atoms: N1_2  and  C1_4 
REMARK    2  A    between atoms: C2_9  and  S1_10 
REMARK    3  A    between atoms: S1_10  and  C3_11 
REMARK    4  A    between atoms: C3_11  and  C4_12 
ROOT
HETATM    1  S1  UNL     1      30.528  -4.594  14.987  1.00  0.00    -0.099 SA
ENDROOT
BRANCH   1   2
HETATM    2  C2  UNL     1      30.400  -2.848  15.373  1.00  0.00     0.130 A 
HETATM    3  N3  UNL     1      30.166  -2.285  16.571  1.00  0.00    -0.286 N 
HETATM    4  N2  UNL     1      30.165  -1.035  16.691  1.00  0.00    -0.278 N 
ATOM      5  H3  UNL     1      29.989  -2.875  17.384  1.00  0.00     0.188 HD
HETATM    6  C1  UNL     1      30.389  -0.263  15.613  1.00  0.00     0.176 A 
ATOM      7  H2  UNL     1      29.994  -0.607  17.602  1.00  0.00     0.189 HD
HETATM    8  S2  UNL     1      30.614  -1.435  14.397  1.00  0.00    -0.025 SA
BRANCH   6   9
HETATM    9  N1  UNL     1      30.428   1.052  15.489  1.00  0.00    -0.277 N 
HETATM   10 CL1  UNL     1      31.844   1.723  14.796  1.00  0.00     0.013 Cl
ATOM     11  H1  UNL     1      29.651   1.641  15.791  1.00  0.00     0.182 HD
ENDBRANCH   6   9
ENDBRANCH   1   2
BRANCH   1  12
HETATM   12  C3  UNL     1      30.005  -4.772  13.247  1.00  0.00     0.121 C 
BRANCH  12  13
HETATM   13  C4  UNL     1      30.737  -5.748  12.459  1.00  0.00    -0.025 A 
HETATM   14  C5  UNL     1      31.821  -6.414  12.995  1.00  0.00     0.035 A 
HETATM   15  C6  UNL     1      32.700  -7.180  12.247  1.00  0.00     0.056 A 
HETATM   16 CL2  UNL     1      34.065  -7.918  13.039  1.00  0.00    -0.083 Cl
HETATM   17  C7  UNL     1      32.489  -7.286  10.919  1.00  0.00     0.057 A 
HETATM   18 CL3  UNL     1      33.620  -8.264   9.966  1.00  0.00    -0.082 Cl
HETATM   19  C8  UNL     1      31.432  -6.653  10.333  1.00  0.00     0.050 A 
HETATM   20  C9  UNL     1      30.546  -5.879  11.085  1.00  0.00     0.042 A 
HETATM   21 CL4  UNL     1      29.183  -5.089  10.360  1.00  0.00    -0.084 Cl
ENDBRANCH  12  13
ENDBRANCH   1  12
TORSDOF 4
ENDMDL
MODEL 5
REMARK VINA RESULT: -7.886973206      1.723      2.396
REMARK  4 active torsions:
REMARK  status: ('A' for Active; 'I' for Inactive)
REMARK    1  A    between atoms: N1_2  and  C1_4 
REMARK    2  A    between atoms: C2_9  and  S1_10 
REMARK    3  A    between atoms: S1_10  and  C3_11 
REMARK    4  A    between atoms: C3_11  and  C4_12 
ROOT
HETATM    1  S1  UNL     1      28.255  -3.374  14.593  1.00  0.00    -0.099 SA
ENDROOT
BRANCH   1   2
HETATM    2  C2  UNL     1      29.338  -2.104  15.248  1.00  0.00     0.130 A 
HETATM    3  N3  UNL     1      29.442  -1.687  16.521  1.00  0.00    -0.286 N 
HETATM    4  N2  UNL     1      30.297  -0.823  16.835  1.00  0.00    -0.278 N 
ATOM      5  H3  UNL     1      28.824  -2.075  17.235  1.00  0.00     0.188 HD
HETATM    6  C1  UNL     1      31.102  -0.310  15.887  1.00  0.00     0.176 A 
ATOM      7  H2  UNL     1      30.381  -0.511  17.803  1.00  0.00     0.189 HD
HETATM    8  S2  UNL     1      30.570  -1.146  14.501  1.00  0.00    -0.025 SA
BRANCH   6   9
HETATM    9  N1  UNL     1      32.055   0.602  15.969  1.00  0.00    -0.277 N 
HETATM   10 CL1  UNL     1      32.339   1.552  14.571  1.00  0.00     0.013 Cl
ATOM     11  H1  UNL     1      32.597   0.733  16.823  1.00  0.00     0.182 HD
ENDBRANCH   6   9
ENDBRANCH   1   2
BRANCH   1  12
HETATM   12  C3  UNL     1      28.902  -4.966  15.210  1.00  0.00     0.121 C 
BRANCH  12  13
HETATM   13  C4  UNL     1      30.222  -5.344  14.736  1.00  0.00    -0.025 A 
HETATM   14  C5  UNL     1      30.417  -5.711  13.419  1.00  0.00     0.035 A 
HETATM   15  C6  UNL     1      31.581  -6.296  12.948  1.00  0.00     0.056 A 
HETATM   16 CL2  UNL     1      31.674  -6.769  11.274  1.00  0.00    -0.083 Cl
HETATM   17  C7  UNL     1      32.584  -6.522  13.821  1.00  0.00     0.057 A 
HETATM   18 CL3  UNL     1      34.070  -7.275  13.214  1.00  0.00    -0.082 Cl
HETATM   19  C8  UNL     1      32.451  -6.177  15.134  1.00  0.00     0.050 A 
HETATM   20  C9  UNL     1      31.277  -5.589  15.611  1.00  0.00     0.042 A 
HETATM   21 CL4  UNL     1      31.102  -5.121  17.272  1.00  0.00    -0.084 Cl
ENDBRANCH  12  13
ENDBRANCH   1  12
TORSDOF 4
ENDMDL
