MODEL 1
REMARK VINA RESULT: -5.007506513      0.000      0.000
REMARK  2 active torsions:
REMARK  status: ('A' for Active; 'I' for Inactive)
REMARK    1  A    between atoms: C2_2  and  S1_4 
REMARK    2  A    between atoms: S1_4  and  C3_5 
ROOT
HETATM    1  C3  UNL     1      29.465  -3.437  15.539  1.00  0.00     0.127 C 
HETATM    2  C4  UNL     1      28.858  -3.223  16.884  1.00  0.00     0.065 C 
HETATM    3  N1  UNL     1      29.235  -3.720  18.013  1.00  0.00    -0.398 N 
ATOM      4  H11 UNL     1      28.819  -3.573  18.933  1.00  0.00     0.156 HD
ATOM      5  H12 UNL     1      30.023  -4.349  18.166  1.00  0.00     0.156 HD
HETATM    6  C5  UNL     1      27.731  -2.323  16.665  1.00  0.00     0.173 C 
HETATM    7  O2  UNL     1      26.933  -1.885  17.527  1.00  0.00    -0.291 OA
HETATM    8  C6  UNL     1      27.667  -1.991  15.218  1.00  0.00     0.107 C 
HETATM    9  C7  UNL     1      28.288  -3.259  14.626  1.00  0.00     0.110 C 
HETATM   10 CL1  UNL     1      27.122  -4.555  14.867  1.00  0.00    -0.123 Cl
ENDROOT
BRANCH   1  11
HETATM   11  S1  UNL     1      30.136  -5.108  15.491  1.00  0.00    -0.080 SA
BRANCH  11  12
HETATM   12  C2  UNL     1      31.818  -5.182  16.044  1.00  0.00     0.182 C 
HETATM   13  C1  UNL     1      32.859  -5.706  15.146  1.00  0.00     0.104 C 
HETATM   14  O1  UNL     1      32.101  -4.805  17.147  1.00  0.00    -0.286 OA
ENDBRANCH  11  12
ENDBRANCH   1  11
TORSDOF 2
ENDMDL
MODEL 2
REMARK VINA RESULT: -4.943770229      2.862      4.977
REMARK  2 active torsions:
REMARK  status: ('A' for Active; 'I' for Inactive)
REMARK    1  A    between atoms: C2_2  and  S1_4 
REMARK    2  A    between atoms: S1_4  and  C3_5 
ROOT
HETATM    1  C3  UNL     1      27.200  -3.534  16.249  1.00  0.00     0.127 C 
HETATM    2  C4  UNL     1      28.343  -2.702  16.724  1.00  0.00     0.065 C 
HETATM    3  N1  UNL     1      28.324  -1.753  17.597  1.00  0.00    -0.398 N 
ATOM      4  H11 UNL     1      29.106  -1.184  17.923  1.00  0.00     0.156 HD
ATOM      5  H12 UNL     1      27.509  -1.415  18.109  1.00  0.00     0.156 HD
HETATM    6  C5  UNL     1      29.509  -3.186  15.993  1.00  0.00     0.173 C 
HETATM    7  O2  UNL     1      30.685  -2.761  16.079  1.00  0.00    -0.291 OA
HETATM    8  C6  UNL     1      29.080  -4.295  15.103  1.00  0.00     0.107 C 
HETATM    9  C7  UNL     1      27.625  -3.890  14.855  1.00  0.00     0.110 C 
HETATM   10 CL1  UNL     1      27.664  -2.453  13.839  1.00  0.00    -0.123 Cl
ENDROOT
BRANCH   1  11
HETATM   11  S1  UNL     1      25.717  -2.512  16.285  1.00  0.00    -0.080 SA
BRANCH  11  12
HETATM   12  C2  UNL     1      24.319  -3.318  15.554  1.00  0.00     0.182 C 
HETATM   13  C1  UNL     1      23.519  -2.614  14.538  1.00  0.00     0.104 C 
HETATM   14  O1  UNL     1      24.029  -4.433  15.889  1.00  0.00    -0.286 OA
ENDBRANCH  11  12
ENDBRANCH   1  11
TORSDOF 2
ENDMDL
MODEL 3
REMARK VINA RESULT: -4.885509534      2.625      4.838
REMARK  2 active torsions:
REMARK  status: ('A' for Active; 'I' for Inactive)
REMARK    1  A    between atoms: C2_2  and  S1_4 
REMARK    2  A    between atoms: S1_4  and  C3_5 
ROOT
HETATM    1  C3  UNL     1      27.522  -3.635  16.152  1.00  0.00     0.127 C 
HETATM    2  C4  UNL     1      28.618  -2.771  16.675  1.00  0.00     0.065 C 
HETATM    3  N1  UNL     1      28.517  -1.738  17.440  1.00  0.00    -0.398 N 
ATOM      4  H11 UNL     1      29.268  -1.146  17.799  1.00  0.00     0.156 HD
ATOM      5  H12 UNL     1      27.655  -1.341  17.814  1.00  0.00     0.156 HD
HETATM    6  C5  UNL     1      29.852  -3.338  16.141  1.00  0.00     0.173 C 
HETATM    7  O2  UNL     1      31.018  -2.917  16.323  1.00  0.00    -0.291 OA
HETATM    8  C6  UNL     1      29.507  -4.527  15.320  1.00  0.00     0.107 C 
HETATM    9  C7  UNL     1      28.100  -4.135  14.861  1.00  0.00     0.110 C 
HETATM   10 CL1  UNL     1      28.291  -2.810  13.719  1.00  0.00    -0.123 Cl
ENDROOT
BRANCH   1  11
HETATM   11  S1  UNL     1      26.067  -2.600  15.907  1.00  0.00    -0.080 SA
BRANCH  11  12
HETATM   12  C2  UNL     1      24.623  -3.262  16.691  1.00  0.00     0.182 C 
HETATM   13  C1  UNL     1      23.519  -3.783  15.869  1.00  0.00     0.104 C 
HETATM   14  O1  UNL     1      24.550  -3.283  17.889  1.00  0.00    -0.286 OA
ENDBRANCH  11  12
ENDBRANCH   1  11
TORSDOF 2
ENDMDL
MODEL 4
REMARK VINA RESULT: -4.878333566      3.826      5.024
REMARK  2 active torsions:
REMARK  status: ('A' for Active; 'I' for Inactive)
REMARK    1  A    between atoms: C2_2  and  S1_4 
REMARK    2  A    between atoms: S1_4  and  C3_5 
ROOT
HETATM    1  C3  UNL     1      26.617  -4.134  15.106  1.00  0.00     0.127 C 
HETATM    2  C4  UNL     1      25.889  -2.892  14.721  1.00  0.00     0.065 C 
HETATM    3  N1  UNL     1      24.689  -2.785  14.261  1.00  0.00    -0.398 N 
ATOM      4  H11 UNL     1      24.191  -1.934  13.997  1.00  0.00     0.156 HD
ATOM      5  H12 UNL     1      24.036  -3.549  14.086  1.00  0.00     0.156 HD
HETATM    6  C5  UNL     1      26.823  -1.798  14.972  1.00  0.00     0.173 C 
HETATM    7  O2  UNL     1      26.625  -0.576  14.778  1.00  0.00    -0.291 OA
HETATM    8  C6  UNL     1      28.084  -2.370  15.510  1.00  0.00     0.107 C 
HETATM    9  C7  UNL     1      28.047  -3.755  14.859  1.00  0.00     0.110 C 
HETATM   10 CL1  UNL     1      28.330  -3.516  13.139  1.00  0.00    -0.123 Cl
ENDROOT
BRANCH   1  11
HETATM   11  S1  UNL     1      26.053  -5.465  14.030  1.00  0.00    -0.080 SA
BRANCH  11  12
HETATM   12  C2  UNL     1      24.573  -6.238  14.622  1.00  0.00     0.182 C 
HETATM   13  C1  UNL     1      24.304  -7.647  14.295  1.00  0.00     0.104 C 
HETATM   14  O1  UNL     1      23.796  -5.609  15.287  1.00  0.00    -0.286 OA
ENDBRANCH  11  12
ENDBRANCH   1  11
TORSDOF 2
ENDMDL
MODEL 5
REMARK VINA RESULT: -4.842140090      2.042      4.507
REMARK  2 active torsions:
REMARK  status: ('A' for Active; 'I' for Inactive)
REMARK    1  A    between atoms: C2_2  and  S1_4 
REMARK    2  A    between atoms: S1_4  and  C3_5 
ROOT
HETATM    1  C3  UNL     1      29.294  -4.586  15.553  1.00  0.00     0.127 C 
HETATM    2  C4  UNL     1      30.033  -4.287  16.813  1.00  0.00     0.065 C 
HETATM    3  N1  UNL     1      29.593  -3.692  17.869  1.00  0.00    -0.398 N 
ATOM      4  H11 UNL     1      30.099  -3.487  18.731  1.00  0.00     0.156 HD
ATOM      5  H12 UNL     1      28.652  -3.325  18.011  1.00  0.00     0.156 HD
HETATM    6  C5  UNL     1      31.380  -4.812  16.610  1.00  0.00     0.173 C 
HETATM    7  O2  UNL     1      32.337  -4.769  17.417  1.00  0.00    -0.291 OA
HETATM    8  C6  UNL     1      31.447  -5.427  15.259  1.00  0.00     0.107 C 
HETATM    9  C7  UNL     1      30.393  -4.588  14.532  1.00  0.00     0.110 C 
HETATM   10 CL1  UNL     1      31.067  -2.972  14.353  1.00  0.00    -0.123 Cl
ENDROOT
BRANCH   1  11
HETATM   11  S1  UNL     1      28.096  -3.267  15.285  1.00  0.00    -0.080 SA
BRANCH  11  12
HETATM   12  C2  UNL     1      26.551  -3.577  16.094  1.00  0.00     0.182 C 
HETATM   13  C1  UNL     1      25.294  -3.455  15.339  1.00  0.00     0.104 C 
HETATM   14  O1  UNL     1      26.536  -3.885  17.253  1.00  0.00    -0.286 OA
ENDBRANCH  11  12
ENDBRANCH   1  11
TORSDOF 2
ENDMDL
