MODEL 1
REMARK VINA RESULT: -6.261914851      0.000      0.000
REMARK  16 active torsions:
REMARK  status: ('A' for Active; 'I' for Inactive)
REMARK    1  A    between atoms: C2_2  and  N1_3 
REMARK    2  A    between atoms: C2_2  and  C3_7 
REMARK    3  A    between atoms: C3_7  and  N2_8 
REMARK    4  A    between atoms: C3_7  and  N5_32 
REMARK    5  A    between atoms: N2_8  and  C4_11 
REMARK    6  A    between atoms: C4_11  and  C5_12 
REMARK    7  A    between atoms: C6_13  and  O1_14 
REMARK    8  A    between atoms: O1_14  and  C7_15 
REMARK    9  A    between atoms: C7_15  and  C8_17 
REMARK   10  A    between atoms: C8_17  and  N3_18 
REMARK   11  A    between atoms: N3_18  and  C9_21 
REMARK   12  A    between atoms: C9_21  and  C10_22 
REMARK   13  A    between atoms: C10_22  and  S1_23 
REMARK   14  A    between atoms: S1_23  and  C11_24 
REMARK   15  A    between atoms: C11_24  and  C12_25 
REMARK   16  A    between atoms: N5_32  and  N6_34 
ROOT
HETATM    1  C5  UNL     1     -28.059   7.897 -12.919  1.00  0.00     0.025 C 
HETATM    2  C6  UNL     1     -27.690   8.898 -13.676  1.00  0.00     0.143 C 
ENDROOT
BRANCH   2   3
HETATM    3  O1  UNL     1     -26.648   9.738 -13.343  1.00  0.00    -0.290 OA
BRANCH   3   4
HETATM    4  C7  UNL     1     -25.472   9.848 -14.079  1.00  0.00     0.289 C 
HETATM    5  O2  UNL     1     -24.868   8.801 -14.370  1.00  0.00    -0.263 OA
BRANCH   4   6
HETATM    6  C8  UNL     1     -25.051  11.214 -14.448  1.00  0.00     0.343 C 
BRANCH   6   7
HETATM    7  N3  UNL     1     -25.930  11.850 -15.396  1.00  0.00    -0.066 N 
ATOM      8  H32 UNL     1     -25.463  12.078 -16.273  1.00  0.00     0.277 HD
ATOM      9  H31 UNL     1     -26.628  11.209 -15.774  1.00  0.00     0.277 HD
BRANCH   7  10
HETATM   10  C9  UNL     1     -26.512  12.988 -14.775  1.00  0.00     0.243 C 
BRANCH  10  11
HETATM   11  C10 UNL     1     -27.630  13.616 -15.567  1.00  0.00     0.101 C 
BRANCH  11  12
HETATM   12  S1  UNL     1     -27.107  14.245 -17.156  1.00  0.00    -0.163 SA
BRANCH  12  13
HETATM   13  C11 UNL     1     -27.552  13.078 -18.461  1.00  0.00     0.113 C 
BRANCH  13  14
HETATM   14  C12 UNL     1     -26.791  13.368 -19.696  1.00  0.00    -0.034 A 
HETATM   15  C13 UNL     1     -26.088  12.377 -20.319  1.00  0.00     0.011 A 
HETATM   16  C14 UNL     1     -25.383  12.637 -21.458  1.00  0.00     0.018 A 
HETATM   17  C15 UNL     1     -25.371  13.910 -21.998  1.00  0.00     0.087 A 
HETATM   18  N4  UNL     1     -26.055  14.873 -21.394  1.00  0.00    -0.375 N 
HETATM   19  C16 UNL     1     -26.762  14.636 -20.260  1.00  0.00     0.095 A 
ATOM     20  H4  UNL     1     -26.050  15.812 -21.791  1.00  0.00     0.164 HD
ENDBRANCH  13  14
ENDBRANCH  12  13
ENDBRANCH  11  12
ENDBRANCH  10  11
ENDBRANCH   7  10
ENDBRANCH   6   7
ENDBRANCH   4   6
ENDBRANCH   3   4
ENDBRANCH   2   3
BRANCH   1  21
HETATM   21  C4  UNL     1     -27.349   7.633 -11.653  1.00  0.00     0.264 C 
BRANCH  21  22
HETATM   22  N2  UNL     1     -26.005   7.156 -11.915  1.00  0.00    -0.048 N 
ATOM     23  H22 UNL     1     -25.600   7.634 -12.720  1.00  0.00     0.280 HD
ATOM     24  H21 UNL     1     -26.021   6.203 -12.277  1.00  0.00     0.280 HD
BRANCH  22  25
HETATM   25  C3  UNL     1     -25.148   7.255 -10.778  1.00  0.00     0.334 C 
BRANCH  25  26
HETATM   26  C2  UNL     1     -23.941   8.118 -11.090  1.00  0.00     0.230 C 
HETATM   27  C1  UNL     1     -22.962   8.105  -9.928  1.00  0.00     0.044 C 
BRANCH  26  28
HETATM   28  N1  UNL     1     -23.229   7.659 -12.237  1.00  0.00    -0.072 N 
ATOM     29  H13 UNL     1     -22.316   8.101 -12.347  1.00  0.00     0.274 HD
ATOM     30  H12 UNL     1     -22.898   6.698 -12.147  1.00  0.00     0.274 HD
ATOM     31  H11 UNL     1     -23.841   7.798 -13.042  1.00  0.00     0.274 HD
ENDBRANCH  26  28
ENDBRANCH  25  26
BRANCH  25  32
HETATM   32  N5  UNL     1     -24.766   5.990 -10.203  1.00  0.00    -0.244 N 
ATOM     33  H5  UNL     1     -24.793   5.906  -9.187  1.00  0.00     0.189 HD
BRANCH  32  34
HETATM   34  N6  UNL     1     -24.362   4.876 -10.930  1.00  0.00    -0.042 N 
HETATM   35  O3  UNL     1     -24.543   4.762 -12.153  1.00  0.00    -0.517 OA
HETATM   36  O4  UNL     1     -23.732   3.850 -10.275  1.00  0.00    -0.517 OA
ENDBRANCH  32  34
ENDBRANCH  25  32
ENDBRANCH  22  25
ENDBRANCH  21  22
ENDBRANCH   1  21
TORSDOF 16
ENDMDL
MODEL 2
REMARK VINA RESULT: -6.049765452      2.478      3.055
REMARK  16 active torsions:
REMARK  status: ('A' for Active; 'I' for Inactive)
REMARK    1  A    between atoms: C2_2  and  N1_3 
REMARK    2  A    between atoms: C2_2  and  C3_7 
REMARK    3  A    between atoms: C3_7  and  N2_8 
REMARK    4  A    between atoms: C3_7  and  N5_32 
REMARK    5  A    between atoms: N2_8  and  C4_11 
REMARK    6  A    between atoms: C4_11  and  C5_12 
REMARK    7  A    between atoms: C6_13  and  O1_14 
REMARK    8  A    between atoms: O1_14  and  C7_15 
REMARK    9  A    between atoms: C7_15  and  C8_17 
REMARK   10  A    between atoms: C8_17  and  N3_18 
REMARK   11  A    between atoms: N3_18  and  C9_21 
REMARK   12  A    between atoms: C9_21  and  C10_22 
REMARK   13  A    between atoms: C10_22  and  S1_23 
REMARK   14  A    between atoms: S1_23  and  C11_24 
REMARK   15  A    between atoms: C11_24  and  C12_25 
REMARK   16  A    between atoms: N5_32  and  N6_34 
ROOT
HETATM    1  C5  UNL     1     -30.207   7.845 -10.503  1.00  0.00     0.025 C 
HETATM    2  C6  UNL     1     -30.600   8.326 -11.655  1.00  0.00     0.143 C 
ENDROOT
BRANCH   2   3
HETATM    3  O1  UNL     1     -29.745   8.975 -12.521  1.00  0.00    -0.290 OA
BRANCH   3   4
HETATM    4  C7  UNL     1     -30.046  10.173 -13.161  1.00  0.00     0.289 C 
HETATM    5  O2  UNL     1     -31.021  10.825 -12.747  1.00  0.00    -0.263 OA
BRANCH   4   6
HETATM    6  C8  UNL     1     -29.169  10.560 -14.284  1.00  0.00     0.343 C 
BRANCH   6   7
HETATM    7  N3  UNL     1     -29.882  10.801 -15.513  1.00  0.00    -0.066 N 
ATOM      8  H32 UNL     1     -29.500  10.273 -16.297  1.00  0.00     0.277 HD
ATOM      9  H31 UNL     1     -30.816  10.392 -15.511  1.00  0.00     0.277 HD
BRANCH   7  10
HETATM   10  C9  UNL     1     -29.900  12.202 -15.754  1.00  0.00     0.243 C 
BRANCH  10  11
HETATM   11  C10 UNL     1     -29.635  12.582 -17.188  1.00  0.00     0.101 C 
BRANCH  11  12
HETATM   12  S1  UNL     1     -28.070  13.412 -17.426  1.00  0.00    -0.163 SA
BRANCH  12  13
HETATM   13  C11 UNL     1     -28.068  14.287 -19.006  1.00  0.00     0.113 C 
BRANCH  13  14
HETATM   14  C12 UNL     1     -27.060  13.703 -19.919  1.00  0.00    -0.034 A 
HETATM   15  C13 UNL     1     -26.516  14.461 -20.917  1.00  0.00     0.011 A 
HETATM   16  C14 UNL     1     -25.587  13.929 -21.763  1.00  0.00     0.018 A 
HETATM   17  C15 UNL     1     -25.183  12.615 -21.622  1.00  0.00     0.087 A 
HETATM   18  N4  UNL     1     -25.710  11.878 -20.652  1.00  0.00    -0.375 N 
HETATM   19  C16 UNL     1     -26.637  12.387 -19.800  1.00  0.00     0.095 A 
ATOM     20  H4  UNL     1     -25.413  10.909 -20.545  1.00  0.00     0.164 HD
ENDBRANCH  13  14
ENDBRANCH  12  13
ENDBRANCH  11  12
ENDBRANCH  10  11
ENDBRANCH   7  10
ENDBRANCH   6   7
ENDBRANCH   4   6
ENDBRANCH   3   4
ENDBRANCH   2   3
BRANCH   1  21
HETATM   21  C4  UNL     1     -28.799   7.989 -10.090  1.00  0.00     0.264 C 
BRANCH  21  22
HETATM   22  N2  UNL     1     -27.939   7.171 -10.922  1.00  0.00    -0.048 N 
ATOM     23  H22 UNL     1     -28.305   7.108 -11.872  1.00  0.00     0.280 HD
ATOM     24  H21 UNL     1     -28.000   6.190 -10.654  1.00  0.00     0.280 HD
BRANCH  22  25
HETATM   25  C3  UNL     1     -26.582   7.616 -10.927  1.00  0.00     0.334 C 
BRANCH  25  26
HETATM   26  C2  UNL     1     -26.157   8.024 -12.324  1.00  0.00     0.230 C 
HETATM   27  C1  UNL     1     -24.841   7.360 -12.695  1.00  0.00     0.044 C 
BRANCH  26  28
HETATM   28  N1  UNL     1     -27.109   7.640 -13.314  1.00  0.00    -0.072 N 
ATOM     29  H13 UNL     1     -26.687   7.179 -14.120  1.00  0.00     0.274 HD
ATOM     30  H12 UNL     1     -27.705   6.866 -13.019  1.00  0.00     0.274 HD
ATOM     31  H11 UNL     1     -27.635   8.478 -13.562  1.00  0.00     0.274 HD
ENDBRANCH  26  28
ENDBRANCH  25  26
BRANCH  25  32
HETATM   32  N5  UNL     1     -25.647   6.696 -10.331  1.00  0.00    -0.244 N 
ATOM     33  H5  UNL     1     -24.693   7.023 -10.180  1.00  0.00     0.189 HD
BRANCH  32  34
HETATM   34  N6  UNL     1     -25.949   5.394  -9.947  1.00  0.00    -0.042 N 
HETATM   35  O3  UNL     1     -25.286   4.408 -10.310  1.00  0.00    -0.517 OA
HETATM   36  O4  UNL     1     -27.025   5.177  -9.128  1.00  0.00    -0.517 OA
ENDBRANCH  32  34
ENDBRANCH  25  32
ENDBRANCH  22  25
ENDBRANCH  21  22
ENDBRANCH   1  21
TORSDOF 16
ENDMDL
MODEL 3
REMARK VINA RESULT: -6.006795576      1.711      2.058
REMARK  16 active torsions:
REMARK  status: ('A' for Active; 'I' for Inactive)
REMARK    1  A    between atoms: C2_2  and  N1_3 
REMARK    2  A    between atoms: C2_2  and  C3_7 
REMARK    3  A    between atoms: C3_7  and  N2_8 
REMARK    4  A    between atoms: C3_7  and  N5_32 
REMARK    5  A    between atoms: N2_8  and  C4_11 
REMARK    6  A    between atoms: C4_11  and  C5_12 
REMARK    7  A    between atoms: C6_13  and  O1_14 
REMARK    8  A    between atoms: O1_14  and  C7_15 
REMARK    9  A    between atoms: C7_15  and  C8_17 
REMARK   10  A    between atoms: C8_17  and  N3_18 
REMARK   11  A    between atoms: N3_18  and  C9_21 
REMARK   12  A    between atoms: C9_21  and  C10_22 
REMARK   13  A    between atoms: C10_22  and  S1_23 
REMARK   14  A    between atoms: S1_23  and  C11_24 
REMARK   15  A    between atoms: C11_24  and  C12_25 
REMARK   16  A    between atoms: N5_32  and  N6_34 
ROOT
HETATM    1  C5  UNL     1     -28.072   8.713 -13.655  1.00  0.00     0.025 C 
HETATM    2  C6  UNL     1     -27.595   9.914 -13.862  1.00  0.00     0.143 C 
ENDROOT
BRANCH   2   3
HETATM    3  O1  UNL     1     -26.397  10.341 -13.330  1.00  0.00    -0.290 OA
BRANCH   3   4
HETATM    4  C7  UNL     1     -25.372  10.912 -14.078  1.00  0.00     0.289 C 
HETATM    5  O2  UNL     1     -24.943  10.277 -15.057  1.00  0.00    -0.263 OA
BRANCH   4   6
HETATM    6  C8  UNL     1     -24.888  12.234 -13.633  1.00  0.00     0.343 C 
BRANCH   6   7
HETATM    7  N3  UNL     1     -24.845  13.215 -14.688  1.00  0.00    -0.066 N 
ATOM      8  H32 UNL     1     -23.978  13.751 -14.689  1.00  0.00     0.277 HD
ATOM      9  H31 UNL     1     -24.749  12.793 -15.611  1.00  0.00     0.277 HD
BRANCH   7  10
HETATM   10  C9  UNL     1     -25.998  14.039 -14.580  1.00  0.00     0.243 C 
BRANCH  10  11
HETATM   11  C10 UNL     1     -26.448  14.639 -15.887  1.00  0.00     0.101 C 
BRANCH  11  12
HETATM   12  S1  UNL     1     -27.143  13.439 -17.016  1.00  0.00    -0.163 SA
BRANCH  12  13
HETATM   13  C11 UNL     1     -27.555  14.233 -18.585  1.00  0.00     0.113 C 
BRANCH  13  14
HETATM   14  C12 UNL     1     -26.748  13.658 -19.684  1.00  0.00    -0.034 A 
HETATM   15  C13 UNL     1     -26.313  14.453 -20.707  1.00  0.00     0.011 A 
HETATM   16  C14 UNL     1     -25.569  13.929 -21.724  1.00  0.00     0.018 A 
HETATM   17  C15 UNL     1     -25.244  12.586 -21.733  1.00  0.00     0.087 A 
HETATM   18  N4  UNL     1     -25.664  11.813 -20.739  1.00  0.00    -0.375 N 
HETATM   19  C16 UNL     1     -26.407  12.313 -19.718  1.00  0.00     0.095 A 
ATOM     20  H4  UNL     1     -25.424  10.822 -20.743  1.00  0.00     0.164 HD
ENDBRANCH  13  14
ENDBRANCH  12  13
ENDBRANCH  11  12
ENDBRANCH  10  11
ENDBRANCH   7  10
ENDBRANCH   6   7
ENDBRANCH   4   6
ENDBRANCH   3   4
ENDBRANCH   2   3
BRANCH   1  21
HETATM   21  C4  UNL     1     -27.317   7.757 -12.823  1.00  0.00     0.264 C 
BRANCH  21  22
HETATM   22  N2  UNL     1     -27.143   8.280 -11.482  1.00  0.00    -0.048 N 
ATOM     23  H22 UNL     1     -27.920   8.008 -10.881  1.00  0.00     0.280 HD
ATOM     24  H21 UNL     1     -27.266   9.292 -11.467  1.00  0.00     0.280 HD
BRANCH  22  25
HETATM   25  C3  UNL     1     -25.893   7.910 -10.898  1.00  0.00     0.334 C 
BRANCH  25  26
HETATM   26  C2  UNL     1     -24.985   7.273 -11.932  1.00  0.00     0.230 C 
HETATM   27  C1  UNL     1     -23.800   8.177 -12.229  1.00  0.00     0.044 C 
BRANCH  26  28
HETATM   28  N1  UNL     1     -24.455   6.025 -11.491  1.00  0.00    -0.072 N 
ATOM     29  H13 UNL     1     -23.998   5.498 -12.236  1.00  0.00     0.274 HD
ATOM     30  H12 UNL     1     -23.641   6.126 -10.885  1.00  0.00     0.274 HD
ATOM     31  H11 UNL     1     -25.221   5.515 -11.052  1.00  0.00     0.274 HD
ENDBRANCH  26  28
ENDBRANCH  25  26
BRANCH  25  32
HETATM   32  N5  UNL     1     -26.002   7.100  -9.711  1.00  0.00    -0.244 N 
ATOM     33  H5  UNL     1     -25.322   7.256  -8.968  1.00  0.00     0.189 HD
BRANCH  32  34
HETATM   34  N6  UNL     1     -26.967   6.120  -9.504  1.00  0.00    -0.042 N 
HETATM   35  O3  UNL     1     -26.692   4.919  -9.350  1.00  0.00    -0.517 OA
HETATM   36  O4  UNL     1     -28.286   6.486  -9.464  1.00  0.00    -0.517 OA
ENDBRANCH  32  34
ENDBRANCH  25  32
ENDBRANCH  22  25
ENDBRANCH  21  22
ENDBRANCH   1  21
TORSDOF 16
ENDMDL
MODEL 4
REMARK VINA RESULT: -5.932204555      1.500      1.837
REMARK  16 active torsions:
REMARK  status: ('A' for Active; 'I' for Inactive)
REMARK    1  A    between atoms: C2_2  and  N1_3 
REMARK    2  A    between atoms: C2_2  and  C3_7 
REMARK    3  A    between atoms: C3_7  and  N2_8 
REMARK    4  A    between atoms: C3_7  and  N5_32 
REMARK    5  A    between atoms: N2_8  and  C4_11 
REMARK    6  A    between atoms: C4_11  and  C5_12 
REMARK    7  A    between atoms: C6_13  and  O1_14 
REMARK    8  A    between atoms: O1_14  and  C7_15 
REMARK    9  A    between atoms: C7_15  and  C8_17 
REMARK   10  A    between atoms: C8_17  and  N3_18 
REMARK   11  A    between atoms: N3_18  and  C9_21 
REMARK   12  A    between atoms: C9_21  and  C10_22 
REMARK   13  A    between atoms: C10_22  and  S1_23 
REMARK   14  A    between atoms: S1_23  and  C11_24 
REMARK   15  A    between atoms: C11_24  and  C12_25 
REMARK   16  A    between atoms: N5_32  and  N6_34 
ROOT
HETATM    1  C5  UNL     1     -28.027   8.387 -10.163  1.00  0.00     0.025 C 
HETATM    2  C6  UNL     1     -28.237   9.125 -11.223  1.00  0.00     0.143 C 
ENDROOT
BRANCH   2   3
HETATM    3  O1  UNL     1     -27.216   9.555 -12.044  1.00  0.00    -0.290 OA
BRANCH   3   4
HETATM    4  C7  UNL     1     -27.380   9.870 -13.390  1.00  0.00     0.289 C 
HETATM    5  O2  UNL     1     -28.249   9.252 -14.030  1.00  0.00    -0.263 OA
BRANCH   4   6
HETATM    6  C8  UNL     1     -26.497  10.919 -13.934  1.00  0.00     0.343 C 
BRANCH   6   7
HETATM    7  N3  UNL     1     -27.068  11.630 -15.050  1.00  0.00    -0.066 N 
ATOM      8  H32 UNL     1     -26.397  11.785 -15.802  1.00  0.00     0.277 HD
ATOM      9  H31 UNL     1     -27.735  11.064 -15.574  1.00  0.00     0.277 HD
BRANCH   7  10
HETATM   10  C9  UNL     1     -27.638  12.839 -14.568  1.00  0.00     0.243 C 
BRANCH  10  11
HETATM   11  C10 UNL     1     -27.898  13.866 -15.639  1.00  0.00     0.101 C 
BRANCH  11  12
HETATM   12  S1  UNL     1     -26.833  13.691 -17.064  1.00  0.00    -0.163 SA
BRANCH  12  13
HETATM   13  C11 UNL     1     -27.818  13.315 -18.530  1.00  0.00     0.113 C 
BRANCH  13  14
HETATM   14  C12 UNL     1     -26.942  13.121 -19.707  1.00  0.00    -0.034 A 
HETATM   15  C13 UNL     1     -26.553  14.193 -20.459  1.00  0.00     0.011 A 
HETATM   16  C14 UNL     1     -25.746  14.021 -21.546  1.00  0.00     0.018 A 
HETATM   17  C15 UNL     1     -25.311  12.759 -21.901  1.00  0.00     0.087 A 
HETATM   18  N4  UNL     1     -25.687  11.717 -21.171  1.00  0.00    -0.375 N 
HETATM   19  C16 UNL     1     -26.490  11.865 -20.086  1.00  0.00     0.095 A 
ATOM     20  H4  UNL     1     -25.365  10.785 -21.430  1.00  0.00     0.164 HD
ENDBRANCH  13  14
ENDBRANCH  12  13
ENDBRANCH  11  12
ENDBRANCH  10  11
ENDBRANCH   7  10
ENDBRANCH   6   7
ENDBRANCH   4   6
ENDBRANCH   3   4
ENDBRANCH   2   3
BRANCH   1  21
HETATM   21  C4  UNL     1     -26.652   7.984  -9.811  1.00  0.00     0.264 C 
BRANCH  21  22
HETATM   22  N2  UNL     1     -26.223   6.870 -10.633  1.00  0.00    -0.048 N 
ATOM     23  H22 UNL     1     -26.836   6.756 -11.440  1.00  0.00     0.280 HD
ATOM     24  H21 UNL     1     -26.399   5.982 -10.163  1.00  0.00     0.280 HD
BRANCH  22  25
HETATM   25  C3  UNL     1     -24.858   6.971 -11.039  1.00  0.00     0.334 C 
BRANCH  25  26
HETATM   26  C2  UNL     1     -24.761   7.333 -12.508  1.00  0.00     0.230 C 
HETATM   27  C1  UNL     1     -23.867   8.546 -12.700  1.00  0.00     0.044 C 
BRANCH  26  28
HETATM   28  N1  UNL     1     -24.204   6.278 -13.290  1.00  0.00    -0.072 N 
ATOM     29  H13 UNL     1     -24.095   6.523 -14.274  1.00  0.00     0.274 HD
ATOM     30  H12 UNL     1     -23.219   6.107 -13.089  1.00  0.00     0.274 HD
ATOM     31  H11 UNL     1     -24.792   5.458 -13.144  1.00  0.00     0.274 HD
ENDBRANCH  26  28
ENDBRANCH  25  26
BRANCH  25  32
HETATM   32  N5  UNL     1     -24.050   5.822 -10.718  1.00  0.00    -0.244 N 
ATOM     33  H5  UNL     1     -23.058   5.977 -10.541  1.00  0.00     0.189 HD
BRANCH  32  34
HETATM   34  N6  UNL     1     -24.522   4.517 -10.631  1.00  0.00    -0.042 N 
HETATM   35  O3  UNL     1     -24.213   3.628 -11.441  1.00  0.00    -0.517 OA
HETATM   36  O4  UNL     1     -25.368   4.185  -9.605  1.00  0.00    -0.517 OA
ENDBRANCH  32  34
ENDBRANCH  25  32
ENDBRANCH  22  25
ENDBRANCH  21  22
ENDBRANCH   1  21
TORSDOF 16
ENDMDL
MODEL 5
REMARK VINA RESULT: -5.766477081      3.378      4.992
REMARK  16 active torsions:
REMARK  status: ('A' for Active; 'I' for Inactive)
REMARK    1  A    between atoms: C2_2  and  N1_3 
REMARK    2  A    between atoms: C2_2  and  C3_7 
REMARK    3  A    between atoms: C3_7  and  N2_8 
REMARK    4  A    between atoms: C3_7  and  N5_32 
REMARK    5  A    between atoms: N2_8  and  C4_11 
REMARK    6  A    between atoms: C4_11  and  C5_12 
REMARK    7  A    between atoms: C6_13  and  O1_14 
REMARK    8  A    between atoms: O1_14  and  C7_15 
REMARK    9  A    between atoms: C7_15  and  C8_17 
REMARK   10  A    between atoms: C8_17  and  N3_18 
REMARK   11  A    between atoms: N3_18  and  C9_21 
REMARK   12  A    between atoms: C9_21  and  C10_22 
REMARK   13  A    between atoms: C10_22  and  S1_23 
REMARK   14  A    between atoms: S1_23  and  C11_24 
REMARK   15  A    between atoms: C11_24  and  C12_25 
REMARK   16  A    between atoms: N5_32  and  N6_34 
ROOT
HETATM    1  C5  UNL     1     -29.400  12.426 -14.975  1.00  0.00     0.025 C 
HETATM    2  C6  UNL     1     -29.297  12.967 -16.162  1.00  0.00     0.143 C 
ENDROOT
BRANCH   2   3
HETATM    3  O1  UNL     1     -29.781  12.360 -17.301  1.00  0.00    -0.290 OA
BRANCH   3   4
HETATM    4  C7  UNL     1     -30.486  13.026 -18.299  1.00  0.00     0.289 C 
HETATM    5  O2  UNL     1     -30.302  12.670 -19.477  1.00  0.00    -0.263 OA
BRANCH   4   6
HETATM    6  C8  UNL     1     -31.395  14.102 -17.859  1.00  0.00     0.343 C 
BRANCH   6   7
HETATM    7  N3  UNL     1     -31.186  15.349 -18.551  1.00  0.00    -0.066 N 
ATOM      8  H32 UNL     1     -30.694  15.229 -19.436  1.00  0.00     0.277 HD
ATOM      9  H31 UNL     1     -32.051  15.739 -18.925  1.00  0.00     0.277 HD
BRANCH   7  10
HETATM   10  C9  UNL     1     -30.519  16.244 -17.672  1.00  0.00     0.243 C 
BRANCH  10  11
HETATM   11  C10 UNL     1     -29.428  17.051 -18.327  1.00  0.00     0.101 C 
BRANCH  11  12
HETATM   12  S1  UNL     1     -28.553  16.157 -19.604  1.00  0.00    -0.163 SA
BRANCH  12  13
HETATM   13  C11 UNL     1     -27.586  14.820 -18.871  1.00  0.00     0.113 C 
BRANCH  13  14
HETATM   14  C12 UNL     1     -26.760  14.153 -19.902  1.00  0.00    -0.034 A 
HETATM   15  C13 UNL     1     -26.434  12.833 -19.774  1.00  0.00     0.011 A 
HETATM   16  C14 UNL     1     -25.672  12.211 -20.720  1.00  0.00     0.018 A 
HETATM   17  C15 UNL     1     -25.219  12.911 -21.823  1.00  0.00     0.087 A 
HETATM   18  N4  UNL     1     -25.536  14.192 -21.949  1.00  0.00    -0.375 N 
HETATM   19  C16 UNL     1     -26.293  14.831 -21.019  1.00  0.00     0.095 A 
ATOM     20  H4  UNL     1     -25.205  14.710 -22.763  1.00  0.00     0.164 HD
ENDBRANCH  13  14
ENDBRANCH  12  13
ENDBRANCH  11  12
ENDBRANCH  10  11
ENDBRANCH   7  10
ENDBRANCH   6   7
ENDBRANCH   4   6
ENDBRANCH   3   4
ENDBRANCH   2   3
BRANCH   1  21
HETATM   21  C4  UNL     1     -30.057  11.115 -14.821  1.00  0.00     0.264 C 
BRANCH  21  22
HETATM   22  N2  UNL     1     -29.081  10.095 -14.491  1.00  0.00    -0.048 N 
ATOM     23  H22 UNL     1     -28.323  10.082 -15.172  1.00  0.00     0.280 HD
ATOM     24  H21 UNL     1     -29.462   9.162 -14.646  1.00  0.00     0.280 HD
BRANCH  22  25
HETATM   25  C3  UNL     1     -28.571  10.222 -13.163  1.00  0.00     0.334 C 
BRANCH  25  26
HETATM   26  C2  UNL     1     -27.083  10.510 -13.185  1.00  0.00     0.230 C 
HETATM   27  C1  UNL     1     -26.444  10.114 -11.864  1.00  0.00     0.044 C 
BRANCH  26  28
HETATM   28  N1  UNL     1     -26.406   9.784 -14.209  1.00  0.00    -0.072 N 
ATOM     29  H13 UNL     1     -25.887  10.383 -14.850  1.00  0.00     0.274 HD
ATOM     30  H12 UNL     1     -25.611   9.247 -13.861  1.00  0.00     0.274 HD
ATOM     31  H11 UNL     1     -27.106   9.207 -14.676  1.00  0.00     0.274 HD
ENDBRANCH  26  28
ENDBRANCH  25  26
BRANCH  25  32
HETATM   32  N5  UNL     1     -28.889   9.120 -12.290  1.00  0.00    -0.244 N 
ATOM     33  H5  UNL     1     -29.040   9.328 -11.303  1.00  0.00     0.189 HD
BRANCH  32  34
HETATM   34  N6  UNL     1     -29.005   7.794 -12.694  1.00  0.00    -0.042 N 
HETATM   35  O3  UNL     1     -28.321   7.300 -13.605  1.00  0.00    -0.517 OA
HETATM   36  O4  UNL     1     -29.912   6.986 -12.061  1.00  0.00    -0.517 OA
ENDBRANCH  32  34
ENDBRANCH  25  32
ENDBRANCH  22  25
ENDBRANCH  21  22
ENDBRANCH   1  21
TORSDOF 16
ENDMDL
