MODEL 1
REMARK VINA RESULT: -6.921100731      0.000      0.000
REMARK  17 active torsions:
REMARK  status: ('A' for Active; 'I' for Inactive)
REMARK    1  A    between atoms: O1_1  and  N1_3 
REMARK    2  A    between atoms: N1_3  and  N2_5 
REMARK    3  A    between atoms: N2_5  and  C1_6 
REMARK    4  A    between atoms: N2_5  and  C13_31 
REMARK    5  A    between atoms: C1_6  and  C2_7 
REMARK    6  A    between atoms: C2_7  and  N3_8 
REMARK    7  A    between atoms: N3_8  and  C3_11 
REMARK    8  A    between atoms: C3_11  and  C4_12 
REMARK    9  A    between atoms: C4_12  and  C5_13 
REMARK   10  A    between atoms: C5_13  and  N4_14 
REMARK   11  A    between atoms: N4_14  and  C6_17 
REMARK   12  A    between atoms: C6_17  and  C7_18 
REMARK   13  A    between atoms: C7_18  and  O2_19 
REMARK   14  A    between atoms: C7_18  and  N5_21 
REMARK   15  A    between atoms: N5_21  and  N6_23 
REMARK       I    between atoms: N6_23  and  C8_24 
REMARK   16  A    between atoms: C8_24  and  C9_26 
REMARK   17  A    between atoms: C13_31  and  C14_32 
ROOT
HETATM    1  C3  UNL     1     -26.823  11.215 -14.005  1.00  0.00     0.234 C 
ENDROOT
BRANCH   1   2
HETATM    2  N3  UNL     1     -27.531  11.898 -14.989  1.00  0.00    -0.071 N 
ATOM      3  H32 UNL     1     -28.501  12.059 -14.718  1.00  0.00     0.277 HD
ATOM      4  H31 UNL     1     -27.698  11.316 -15.810  1.00  0.00     0.277 HD
BRANCH   2   5
HETATM    5  C2  UNL     1     -26.837  13.163 -15.339  1.00  0.00     0.278 C 
BRANCH   5   6
HETATM    6  C1  UNL     1     -26.453  13.058 -16.800  1.00  0.00     0.112 C 
BRANCH   6   7
HETATM    7  N2  UNL     1     -27.134  13.884 -17.710  1.00  0.00    -0.282 N 
BRANCH   7   8
HETATM    8  N1  UNL     1     -27.329  15.258 -17.489  1.00  0.00    -0.208 N 
ATOM      9  H1  UNL     1     -26.653  15.752 -16.906  1.00  0.00     0.216 HD
BRANCH   8  10
HETATM   10  O1  UNL     1     -28.283  15.907 -17.965  1.00  0.00    -0.274 OA
ATOM     11  H1  UNL     1     -28.455  16.818 -17.758  1.00  0.00     0.246 HD
ENDBRANCH   8  10
ENDBRANCH   7   8
BRANCH   7  12
HETATM   12  C13 UNL     1     -27.769  13.320 -18.906  1.00  0.00     0.188 C 
BRANCH  12  13
HETATM   13  C14 UNL     1     -26.850  13.359 -20.052  1.00  0.00    -0.036 A 
HETATM   14  C15 UNL     1     -26.890  14.432 -20.892  1.00  0.00     0.026 A 
HETATM   15  C16 UNL     1     -26.069  14.462 -21.995  1.00  0.00     0.088 A 
HETATM   16  N7  UNL     1     -25.232  13.379 -22.209  1.00  0.00    -0.375 N 
HETATM   17  C17 UNL     1     -25.169  12.326 -21.415  1.00  0.00     0.088 A 
ATOM     18  H7  UNL     1     -24.627  13.397 -23.030  1.00  0.00     0.164 HD
HETATM   19  C18 UNL     1     -25.981  12.312 -20.319  1.00  0.00     0.026 A 
ENDBRANCH  12  13
ENDBRANCH   7  12
ENDBRANCH   6   7
ENDBRANCH   5   6
ENDBRANCH   2   5
ENDBRANCH   1   2
BRANCH   1  20
HETATM   20  C4  UNL     1     -27.132   9.791 -13.686  1.00  0.00     0.055 C 
BRANCH  20  21
HETATM   21  C5  UNL     1     -25.835   9.288 -12.983  1.00  0.00     0.234 C 
BRANCH  21  22
HETATM   22  N4  UNL     1     -25.814   7.842 -13.200  1.00  0.00    -0.068 N 
ATOM     23  H42 UNL     1     -26.518   7.351 -12.649  1.00  0.00     0.277 HD
ATOM     24  H41 UNL     1     -26.153   7.578 -14.125  1.00  0.00     0.277 HD
BRANCH  22  25
HETATM   25  C6  UNL     1     -24.481   7.369 -12.944  1.00  0.00     0.318 C 
BRANCH  25  26
HETATM   26  C7  UNL     1     -24.554   6.096 -12.213  1.00  0.00     0.167 C 
BRANCH  26  27
HETATM   27  O2  UNL     1     -24.457   4.951 -12.861  1.00  0.00    -0.347 OA
ATOM     28  H2  UNL     1     -25.236   4.522 -13.196  1.00  0.00     0.219 HD
ENDBRANCH  26  27
BRANCH  26  29
HETATM   29  N5  UNL     1     -24.733   5.961 -10.828  1.00  0.00    -0.211 N 
ATOM     30  H5  UNL     1     -23.962   5.583 -10.279  1.00  0.00     0.204 HD
BRANCH  29  31
HETATM   31  N6  UNL     1     -25.844   6.298 -10.192  1.00  0.00    -0.277 NA
HETATM   32  C8  UNL     1     -26.944   6.629  -9.549  1.00  0.00     0.369 C 
HETATM   33  O3  UNL     1     -27.279   6.734  -8.402  1.00  0.00    -0.247 OA
BRANCH  32  34
HETATM   34  C9  UNL     1     -28.139   7.052 -10.457  1.00  0.00     0.159 A 
HETATM   35  C10 UNL     1     -29.329   7.563  -9.894  1.00  0.00     0.046 A 
HETATM   36  C11 UNL     1     -30.104   7.829 -10.969  1.00  0.00     0.027 A 
HETATM   37  C12 UNL     1     -29.385   7.462 -12.102  1.00  0.00     0.143 A 
HETATM   38  O4  UNL     1     -28.235   7.018 -11.684  1.00  0.00    -0.316 OA
ENDBRANCH  32  34
ENDBRANCH  29  31
ENDBRANCH  26  29
ENDBRANCH  25  26
ENDBRANCH  22  25
ENDBRANCH  21  22
ENDBRANCH  20  21
ENDBRANCH   1  20
TORSDOF 17
ENDMDL
MODEL 2
REMARK VINA RESULT: -6.699368735      1.475      1.892
REMARK  17 active torsions:
REMARK  status: ('A' for Active; 'I' for Inactive)
REMARK    1  A    between atoms: O1_1  and  N1_3 
REMARK    2  A    between atoms: N1_3  and  N2_5 
REMARK    3  A    between atoms: N2_5  and  C1_6 
REMARK    4  A    between atoms: N2_5  and  C13_31 
REMARK    5  A    between atoms: C1_6  and  C2_7 
REMARK    6  A    between atoms: C2_7  and  N3_8 
REMARK    7  A    between atoms: N3_8  and  C3_11 
REMARK    8  A    between atoms: C3_11  and  C4_12 
REMARK    9  A    between atoms: C4_12  and  C5_13 
REMARK   10  A    between atoms: C5_13  and  N4_14 
REMARK   11  A    between atoms: N4_14  and  C6_17 
REMARK   12  A    between atoms: C6_17  and  C7_18 
REMARK   13  A    between atoms: C7_18  and  O2_19 
REMARK   14  A    between atoms: C7_18  and  N5_21 
REMARK   15  A    between atoms: N5_21  and  N6_23 
REMARK       I    between atoms: N6_23  and  C8_24 
REMARK   16  A    between atoms: C8_24  and  C9_26 
REMARK   17  A    between atoms: C13_31  and  C14_32 
ROOT
HETATM    1  C3  UNL     1     -27.710  12.290 -14.550  1.00  0.00     0.234 C 
ENDROOT
BRANCH   1   2
HETATM    2  N3  UNL     1     -28.632  11.905 -15.519  1.00  0.00    -0.071 N 
ATOM      3  H32 UNL     1     -29.220  11.135 -15.200  1.00  0.00     0.277 HD
ATOM      4  H31 UNL     1     -28.184  11.437 -16.306  1.00  0.00     0.277 HD
BRANCH   2   5
HETATM    5  C2  UNL     1     -29.438  13.072 -15.956  1.00  0.00     0.278 C 
BRANCH   5   6
HETATM    6  C1  UNL     1     -28.605  13.817 -16.977  1.00  0.00     0.112 C 
BRANCH   6   7
HETATM    7  N2  UNL     1     -28.105  13.083 -18.066  1.00  0.00    -0.282 N 
BRANCH   7   8
HETATM    8  N1  UNL     1     -28.925  12.295 -18.890  1.00  0.00    -0.208 N 
ATOM      9  H1  UNL     1     -28.732  11.295 -18.948  1.00  0.00     0.216 HD
BRANCH   8  10
HETATM   10  O1  UNL     1     -29.877  12.750 -19.557  1.00  0.00    -0.274 OA
ATOM     11  H1  UNL     1     -29.859  12.846 -20.502  1.00  0.00     0.246 HD
ENDBRANCH   8  10
ENDBRANCH   7   8
BRANCH   7  12
HETATM   12  C13 UNL     1     -26.664  13.028 -18.335  1.00  0.00     0.188 C 
BRANCH  12  13
HETATM   13  C14 UNL     1     -26.387  13.304 -19.751  1.00  0.00    -0.036 A 
HETATM   14  C15 UNL     1     -25.701  12.379 -20.481  1.00  0.00     0.026 A 
HETATM   15  C16 UNL     1     -25.393  12.643 -21.795  1.00  0.00     0.088 A 
HETATM   16  N7  UNL     1     -25.793  13.860 -22.322  1.00  0.00    -0.375 N 
HETATM   17  C17 UNL     1     -26.458  14.777 -21.643  1.00  0.00     0.088 A 
ATOM     18  H7  UNL     1     -25.560  14.060 -23.295  1.00  0.00     0.164 HD
HETATM   19  C18 UNL     1     -26.766  14.500 -20.343  1.00  0.00     0.026 A 
ENDBRANCH  12  13
ENDBRANCH   7  12
ENDBRANCH   6   7
ENDBRANCH   5   6
ENDBRANCH   2   5
ENDBRANCH   1   2
BRANCH   1  20
HETATM   20  C4  UNL     1     -26.487  11.476 -14.289  1.00  0.00     0.055 C 
BRANCH  20  21
HETATM   21  C5  UNL     1     -26.952  10.463 -13.199  1.00  0.00     0.234 C 
BRANCH  21  22
HETATM   22  N4  UNL     1     -26.427   9.167 -13.627  1.00  0.00    -0.068 N 
ATOM     23  H42 UNL     1     -26.857   8.385 -13.133  1.00  0.00     0.277 HD
ATOM     24  H41 UNL     1     -26.723   8.915 -14.570  1.00  0.00     0.277 HD
BRANCH  22  25
HETATM   25  C6  UNL     1     -24.997   9.194 -13.484  1.00  0.00     0.318 C 
BRANCH  25  26
HETATM   26  C7  UNL     1     -24.501   7.818 -13.339  1.00  0.00     0.167 C 
BRANCH  26  27
HETATM   27  O2  UNL     1     -24.135   7.127 -14.401  1.00  0.00    -0.347 OA
ATOM     28  H2  UNL     1     -23.220   6.915 -14.543  1.00  0.00     0.219 HD
ENDBRANCH  26  27
BRANCH  26  29
HETATM   29  N5  UNL     1     -24.378   7.121 -12.126  1.00  0.00    -0.211 N 
ATOM     30  H5  UNL     1     -23.495   6.651 -11.931  1.00  0.00     0.204 HD
BRANCH  29  31
HETATM   31  N6  UNL     1     -25.341   7.040 -11.222  1.00  0.00    -0.277 NA
HETATM   32  C8  UNL     1     -26.291   6.955 -10.314  1.00  0.00     0.369 C 
HETATM   33  O3  UNL     1     -26.343   6.763  -9.131  1.00  0.00    -0.247 OA
BRANCH  32  34
HETATM   34  C9  UNL     1     -27.735   7.210 -10.842  1.00  0.00     0.159 A 
HETATM   35  C10 UNL     1     -28.804   7.433  -9.946  1.00  0.00     0.046 A 
HETATM   36  C11 UNL     1     -29.867   7.630 -10.756  1.00  0.00     0.027 A 
HETATM   37  C12 UNL     1     -29.420   7.504 -12.068  1.00  0.00     0.143 A 
HETATM   38  O4  UNL     1     -28.143   7.259 -12.003  1.00  0.00    -0.316 OA
ENDBRANCH  32  34
ENDBRANCH  29  31
ENDBRANCH  26  29
ENDBRANCH  25  26
ENDBRANCH  22  25
ENDBRANCH  21  22
ENDBRANCH  20  21
ENDBRANCH   1  20
TORSDOF 17
ENDMDL
MODEL 3
REMARK VINA RESULT: -6.684720393      2.494      4.403
REMARK  17 active torsions:
REMARK  status: ('A' for Active; 'I' for Inactive)
REMARK    1  A    between atoms: O1_1  and  N1_3 
REMARK    2  A    between atoms: N1_3  and  N2_5 
REMARK    3  A    between atoms: N2_5  and  C1_6 
REMARK    4  A    between atoms: N2_5  and  C13_31 
REMARK    5  A    between atoms: C1_6  and  C2_7 
REMARK    6  A    between atoms: C2_7  and  N3_8 
REMARK    7  A    between atoms: N3_8  and  C3_11 
REMARK    8  A    between atoms: C3_11  and  C4_12 
REMARK    9  A    between atoms: C4_12  and  C5_13 
REMARK   10  A    between atoms: C5_13  and  N4_14 
REMARK   11  A    between atoms: N4_14  and  C6_17 
REMARK   12  A    between atoms: C6_17  and  C7_18 
REMARK   13  A    between atoms: C7_18  and  O2_19 
REMARK   14  A    between atoms: C7_18  and  N5_21 
REMARK   15  A    between atoms: N5_21  and  N6_23 
REMARK       I    between atoms: N6_23  and  C8_24 
REMARK   16  A    between atoms: C8_24  and  C9_26 
REMARK   17  A    between atoms: C13_31  and  C14_32 
ROOT
HETATM    1  C3  UNL     1     -29.520  14.829 -15.471  1.00  0.00     0.234 C 
ENDROOT
BRANCH   1   2
HETATM    2  N3  UNL     1     -29.896  15.732 -16.461  1.00  0.00    -0.071 N 
ATOM      3  H32 UNL     1     -30.020  16.674 -16.090  1.00  0.00     0.277 HD
ATOM      4  H31 UNL     1     -30.850  15.569 -16.781  1.00  0.00     0.277 HD
BRANCH   2   5
HETATM    5  C2  UNL     1     -28.923  15.703 -17.581  1.00  0.00     0.278 C 
BRANCH   5   6
HETATM    6  C1  UNL     1     -29.330  14.555 -18.480  1.00  0.00     0.112 C 
BRANCH   6   7
HETATM    7  N2  UNL     1     -28.462  13.452 -18.555  1.00  0.00    -0.282 N 
BRANCH   7   8
HETATM    8  N1  UNL     1     -28.918  12.123 -18.510  1.00  0.00    -0.208 N 
ATOM      9  H1  UNL     1     -28.544  11.463 -19.192  1.00  0.00     0.216 HD
BRANCH   8  10
HETATM   10  O1  UNL     1     -29.754  11.707 -17.682  1.00  0.00    -0.274 OA
ATOM     11  H1  UNL     1     -30.453  12.243 -17.325  1.00  0.00     0.246 HD
ENDBRANCH   8  10
ENDBRANCH   7   8
BRANCH   7  12
HETATM   12  C13 UNL     1     -27.008  13.642 -18.587  1.00  0.00     0.188 C 
BRANCH  12  13
HETATM   13  C14 UNL     1     -26.490  13.480 -19.952  1.00  0.00    -0.036 A 
HETATM   14  C15 UNL     1     -25.839  12.327 -20.277  1.00  0.00     0.026 A 
HETATM   15  C16 UNL     1     -25.308  12.179 -21.537  1.00  0.00     0.088 A 
HETATM   16  N7  UNL     1     -25.454  13.229 -22.428  1.00  0.00    -0.375 N 
HETATM   17  C17 UNL     1     -26.077  14.358 -22.145  1.00  0.00     0.088 A 
ATOM     18  H7  UNL     1     -25.054  13.123 -23.361  1.00  0.00     0.164 HD
HETATM   19  C18 UNL     1     -26.609  14.489 -20.896  1.00  0.00     0.026 A 
ENDBRANCH  12  13
ENDBRANCH   7  12
ENDBRANCH   6   7
ENDBRANCH   5   6
ENDBRANCH   2   5
ENDBRANCH   1   2
BRANCH   1  20
HETATM   20  C4  UNL     1     -28.154  14.870 -14.873  1.00  0.00     0.055 C 
BRANCH  20  21
HETATM   21  C5  UNL     1     -27.700  13.380 -14.907  1.00  0.00     0.234 C 
BRANCH  21  22
HETATM   22  N4  UNL     1     -28.936  12.601 -14.975  1.00  0.00    -0.068 N 
ATOM     23  H42 UNL     1     -29.765  13.160 -14.774  1.00  0.00     0.277 HD
ATOM     24  H41 UNL     1     -29.179  12.332 -15.928  1.00  0.00     0.277 HD
BRANCH  22  25
HETATM   25  C6  UNL     1     -28.803  11.472 -14.096  1.00  0.00     0.318 C 
BRANCH  25  26
HETATM   26  C7  UNL     1     -30.081  10.748 -14.045  1.00  0.00     0.167 C 
BRANCH  26  27
HETATM   27  O2  UNL     1     -30.876  10.726 -15.097  1.00  0.00    -0.347 OA
ATOM     28  H2  UNL     1     -31.074   9.905 -15.531  1.00  0.00     0.219 HD
ENDBRANCH  26  27
BRANCH  26  29
HETATM   29  N5  UNL     1     -30.575  10.048 -12.933  1.00  0.00    -0.211 N 
ATOM     30  H5  UNL     1     -31.427  10.390 -12.490  1.00  0.00     0.204 HD
BRANCH  29  31
HETATM   31  N6  UNL     1     -30.000   8.969 -12.426  1.00  0.00    -0.277 NA
HETATM   32  C8  UNL     1     -29.438   7.892 -11.917  1.00  0.00     0.369 C 
HETATM   33  O3  UNL     1     -29.814   6.911 -11.338  1.00  0.00    -0.247 OA
BRANCH  32  34
HETATM   34  C9  UNL     1     -27.898   7.784 -12.134  1.00  0.00     0.159 A 
HETATM   35  C10 UNL     1     -27.287   8.352 -13.273  1.00  0.00     0.046 A 
HETATM   36  C11 UNL     1     -25.975   8.078 -13.104  1.00  0.00     0.027 A 
HETATM   37  C12 UNL     1     -25.849   7.362 -11.918  1.00  0.00     0.143 A 
HETATM   38  O4  UNL     1     -27.047   7.247 -11.425  1.00  0.00    -0.316 OA
ENDBRANCH  32  34
ENDBRANCH  29  31
ENDBRANCH  26  29
ENDBRANCH  25  26
ENDBRANCH  22  25
ENDBRANCH  21  22
ENDBRANCH  20  21
ENDBRANCH   1  20
TORSDOF 17
ENDMDL
MODEL 4
REMARK VINA RESULT: -6.656953582      1.765      3.132
REMARK  17 active torsions:
REMARK  status: ('A' for Active; 'I' for Inactive)
REMARK    1  A    between atoms: O1_1  and  N1_3 
REMARK    2  A    between atoms: N1_3  and  N2_5 
REMARK    3  A    between atoms: N2_5  and  C1_6 
REMARK    4  A    between atoms: N2_5  and  C13_31 
REMARK    5  A    between atoms: C1_6  and  C2_7 
REMARK    6  A    between atoms: C2_7  and  N3_8 
REMARK    7  A    between atoms: N3_8  and  C3_11 
REMARK    8  A    between atoms: C3_11  and  C4_12 
REMARK    9  A    between atoms: C4_12  and  C5_13 
REMARK   10  A    between atoms: C5_13  and  N4_14 
REMARK   11  A    between atoms: N4_14  and  C6_17 
REMARK   12  A    between atoms: C6_17  and  C7_18 
REMARK   13  A    between atoms: C7_18  and  O2_19 
REMARK   14  A    between atoms: C7_18  and  N5_21 
REMARK   15  A    between atoms: N5_21  and  N6_23 
REMARK       I    between atoms: N6_23  and  C8_24 
REMARK   16  A    between atoms: C8_24  and  C9_26 
REMARK   17  A    between atoms: C13_31  and  C14_32 
ROOT
HETATM    1  C3  UNL     1     -28.208  11.908 -14.138  1.00  0.00     0.234 C 
ENDROOT
BRANCH   1   2
HETATM    2  N3  UNL     1     -28.743  12.769 -15.092  1.00  0.00    -0.071 N 
ATOM      3  H32 UNL     1     -29.563  13.264 -14.741  1.00  0.00     0.277 HD
ATOM      4  H31 UNL     1     -29.188  12.261 -15.855  1.00  0.00     0.277 HD
BRANCH   2   5
HETATM    5  C2  UNL     1     -27.701  13.705 -15.583  1.00  0.00     0.278 C 
BRANCH   5   6
HETATM    6  C1  UNL     1     -27.094  13.071 -16.816  1.00  0.00     0.112 C 
BRANCH   6   7
HETATM    7  N2  UNL     1     -27.798  13.201 -18.026  1.00  0.00    -0.282 N 
BRANCH   7   8
HETATM    8  N1  UNL     1     -28.713  12.236 -18.479  1.00  0.00    -0.208 N 
ATOM      9  H1  UNL     1     -28.621  11.897 -19.436  1.00  0.00     0.216 HD
BRANCH   8  10
HETATM   10  O1  UNL     1     -29.634  11.772 -17.774  1.00  0.00    -0.274 OA
ATOM     11  H1  UNL     1     -30.349  11.250 -18.120  1.00  0.00     0.246 HD
ENDBRANCH   8  10
ENDBRANCH   7   8
BRANCH   7  12
HETATM   12  C13 UNL     1     -27.531  14.323 -18.932  1.00  0.00     0.188 C 
BRANCH  12  13
HETATM   13  C14 UNL     1     -26.729  13.885 -20.083  1.00  0.00    -0.036 A 
HETATM   14  C15 UNL     1     -26.676  14.680 -21.189  1.00  0.00     0.026 A 
HETATM   15  C16 UNL     1     -25.968  14.263 -22.292  1.00  0.00     0.088 A 
HETATM   16  N7  UNL     1     -25.340  13.030 -22.229  1.00  0.00    -0.375 N 
HETATM   17  C17 UNL     1     -25.372  12.237 -21.174  1.00  0.00     0.088 A 
ATOM     18  H7  UNL     1     -24.819  12.716 -23.049  1.00  0.00     0.164 HD
HETATM   19  C18 UNL     1     -26.069  12.666 -20.083  1.00  0.00     0.026 A 
ENDBRANCH  12  13
ENDBRANCH   7  12
ENDBRANCH   6   7
ENDBRANCH   5   6
ENDBRANCH   2   5
ENDBRANCH   1   2
BRANCH   1  20
HETATM   20  C4  UNL     1     -28.652  10.487 -14.052  1.00  0.00     0.055 C 
BRANCH  20  21
HETATM   21  C5  UNL     1     -27.348   9.722 -13.671  1.00  0.00     0.234 C 
BRANCH  21  22
HETATM   22  N4  UNL     1     -27.706   8.900 -12.516  1.00  0.00    -0.068 N 
ATOM     23  H42 UNL     1     -26.890   8.560 -12.007  1.00  0.00     0.277 HD
ATOM     24  H41 UNL     1     -28.125   9.443 -11.761  1.00  0.00     0.277 HD
BRANCH  22  25
HETATM   25  C6  UNL     1     -28.558   7.836 -12.971  1.00  0.00     0.318 C 
BRANCH  25  26
HETATM   26  C7  UNL     1     -29.353   7.337 -11.839  1.00  0.00     0.167 C 
BRANCH  26  27
HETATM   27  O2  UNL     1     -30.661   7.211 -11.949  1.00  0.00    -0.347 OA
ATOM     28  H2  UNL     1     -31.234   7.549 -11.271  1.00  0.00     0.219 HD
ENDBRANCH  26  27
BRANCH  26  29
HETATM   29  N5  UNL     1     -28.841   6.970 -10.585  1.00  0.00    -0.211 N 
ATOM     30  H5  UNL     1     -29.456   7.046  -9.775  1.00  0.00     0.204 HD
BRANCH  29  31
HETATM   31  N6  UNL     1     -27.607   6.531 -10.392  1.00  0.00    -0.277 NA
HETATM   32  C8  UNL     1     -26.384   6.087 -10.192  1.00  0.00     0.369 C 
HETATM   33  O3  UNL     1     -25.882   5.164  -9.613  1.00  0.00    -0.247 OA
BRANCH  32  34
HETATM   34  C9  UNL     1     -25.261   6.897 -10.907  1.00  0.00     0.159 A 
HETATM   35  C10 UNL     1     -24.098   7.292 -10.209  1.00  0.00     0.046 A 
HETATM   36  C11 UNL     1     -23.368   7.940 -11.143  1.00  0.00     0.027 A 
HETATM   37  C12 UNL     1     -24.100   7.929 -12.326  1.00  0.00     0.143 A 
HETATM   38  O4  UNL     1     -25.202   7.284 -12.074  1.00  0.00    -0.316 OA
ENDBRANCH  32  34
ENDBRANCH  29  31
ENDBRANCH  26  29
ENDBRANCH  25  26
ENDBRANCH  22  25
ENDBRANCH  21  22
ENDBRANCH  20  21
ENDBRANCH   1  20
TORSDOF 17
ENDMDL
MODEL 5
REMARK VINA RESULT: -6.615409311      2.185      3.486
REMARK  17 active torsions:
REMARK  status: ('A' for Active; 'I' for Inactive)
REMARK    1  A    between atoms: O1_1  and  N1_3 
REMARK    2  A    between atoms: N1_3  and  N2_5 
REMARK    3  A    between atoms: N2_5  and  C1_6 
REMARK    4  A    between atoms: N2_5  and  C13_31 
REMARK    5  A    between atoms: C1_6  and  C2_7 
REMARK    6  A    between atoms: C2_7  and  N3_8 
REMARK    7  A    between atoms: N3_8  and  C3_11 
REMARK    8  A    between atoms: C3_11  and  C4_12 
REMARK    9  A    between atoms: C4_12  and  C5_13 
REMARK   10  A    between atoms: C5_13  and  N4_14 
REMARK   11  A    between atoms: N4_14  and  C6_17 
REMARK   12  A    between atoms: C6_17  and  C7_18 
REMARK   13  A    between atoms: C7_18  and  O2_19 
REMARK   14  A    between atoms: C7_18  and  N5_21 
REMARK   15  A    between atoms: N5_21  and  N6_23 
REMARK       I    between atoms: N6_23  and  C8_24 
REMARK   16  A    between atoms: C8_24  and  C9_26 
REMARK   17  A    between atoms: C13_31  and  C14_32 
ROOT
HETATM    1  C3  UNL     1     -29.372  13.312 -15.006  1.00  0.00     0.234 C 
ENDROOT
BRANCH   1   2
HETATM    2  N3  UNL     1     -29.984  14.197 -15.889  1.00  0.00    -0.071 N 
ATOM      3  H32 UNL     1     -30.711  14.747 -15.433  1.00  0.00     0.277 HD
ATOM      4  H31 UNL     1     -30.567  13.711 -16.570  1.00  0.00     0.277 HD
BRANCH   2   5
HETATM    5  C2  UNL     1     -28.968  15.058 -16.544  1.00  0.00     0.278 C 
BRANCH   5   6
HETATM    6  C1  UNL     1     -29.119  14.850 -18.036  1.00  0.00     0.112 C 
BRANCH   6   7
HETATM    7  N2  UNL     1     -28.544  13.693 -18.590  1.00  0.00    -0.282 N 
BRANCH   7   8
HETATM    8  N1  UNL     1     -29.313  12.636 -19.105  1.00  0.00    -0.208 N 
ATOM      9  H1  UNL     1     -28.835  11.772 -19.360  1.00  0.00     0.216 HD
BRANCH   8  10
HETATM   10  O1  UNL     1     -30.550  12.695 -19.267  1.00  0.00    -0.274 OA
ATOM     11  H1  UNL     1     -31.064  11.998 -19.657  1.00  0.00     0.246 HD
ENDBRANCH   8  10
ENDBRANCH   7   8
BRANCH   7  12
HETATM   12  C13 UNL     1     -27.091  13.492 -18.567  1.00  0.00     0.188 C 
BRANCH  12  13
HETATM   13  C14 UNL     1     -26.540  13.514 -19.929  1.00  0.00    -0.036 A 
HETATM   14  C15 UNL     1     -25.831  12.436 -20.370  1.00  0.00     0.026 A 
HETATM   15  C16 UNL     1     -25.269  12.459 -21.625  1.00  0.00     0.088 A 
HETATM   16  N7  UNL     1     -25.445  13.600 -22.391  1.00  0.00    -0.375 N 
HETATM   17  C17 UNL     1     -26.124  14.660 -21.994  1.00  0.00     0.088 A 
ATOM     18  H7  UNL     1     -25.023  13.622 -23.320  1.00  0.00     0.164 HD
HETATM   19  C18 UNL     1     -26.686  14.621 -20.751  1.00  0.00     0.026 A 
ENDBRANCH  12  13
ENDBRANCH   7  12
ENDBRANCH   6   7
ENDBRANCH   5   6
ENDBRANCH   2   5
ENDBRANCH   1   2
BRANCH   1  20
HETATM   20  C4  UNL     1     -29.583  11.840 -15.125  1.00  0.00     0.055 C 
BRANCH  20  21
HETATM   21  C5  UNL     1     -29.778  11.382 -13.648  1.00  0.00     0.234 C 
BRANCH  21  22
HETATM   22  N4  UNL     1     -29.936   9.929 -13.712  1.00  0.00    -0.068 N 
ATOM     23  H42 UNL     1     -30.469   9.556 -12.927  1.00  0.00     0.277 HD
ATOM     24  H41 UNL     1     -30.565   9.635 -14.459  1.00  0.00     0.277 HD
BRANCH  22  25
HETATM   25  C6  UNL     1     -28.629   9.341 -13.824  1.00  0.00     0.318 C 
BRANCH  25  26
HETATM   26  C7  UNL     1     -28.627   8.038 -13.144  1.00  0.00     0.167 C 
BRANCH  26  27
HETATM   27  O2  UNL     1     -28.138   6.972 -13.749  1.00  0.00    -0.347 OA
ATOM     28  H2  UNL     1     -28.721   6.294 -14.070  1.00  0.00     0.219 HD
ENDBRANCH  26  27
BRANCH  26  29
HETATM   29  N5  UNL     1     -29.125   7.792 -11.855  1.00  0.00    -0.211 N 
ATOM     30  H5  UNL     1     -30.120   7.938 -11.689  1.00  0.00     0.204 HD
BRANCH  29  31
HETATM   31  N6  UNL     1     -28.378   7.382 -10.842  1.00  0.00    -0.277 NA
HETATM   32  C8  UNL     1     -27.643   6.977  -9.827  1.00  0.00     0.369 C 
HETATM   33  O3  UNL     1     -27.806   6.818  -8.650  1.00  0.00    -0.247 OA
BRANCH  32  34
HETATM   34  C9  UNL     1     -26.197   6.529 -10.195  1.00  0.00     0.159 A 
HETATM   35  C10 UNL     1     -25.332   7.389 -10.908  1.00  0.00     0.046 A 
HETATM   36  C11 UNL     1     -24.190   6.677 -11.018  1.00  0.00     0.027 A 
HETATM   37  C12 UNL     1     -24.405   5.446 -10.406  1.00  0.00     0.143 A 
HETATM   38  O4  UNL     1     -25.624   5.466  -9.951  1.00  0.00    -0.316 OA
ENDBRANCH  32  34
ENDBRANCH  29  31
ENDBRANCH  26  29
ENDBRANCH  25  26
ENDBRANCH  22  25
ENDBRANCH  21  22
ENDBRANCH  20  21
ENDBRANCH   1  20
TORSDOF 17
ENDMDL
