MODEL 1
REMARK VINA RESULT: -7.167277036      0.000      0.000
REMARK  10 active torsions:
REMARK  status: ('A' for Active; 'I' for Inactive)
REMARK    1  A    between atoms: C4_10  and  N4_11 
REMARK    2  A    between atoms: N4_11  and  C5_13 
REMARK    3  A    between atoms: C5_13  and  C6_14 
REMARK    4  A    between atoms: C6_14  and  N5_15 
REMARK    5  A    between atoms: C8_22  and  N9_23 
REMARK    6  A    between atoms: N9_23  and  C9_25 
REMARK    7  A    between atoms: C9_25  and  C10_26 
REMARK    8  A    between atoms: C10_26  and  C11_27 
REMARK    9  A    between atoms: C11_27  and  O2_28 
REMARK   10  A    between atoms: O2_28  and  N10_29 
ROOT
HETATM    1  N10 UNL     1      -7.120  16.754 -15.335  1.00  0.00    -0.201 N 
ATOM      2  H10 UNL     1      -7.080  17.774 -15.316  1.00  0.00     0.207 HD
HETATM    3  C12 UNL     1      -7.044  16.021 -14.129  1.00  0.00     0.203 C 
HETATM    4  N11 UNL     1      -6.979  15.430 -13.142  1.00  0.00    -0.170 NA
ENDROOT
BRANCH   1   5
HETATM    5  O2  UNL     1      -7.245  16.105 -16.511  1.00  0.00    -0.271 OA
BRANCH   5   6
HETATM    6  C11 UNL     1      -5.980  16.023 -17.081  1.00  0.00     0.203 C 
BRANCH   6   7
HETATM    7  C10 UNL     1      -5.763  14.676 -17.754  1.00  0.00     0.048 C 
BRANCH   7   8
HETATM    8  C9  UNL     1      -6.453  13.615 -16.925  1.00  0.00     0.123 C 
BRANCH   8   9
HETATM    9  N9  UNL     1      -7.604  13.164 -17.645  1.00  0.00    -0.375 N 
ATOM     10  H9  UNL     1      -7.490  12.993 -18.644  1.00  0.00     0.161 HD
BRANCH   9  11
HETATM   11  C8  UNL     1      -8.766  12.955 -17.145  1.00  0.00     0.136 A 
HETATM   12  N8  UNL     1      -9.500  13.934 -16.580  1.00  0.00    -0.176 N 
HETATM   13  C4  UNL     1     -10.724  13.714 -16.051  1.00  0.00     0.681 A 
ATOM     14  H8  UNL     1      -9.116  14.878 -16.550  1.00  0.00     0.186 HD
HETATM   15  N3  UNL     1     -11.198  12.454 -16.111  1.00  0.00    -0.175 N 
HETATM   16  C3  UNL     1     -10.518  11.442 -16.658  1.00  0.00     0.144 A 
ATOM     17  H3  UNL     1     -12.120  12.264 -15.720  1.00  0.00     0.186 HD
HETATM   18  N2  UNL     1     -11.010  10.195 -16.706  1.00  0.00    -0.293 N 
HETATM   19  C13 UNL     1      -9.273  11.677 -17.193  1.00  0.00     0.121 A 
HETATM   20  C2  UNL     1     -10.298   9.177 -17.270  1.00  0.00     0.330 A 
ATOM     21  H2  UNL     1     -11.933  10.004 -16.315  1.00  0.00     0.172 HD
HETATM   22  N1  UNL     1      -9.079   9.368 -17.801  1.00  0.00    -0.270 N 
HETATM   23  O1  UNL     1     -10.764   8.005 -17.313  1.00  0.00    -0.246 OA
HETATM   24  C1  UNL     1      -8.327   8.291 -18.398  1.00  0.00     0.164 C 
HETATM   25  C14 UNL     1      -8.567  10.611 -17.764  1.00  0.00     0.269 A 
HETATM   26  O3  UNL     1      -7.439  10.851 -18.242  1.00  0.00    -0.267 OA
BRANCH  13  27
HETATM   27  N4  UNL     1     -11.372  14.698 -15.526  1.00  0.00    -0.224 N 
ATOM     28  H4  UNL     1     -12.374  14.818 -15.673  1.00  0.00     0.177 HD
BRANCH  27  29
HETATM   29  C5  UNL     1     -10.602  15.627 -14.715  1.00  0.00     0.157 C 
BRANCH  29  30
HETATM   30  C6  UNL     1     -11.074  17.051 -14.903  1.00  0.00     0.142 C 
BRANCH  30  31
HETATM   31  N5  UNL     1     -11.164  17.307 -16.305  1.00  0.00    -0.365 N 
HETATM   32  C7  UNL     1     -10.380  18.146 -16.923  1.00  0.00     0.197 C 
HETATM   33  N6  UNL     1     -10.476  18.391 -18.306  1.00  0.00    -0.067 NA
HETATM   34  N7  UNL     1      -9.407  18.818 -16.144  1.00  0.00    -0.067 NA
ATOM     35  H5  UNL     1     -11.872  16.812 -16.847  1.00  0.00     0.161 HD
ENDBRANCH  30  31
ENDBRANCH  29  30
ENDBRANCH  27  29
ENDBRANCH  13  27
ENDBRANCH   9  11
ENDBRANCH   8   9
ENDBRANCH   7   8
ENDBRANCH   6   7
ENDBRANCH   5   6
ENDBRANCH   1   5
TORSDOF 10
ENDMDL
MODEL 2
REMARK VINA RESULT: -7.126259263      1.723      2.349
REMARK  10 active torsions:
REMARK  status: ('A' for Active; 'I' for Inactive)
REMARK    1  A    between atoms: C4_10  and  N4_11 
REMARK    2  A    between atoms: N4_11  and  C5_13 
REMARK    3  A    between atoms: C5_13  and  C6_14 
REMARK    4  A    between atoms: C6_14  and  N5_15 
REMARK    5  A    between atoms: C8_22  and  N9_23 
REMARK    6  A    between atoms: N9_23  and  C9_25 
REMARK    7  A    between atoms: C9_25  and  C10_26 
REMARK    8  A    between atoms: C10_26  and  C11_27 
REMARK    9  A    between atoms: C11_27  and  O2_28 
REMARK   10  A    between atoms: O2_28  and  N10_29 
ROOT
HETATM    1  N10 UNL     1      -6.683  16.174 -14.536  1.00  0.00    -0.201 N 
ATOM      2  H10 UNL     1      -6.272  16.863 -13.906  1.00  0.00     0.207 HD
HETATM    3  C12 UNL     1      -7.795  15.408 -14.117  1.00  0.00     0.203 C 
HETATM    4  N11 UNL     1      -8.699  14.784 -13.768  1.00  0.00    -0.170 NA
ENDROOT
BRANCH   1   5
HETATM    5  O2  UNL     1      -6.168  15.993 -15.769  1.00  0.00    -0.271 OA
BRANCH   5   6
HETATM    6  C11 UNL     1      -5.168  15.032 -15.669  1.00  0.00     0.203 C 
BRANCH   6   7
HETATM    7  C10 UNL     1      -5.250  14.029 -16.809  1.00  0.00     0.048 C 
BRANCH   7   8
HETATM    8  C9  UNL     1      -5.683  14.764 -18.058  1.00  0.00     0.123 C 
BRANCH   8   9
HETATM    9  N9  UNL     1      -6.965  14.262 -18.450  1.00  0.00    -0.375 N 
ATOM     10  H9  UNL     1      -6.994  13.634 -19.253  1.00  0.00     0.161 HD
BRANCH   9  11
HETATM   11  C8  UNL     1      -8.081  14.532 -17.879  1.00  0.00     0.136 A 
HETATM   12  N8  UNL     1      -8.486  15.794 -17.636  1.00  0.00    -0.176 N 
HETATM   13  C4  UNL     1      -9.661  16.079 -17.033  1.00  0.00     0.681 A 
ATOM     14  H8  UNL     1      -7.881  16.565 -17.918  1.00  0.00     0.186 HD
HETATM   15  N3  UNL     1     -10.434  15.034 -16.676  1.00  0.00    -0.175 N 
HETATM   16  C3  UNL     1     -10.087  13.762 -16.890  1.00  0.00     0.144 A 
ATOM     17  H3  UNL     1     -11.326  15.225 -16.221  1.00  0.00     0.186 HD
HETATM   18  N2  UNL     1     -10.873  12.737 -16.526  1.00  0.00    -0.293 N 
HETATM   19  C13 UNL     1      -8.888  13.483 -17.504  1.00  0.00     0.121 A 
HETATM   20  C2  UNL     1     -10.498  11.445 -16.754  1.00  0.00     0.330 A 
ATOM     21  H2  UNL     1     -11.765  12.927 -16.070  1.00  0.00     0.172 HD
HETATM   22  N1  UNL     1      -9.335  11.134 -17.350  1.00  0.00    -0.270 N 
HETATM   23  O1  UNL     1     -11.240  10.484 -16.409  1.00  0.00    -0.246 OA
HETATM   24  C1  UNL     1      -8.941   9.768 -17.592  1.00  0.00     0.164 C 
HETATM   25  C14 UNL     1      -8.532  12.147 -17.724  1.00  0.00     0.269 A 
HETATM   26  O3  UNL     1      -7.439  11.921 -18.283  1.00  0.00    -0.267 OA
BRANCH  13  27
HETATM   27  N4  UNL     1      -9.986  17.311 -16.832  1.00  0.00    -0.224 N 
ATOM     28  H4  UNL     1      -9.706  18.051 -17.476  1.00  0.00     0.177 HD
BRANCH  27  29
HETATM   29  C5  UNL     1     -10.772  17.592 -15.641  1.00  0.00     0.157 C 
BRANCH  29  30
HETATM   30  C6  UNL     1      -9.978  18.385 -14.627  1.00  0.00     0.142 C 
BRANCH  30  31
HETATM   31  N5  UNL     1      -9.062  19.221 -15.336  1.00  0.00    -0.365 N 
HETATM   32  C7  UNL     1      -7.903  19.571 -14.852  1.00  0.00     0.197 C 
HETATM   33  N6  UNL     1      -7.007  20.395 -15.558  1.00  0.00    -0.067 NA
HETATM   34  N7  UNL     1      -7.565  19.085 -13.565  1.00  0.00    -0.067 NA
ATOM     35  H5  UNL     1      -9.326  19.560 -16.261  1.00  0.00     0.161 HD
ENDBRANCH  30  31
ENDBRANCH  29  30
ENDBRANCH  27  29
ENDBRANCH  13  27
ENDBRANCH   9  11
ENDBRANCH   8   9
ENDBRANCH   7   8
ENDBRANCH   6   7
ENDBRANCH   5   6
ENDBRANCH   1   5
TORSDOF 10
ENDMDL
MODEL 3
REMARK VINA RESULT: -6.911136809      1.221      1.451
REMARK  10 active torsions:
REMARK  status: ('A' for Active; 'I' for Inactive)
REMARK    1  A    between atoms: C4_10  and  N4_11 
REMARK    2  A    between atoms: N4_11  and  C5_13 
REMARK    3  A    between atoms: C5_13  and  C6_14 
REMARK    4  A    between atoms: C6_14  and  N5_15 
REMARK    5  A    between atoms: C8_22  and  N9_23 
REMARK    6  A    between atoms: N9_23  and  C9_25 
REMARK    7  A    between atoms: C9_25  and  C10_26 
REMARK    8  A    between atoms: C10_26  and  C11_27 
REMARK    9  A    between atoms: C11_27  and  O2_28 
REMARK   10  A    between atoms: O2_28  and  N10_29 
ROOT
HETATM    1  N10 UNL     1      -6.889  16.989 -15.709  1.00  0.00    -0.201 N 
ATOM      2  H10 UNL     1      -6.937  17.961 -15.406  1.00  0.00     0.207 HD
HETATM    3  C12 UNL     1      -6.992  15.946 -14.760  1.00  0.00     0.203 C 
HETATM    4  N11 UNL     1      -7.074  15.101 -13.980  1.00  0.00    -0.170 NA
ENDROOT
BRANCH   1   5
HETATM    5  O2  UNL     1      -6.727  16.696 -17.015  1.00  0.00    -0.271 OA
BRANCH   5   6
HETATM    6  C11 UNL     1      -5.510  16.037 -17.150  1.00  0.00     0.203 C 
BRANCH   6   7
HETATM    7  C10 UNL     1      -5.585  14.947 -18.208  1.00  0.00     0.048 C 
BRANCH   7   8
HETATM    8  C9  UNL     1      -6.118  13.690 -17.557  1.00  0.00     0.123 C 
BRANCH   8   9
HETATM    9  N9  UNL     1      -7.403  13.406 -18.118  1.00  0.00    -0.375 N 
ATOM     10  H9  UNL     1      -7.424  13.008 -19.057  1.00  0.00     0.161 HD
BRANCH   9  11
HETATM   11  C8  UNL     1      -8.532  13.610 -17.544  1.00  0.00     0.136 A 
HETATM   12  N8  UNL     1      -8.978  14.842 -17.236  1.00  0.00    -0.176 N 
HETATM   13  C4  UNL     1     -10.167  15.057 -16.630  1.00  0.00     0.681 A 
ATOM     14  H8  UNL     1      -8.396  15.646 -17.469  1.00  0.00     0.186 HD
HETATM   15  N3  UNL     1     -10.909  13.970 -16.340  1.00  0.00    -0.175 N 
HETATM   16  C3  UNL     1     -10.520  12.723 -16.620  1.00  0.00     0.144 A 
ATOM     17  H3  UNL     1     -11.811  14.107 -15.883  1.00  0.00     0.186 HD
HETATM   18  N2  UNL     1     -11.276  11.655 -16.321  1.00  0.00    -0.293 N 
HETATM   19  C13 UNL     1      -9.309  12.516 -17.236  1.00  0.00     0.121 A 
HETATM   20  C2  UNL     1     -10.859  10.391 -16.617  1.00  0.00     0.330 A 
ATOM     21  H2  UNL     1     -12.178  11.792 -15.865  1.00  0.00     0.172 HD
HETATM   22  N1  UNL     1      -9.682  10.150 -17.218  1.00  0.00    -0.270 N 
HETATM   23  O1  UNL     1     -11.573   9.389 -16.335  1.00  0.00    -0.246 OA
HETATM   24  C1  UNL     1      -9.243   8.813 -17.532  1.00  0.00     0.164 C 
HETATM   25  C14 UNL     1      -8.909  11.206 -17.527  1.00  0.00     0.269 A 
HETATM   26  O3  UNL     1      -7.805  11.046 -18.087  1.00  0.00    -0.267 OA
BRANCH  13  27
HETATM   27  N4  UNL     1     -10.532  16.265 -16.363  1.00  0.00    -0.224 N 
ATOM     28  H4  UNL     1     -10.378  17.029 -17.022  1.00  0.00     0.177 HD
BRANCH  27  29
HETATM   29  C5  UNL     1     -11.175  16.483 -15.078  1.00  0.00     0.157 C 
BRANCH  29  30
HETATM   30  C6  UNL     1     -10.372  17.426 -14.210  1.00  0.00     0.142 C 
BRANCH  30  31
HETATM   31  N5  UNL     1     -10.873  18.749 -14.408  1.00  0.00    -0.365 N 
HETATM   32  C7  UNL     1     -10.234  19.651 -15.099  1.00  0.00     0.197 C 
HETATM   33  N6  UNL     1     -10.737  20.952 -15.290  1.00  0.00    -0.067 NA
HETATM   34  N7  UNL     1      -8.992  19.274 -15.665  1.00  0.00    -0.067 NA
ATOM     35  H5  UNL     1     -11.770  18.998 -13.991  1.00  0.00     0.161 HD
ENDBRANCH  30  31
ENDBRANCH  29  30
ENDBRANCH  27  29
ENDBRANCH  13  27
ENDBRANCH   9  11
ENDBRANCH   8   9
ENDBRANCH   7   8
ENDBRANCH   6   7
ENDBRANCH   5   6
ENDBRANCH   1   5
TORSDOF 10
ENDMDL
MODEL 4
REMARK VINA RESULT: -6.833157601      2.232      6.761
REMARK  10 active torsions:
REMARK  status: ('A' for Active; 'I' for Inactive)
REMARK    1  A    between atoms: C4_10  and  N4_11 
REMARK    2  A    between atoms: N4_11  and  C5_13 
REMARK    3  A    between atoms: C5_13  and  C6_14 
REMARK    4  A    between atoms: C6_14  and  N5_15 
REMARK    5  A    between atoms: C8_22  and  N9_23 
REMARK    6  A    between atoms: N9_23  and  C9_25 
REMARK    7  A    between atoms: C9_25  and  C10_26 
REMARK    8  A    between atoms: C10_26  and  C11_27 
REMARK    9  A    between atoms: C11_27  and  O2_28 
REMARK   10  A    between atoms: O2_28  and  N10_29 
ROOT
HETATM    1  N10 UNL     1      -7.727  13.930 -18.928  1.00  0.00    -0.201 N 
ATOM      2  H10 UNL     1      -8.192  13.952 -19.836  1.00  0.00     0.207 HD
HETATM    3  C12 UNL     1      -7.464  12.692 -18.298  1.00  0.00     0.203 C 
HETATM    4  N11 UNL     1      -7.256  11.680 -17.789  1.00  0.00    -0.170 NA
ENDROOT
BRANCH   1   5
HETATM    5  O2  UNL     1      -7.361  15.081 -18.329  1.00  0.00    -0.271 OA
BRANCH   5   6
HETATM    6  C11 UNL     1      -6.012  14.977 -18.009  1.00  0.00     0.203 C 
BRANCH   6   7
HETATM    7  C10 UNL     1      -5.694  15.709 -16.715  1.00  0.00     0.048 C 
BRANCH   7   8
HETATM    8  C9  UNL     1      -6.144  14.845 -15.557  1.00  0.00     0.123 C 
BRANCH   8   9
HETATM    9  N9  UNL     1      -7.279  15.470 -14.949  1.00  0.00    -0.375 N 
ATOM     10  H9  UNL     1      -7.102  16.082 -14.152  1.00  0.00     0.161 HD
BRANCH   9  11
HETATM   11  C8  UNL     1      -8.499  15.327 -15.318  1.00  0.00     0.136 A 
HETATM   12  N8  UNL     1      -8.994  14.151 -15.749  1.00  0.00    -0.176 N 
HETATM   13  C4  UNL     1     -10.279  14.000 -16.139  1.00  0.00     0.681 A 
ATOM     14  H8  UNL     1      -8.375  13.342 -15.783  1.00  0.00     0.186 HD
HETATM   15  N3  UNL     1     -11.067  15.091 -16.079  1.00  0.00    -0.175 N 
HETATM   16  C3  UNL     1     -10.635  16.284 -15.660  1.00  0.00     0.144 A 
ATOM     17  H3  UNL     1     -12.042  15.002 -16.367  1.00  0.00     0.186 HD
HETATM   18  N2  UNL     1     -11.438  17.358 -15.609  1.00  0.00    -0.293 N 
HETATM   19  C13 UNL     1      -9.325  16.426 -15.267  1.00  0.00     0.121 A 
HETATM   20  C2  UNL     1     -10.974  18.566 -15.178  1.00  0.00     0.330 A 
ATOM     21  H2  UNL     1     -12.413  17.268 -15.897  1.00  0.00     0.172 HD
HETATM   22  N1  UNL     1      -9.702  18.743 -14.786  1.00  0.00    -0.270 N 
HETATM   23  O1  UNL     1     -11.733  19.573 -15.131  1.00  0.00    -0.246 OA
HETATM   24  C1  UNL     1      -9.212  20.020 -14.330  1.00  0.00     0.164 C 
HETATM   25  C14 UNL     1      -8.879  17.679 -14.829  1.00  0.00     0.269 A 
HETATM   26  O3  UNL     1      -7.686  17.781 -14.477  1.00  0.00    -0.267 OA
BRANCH  13  27
HETATM   27  N4  UNL     1     -10.687  12.844 -16.541  1.00  0.00    -0.224 N 
ATOM     28  H4  UNL     1     -11.223  12.735 -17.402  1.00  0.00     0.177 HD
BRANCH  27  29
HETATM   29  C5  UNL     1     -10.344  11.705 -15.706  1.00  0.00     0.157 C 
BRANCH  29  30
HETATM   30  C6  UNL     1     -10.804  10.404 -16.325  1.00  0.00     0.142 C 
BRANCH  30  31
HETATM   31  N5  UNL     1      -9.757   9.919 -17.168  1.00  0.00    -0.365 N 
HETATM   32  C7  UNL     1      -9.774   8.731 -17.704  1.00  0.00     0.197 C 
HETATM   33  N6  UNL     1      -8.738   8.263 -18.534  1.00  0.00    -0.067 NA
HETATM   34  N7  UNL     1     -10.890   7.908 -17.421  1.00  0.00    -0.067 NA
ATOM     35  H5  UNL     1      -8.963  10.530 -17.358  1.00  0.00     0.161 HD
ENDBRANCH  30  31
ENDBRANCH  29  30
ENDBRANCH  27  29
ENDBRANCH  13  27
ENDBRANCH   9  11
ENDBRANCH   8   9
ENDBRANCH   7   8
ENDBRANCH   6   7
ENDBRANCH   5   6
ENDBRANCH   1   5
TORSDOF 10
ENDMDL
MODEL 5
REMARK VINA RESULT: -6.724429206      0.952      1.315
REMARK  10 active torsions:
REMARK  status: ('A' for Active; 'I' for Inactive)
REMARK    1  A    between atoms: C4_10  and  N4_11 
REMARK    2  A    between atoms: N4_11  and  C5_13 
REMARK    3  A    between atoms: C5_13  and  C6_14 
REMARK    4  A    between atoms: C6_14  and  N5_15 
REMARK    5  A    between atoms: C8_22  and  N9_23 
REMARK    6  A    between atoms: N9_23  and  C9_25 
REMARK    7  A    between atoms: C9_25  and  C10_26 
REMARK    8  A    between atoms: C10_26  and  C11_27 
REMARK    9  A    between atoms: C11_27  and  O2_28 
REMARK   10  A    between atoms: O2_28  and  N10_29 
ROOT
HETATM    1  N10 UNL     1      -7.138  17.588 -15.276  1.00  0.00    -0.201 N 
ATOM      2  H10 UNL     1      -6.422  17.338 -14.594  1.00  0.00     0.207 HD
HETATM    3  C12 UNL     1      -7.849  18.803 -15.143  1.00  0.00     0.203 C 
HETATM    4  N11 UNL     1      -8.426  19.793 -15.027  1.00  0.00    -0.170 NA
ENDROOT
BRANCH   1   5
HETATM    5  O2  UNL     1      -7.407  16.760 -16.306  1.00  0.00    -0.271 OA
BRANCH   5   6
HETATM    6  C11 UNL     1      -6.578  15.652 -16.181  1.00  0.00     0.203 C 
BRANCH   6   7
HETATM    7  C10 UNL     1      -6.234  15.062 -17.540  1.00  0.00     0.048 C 
BRANCH   7   8
HETATM    8  C9  UNL     1      -7.524  14.698 -18.240  1.00  0.00     0.123 C 
BRANCH   8   9
HETATM    9  N9  UNL     1      -7.909  13.387 -17.814  1.00  0.00    -0.375 N 
ATOM     10  H9  UNL     1      -7.282  12.618 -18.052  1.00  0.00     0.161 HD
BRANCH   9  11
HETATM   11  C8  UNL     1      -8.972  13.093 -17.161  1.00  0.00     0.136 A 
HETATM   12  N8  UNL     1      -9.681  14.012 -16.477  1.00  0.00    -0.176 N 
HETATM   13  C4  UNL     1     -10.802  13.703 -15.787  1.00  0.00     0.681 A 
ATOM     14  H8  UNL     1      -9.360  14.980 -16.481  1.00  0.00     0.186 HD
HETATM   15  N3  UNL     1     -11.195  12.415 -15.808  1.00  0.00    -0.175 N 
HETATM   16  C3  UNL     1     -10.534  11.459 -16.466  1.00  0.00     0.144 A 
ATOM     17  H3  UNL     1     -12.039  12.157 -15.295  1.00  0.00     0.186 HD
HETATM   18  N2  UNL     1     -10.945  10.181 -16.472  1.00  0.00    -0.293 N 
HETATM   19  C13 UNL     1      -9.395  11.784 -17.165  1.00  0.00     0.121 A 
HETATM   20  C2  UNL     1     -10.254   9.221 -17.152  1.00  0.00     0.330 A 
ATOM     21  H2  UNL     1     -11.789   9.923 -15.960  1.00  0.00     0.172 HD
HETATM   22  N1  UNL     1      -9.138   9.501 -17.845  1.00  0.00    -0.270 N 
HETATM   23  O1  UNL     1     -10.644   8.020 -17.155  1.00  0.00    -0.246 OA
HETATM   24  C1  UNL     1      -8.409   8.486 -18.564  1.00  0.00     0.164 C 
HETATM   25  C14 UNL     1      -8.708  10.776 -17.852  1.00  0.00     0.269 A 
HETATM   26  O3  UNL     1      -7.678  11.098 -18.479  1.00  0.00    -0.267 OA
BRANCH  13  27
HETATM   27  N4  UNL     1     -11.432  14.634 -15.155  1.00  0.00    -0.224 N 
ATOM     28  H4  UNL     1     -12.438  14.586 -14.995  1.00  0.00     0.177 HD
BRANCH  27  29
HETATM   29  C5  UNL     1     -10.636  15.756 -14.682  1.00  0.00     0.157 C 
BRANCH  29  30
HETATM   30  C6  UNL     1     -11.175  17.072 -15.194  1.00  0.00     0.142 C 
BRANCH  30  31
HETATM   31  N5  UNL     1     -10.716  17.249 -16.535  1.00  0.00    -0.365 N 
HETATM   32  C7  UNL     1     -10.916  18.345 -17.212  1.00  0.00     0.197 C 
HETATM   33  N6  UNL     1     -10.459  18.510 -18.533  1.00  0.00    -0.067 NA
HETATM   34  N7  UNL     1     -11.621  19.388 -16.564  1.00  0.00    -0.067 NA
ATOM     35  H5  UNL     1     -10.211  16.485 -16.982  1.00  0.00     0.161 HD
ENDBRANCH  30  31
ENDBRANCH  29  30
ENDBRANCH  27  29
ENDBRANCH  13  27
ENDBRANCH   9  11
ENDBRANCH   8   9
ENDBRANCH   7   8
ENDBRANCH   6   7
ENDBRANCH   5   6
ENDBRANCH   1   5
TORSDOF 10
ENDMDL
