MODEL 1
REMARK VINA RESULT: -6.989841172      0.000      0.000
REMARK  3 active torsions:
REMARK  status: ('A' for Active; 'I' for Inactive)
REMARK    1  A    between atoms: N1_1  and  C1_4 
REMARK    2  A    between atoms: N3_9  and  N4_10 
REMARK    3  A    between atoms: C4_15  and  C5_16 
ROOT
HETATM    1  C1  UNL     1     -18.779  51.672 -59.567  1.00  0.00     0.121 A 
HETATM    2  N2  UNL     1     -18.488  52.365 -60.679  1.00  0.00    -0.292 N 
ATOM      3  H2  UNL     1     -17.515  52.593 -60.885  1.00  0.00     0.172 HD
HETATM    4  C2  UNL     1     -19.458  52.768 -61.534  1.00  0.00     0.348 A 
HETATM    5  O1  UNL     1     -19.201  53.421 -62.586  1.00  0.00    -0.245 OA
HETATM    6  N3  UNL     1     -20.750  52.453 -61.239  1.00  0.00    -0.197 N 
HETATM    7  C3  UNL     1     -21.066  51.756 -60.124  1.00  0.00     0.161 A 
HETATM    8  N5  UNL     1     -22.418  51.452 -59.860  1.00  0.00    -0.079 NA
HETATM    9  C4  UNL     1     -20.079  51.347 -59.255  1.00  0.00     0.116 A 
ENDROOT
BRANCH   1  10
HETATM   10  N1  UNL     1     -17.842  51.295 -58.760  1.00  0.00    -0.384 N 
ATOM     11  H12 UNL     1     -17.621  50.301 -58.708  1.00  0.00     0.157 HD
ATOM     12  H11 UNL     1     -17.339  51.976 -58.192  1.00  0.00     0.157 HD
ENDBRANCH   1  10
BRANCH   9  13
HETATM   13  C5  UNL     1     -20.435  50.594 -58.054  1.00  0.00     0.272 C 
HETATM   14  N6  UNL     1     -19.921  49.275 -57.934  1.00  0.00    -0.057 NA
HETATM   15  O2  UNL     1     -21.157  51.061 -57.151  1.00  0.00    -0.271 OA
ENDBRANCH   9  13
BRANCH   6  16
HETATM   16  N4  UNL     1     -21.781  52.845 -62.086  1.00  0.00    -0.333 N 
ATOM     17  H42 UNL     1     -21.839  53.827 -62.355  1.00  0.00     0.177 HD
ATOM     18  H41 UNL     1     -22.457  52.161 -62.426  1.00  0.00     0.177 HD
ENDBRANCH   6  16
TORSDOF 3
ENDMDL
MODEL 2
REMARK VINA RESULT: -6.969226781      2.348      3.138
REMARK  3 active torsions:
REMARK  status: ('A' for Active; 'I' for Inactive)
REMARK    1  A    between atoms: N1_1  and  C1_4 
REMARK    2  A    between atoms: N3_9  and  N4_10 
REMARK    3  A    between atoms: C4_15  and  C5_16 
ROOT
HETATM    1  C1  UNL     1     -21.687  52.185 -60.175  1.00  0.00     0.121 A 
HETATM    2  N2  UNL     1     -22.219  51.959 -61.387  1.00  0.00    -0.292 N 
ATOM      3  H2  UNL     1     -22.798  52.678 -61.820  1.00  0.00     0.172 HD
HETATM    4  C2  UNL     1     -22.002  50.797 -62.047  1.00  0.00     0.348 A 
HETATM    5  O1  UNL     1     -22.495  50.568 -63.189  1.00  0.00    -0.245 OA
HETATM    6  N3  UNL     1     -21.226  49.850 -61.450  1.00  0.00    -0.197 N 
HETATM    7  C3  UNL     1     -20.680  50.057 -60.229  1.00  0.00     0.161 A 
HETATM    8  N5  UNL     1     -19.883  49.048 -59.650  1.00  0.00    -0.079 NA
HETATM    9  C4  UNL     1     -20.901  51.239 -59.559  1.00  0.00     0.116 A 
ENDROOT
BRANCH   1  10
HETATM   10  N1  UNL     1     -21.903  53.300 -59.557  1.00  0.00    -0.384 N 
ATOM     11  H12 UNL     1     -21.390  53.481 -58.694  1.00  0.00     0.157 HD
ATOM     12  H11 UNL     1     -22.570  53.978 -59.925  1.00  0.00     0.157 HD
ENDBRANCH   1  10
BRANCH   9  13
HETATM   13  C5  UNL     1     -20.306  51.448 -58.241  1.00  0.00     0.272 C 
HETATM   14  N6  UNL     1     -21.091  51.105 -57.107  1.00  0.00    -0.057 NA
HETATM   15  O2  UNL     1     -19.158  51.907 -58.081  1.00  0.00    -0.271 OA
ENDBRANCH   9  13
BRANCH   6  16
HETATM   16  N4  UNL     1     -20.974  48.641 -62.088  1.00  0.00    -0.333 N 
ATOM     17  H42 UNL     1     -21.769  48.099 -62.428  1.00  0.00     0.177 HD
ATOM     18  H41 UNL     1     -20.017  48.311 -62.210  1.00  0.00     0.177 HD
ENDBRANCH   6  16
TORSDOF 3
ENDMDL
MODEL 3
REMARK VINA RESULT: -6.911486248      2.762      3.443
REMARK  3 active torsions:
REMARK  status: ('A' for Active; 'I' for Inactive)
REMARK    1  A    between atoms: N1_1  and  C1_4 
REMARK    2  A    between atoms: N3_9  and  N4_10 
REMARK    3  A    between atoms: C4_15  and  C5_16 
ROOT
HETATM    1  C1  UNL     1     -21.465  51.658 -60.086  1.00  0.00     0.121 A 
HETATM    2  N2  UNL     1     -22.008  52.873 -59.902  1.00  0.00    -0.292 N 
ATOM      3  H2  UNL     1     -21.791  53.392 -59.051  1.00  0.00     0.172 HD
HETATM    4  C2  UNL     1     -22.836  53.422 -60.822  1.00  0.00     0.348 A 
HETATM    5  O1  UNL     1     -23.355  54.564 -60.663  1.00  0.00    -0.245 OA
HETATM    6  N3  UNL     1     -23.111  52.710 -61.949  1.00  0.00    -0.197 N 
HETATM    7  C3  UNL     1     -22.576  51.485 -62.155  1.00  0.00     0.161 A 
HETATM    8  N5  UNL     1     -22.889  50.785 -63.339  1.00  0.00    -0.079 NA
HETATM    9  C4  UNL     1     -21.734  50.927 -61.220  1.00  0.00     0.116 A 
ENDROOT
BRANCH   1  10
HETATM   10  N1  UNL     1     -20.676  51.147 -59.198  1.00  0.00    -0.384 N 
ATOM     11  H12 UNL     1     -20.401  51.725 -58.405  1.00  0.00     0.157 HD
ATOM     12  H11 UNL     1     -20.339  50.189 -59.292  1.00  0.00     0.157 HD
ENDBRANCH   1  10
BRANCH   9  13
HETATM   13  C5  UNL     1     -21.163  49.603 -61.455  1.00  0.00     0.272 C 
HETATM   14  N6  UNL     1     -19.860  49.545 -62.019  1.00  0.00    -0.057 NA
HETATM   15  O2  UNL     1     -21.766  48.546 -61.183  1.00  0.00    -0.271 OA
ENDBRANCH   9  13
BRANCH   6  16
HETATM   16  N4  UNL     1     -23.956  53.233 -62.922  1.00  0.00    -0.333 N 
ATOM     17  H42 UNL     1     -23.901  54.231 -63.125  1.00  0.00     0.177 HD
ATOM     18  H41 UNL     1     -24.611  52.627 -63.416  1.00  0.00     0.177 HD
ENDBRANCH   6  16
TORSDOF 3
ENDMDL
MODEL 4
REMARK VINA RESULT: -6.879885908      2.188      3.803
REMARK  3 active torsions:
REMARK  status: ('A' for Active; 'I' for Inactive)
REMARK    1  A    between atoms: N1_1  and  C1_4 
REMARK    2  A    between atoms: N3_9  and  N4_10 
REMARK    3  A    between atoms: C4_15  and  C5_16 
ROOT
HETATM    1  C1  UNL     1     -20.524  49.740 -60.555  1.00  0.00     0.121 A 
HETATM    2  N2  UNL     1     -19.437  49.594 -59.780  1.00  0.00    -0.292 N 
ATOM      3  H2  UNL     1     -19.061  48.660 -59.618  1.00  0.00     0.172 HD
HETATM    4  C2  UNL     1     -18.828  50.661 -59.211  1.00  0.00     0.348 A 
HETATM    5  O1  UNL     1     -17.804  50.541 -58.479  1.00  0.00    -0.245 OA
HETATM    6  N3  UNL     1     -19.347  51.899 -59.441  1.00  0.00    -0.197 N 
HETATM    7  C3  UNL     1     -20.441  52.070 -60.218  1.00  0.00     0.161 A 
HETATM    8  N5  UNL     1     -20.942  53.370 -60.429  1.00  0.00    -0.079 NA
HETATM    9  C4  UNL     1     -21.060  50.984 -60.797  1.00  0.00     0.116 A 
ENDROOT
BRANCH   1  10
HETATM   10  N1  UNL     1     -21.094  48.712 -61.092  1.00  0.00    -0.384 N 
ATOM     11  H12 UNL     1     -20.717  48.353 -61.969  1.00  0.00     0.157 HD
ATOM     12  H11 UNL     1     -21.901  48.273 -60.648  1.00  0.00     0.157 HD
ENDBRANCH   1  10
BRANCH   9  13
HETATM   13  C5  UNL     1     -22.241  51.182 -61.633  1.00  0.00     0.272 C 
HETATM   14  N6  UNL     1     -23.511  51.081 -61.005  1.00  0.00    -0.057 NA
HETATM   15  O2  UNL     1     -22.174  51.432 -62.853  1.00  0.00    -0.271 OA
ENDBRANCH   9  13
BRANCH   6  16
HETATM   16  N4  UNL     1     -18.757  53.025 -58.878  1.00  0.00    -0.333 N 
ATOM     17  H42 UNL     1     -19.359  53.803 -58.607  1.00  0.00     0.177 HD
ATOM     18  H41 UNL     1     -17.747  53.065 -58.742  1.00  0.00     0.177 HD
ENDBRANCH   6  16
TORSDOF 3
ENDMDL
MODEL 5
REMARK VINA RESULT: -6.751174929      2.378      2.703
REMARK  3 active torsions:
REMARK  status: ('A' for Active; 'I' for Inactive)
REMARK    1  A    between atoms: N1_1  and  C1_4 
REMARK    2  A    between atoms: N3_9  and  N4_10 
REMARK    3  A    between atoms: C4_15  and  C5_16 
ROOT
HETATM    1  C1  UNL     1     -20.914  50.243 -60.604  1.00  0.00     0.121 A 
HETATM    2  N2  UNL     1     -21.551  50.051 -61.770  1.00  0.00    -0.292 N 
ATOM      3  H2  UNL     1     -21.431  49.167 -62.265  1.00  0.00     0.172 HD
HETATM    4  C2  UNL     1     -22.350  51.005 -62.303  1.00  0.00     0.348 A 
HETATM    5  O1  UNL     1     -22.957  50.840 -63.400  1.00  0.00    -0.245 OA
HETATM    6  N3  UNL     1     -22.496  52.178 -61.625  1.00  0.00    -0.197 N 
HETATM    7  C3  UNL     1     -21.864  52.392 -60.449  1.00  0.00     0.161 A 
HETATM    8  N5  UNL     1     -22.045  53.622 -59.783  1.00  0.00    -0.079 NA
HETATM    9  C4  UNL     1     -21.051  51.421 -59.908  1.00  0.00     0.116 A 
ENDROOT
BRANCH   1  10
HETATM   10  N1  UNL     1     -20.154  49.322 -60.108  1.00  0.00    -0.384 N 
ATOM     11  H12 UNL     1     -20.140  49.201 -59.095  1.00  0.00     0.157 HD
ATOM     12  H11 UNL     1     -19.584  48.734 -60.716  1.00  0.00     0.157 HD
ENDBRANCH   1  10
BRANCH   9  13
HETATM   13  C5  UNL     1     -20.374  51.667 -58.637  1.00  0.00     0.272 C 
HETATM   14  N6  UNL     1     -21.027  51.229 -57.453  1.00  0.00    -0.057 NA
HETATM   15  O2  UNL     1     -19.266  52.234 -58.557  1.00  0.00    -0.271 OA
ENDBRANCH   9  13
BRANCH   6  16
HETATM   16  N4  UNL     1     -23.306  53.188 -62.132  1.00  0.00    -0.333 N 
ATOM     17  H42 UNL     1     -24.317  53.060 -62.097  1.00  0.00     0.177 HD
ATOM     18  H41 UNL     1     -22.891  54.031 -62.528  1.00  0.00     0.177 HD
ENDBRANCH   6  16
TORSDOF 3
ENDMDL
