MODEL 1
REMARK VINA RESULT: -8.298437116      0.000      0.000
REMARK  7 active torsions:
REMARK  status: ('A' for Active; 'I' for Inactive)
REMARK    1  A    between atoms: N3_7  and  C3_8 
REMARK    2  A    between atoms: C3_8  and  C4_9 
REMARK    3  A    between atoms: C10_15  and  O1_16 
REMARK    4  A    between atoms: C10_15  and  C11_18 
REMARK    5  A    between atoms: C11_18  and  N4_19 
REMARK    6  A    between atoms: C15_24  and  C16_25 
REMARK    7  A    between atoms: N5_35  and  C24_36 
ROOT
HETATM    1  C1  UNL     1     -18.322  38.153  -3.456  1.00  0.00     0.171 C 
HETATM    2  N1  UNL     1     -16.933  37.799  -3.353  1.00  0.00    -0.194 N 
HETATM    3  C2  UNL     1     -15.862  38.544  -2.776  1.00  0.00     0.676 C 
HETATM    4  N2  UNL     1     -15.773  39.823  -2.735  1.00  0.00    -0.235 N 
ATOM      5  H21 UNL     1     -15.007  40.356  -2.323  1.00  0.00     0.174 HD
ATOM      6  H22 UNL     1     -16.433  40.505  -3.108  1.00  0.00     0.174 HD
HETATM    7  N3  UNL     1     -14.935  37.589  -2.253  1.00  0.00    -0.173 N 
HETATM    8  C10 UNL     1     -15.397  36.271  -2.661  1.00  0.00     0.223 C 
HETATM    9  C22 UNL     1     -16.254  36.582  -3.829  1.00  0.00     0.215 C 
HETATM   10  C23 UNL     1     -15.428  37.087  -4.950  1.00  0.00     0.268 C 
HETATM   11  O3  UNL     1     -14.720  38.118  -5.011  1.00  0.00    -0.269 OA
HETATM   12  N5  UNL     1     -15.549  36.195  -6.019  1.00  0.00    -0.279 N 
HETATM   13  C30 UNL     1     -16.576  35.271  -5.649  1.00  0.00     0.052 A 
HETATM   14  C31 UNL     1     -17.132  34.251  -6.434  1.00  0.00     0.031 A 
HETATM   15  C32 UNL     1     -18.196  33.495  -5.999  1.00  0.00     0.002 A 
HETATM   16  C33 UNL     1     -18.683  33.802  -4.749  1.00  0.00     0.001 A 
HETATM   17  C34 UNL     1     -18.146  34.800  -3.965  1.00  0.00     0.013 A 
HETATM   18  C35 UNL     1     -17.065  35.565  -4.403  1.00  0.00     0.013 A 
ENDROOT
BRANCH   8  19
HETATM   19  O1  UNL     1     -14.247  35.577  -3.181  1.00  0.00    -0.363 OA
ATOM     20  H1  UNL     1     -13.687  35.386  -2.437  1.00  0.00     0.213 HD
ENDBRANCH   8  19
BRANCH   8  21
HETATM   21  C11 UNL     1     -15.866  35.499  -1.538  1.00  0.00     0.129 C 
BRANCH  21  22
HETATM   22  N4  UNL     1     -16.208  36.009  -0.288  1.00  0.00    -0.353 N 
HETATM   23  C12 UNL     1     -15.598  35.588   0.901  1.00  0.00     0.072 C 
HETATM   24  C13 UNL     1     -16.627  35.721   2.025  1.00  0.00     0.125 C 
HETATM   25  C14 UNL     1     -17.776  36.396   1.409  1.00  0.00     0.159 C 
HETATM   26  O2  UNL     1     -18.692  37.033   1.898  1.00  0.00    -0.295 OA
HETATM   27  C15 UNL     1     -17.630  36.153  -0.051  1.00  0.00     0.191 C 
BRANCH  27  28
HETATM   28  C16 UNL     1     -18.444  34.988  -0.426  1.00  0.00    -0.028 A 
HETATM   29  C17 UNL     1     -18.005  33.683  -0.379  1.00  0.00     0.011 A 
HETATM   30  C18 UNL     1     -18.767  32.597  -0.728  1.00  0.00     0.024 A 
HETATM   31  C19 UNL     1     -20.069  32.795  -1.159  1.00  0.00     0.034 A 
HETATM   32 CL1  UNL     1     -21.041  31.408  -1.605  1.00  0.00    -0.084 Cl
HETATM   33  C20 UNL     1     -20.545  34.087  -1.219  1.00  0.00     0.024 A 
HETATM   34  C21 UNL     1     -19.766  35.158  -0.865  1.00  0.00     0.011 A 
ENDBRANCH  27  28
ENDBRANCH  21  22
ENDBRANCH   8  21
BRANCH   7  35
HETATM   35  C3  UNL     1     -13.754  37.811  -1.465  1.00  0.00     0.183 C 
BRANCH  35  36
HETATM   36  C4  UNL     1     -12.478  37.775  -2.160  1.00  0.00    -0.040 A 
HETATM   37  C5  UNL     1     -11.440  37.019  -1.655  1.00  0.00     0.009 A 
HETATM   38  C6  UNL     1     -10.205  36.956  -2.291  1.00  0.00     0.001 A 
HETATM   39  C7  UNL     1      -9.990  37.657  -3.454  1.00  0.00     0.000 A 
HETATM   40  C8  UNL     1     -11.006  38.416  -3.975  1.00  0.00     0.001 A 
HETATM   41  C9  UNL     1     -12.224  38.465  -3.329  1.00  0.00     0.009 A 
ENDBRANCH  35  36
ENDBRANCH   7  35
BRANCH  12  42
HETATM   42  C24 UNL     1     -14.820  36.168  -7.254  1.00  0.00     0.042 A 
HETATM   43  C25 UNL     1     -13.450  36.060  -7.234  1.00  0.00     0.030 A 
HETATM   44  C26 UNL     1     -12.712  36.031  -8.421  1.00  0.00     0.002 A 
HETATM   45  C27 UNL     1     -13.347  36.111  -9.636  1.00  0.00     0.000 A 
HETATM   46  C28 UNL     1     -14.715  36.220  -9.664  1.00  0.00     0.002 A 
HETATM   47  C29 UNL     1     -15.449  36.247  -8.471  1.00  0.00     0.030 A 
ENDBRANCH  12  42
TORSDOF 7
ENDMDL
MODEL 2
REMARK VINA RESULT: -7.600557301      2.023      2.938
REMARK  7 active torsions:
REMARK  status: ('A' for Active; 'I' for Inactive)
REMARK    1  A    between atoms: N3_7  and  C3_8 
REMARK    2  A    between atoms: C3_8  and  C4_9 
REMARK    3  A    between atoms: C10_15  and  O1_16 
REMARK    4  A    between atoms: C10_15  and  C11_18 
REMARK    5  A    between atoms: C11_18  and  N4_19 
REMARK    6  A    between atoms: C15_24  and  C16_25 
REMARK    7  A    between atoms: N5_35  and  C24_36 
ROOT
HETATM    1  C1  UNL     1     -18.752  39.016  -4.231  1.00  0.00     0.171 C 
HETATM    2  N1  UNL     1     -17.691  38.173  -3.753  1.00  0.00    -0.194 N 
HETATM    3  C2  UNL     1     -16.773  38.411  -2.687  1.00  0.00     0.676 C 
HETATM    4  N2  UNL     1     -16.337  39.558  -2.313  1.00  0.00    -0.235 N 
ATOM      5  H21 UNL     1     -15.680  39.728  -1.552  1.00  0.00     0.174 HD
ATOM      6  H22 UNL     1     -16.562  40.469  -2.712  1.00  0.00     0.174 HD
HETATM    7  N3  UNL     1     -16.458  37.134  -2.128  1.00  0.00    -0.173 N 
HETATM    8  C10 UNL     1     -17.082  36.126  -2.971  1.00  0.00     0.223 C 
HETATM    9  C22 UNL     1     -17.268  36.852  -4.249  1.00  0.00     0.215 C 
HETATM   10  C23 UNL     1     -15.954  37.142  -4.869  1.00  0.00     0.268 C 
HETATM   11  O3  UNL     1     -15.013  37.847  -4.438  1.00  0.00    -0.269 OA
HETATM   12  N5  UNL     1     -15.894  36.477  -6.097  1.00  0.00    -0.279 N 
HETATM   13  C30 UNL     1     -17.205  35.955  -6.329  1.00  0.00     0.052 A 
HETATM   14  C31 UNL     1     -17.673  35.298  -7.475  1.00  0.00     0.031 A 
HETATM   15  C32 UNL     1     -18.993  34.937  -7.620  1.00  0.00     0.002 A 
HETATM   16  C33 UNL     1     -19.825  35.261  -6.573  1.00  0.00     0.001 A 
HETATM   17  C34 UNL     1     -19.379  35.905  -5.439  1.00  0.00     0.013 A 
HETATM   18  C35 UNL     1     -18.041  36.268  -5.290  1.00  0.00     0.013 A 
ENDROOT
BRANCH   8  19
HETATM   19  O1  UNL     1     -16.079  35.123  -3.222  1.00  0.00    -0.363 OA
ATOM     20  H1  UNL     1     -16.112  34.518  -2.490  1.00  0.00     0.213 HD
ENDBRANCH   8  19
BRANCH   8  21
HETATM   21  C11 UNL     1     -18.164  35.459  -2.292  1.00  0.00     0.129 C 
BRANCH  21  22
HETATM   22  N4  UNL     1     -18.270  34.086  -2.085  1.00  0.00    -0.353 N 
HETATM   23  C12 UNL     1     -19.256  33.296  -2.692  1.00  0.00     0.072 C 
HETATM   24  C13 UNL     1     -19.568  32.134  -1.749  1.00  0.00     0.125 C 
HETATM   25  C14 UNL     1     -18.577  32.243  -0.671  1.00  0.00     0.159 C 
HETATM   26  O2  UNL     1     -18.159  31.421   0.125  1.00  0.00    -0.295 OA
HETATM   27  C15 UNL     1     -18.119  33.658  -0.709  1.00  0.00     0.191 C 
BRANCH  27  28
HETATM   28  C16 UNL     1     -18.889  34.436   0.272  1.00  0.00    -0.028 A 
HETATM   29  C17 UNL     1     -20.265  34.485   0.321  1.00  0.00     0.011 A 
HETATM   30  C18 UNL     1     -20.982  35.211   1.239  1.00  0.00     0.024 A 
HETATM   31  C19 UNL     1     -20.303  35.953   2.192  1.00  0.00     0.034 A 
HETATM   32 CL1  UNL     1     -21.219  36.880   3.362  1.00  0.00    -0.084 Cl
HETATM   33  C20 UNL     1     -18.926  35.929   2.176  1.00  0.00     0.024 A 
HETATM   34  C21 UNL     1     -18.230  35.196   1.249  1.00  0.00     0.011 A 
ENDBRANCH  27  28
ENDBRANCH  21  22
ENDBRANCH   8  21
BRANCH   7  35
HETATM   35  C3  UNL     1     -15.682  36.825  -0.958  1.00  0.00     0.183 C 
BRANCH  35  36
HETATM   36  C4  UNL     1     -14.238  36.758  -1.119  1.00  0.00    -0.040 A 
HETATM   37  C5  UNL     1     -13.569  35.584  -0.842  1.00  0.00     0.009 A 
HETATM   38  C6  UNL     1     -12.189  35.478  -0.986  1.00  0.00     0.001 A 
HETATM   39  C7  UNL     1     -11.454  36.557  -1.414  1.00  0.00     0.000 A 
HETATM   40  C8  UNL     1     -12.098  37.735  -1.697  1.00  0.00     0.001 A 
HETATM   41  C9  UNL     1     -13.467  37.820  -1.547  1.00  0.00     0.009 A 
ENDBRANCH  35  36
ENDBRANCH   7  35
BRANCH  12  42
HETATM   42  C24 UNL     1     -14.775  36.323  -6.980  1.00  0.00     0.042 A 
HETATM   43  C25 UNL     1     -14.976  36.316  -8.340  1.00  0.00     0.030 A 
HETATM   44  C26 UNL     1     -13.903  36.169  -9.226  1.00  0.00     0.002 A 
HETATM   45  C27 UNL     1     -12.624  36.028  -8.750  1.00  0.00     0.000 A 
HETATM   46  C28 UNL     1     -12.415  36.033  -7.393  1.00  0.00     0.002 A 
HETATM   47  C29 UNL     1     -13.493  36.182  -6.511  1.00  0.00     0.030 A 
ENDBRANCH  12  42
TORSDOF 7
ENDMDL
MODEL 3
REMARK VINA RESULT: -7.553958399      2.140      5.449
REMARK  7 active torsions:
REMARK  status: ('A' for Active; 'I' for Inactive)
REMARK    1  A    between atoms: N3_7  and  C3_8 
REMARK    2  A    between atoms: C3_8  and  C4_9 
REMARK    3  A    between atoms: C10_15  and  O1_16 
REMARK    4  A    between atoms: C10_15  and  C11_18 
REMARK    5  A    between atoms: C11_18  and  N4_19 
REMARK    6  A    between atoms: C15_24  and  C16_25 
REMARK    7  A    between atoms: N5_35  and  C24_36 
ROOT
HETATM    1  C1  UNL     1     -16.649  39.116  -3.753  1.00  0.00     0.171 C 
HETATM    2  N1  UNL     1     -15.887  38.273  -2.872  1.00  0.00    -0.194 N 
HETATM    3  C2  UNL     1     -15.944  38.187  -1.449  1.00  0.00     0.676 C 
HETATM    4  N2  UNL     1     -16.235  39.148  -0.649  1.00  0.00    -0.235 N 
ATOM      5  H21 UNL     1     -16.275  39.086   0.368  1.00  0.00     0.174 HD
ATOM      6  H22 UNL     1     -16.460  40.112  -0.891  1.00  0.00     0.174 HD
HETATM    7  N3  UNL     1     -15.629  36.835  -1.110  1.00  0.00    -0.173 N 
HETATM    8  C10 UNL     1     -15.238  36.160  -2.338  1.00  0.00     0.223 C 
HETATM    9  C22 UNL     1     -14.843  37.292  -3.209  1.00  0.00     0.215 C 
HETATM   10  C23 UNL     1     -13.613  37.933  -2.690  1.00  0.00     0.268 C 
HETATM   11  O3  UNL     1     -13.425  38.518  -1.599  1.00  0.00    -0.269 OA
HETATM   12  N5  UNL     1     -12.608  37.792  -3.651  1.00  0.00    -0.279 N 
HETATM   13  C30 UNL     1     -13.245  37.260  -4.815  1.00  0.00     0.052 A 
HETATM   14  C31 UNL     1     -12.674  37.039  -6.076  1.00  0.00     0.031 A 
HETATM   15  C32 UNL     1     -13.423  36.621  -7.152  1.00  0.00     0.002 A 
HETATM   16  C33 UNL     1     -14.766  36.435  -6.915  1.00  0.00     0.001 A 
HETATM   17  C34 UNL     1     -15.341  36.645  -5.681  1.00  0.00     0.013 A 
HETATM   18  C35 UNL     1     -14.582  37.066  -4.589  1.00  0.00     0.013 A 
ENDROOT
BRANCH   8  19
HETATM   19  O1  UNL     1     -14.027  35.440  -2.042  1.00  0.00    -0.363 OA
ATOM     20  H1  UNL     1     -13.328  35.880  -2.514  1.00  0.00     0.213 HD
ENDBRANCH   8  19
BRANCH   8  21
HETATM   21  C11 UNL     1     -16.211  35.175  -2.738  1.00  0.00     0.129 C 
BRANCH  21  22
HETATM   22  N4  UNL     1     -17.504  35.059  -2.233  1.00  0.00    -0.353 N 
HETATM   23  C12 UNL     1     -18.021  33.858  -1.728  1.00  0.00     0.072 C 
HETATM   24  C13 UNL     1     -19.530  33.859  -1.979  1.00  0.00     0.125 C 
HETATM   25  C14 UNL     1     -19.828  35.200  -2.497  1.00  0.00     0.159 C 
HETATM   26  O2  UNL     1     -20.866  35.836  -2.535  1.00  0.00    -0.295 OA
HETATM   27  C15 UNL     1     -18.532  35.709  -3.021  1.00  0.00     0.191 C 
BRANCH  27  28
HETATM   28  C16 UNL     1     -18.466  35.448  -4.466  1.00  0.00    -0.028 A 
HETATM   29  C17 UNL     1     -18.043  34.262  -5.026  1.00  0.00     0.011 A 
HETATM   30  C18 UNL     1     -17.984  34.020  -6.375  1.00  0.00     0.024 A 
HETATM   31  C19 UNL     1     -18.368  35.017  -7.258  1.00  0.00     0.034 A 
HETATM   32 CL1  UNL     1     -18.290  34.708  -8.980  1.00  0.00    -0.084 Cl
HETATM   33  C20 UNL     1     -18.797  36.218  -6.736  1.00  0.00     0.024 A 
HETATM   34  C21 UNL     1     -18.848  36.438  -5.384  1.00  0.00     0.011 A 
ENDBRANCH  27  28
ENDBRANCH  21  22
ENDBRANCH   8  21
BRANCH   7  35
HETATM   35  C3  UNL     1     -15.670  36.192   0.175  1.00  0.00     0.183 C 
BRANCH  35  36
HETATM   36  C4  UNL     1     -16.920  36.265   0.913  1.00  0.00    -0.040 A 
HETATM   37  C5  UNL     1     -16.979  35.807   2.214  1.00  0.00     0.009 A 
HETATM   38  C6  UNL     1     -18.155  35.862   2.955  1.00  0.00     0.001 A 
HETATM   39  C7  UNL     1     -19.299  36.381   2.398  1.00  0.00     0.000 A 
HETATM   40  C8  UNL     1     -19.265  36.843   1.107  1.00  0.00     0.001 A 
HETATM   41  C9  UNL     1     -18.088  36.780   0.389  1.00  0.00     0.009 A 
ENDBRANCH  35  36
ENDBRANCH   7  35
BRANCH  12  42
HETATM   42  C24 UNL     1     -11.212  38.104  -3.542  1.00  0.00     0.042 A 
HETATM   43  C25 UNL     1     -10.783  39.394  -3.751  1.00  0.00     0.030 A 
HETATM   44  C26 UNL     1      -9.429  39.727  -3.650  1.00  0.00     0.002 A 
HETATM   45  C27 UNL     1      -8.498  38.768  -3.339  1.00  0.00     0.000 A 
HETATM   46  C28 UNL     1      -8.919  37.478  -3.129  1.00  0.00     0.002 A 
HETATM   47  C29 UNL     1     -10.276  37.150  -3.231  1.00  0.00     0.030 A 
ENDBRANCH  12  42
TORSDOF 7
ENDMDL
MODEL 4
REMARK VINA RESULT: -7.461000152      2.549      5.020
REMARK  7 active torsions:
REMARK  status: ('A' for Active; 'I' for Inactive)
REMARK    1  A    between atoms: N3_7  and  C3_8 
REMARK    2  A    between atoms: C3_8  and  C4_9 
REMARK    3  A    between atoms: C10_15  and  O1_16 
REMARK    4  A    between atoms: C10_15  and  C11_18 
REMARK    5  A    between atoms: C11_18  and  N4_19 
REMARK    6  A    between atoms: C15_24  and  C16_25 
REMARK    7  A    between atoms: N5_35  and  C24_36 
ROOT
HETATM    1  C1  UNL     1     -15.076  35.100  -5.252  1.00  0.00     0.171 C 
HETATM    2  N1  UNL     1     -15.039  36.529  -5.106  1.00  0.00    -0.194 N 
HETATM    3  C2  UNL     1     -15.454  37.531  -6.033  1.00  0.00     0.676 C 
HETATM    4  N2  UNL     1     -15.420  37.432  -7.312  1.00  0.00    -0.235 N 
ATOM      5  H21 UNL     1     -15.716  38.149  -7.975  1.00  0.00     0.174 HD
ATOM      6  H22 UNL     1     -15.090  36.642  -7.866  1.00  0.00     0.174 HD
HETATM    7  N3  UNL     1     -15.916  38.639  -5.257  1.00  0.00    -0.173 N 
HETATM    8  C10 UNL     1     -15.629  38.339  -3.862  1.00  0.00     0.223 C 
HETATM    9  C22 UNL     1     -14.551  37.328  -3.970  1.00  0.00     0.215 C 
HETATM   10  C23 UNL     1     -13.321  37.949  -4.513  1.00  0.00     0.268 C 
HETATM   11  O3  UNL     1     -13.128  38.484  -5.628  1.00  0.00    -0.269 OA
HETATM   12  N5  UNL     1     -12.318  37.851  -3.543  1.00  0.00    -0.279 N 
HETATM   13  C30 UNL     1     -12.847  37.017  -2.509  1.00  0.00     0.052 A 
HETATM   14  C31 UNL     1     -12.183  36.541  -1.370  1.00  0.00     0.031 A 
HETATM   15  C32 UNL     1     -12.772  35.653  -0.501  1.00  0.00     0.002 A 
HETATM   16  C33 UNL     1     -14.052  35.259  -0.818  1.00  0.00     0.001 A 
HETATM   17  C34 UNL     1     -14.719  35.719  -1.932  1.00  0.00     0.013 A 
HETATM   18  C35 UNL     1     -14.124  36.622  -2.812  1.00  0.00     0.013 A 
ENDROOT
BRANCH   8  19
HETATM   19  O1  UNL     1     -15.019  39.519  -3.307  1.00  0.00    -0.363 OA
ATOM     20  H1  UNL     1     -14.087  39.340  -3.248  1.00  0.00     0.213 HD
ENDBRANCH   8  19
BRANCH   8  21
HETATM   21  C11 UNL     1     -16.835  38.111  -3.108  1.00  0.00     0.129 C 
BRANCH  21  22
HETATM   22  N4  UNL     1     -17.138  38.672  -1.869  1.00  0.00    -0.353 N 
HETATM   23  C12 UNL     1     -16.161  38.995  -0.918  1.00  0.00     0.072 C 
HETATM   24  C13 UNL     1     -16.792  38.850   0.466  1.00  0.00     0.125 C 
HETATM   25  C14 UNL     1     -18.215  38.592   0.210  1.00  0.00     0.159 C 
HETATM   26  O2  UNL     1     -19.198  38.735   0.914  1.00  0.00    -0.295 OA
HETATM   27  C15 UNL     1     -18.269  38.079  -1.185  1.00  0.00     0.191 C 
BRANCH  27  28
HETATM   28  C16 UNL     1     -18.276  36.609  -1.153  1.00  0.00    -0.028 A 
HETATM   29  C17 UNL     1     -17.796  35.850  -0.109  1.00  0.00     0.011 A 
HETATM   30  C18 UNL     1     -17.804  34.478  -0.080  1.00  0.00     0.024 A 
HETATM   31  C19 UNL     1     -18.325  33.783  -1.161  1.00  0.00     0.034 A 
HETATM   32 CL1  UNL     1     -18.334  32.033  -1.124  1.00  0.00    -0.084 Cl
HETATM   33  C20 UNL     1     -18.815  34.508  -2.225  1.00  0.00     0.024 A 
HETATM   34  C21 UNL     1     -18.796  35.879  -2.232  1.00  0.00     0.011 A 
ENDBRANCH  27  28
ENDBRANCH  21  22
ENDBRANCH   8  21
BRANCH   7  35
HETATM   35  C3  UNL     1     -16.553  39.849  -5.697  1.00  0.00     0.183 C 
BRANCH  35  36
HETATM   36  C4  UNL     1     -15.730  40.809  -6.415  1.00  0.00    -0.040 A 
HETATM   37  C5  UNL     1     -15.765  40.851  -7.793  1.00  0.00     0.009 A 
HETATM   38  C6  UNL     1     -14.994  41.755  -8.517  1.00  0.00     0.001 A 
HETATM   39  C7  UNL     1     -14.169  42.639  -7.862  1.00  0.00     0.000 A 
HETATM   40  C8  UNL     1     -14.117  42.616  -6.492  1.00  0.00     0.001 A 
HETATM   41  C9  UNL     1     -14.890  41.711  -5.793  1.00  0.00     0.009 A 
ENDBRANCH  35  36
ENDBRANCH   7  35
BRANCH  12  42
HETATM   42  C24 UNL     1     -11.012  38.443  -3.540  1.00  0.00     0.042 A 
HETATM   43  C25 UNL     1      -9.902  37.648  -3.704  1.00  0.00     0.030 A 
HETATM   44  C26 UNL     1      -8.616  38.198  -3.706  1.00  0.00     0.002 A 
HETATM   45  C27 UNL     1      -8.438  39.549  -3.543  1.00  0.00     0.000 A 
HETATM   46  C28 UNL     1      -9.541  40.349  -3.378  1.00  0.00     0.002 A 
HETATM   47  C29 UNL     1     -10.827  39.793  -3.378  1.00  0.00     0.030 A 
ENDBRANCH  12  42
TORSDOF 7
ENDMDL
MODEL 5
REMARK VINA RESULT: -7.437521378      3.904      7.461
REMARK  7 active torsions:
REMARK  status: ('A' for Active; 'I' for Inactive)
REMARK    1  A    between atoms: N3_7  and  C3_8 
REMARK    2  A    between atoms: C3_8  and  C4_9 
REMARK    3  A    between atoms: C10_15  and  O1_16 
REMARK    4  A    between atoms: C10_15  and  C11_18 
REMARK    5  A    between atoms: C11_18  and  N4_19 
REMARK    6  A    between atoms: C15_24  and  C16_25 
REMARK    7  A    between atoms: N5_35  and  C24_36 
ROOT
HETATM    1  C1  UNL     1     -16.019  36.358  -6.500  1.00  0.00     0.171 C 
HETATM    2  N1  UNL     1     -15.280  36.958  -5.424  1.00  0.00    -0.194 N 
HETATM    3  C2  UNL     1     -13.866  37.052  -5.257  1.00  0.00     0.676 C 
HETATM    4  N2  UNL     1     -13.000  36.205  -5.683  1.00  0.00    -0.235 N 
ATOM      5  H21 UNL     1     -11.990  36.273  -5.563  1.00  0.00     0.174 HD
ATOM      6  H22 UNL     1     -13.176  35.340  -6.193  1.00  0.00     0.174 HD
HETATM    7  N3  UNL     1     -13.619  38.265  -4.542  1.00  0.00    -0.173 N 
HETATM    8  C10 UNL     1     -14.912  38.811  -4.157  1.00  0.00     0.223 C 
HETATM    9  C22 UNL     1     -15.788  37.617  -4.210  1.00  0.00     0.215 C 
HETATM   10  C23 UNL     1     -15.417  36.662  -3.140  1.00  0.00     0.268 C 
HETATM   11  O3  UNL     1     -14.341  36.044  -2.968  1.00  0.00    -0.269 OA
HETATM   12  N5  UNL     1     -16.509  36.524  -2.278  1.00  0.00    -0.279 N 
HETATM   13  C30 UNL     1     -17.595  37.215  -2.902  1.00  0.00     0.052 A 
HETATM   14  C31 UNL     1     -18.928  37.275  -2.474  1.00  0.00     0.031 A 
HETATM   15  C32 UNL     1     -19.907  37.885  -3.223  1.00  0.00     0.002 A 
HETATM   16  C33 UNL     1     -19.498  38.431  -4.419  1.00  0.00     0.001 A 
HETATM   17  C34 UNL     1     -18.191  38.383  -4.852  1.00  0.00     0.013 A 
HETATM   18  C35 UNL     1     -17.198  37.767  -4.091  1.00  0.00     0.013 A 
ENDROOT
BRANCH   8  19
HETATM   19  O1  UNL     1     -14.807  39.170  -2.767  1.00  0.00    -0.363 OA
ATOM     20  H1  UNL     1     -15.574  38.811  -2.335  1.00  0.00     0.213 HD
ENDBRANCH   8  19
BRANCH   8  21
HETATM   21  C11 UNL     1     -15.211  40.026  -4.871  1.00  0.00     0.129 C 
BRANCH  21  22
HETATM   22  N4  UNL     1     -15.433  41.274  -4.294  1.00  0.00    -0.353 N 
HETATM   23  C12 UNL     1     -16.713  41.764  -4.002  1.00  0.00     0.072 C 
HETATM   24  C13 UNL     1     -16.665  43.288  -4.119  1.00  0.00     0.125 C 
HETATM   25  C14 UNL     1     -15.248  43.609  -4.326  1.00  0.00     0.159 C 
HETATM   26  O2  UNL     1     -14.621  44.638  -4.146  1.00  0.00    -0.295 OA
HETATM   27  C15 UNL     1     -14.639  42.355  -4.843  1.00  0.00     0.191 C 
BRANCH  27  28
HETATM   28  C16 UNL     1     -14.599  42.413  -6.311  1.00  0.00    -0.028 A 
HETATM   29  C17 UNL     1     -15.428  41.692  -7.143  1.00  0.00     0.011 A 
HETATM   30  C18 UNL     1     -15.390  41.749  -8.513  1.00  0.00     0.024 A 
HETATM   31  C19 UNL     1     -14.466  42.578  -9.130  1.00  0.00     0.034 A 
HETATM   32 CL1  UNL     1     -14.418  42.649 -10.879  1.00  0.00    -0.084 Cl
HETATM   33  C20 UNL     1     -13.619  43.315  -8.332  1.00  0.00     0.024 A 
HETATM   34  C21 UNL     1     -13.675  43.243  -6.964  1.00  0.00     0.011 A 
ENDBRANCH  27  28
ENDBRANCH  21  22
ENDBRANCH   8  21
BRANCH   7  35
HETATM   35  C3  UNL     1     -12.364  38.891  -4.227  1.00  0.00     0.183 C 
BRANCH  35  36
HETATM   36  C4  UNL     1     -11.501  38.204  -3.280  1.00  0.00    -0.040 A 
HETATM   37  C5  UNL     1     -10.373  37.547  -3.727  1.00  0.00     0.009 A 
HETATM   38  C6  UNL     1      -9.521  36.880  -2.854  1.00  0.00     0.001 A 
HETATM   39  C7  UNL     1      -9.789  36.864  -1.505  1.00  0.00     0.000 A 
HETATM   40  C8  UNL     1     -10.904  37.511  -1.036  1.00  0.00     0.001 A 
HETATM   41  C9  UNL     1     -11.737  38.166  -1.920  1.00  0.00     0.009 A 
ENDBRANCH  35  36
ENDBRANCH   7  35
BRANCH  12  42
HETATM   42  C24 UNL     1     -16.578  35.842  -1.019  1.00  0.00     0.042 A 
HETATM   43  C25 UNL     1     -16.150  36.475   0.124  1.00  0.00     0.030 A 
HETATM   44  C26 UNL     1     -16.207  35.835   1.366  1.00  0.00     0.002 A 
HETATM   45  C27 UNL     1     -16.692  34.555   1.467  1.00  0.00     0.000 A 
HETATM   46  C28 UNL     1     -17.120  33.916   0.330  1.00  0.00     0.002 A 
HETATM   47  C29 UNL     1     -17.062  34.563  -0.911  1.00  0.00     0.030 A 
ENDBRANCH  12  42
TORSDOF 7
ENDMDL
