MODEL 1
REMARK VINA RESULT: -6.584717872      0.000      0.000
REMARK  9 active torsions:
REMARK  status: ('A' for Active; 'I' for Inactive)
REMARK       I    between atoms: N1_2  and  C2_4 
REMARK    1  A    between atoms: C2_4  and  C3_6 
REMARK    2  A    between atoms: C3_6  and  O2_7 
REMARK    3  A    between atoms: N2_10  and  C5_11 
REMARK    4  A    between atoms: N6_22  and  N7_23 
REMARK    5  A    between atoms: N7_23  and  C11_24 
REMARK    6  A    between atoms: C11_24  and  C12_25 
REMARK    7  A    between atoms: C12_25  and  O3_26 
REMARK    8  A    between atoms: O3_26  and  N8_27 
REMARK    9  A    between atoms: N8_27  and  C13_29 
ROOT
HETATM    1  C3  UNL     1      -8.351  16.974 -15.535  1.00  0.00     0.248 C 
HETATM    2  C4  UNL     1      -8.455  15.500 -15.670  1.00  0.00     0.214 C 
HETATM    3  N2  UNL     1      -9.183  15.033 -16.806  1.00  0.00    -0.206 N 
HETATM    4  C9  UNL     1      -9.736  15.948 -17.732  1.00  0.00     0.187 C 
HETATM    5  C10 UNL     1     -10.073  17.295 -17.217  1.00  0.00     0.103 C 
HETATM    6  N6  UNL     1      -9.392  17.745 -16.069  1.00  0.00    -0.264 N 
ENDROOT
BRANCH   3   7
HETATM    7  C5  UNL     1      -9.346  13.647 -16.997  1.00  0.00     0.696 A 
HETATM    8  N3  UNL     1     -10.366  12.874 -16.567  1.00  0.00    -0.178 N 
HETATM    9  C6  UNL     1     -10.208  11.608 -16.919  1.00  0.00     0.110 A 
ATOM     10  H3  UNL     1     -11.163  13.224 -16.035  1.00  0.00     0.185 HD
HETATM   11  C7  UNL     1     -11.101  10.447 -16.642  1.00  0.00     0.091 C 
HETATM   12  N4  UNL     1      -9.043  11.556 -17.604  1.00  0.00    -0.270 N 
HETATM   13  C8  UNL     1      -8.497  10.327 -18.173  1.00  0.00     0.179 C 
HETATM   14  N5  UNL     1      -8.530  12.773 -17.649  1.00  0.00    -0.129 N 
ATOM     15  H5  UNL     1      -7.652  13.022 -18.105  1.00  0.00     0.206 HD
ENDBRANCH   3   7
BRANCH   1  16
HETATM   16  C2  UNL     1      -8.186  17.297 -14.096  1.00  0.00     0.276 C 
HETATM   17  N1  UNL     1      -7.794  18.571 -13.614  1.00  0.00    -0.361 N 
HETATM   18  C1  UNL     1      -7.648  18.837 -12.202  1.00  0.00     0.149 C 
ATOM     19  H1  UNL     1      -7.611  19.320 -14.282  1.00  0.00     0.162 HD
HETATM   20  O1  UNL     1      -8.408  16.389 -13.261  1.00  0.00    -0.268 OA
ENDBRANCH   1  16
BRANCH   1  21
HETATM   21  O2  UNL     1      -7.147  17.367 -16.169  1.00  0.00    -0.361 OA
ATOM     22  H2  UNL     1      -6.653  16.569 -16.317  1.00  0.00     0.213 HD
ENDBRANCH   1  21
BRANCH   6  23
HETATM   23  N7  UNL     1     -10.255  18.316 -15.127  1.00  0.00    -0.134 NA
BRANCH  23  24
HETATM   24  C11 UNL     1     -11.281  19.125 -15.755  1.00  0.00     0.164 C 
BRANCH  24  25
HETATM   25  C12 UNL     1     -11.377  20.442 -15.018  1.00  0.00     0.219 C 
BRANCH  25  26
HETATM   26  O3  UNL     1     -10.146  20.802 -14.462  1.00  0.00    -0.277 OA
BRANCH  26  27
HETATM   27  N8  UNL     1      -9.463  21.642 -15.246  1.00  0.00    -0.243 N 
ATOM     28  H8  UNL     1      -9.972  22.300 -15.838  1.00  0.00     0.196 HD
BRANCH  27  29
HETATM   29  C13 UNL     1      -8.045  21.636 -15.272  1.00  0.00     0.204 C 
HETATM   30  N9  UNL     1      -7.310  20.511 -15.733  1.00  0.00    -0.068 NA
HETATM   31  S1  UNL     1      -7.203  22.938 -14.764  1.00  0.00    -0.043 SA
ENDBRANCH  27  29
ENDBRANCH  26  27
ENDBRANCH  25  26
ENDBRANCH  24  25
ENDBRANCH  23  24
ENDBRANCH   6  23
TORSDOF 9
ENDMDL
MODEL 2
REMARK VINA RESULT: -6.474541631      0.472      1.139
REMARK  9 active torsions:
REMARK  status: ('A' for Active; 'I' for Inactive)
REMARK       I    between atoms: N1_2  and  C2_4 
REMARK    1  A    between atoms: C2_4  and  C3_6 
REMARK    2  A    between atoms: C3_6  and  O2_7 
REMARK    3  A    between atoms: N2_10  and  C5_11 
REMARK    4  A    between atoms: N6_22  and  N7_23 
REMARK    5  A    between atoms: N7_23  and  C11_24 
REMARK    6  A    between atoms: C11_24  and  C12_25 
REMARK    7  A    between atoms: C12_25  and  O3_26 
REMARK    8  A    between atoms: O3_26  and  N8_27 
REMARK    9  A    between atoms: N8_27  and  C13_29 
ROOT
HETATM    1  C3  UNL     1      -8.377  16.918 -15.419  1.00  0.00     0.248 C 
HETATM    2  C4  UNL     1      -8.543  15.450 -15.557  1.00  0.00     0.214 C 
HETATM    3  N2  UNL     1      -9.264  15.015 -16.710  1.00  0.00    -0.206 N 
HETATM    4  C9  UNL     1      -9.755  15.954 -17.648  1.00  0.00     0.187 C 
HETATM    5  C10 UNL     1     -10.044  17.314 -17.139  1.00  0.00     0.103 C 
HETATM    6  N6  UNL     1      -9.370  17.734 -15.976  1.00  0.00    -0.264 N 
ENDROOT
BRANCH   3   7
HETATM    7  C5  UNL     1      -9.483  13.638 -16.906  1.00  0.00     0.696 A 
HETATM    8  N3  UNL     1      -8.675  12.760 -17.537  1.00  0.00    -0.178 N 
HETATM    9  C6  UNL     1      -9.183  11.538 -17.544  1.00  0.00     0.110 A 
ATOM     10  H3  UNL     1      -7.779  13.009 -17.957  1.00  0.00     0.185 HD
HETATM   11  C7  UNL     1      -8.608  10.295 -18.133  1.00  0.00     0.091 C 
HETATM   12  N4  UNL     1     -10.365  11.624 -16.893  1.00  0.00    -0.270 N 
HETATM   13  C8  UNL     1     -11.252  10.484 -16.679  1.00  0.00     0.179 C 
HETATM   14  N5  UNL     1     -10.543  12.878 -16.514  1.00  0.00    -0.129 N 
ATOM     15  H5  UNL     1     -11.354  13.225 -16.003  1.00  0.00     0.206 HD
ENDBRANCH   3   7
BRANCH   1  16
HETATM   16  C2  UNL     1      -8.231  17.234 -13.976  1.00  0.00     0.276 C 
HETATM   17  N1  UNL     1      -7.711  18.458 -13.485  1.00  0.00    -0.361 N 
HETATM   18  C1  UNL     1      -7.590  18.719 -12.070  1.00  0.00     0.149 C 
ATOM     19  H1  UNL     1      -7.416  19.173 -14.149  1.00  0.00     0.162 HD
HETATM   20  O1  UNL     1      -8.592  16.366 -13.145  1.00  0.00    -0.268 OA
ENDBRANCH   1  16
BRANCH   1  21
HETATM   21  O2  UNL     1      -7.143  17.258 -16.024  1.00  0.00    -0.361 OA
ATOM     22  H2  UNL     1      -6.961  18.155 -15.768  1.00  0.00     0.213 HD
ENDBRANCH   1  21
BRANCH   6  23
HETATM   23  N7  UNL     1     -10.229  18.342 -15.053  1.00  0.00    -0.134 NA
BRANCH  23  24
HETATM   24  C11 UNL     1     -11.260  19.124 -15.708  1.00  0.00     0.164 C 
BRANCH  24  25
HETATM   25  C12 UNL     1     -11.522  20.365 -14.885  1.00  0.00     0.219 C 
BRANCH  25  26
HETATM   26  O3  UNL     1     -10.593  21.369 -15.173  1.00  0.00    -0.277 OA
BRANCH  26  27
HETATM   27  N8  UNL     1      -9.443  21.198 -14.513  1.00  0.00    -0.243 N 
ATOM     28  H8  UNL     1      -9.464  20.864 -13.549  1.00  0.00     0.196 HD
BRANCH  27  29
HETATM   29  C13 UNL     1      -8.195  21.471 -15.129  1.00  0.00     0.204 C 
HETATM   30  N9  UNL     1      -7.397  20.439 -15.693  1.00  0.00    -0.068 NA
HETATM   31  S1  UNL     1      -7.629  22.999 -15.209  1.00  0.00    -0.043 SA
ENDBRANCH  27  29
ENDBRANCH  26  27
ENDBRANCH  25  26
ENDBRANCH  24  25
ENDBRANCH  23  24
ENDBRANCH   6  23
TORSDOF 9
ENDMDL
MODEL 3
REMARK VINA RESULT: -6.422893030      1.997      3.018
REMARK  9 active torsions:
REMARK  status: ('A' for Active; 'I' for Inactive)
REMARK       I    between atoms: N1_2  and  C2_4 
REMARK    1  A    between atoms: C2_4  and  C3_6 
REMARK    2  A    between atoms: C3_6  and  O2_7 
REMARK    3  A    between atoms: N2_10  and  C5_11 
REMARK    4  A    between atoms: N6_22  and  N7_23 
REMARK    5  A    between atoms: N7_23  and  C11_24 
REMARK    6  A    between atoms: C11_24  and  C12_25 
REMARK    7  A    between atoms: C12_25  and  O3_26 
REMARK    8  A    between atoms: O3_26  and  N8_27 
REMARK    9  A    between atoms: N8_27  and  C13_29 
ROOT
HETATM    1  C3  UNL     1      -7.968  14.952 -17.178  1.00  0.00     0.248 C 
HETATM    2  C4  UNL     1      -8.032  13.488 -17.407  1.00  0.00     0.214 C 
HETATM    3  N2  UNL     1      -9.334  12.907 -17.334  1.00  0.00    -0.206 N 
HETATM    4  C9  UNL     1     -10.468  13.713 -17.078  1.00  0.00     0.187 C 
HETATM    5  C10 UNL     1     -10.238  14.963 -16.317  1.00  0.00     0.103 C 
HETATM    6  N6  UNL     1      -8.944  15.518 -16.347  1.00  0.00    -0.264 N 
ENDROOT
BRANCH   3   7
HETATM    7  C5  UNL     1      -9.481  11.519 -17.521  1.00  0.00     0.696 A 
HETATM    8  N3  UNL     1     -10.471  10.729 -17.055  1.00  0.00    -0.178 N 
HETATM    9  C6  UNL     1     -10.305   9.465 -17.413  1.00  0.00     0.110 A 
ATOM     10  H3  UNL     1     -11.255  11.065 -16.495  1.00  0.00     0.185 HD
HETATM   11  C7  UNL     1     -11.168   8.290 -17.105  1.00  0.00     0.091 C 
HETATM   12  N4  UNL     1      -9.165   9.433 -18.139  1.00  0.00    -0.270 N 
HETATM   13  C8  UNL     1      -8.619   8.213 -18.728  1.00  0.00     0.179 C 
HETATM   14  N5  UNL     1      -8.674  10.659 -18.202  1.00  0.00    -0.129 N 
ATOM     15  H5  UNL     1      -7.818  10.922 -18.689  1.00  0.00     0.206 HD
ENDBRANCH   3   7
BRANCH   1  16
HETATM   16  C2  UNL     1      -6.620  15.279 -16.648  1.00  0.00     0.276 C 
HETATM   17  N1  UNL     1      -5.959  14.518 -15.651  1.00  0.00    -0.361 N 
HETATM   18  C1  UNL     1      -4.647  14.876 -15.168  1.00  0.00     0.149 C 
ATOM     19  H1  UNL     1      -6.424  13.697 -15.264  1.00  0.00     0.162 HD
HETATM   20  O1  UNL     1      -6.033  16.284 -17.113  1.00  0.00    -0.268 OA
ENDBRANCH   1  16
BRANCH   1  21
HETATM   21  O2  UNL     1      -8.056  15.578 -18.444  1.00  0.00    -0.361 OA
ATOM     22  H2  UNL     1      -7.621  14.997 -19.058  1.00  0.00     0.213 HD
ENDBRANCH   1  21
BRANCH   6  23
HETATM   23  N7  UNL     1      -8.498  15.898 -15.076  1.00  0.00    -0.134 NA
BRANCH  23  24
HETATM   24  C11 UNL     1      -9.266  17.006 -14.543  1.00  0.00     0.164 C 
BRANCH  24  25
HETATM   25  C12 UNL     1      -9.238  18.140 -15.544  1.00  0.00     0.219 C 
BRANCH  25  26
HETATM   26  O3  UNL     1      -7.953  18.675 -15.668  1.00  0.00    -0.277 OA
BRANCH  26  27
HETATM   27  N8  UNL     1      -7.471  19.109 -14.500  1.00  0.00    -0.243 N 
ATOM     28  H8  UNL     1      -6.834  18.514 -13.969  1.00  0.00     0.196 HD
BRANCH  27  29
HETATM   29  C13 UNL     1      -7.827  20.380 -13.984  1.00  0.00     0.204 C 
HETATM   30  N9  UNL     1      -8.251  20.551 -12.638  1.00  0.00    -0.068 NA
HETATM   31  S1  UNL     1      -7.763  21.706 -14.934  1.00  0.00    -0.043 SA
ENDBRANCH  27  29
ENDBRANCH  26  27
ENDBRANCH  25  26
ENDBRANCH  24  25
ENDBRANCH  23  24
ENDBRANCH   6  23
TORSDOF 9
ENDMDL
MODEL 4
REMARK VINA RESULT: -6.132739616      2.393      3.443
REMARK  9 active torsions:
REMARK  status: ('A' for Active; 'I' for Inactive)
REMARK       I    between atoms: N1_2  and  C2_4 
REMARK    1  A    between atoms: C2_4  and  C3_6 
REMARK    2  A    between atoms: C3_6  and  O2_7 
REMARK    3  A    between atoms: N2_10  and  C5_11 
REMARK    4  A    between atoms: N6_22  and  N7_23 
REMARK    5  A    between atoms: N7_23  and  C11_24 
REMARK    6  A    between atoms: C11_24  and  C12_25 
REMARK    7  A    between atoms: C12_25  and  O3_26 
REMARK    8  A    between atoms: O3_26  and  N8_27 
REMARK    9  A    between atoms: N8_27  and  C13_29 
ROOT
HETATM    1  C3  UNL     1      -7.828  14.943 -17.028  1.00  0.00     0.248 C 
HETATM    2  C4  UNL     1      -7.939  13.490 -17.304  1.00  0.00     0.214 C 
HETATM    3  N2  UNL     1      -9.255  12.943 -17.225  1.00  0.00    -0.206 N 
HETATM    4  C9  UNL     1     -10.361  13.772 -16.919  1.00  0.00     0.187 C 
HETATM    5  C10 UNL     1     -10.081  14.988 -16.121  1.00  0.00     0.103 C 
HETATM    6  N6  UNL     1      -8.772  15.507 -16.159  1.00  0.00    -0.264 N 
ENDROOT
BRANCH   3   7
HETATM    7  C5  UNL     1      -9.445  11.567 -17.454  1.00  0.00     0.696 A 
HETATM    8  N3  UNL     1     -10.462  10.795 -17.016  1.00  0.00    -0.178 N 
HETATM    9  C6  UNL     1     -10.334   9.538 -17.412  1.00  0.00     0.110 A 
ATOM     10  H3  UNL     1     -11.237  11.139 -16.448  1.00  0.00     0.185 HD
HETATM   11  C7  UNL     1     -11.235   8.382 -17.143  1.00  0.00     0.091 C 
HETATM   12  N4  UNL     1      -9.193   9.492 -18.135  1.00  0.00    -0.270 N 
HETATM   13  C8  UNL     1      -8.684   8.274 -18.759  1.00  0.00     0.179 C 
HETATM   14  N5  UNL     1      -8.663  10.703 -18.158  1.00  0.00    -0.129 N 
ATOM     15  H5  UNL     1      -7.797  10.954 -18.634  1.00  0.00     0.206 HD
ENDBRANCH   3   7
BRANCH   1  16
HETATM   16  C2  UNL     1      -6.462  15.214 -16.515  1.00  0.00     0.276 C 
HETATM   17  N1  UNL     1      -5.819  14.424 -15.529  1.00  0.00    -0.361 N 
HETATM   18  C1  UNL     1      -4.487  14.728 -15.061  1.00  0.00     0.149 C 
ATOM     19  H1  UNL     1      -6.311  13.621 -15.139  1.00  0.00     0.162 HD
HETATM   20  O1  UNL     1      -5.842  16.198 -16.985  1.00  0.00    -0.268 OA
ENDBRANCH   1  16
BRANCH   1  21
HETATM   21  O2  UNL     1      -7.924  15.614 -18.271  1.00  0.00    -0.361 OA
ATOM     22  H2  UNL     1      -7.256  15.232 -18.830  1.00  0.00     0.213 HD
ENDBRANCH   1  21
BRANCH   6  23
HETATM   23  N7  UNL     1      -8.291  15.832 -14.885  1.00  0.00    -0.134 NA
BRANCH  23  24
HETATM   24  C11 UNL     1      -8.932  17.018 -14.352  1.00  0.00     0.164 C 
BRANCH  24  25
HETATM   25  C12 UNL     1      -8.123  18.230 -14.758  1.00  0.00     0.219 C 
BRANCH  25  26
HETATM   26  O3  UNL     1      -8.494  18.685 -16.026  1.00  0.00    -0.277 OA
BRANCH  26  27
HETATM   27  N8  UNL     1      -9.679  19.302 -16.015  1.00  0.00    -0.243 N 
ATOM     28  H8  UNL     1      -9.787  20.170 -15.490  1.00  0.00     0.196 HD
BRANCH  27  29
HETATM   29  C13 UNL     1     -10.790  18.774 -16.720  1.00  0.00     0.204 C 
HETATM   30  N9  UNL     1     -10.734  18.505 -18.114  1.00  0.00    -0.068 NA
HETATM   31  S1  UNL     1     -12.188  18.453 -15.941  1.00  0.00    -0.043 SA
ENDBRANCH  27  29
ENDBRANCH  26  27
ENDBRANCH  25  26
ENDBRANCH  24  25
ENDBRANCH  23  24
ENDBRANCH   6  23
TORSDOF 9
ENDMDL
MODEL 5
REMARK VINA RESULT: -6.125679814      2.141      3.419
REMARK  9 active torsions:
REMARK  status: ('A' for Active; 'I' for Inactive)
REMARK       I    between atoms: N1_2  and  C2_4 
REMARK    1  A    between atoms: C2_4  and  C3_6 
REMARK    2  A    between atoms: C3_6  and  O2_7 
REMARK    3  A    between atoms: N2_10  and  C5_11 
REMARK    4  A    between atoms: N6_22  and  N7_23 
REMARK    5  A    between atoms: N7_23  and  C11_24 
REMARK    6  A    between atoms: C11_24  and  C12_25 
REMARK    7  A    between atoms: C12_25  and  O3_26 
REMARK    8  A    between atoms: O3_26  and  N8_27 
REMARK    9  A    between atoms: N8_27  and  C13_29 
ROOT
HETATM    1  C3  UNL     1      -9.524  14.949 -17.147  1.00  0.00     0.248 C 
HETATM    2  C4  UNL     1      -9.641  13.476 -17.284  1.00  0.00     0.214 C 
HETATM    3  N2  UNL     1     -10.796  12.889 -16.685  1.00  0.00    -0.206 N 
HETATM    4  C9  UNL     1     -11.755  13.696 -16.028  1.00  0.00     0.187 C 
HETATM    5  C10 UNL     1     -11.271  14.976 -15.460  1.00  0.00     0.103 C 
HETATM    6  N6  UNL     1     -10.106  15.539 -16.017  1.00  0.00    -0.264 N 
ENDROOT
BRANCH   3   7
HETATM    7  C5  UNL     1     -10.974  11.494 -16.753  1.00  0.00     0.696 A 
HETATM    8  N3  UNL     1     -10.201  10.599 -17.403  1.00  0.00    -0.178 N 
HETATM    9  C6  UNL     1     -10.652   9.362 -17.263  1.00  0.00     0.110 A 
ATOM     10  H3  UNL     1      -9.368  10.846 -17.939  1.00  0.00     0.185 HD
HETATM   11  C7  UNL     1     -10.090   8.099 -17.819  1.00  0.00     0.091 C 
HETATM   12  N4  UNL     1     -11.759   9.457 -16.492  1.00  0.00    -0.270 N 
HETATM   13  C8  UNL     1     -12.565   8.306 -16.097  1.00  0.00     0.179 C 
HETATM   14  N5  UNL     1     -11.950  10.729 -16.189  1.00  0.00    -0.129 N 
ATOM     15  H5  UNL     1     -12.715  11.085 -15.617  1.00  0.00     0.206 HD
ENDBRANCH   3   7
BRANCH   1  16
HETATM   16  C2  UNL     1      -8.084  15.305 -17.203  1.00  0.00     0.276 C 
HETATM   17  N1  UNL     1      -7.073  14.618 -16.485  1.00  0.00    -0.361 N 
HETATM   18  C1  UNL     1      -5.684  15.002 -16.573  1.00  0.00     0.149 C 
ATOM     19  H1  UNL     1      -7.334  13.832 -15.891  1.00  0.00     0.162 HD
HETATM   20  O1  UNL     1      -7.745  16.269 -17.930  1.00  0.00    -0.268 OA
ENDBRANCH   1  16
BRANCH   1  21
HETATM   21  O2  UNL     1     -10.118  15.525 -18.295  1.00  0.00    -0.361 OA
ATOM     22  H2  UNL     1     -10.690  14.859 -18.660  1.00  0.00     0.213 HD
ENDBRANCH   1  21
BRANCH   6  23
HETATM   23  N7  UNL     1      -9.203  15.971 -15.038  1.00  0.00    -0.134 NA
BRANCH  23  24
HETATM   24  C11 UNL     1      -9.661  17.176 -14.376  1.00  0.00     0.164 C 
BRANCH  24  25
HETATM   25  C12 UNL     1      -9.748  18.287 -15.397  1.00  0.00     0.219 C 
BRANCH  25  26
HETATM   26  O3  UNL     1      -8.477  18.705 -15.801  1.00  0.00    -0.277 OA
BRANCH  26  27
HETATM   27  N8  UNL     1      -7.695  19.020 -14.765  1.00  0.00    -0.243 N 
ATOM     28  H8  UNL     1      -7.027  18.332 -14.414  1.00  0.00     0.196 HD
BRANCH  27  29
HETATM   29  C13 UNL     1      -7.776  20.291 -14.142  1.00  0.00     0.204 C 
HETATM   30  N9  UNL     1      -7.866  20.430 -12.731  1.00  0.00    -0.068 NA
HETATM   31  S1  UNL     1      -7.769  21.654 -15.040  1.00  0.00    -0.043 SA
ENDBRANCH  27  29
ENDBRANCH  26  27
ENDBRANCH  25  26
ENDBRANCH  24  25
ENDBRANCH  23  24
ENDBRANCH   6  23
TORSDOF 9
ENDMDL
