MODEL 1
REMARK VINA RESULT: -7.746883839      0.000      0.000
REMARK  9 active torsions:
REMARK  status: ('A' for Active; 'I' for Inactive)
REMARK    1  A    between atoms: C3_7  and  O1_8 
REMARK    2  A    between atoms: C5_10  and  O2_11 
REMARK    3  A    between atoms: C8_14  and  C9_15 
REMARK    4  A    between atoms: C9_15  and  N3_16 
REMARK    5  A    between atoms: N3_16  and  N4_18 
REMARK    6  A    between atoms: N4_18  and  C10_20 
REMARK    7  A    between atoms: C10_20  and  N5_22 
REMARK    8  A    between atoms: N5_22  and  C11_24 
REMARK    9  A    between atoms: C11_24  and  N6_25 
ROOT
HETATM    1  N3  UNL     1      -8.309  12.737 -18.579  1.00  0.00    -0.330 N 
ATOM      2  H3  UNL     1      -8.322  11.932 -19.204  1.00  0.00     0.180 HD
ENDROOT
BRANCH   1   3
HETATM    3  C9  UNL     1      -8.812  12.665 -17.230  1.00  0.00     0.182 C 
BRANCH   3   4
HETATM    4  C8  UNL     1      -9.624  11.426 -17.127  1.00  0.00     0.007 A 
HETATM    5  C2  UNL     1     -10.856  11.457 -16.530  1.00  0.00     0.110 A 
HETATM    6  N1  UNL     1     -11.365  12.433 -16.007  1.00  0.00    -0.380 N 
HETATM    7  N2  UNL     1     -11.618  10.287 -16.497  1.00  0.00    -0.321 N 
HETATM    8  C1  UNL     1     -11.214  13.771 -15.697  1.00  0.00     0.147 C 
ATOM      9  H1  UNL     1     -12.277  12.143 -15.653  1.00  0.00     0.160 HD
HETATM   10  C3  UNL     1     -11.191   9.140 -17.025  1.00  0.00     0.177 A 
ATOM     11  H2  UNL     1     -12.536  10.311 -16.052  1.00  0.00     0.169 HD
HETATM   12  C5  UNL     1      -9.950   9.108 -17.629  1.00  0.00     0.119 A 
HETATM   13  C7  UNL     1      -9.174  10.227 -17.681  1.00  0.00     0.053 A 
BRANCH  10  14
HETATM   14  O1  UNL     1     -11.949   7.969 -16.996  1.00  0.00    -0.339 OA
HETATM   15  C4  UNL     1     -13.127   7.957 -16.227  1.00  0.00     0.211 C 
ENDBRANCH  10  14
BRANCH  12  16
HETATM   16  O2  UNL     1      -9.505   7.923 -18.180  1.00  0.00    -0.352 OA
HETATM   17  C6  UNL     1      -8.341   7.796 -18.943  1.00  0.00     0.210 C 
ENDBRANCH  12  16
ENDBRANCH   3   4
ENDBRANCH   1   3
BRANCH   1  18
HETATM   18  N4  UNL     1      -7.813  13.951 -18.971  1.00  0.00    -0.280 N 
ATOM     19  H4  UNL     1      -7.687  14.102 -19.972  1.00  0.00     0.189 HD
BRANCH  18  20
HETATM   20  C10 UNL     1      -7.462  15.003 -18.111  1.00  0.00     0.187 C 
HETATM   21  S1  UNL     1      -5.892  15.132 -17.580  1.00  0.00    -0.040 SA
BRANCH  20  22
HETATM   22  N5  UNL     1      -8.358  15.994 -17.661  1.00  0.00    -0.348 N 
ATOM     23  H5  UNL     1      -8.100  16.614 -16.893  1.00  0.00     0.163 HD
BRANCH  22  24
HETATM   24  C11 UNL     1      -9.665  16.119 -18.313  1.00  0.00     0.275 C 
BRANCH  24  25
HETATM   25  N6  UNL     1     -10.247  17.383 -17.908  1.00  0.00    -0.206 N 
HETATM   26  N7  UNL     1     -10.693  18.352 -18.732  1.00  0.00     0.002 NA
HETATM   27  N8  UNL     1     -11.149  19.350 -17.981  1.00  0.00    -0.220 N 
HETATM   28  N9  UNL     1     -11.018  19.071 -16.703  1.00  0.00    -0.233 N 
ATOM     29  H8  UNL     1     -11.546  20.215 -18.347  1.00  0.00     0.206 HD
HETATM   30  C12 UNL     1     -11.389  19.913 -15.549  1.00  0.00     0.184 C 
HETATM   31  C13 UNL     1     -10.461  17.855 -16.672  1.00  0.00     0.358 A 
HETATM   32  O3  UNL     1     -10.170  17.227 -15.617  1.00  0.00    -0.244 OA
ENDBRANCH  24  25
ENDBRANCH  22  24
ENDBRANCH  20  22
ENDBRANCH  18  20
ENDBRANCH   1  18
TORSDOF 9
ENDMDL
MODEL 2
REMARK VINA RESULT: -7.154263721      1.519      2.817
REMARK  9 active torsions:
REMARK  status: ('A' for Active; 'I' for Inactive)
REMARK    1  A    between atoms: C3_7  and  O1_8 
REMARK    2  A    between atoms: C5_10  and  O2_11 
REMARK    3  A    between atoms: C8_14  and  C9_15 
REMARK    4  A    between atoms: C9_15  and  N3_16 
REMARK    5  A    between atoms: N3_16  and  N4_18 
REMARK    6  A    between atoms: N4_18  and  C10_20 
REMARK    7  A    between atoms: C10_20  and  N5_22 
REMARK    8  A    between atoms: N5_22  and  C11_24 
REMARK    9  A    between atoms: C11_24  and  N6_25 
ROOT
HETATM    1  N3  UNL     1      -8.131  12.311 -17.464  1.00  0.00    -0.330 N 
ATOM      2  H3  UNL     1      -8.263  12.552 -16.481  1.00  0.00     0.180 HD
ENDROOT
BRANCH   1   3
HETATM    3  C9  UNL     1      -8.415  10.992 -17.971  1.00  0.00     0.182 C 
BRANCH   3   4
HETATM    4  C8  UNL     1      -9.723  10.573 -17.407  1.00  0.00     0.007 A 
HETATM    5  C2  UNL     1     -10.146   9.277 -17.534  1.00  0.00     0.110 A 
HETATM    6  N1  UNL     1      -9.553   8.394 -18.130  1.00  0.00    -0.380 N 
HETATM    7  N2  UNL     1     -11.356   8.901 -16.946  1.00  0.00    -0.321 N 
HETATM    8  C1  UNL     1      -8.431   8.070 -18.869  1.00  0.00     0.147 C 
ATOM      9  H1  UNL     1     -10.115   7.547 -18.049  1.00  0.00     0.160 HD
HETATM   10  C3  UNL     1     -12.116   9.759 -16.265  1.00  0.00     0.177 A 
ATOM     11  H2  UNL     1     -11.670   7.935 -17.040  1.00  0.00     0.169 HD
HETATM   12  C5  UNL     1     -11.690  11.066 -16.135  1.00  0.00     0.119 A 
HETATM   13  C7  UNL     1     -10.517  11.473 -16.695  1.00  0.00     0.053 A 
BRANCH  10  14
HETATM   14  O1  UNL     1     -13.325   9.389 -15.675  1.00  0.00    -0.339 OA
HETATM   15  C4  UNL     1     -13.880   8.143 -16.018  1.00  0.00     0.211 C 
ENDBRANCH  10  14
BRANCH  12  16
HETATM   16  O2  UNL     1     -12.473  11.956 -15.428  1.00  0.00    -0.352 OA
HETATM   17  C6  UNL     1     -13.162  13.029 -16.001  1.00  0.00     0.210 C 
ENDBRANCH  12  16
ENDBRANCH   3   4
ENDBRANCH   1   3
BRANCH   1  18
HETATM   18  N4  UNL     1      -7.674  13.221 -18.377  1.00  0.00    -0.280 N 
ATOM     19  H4  UNL     1      -7.667  12.937 -19.357  1.00  0.00     0.189 HD
BRANCH  18  20
HETATM   20  C10 UNL     1      -7.215  14.514 -18.078  1.00  0.00     0.187 C 
HETATM   21  S1  UNL     1      -5.580  14.815 -18.071  1.00  0.00    -0.040 SA
BRANCH  20  22
HETATM   22  N5  UNL     1      -8.054  15.608 -17.788  1.00  0.00    -0.348 N 
ATOM     23  H5  UNL     1      -7.697  16.410 -17.267  1.00  0.00     0.163 HD
BRANCH  22  24
HETATM   24  C11 UNL     1      -9.447  15.577 -18.246  1.00  0.00     0.275 C 
BRANCH  24  25
HETATM   25  N6  UNL     1     -10.036  16.873 -17.973  1.00  0.00    -0.206 N 
HETATM   26  N7  UNL     1     -10.526  17.731 -18.890  1.00  0.00     0.002 NA
HETATM   27  N8  UNL     1     -10.973  18.806 -18.246  1.00  0.00    -0.220 N 
HETATM   28  N9  UNL     1     -10.793  18.682 -16.949  1.00  0.00    -0.233 N 
ATOM     29  H8  UNL     1     -11.397  19.616 -18.697  1.00  0.00     0.206 HD
HETATM   30  C12 UNL     1     -11.137  19.652 -15.890  1.00  0.00     0.184 C 
HETATM   31  C13 UNL     1     -10.214  17.486 -16.795  1.00  0.00     0.358 A 
HETATM   32  O3  UNL     1      -9.876  16.992 -15.684  1.00  0.00    -0.244 OA
ENDBRANCH  24  25
ENDBRANCH  22  24
ENDBRANCH  20  22
ENDBRANCH  18  20
ENDBRANCH   1  18
TORSDOF 9
ENDMDL
MODEL 3
REMARK VINA RESULT: -7.130485459      3.975      8.524
REMARK  9 active torsions:
REMARK  status: ('A' for Active; 'I' for Inactive)
REMARK    1  A    between atoms: C3_7  and  O1_8 
REMARK    2  A    between atoms: C5_10  and  O2_11 
REMARK    3  A    between atoms: C8_14  and  C9_15 
REMARK    4  A    between atoms: C9_15  and  N3_16 
REMARK    5  A    between atoms: N3_16  and  N4_18 
REMARK    6  A    between atoms: N4_18  and  C10_20 
REMARK    7  A    between atoms: C10_20  and  N5_22 
REMARK    8  A    between atoms: N5_22  and  C11_24 
REMARK    9  A    between atoms: C11_24  and  N6_25 
ROOT
HETATM    1  N3  UNL     1      -9.804  16.316 -15.755  1.00  0.00    -0.330 N 
ATOM      2  H3  UNL     1      -8.868  16.110 -15.408  1.00  0.00     0.180 HD
ENDROOT
BRANCH   1   3
HETATM    3  C9  UNL     1     -10.655  17.292 -15.121  1.00  0.00     0.182 C 
BRANCH   3   4
HETATM    4  C8  UNL     1      -9.817  18.479 -14.817  1.00  0.00     0.007 A 
HETATM    5  C2  UNL     1      -9.898  19.599 -15.601  1.00  0.00     0.110 A 
HETATM    6  N1  UNL     1     -10.588  19.716 -16.599  1.00  0.00    -0.380 N 
HETATM    7  N2  UNL     1      -9.137  20.719 -15.257  1.00  0.00    -0.321 N 
HETATM    8  C1  UNL     1     -11.492  19.097 -17.442  1.00  0.00     0.147 C 
ATOM      9  H1  UNL     1     -10.434  20.657 -16.962  1.00  0.00     0.160 HD
HETATM   10  C3  UNL     1      -8.334  20.737 -14.194  1.00  0.00     0.177 A 
ATOM     11  H2  UNL     1      -9.198  21.553 -15.841  1.00  0.00     0.169 HD
HETATM   12  C5  UNL     1      -8.253  19.609 -13.402  1.00  0.00     0.119 A 
HETATM   13  C7  UNL     1      -8.977  18.496 -13.704  1.00  0.00     0.053 A 
BRANCH  10  14
HETATM   14  O1  UNL     1      -7.573  21.853 -13.846  1.00  0.00    -0.339 OA
HETATM   15  C4  UNL     1      -7.337  22.833 -14.828  1.00  0.00     0.211 C 
ENDBRANCH  10  14
BRANCH  12  16
HETATM   16  O2  UNL     1      -7.424  19.627 -12.298  1.00  0.00    -0.352 OA
HETATM   17  C6  UNL     1      -7.333  18.591 -11.364  1.00  0.00     0.210 C 
ENDBRANCH  12  16
ENDBRANCH   3   4
ENDBRANCH   1   3
BRANCH   1  18
HETATM   18  N4  UNL     1     -10.326  15.683 -16.849  1.00  0.00    -0.280 N 
ATOM     19  H4  UNL     1     -10.852  16.252 -17.513  1.00  0.00     0.189 HD
BRANCH  18  20
HETATM   20  C10 UNL     1     -10.200  14.314 -17.135  1.00  0.00     0.187 C 
HETATM   21  S1  UNL     1     -11.321  13.248 -16.529  1.00  0.00    -0.040 SA
BRANCH  20  22
HETATM   22  N5  UNL     1      -9.175  13.759 -17.928  1.00  0.00    -0.348 N 
ATOM     23  H5  UNL     1      -9.096  12.748 -18.039  1.00  0.00     0.163 HD
BRANCH  22  24
HETATM   24  C11 UNL     1      -8.225  14.658 -18.593  1.00  0.00     0.275 C 
BRANCH  24  25
HETATM   25  N6  UNL     1      -7.262  15.099 -17.604  1.00  0.00    -0.206 N 
HETATM   26  N7  UNL     1      -6.994  16.378 -17.272  1.00  0.00     0.002 NA
HETATM   27  N8  UNL     1      -6.053  16.368 -16.332  1.00  0.00    -0.220 N 
HETATM   28  N9  UNL     1      -5.697  15.137 -16.040  1.00  0.00    -0.233 N 
ATOM     29  H8  UNL     1      -5.660  17.203 -15.897  1.00  0.00     0.206 HD
HETATM   30  C12 UNL     1      -4.681  14.694 -15.065  1.00  0.00     0.184 C 
HETATM   31  C13 UNL     1      -6.451  14.364 -16.832  1.00  0.00     0.358 A 
HETATM   32  O3  UNL     1      -6.406  13.103 -16.853  1.00  0.00    -0.244 OA
ENDBRANCH  24  25
ENDBRANCH  22  24
ENDBRANCH  20  22
ENDBRANCH  18  20
ENDBRANCH   1  18
TORSDOF 9
ENDMDL
MODEL 4
REMARK VINA RESULT: -7.032123995      1.210      1.420
REMARK  9 active torsions:
REMARK  status: ('A' for Active; 'I' for Inactive)
REMARK    1  A    between atoms: C3_7  and  O1_8 
REMARK    2  A    between atoms: C5_10  and  O2_11 
REMARK    3  A    between atoms: C8_14  and  C9_15 
REMARK    4  A    between atoms: C9_15  and  N3_16 
REMARK    5  A    between atoms: N3_16  and  N4_18 
REMARK    6  A    between atoms: N4_18  and  C10_20 
REMARK    7  A    between atoms: C10_20  and  N5_22 
REMARK    8  A    between atoms: N5_22  and  C11_24 
REMARK    9  A    between atoms: C11_24  and  N6_25 
ROOT
HETATM    1  N3  UNL     1      -8.547  12.756 -18.154  1.00  0.00    -0.330 N 
ATOM      2  H3  UNL     1      -8.192  11.847 -18.450  1.00  0.00     0.180 HD
ENDROOT
BRANCH   1   3
HETATM    3  C9  UNL     1      -9.552  12.886 -17.129  1.00  0.00     0.182 C 
BRANCH   3   4
HETATM    4  C8  UNL     1     -10.208  11.562 -16.982  1.00  0.00     0.007 A 
HETATM    5  C2  UNL     1     -11.437  11.464 -16.387  1.00  0.00     0.110 A 
HETATM    6  N1  UNL     1     -12.064  12.389 -15.900  1.00  0.00    -0.380 N 
HETATM    7  N2  UNL     1     -12.052  10.212 -16.313  1.00  0.00    -0.321 N 
HETATM    8  C1  UNL     1     -12.079  13.746 -15.638  1.00  0.00     0.147 C 
ATOM      9  H1  UNL     1     -12.935  12.004 -15.536  1.00  0.00     0.160 HD
HETATM   10  C3  UNL     1     -11.486   9.108 -16.799  1.00  0.00     0.177 A 
ATOM     11  H2  UNL     1     -12.969  10.140 -15.870  1.00  0.00     0.169 HD
HETATM   12  C5  UNL     1     -10.247   9.206 -17.401  1.00  0.00     0.119 A 
HETATM   13  C7  UNL     1      -9.613  10.408 -17.492  1.00  0.00     0.053 A 
BRANCH  10  14
HETATM   14  O1  UNL     1     -12.096   7.856 -16.729  1.00  0.00    -0.339 OA
HETATM   15  C4  UNL     1     -13.336   7.754 -16.069  1.00  0.00     0.211 C 
ENDBRANCH  10  14
BRANCH  12  16
HETATM   16  O2  UNL     1      -9.660   8.065 -17.909  1.00  0.00    -0.352 OA
HETATM   17  C6  UNL     1      -8.667   8.060 -18.893  1.00  0.00     0.210 C 
ENDBRANCH  12  16
ENDBRANCH   3   4
ENDBRANCH   1   3
BRANCH   1  18
HETATM   18  N4  UNL     1      -8.098  13.924 -18.708  1.00  0.00    -0.280 N 
ATOM     19  H4  UNL     1      -8.205  14.034 -19.717  1.00  0.00     0.189 HD
BRANCH  18  20
HETATM   20  C10 UNL     1      -7.503  14.983 -18.005  1.00  0.00     0.187 C 
HETATM   21  S1  UNL     1      -5.853  15.004 -17.808  1.00  0.00    -0.040 SA
BRANCH  20  22
HETATM   22  N5  UNL     1      -8.213  16.065 -17.447  1.00  0.00    -0.348 N 
ATOM     23  H5  UNL     1      -8.998  16.483 -17.948  1.00  0.00     0.163 HD
BRANCH  22  24
HETATM   24  C11 UNL     1      -7.807  16.581 -16.136  1.00  0.00     0.275 C 
BRANCH  24  25
HETATM   25  N6  UNL     1      -8.509  17.829 -15.910  1.00  0.00    -0.206 N 
HETATM   26  N7  UNL     1      -7.941  19.029 -15.676  1.00  0.00     0.002 NA
HETATM   27  N8  UNL     1      -8.916  19.919 -15.518  1.00  0.00    -0.220 N 
HETATM   28  N9  UNL     1     -10.095  19.348 -15.639  1.00  0.00    -0.233 N 
ATOM     29  H8  UNL     1      -8.770  20.911 -15.329  1.00  0.00     0.206 HD
HETATM   30  C12 UNL     1     -11.424  19.980 -15.522  1.00  0.00     0.184 C 
HETATM   31  C13 UNL     1      -9.829  18.059 -15.880  1.00  0.00     0.358 A 
HETATM   32  O3  UNL     1     -10.705  17.169 -16.058  1.00  0.00    -0.244 OA
ENDBRANCH  24  25
ENDBRANCH  22  24
ENDBRANCH  20  22
ENDBRANCH  18  20
ENDBRANCH   1  18
TORSDOF 9
ENDMDL
MODEL 5
REMARK VINA RESULT: -6.999252017      3.003      4.540
REMARK  9 active torsions:
REMARK  status: ('A' for Active; 'I' for Inactive)
REMARK    1  A    between atoms: C3_7  and  O1_8 
REMARK    2  A    between atoms: C5_10  and  O2_11 
REMARK    3  A    between atoms: C8_14  and  C9_15 
REMARK    4  A    between atoms: C9_15  and  N3_16 
REMARK    5  A    between atoms: N3_16  and  N4_18 
REMARK    6  A    between atoms: N4_18  and  C10_20 
REMARK    7  A    between atoms: C10_20  and  N5_22 
REMARK    8  A    between atoms: N5_22  and  C11_24 
REMARK    9  A    between atoms: C11_24  and  N6_25 
ROOT
HETATM    1  N3  UNL     1     -10.060  16.077 -17.551  1.00  0.00    -0.330 N 
ATOM      2  H3  UNL     1     -10.746  15.674 -18.188  1.00  0.00     0.180 HD
ENDROOT
BRANCH   1   3
HETATM    3  C9  UNL     1      -8.764  15.479 -17.345  1.00  0.00     0.182 C 
BRANCH   3   4
HETATM    4  C8  UNL     1      -8.939  14.007 -17.428  1.00  0.00     0.007 A 
HETATM    5  C2  UNL     1      -7.882  13.206 -17.770  1.00  0.00     0.110 A 
HETATM    6  N1  UNL     1      -6.767  13.596 -18.073  1.00  0.00    -0.380 N 
HETATM    7  N2  UNL     1      -8.064  11.821 -17.787  1.00  0.00    -0.321 N 
HETATM    8  C1  UNL     1      -5.952  14.697 -18.253  1.00  0.00     0.147 C 
ATOM      9  H1  UNL     1      -6.205  12.769 -18.275  1.00  0.00     0.160 HD
HETATM   10  C3  UNL     1      -9.229  11.250 -17.484  1.00  0.00     0.177 A 
ATOM     11  H2  UNL     1      -7.276  11.225 -18.042  1.00  0.00     0.169 HD
HETATM   12  C5  UNL     1     -10.295  12.056 -17.137  1.00  0.00     0.119 A 
HETATM   13  C7  UNL     1     -10.159  13.412 -17.110  1.00  0.00     0.053 A 
BRANCH  10  14
HETATM   14  O1  UNL     1      -9.416   9.867 -17.498  1.00  0.00    -0.339 OA
HETATM   15  C4  UNL     1      -8.910   9.138 -18.590  1.00  0.00     0.211 C 
ENDBRANCH  10  14
BRANCH  12  16
HETATM   16  O2  UNL     1     -11.502  11.468 -16.818  1.00  0.00    -0.352 OA
HETATM   17  C6  UNL     1     -12.497  12.076 -16.048  1.00  0.00     0.210 C 
ENDBRANCH  12  16
ENDBRANCH   3   4
ENDBRANCH   1   3
BRANCH   1  18
HETATM   18  N4  UNL     1     -10.315  17.219 -16.841  1.00  0.00    -0.280 N 
ATOM     19  H4  UNL     1     -10.275  18.103 -17.347  1.00  0.00     0.189 HD
BRANCH  18  20
HETATM   20  C10 UNL     1     -10.627  17.274 -15.473  1.00  0.00     0.187 C 
HETATM   21  S1  UNL     1     -11.560  16.074 -14.801  1.00  0.00    -0.040 SA
BRANCH  20  22
HETATM   22  N5  UNL     1     -10.189  18.289 -14.598  1.00  0.00    -0.348 N 
ATOM     23  H5  UNL     1     -10.842  18.994 -14.255  1.00  0.00     0.163 HD
BRANCH  22  24
HETATM   24  C11 UNL     1      -8.781  18.315 -14.188  1.00  0.00     0.275 C 
BRANCH  24  25
HETATM   25  N6  UNL     1      -8.216  19.581 -14.611  1.00  0.00    -0.206 N 
HETATM   26  N7  UNL     1      -7.809  19.891 -15.858  1.00  0.00     0.002 NA
HETATM   27  N8  UNL     1      -7.351  21.140 -15.840  1.00  0.00    -0.220 N 
HETATM   28  N9  UNL     1      -7.442  21.653 -14.633  1.00  0.00    -0.233 N 
ATOM     29  H8  UNL     1      -6.979  21.632 -16.652  1.00  0.00     0.206 HD
HETATM   30  C12 UNL     1      -7.033  23.000 -14.188  1.00  0.00     0.184 C 
HETATM   31  C13 UNL     1      -7.977  20.681 -13.885  1.00  0.00     0.358 A 
HETATM   32  O3  UNL     1      -8.227  20.782 -12.652  1.00  0.00    -0.244 OA
ENDBRANCH  24  25
ENDBRANCH  22  24
ENDBRANCH  20  22
ENDBRANCH  18  20
ENDBRANCH   1  18
TORSDOF 9
ENDMDL
