MODEL 1
REMARK VINA RESULT: -9.035832953      0.000      0.000
REMARK  9 active torsions:
REMARK  status: ('A' for Active; 'I' for Inactive)
REMARK    1  A    between atoms: N1_2  and  C2_3 
REMARK    2  A    between atoms: N1_2  and  N2_5 
REMARK       I    between atoms: N2_5  and  C3_7 
REMARK       I    between atoms: C3_7  and  N4_11 
REMARK    3  A    between atoms: N4_11  and  O2_13 
REMARK    4  A    between atoms: O2_13  and  C4_14 
REMARK    5  A    between atoms: C4_14  and  C5_16 
REMARK    6  A    between atoms: C8_19  and  N5_20 
REMARK       I    between atoms: N5_20  and  C9_22 
REMARK    7  A    between atoms: C9_22  and  C10_24 
REMARK    8  A    between atoms: N6_26  and  C12_27 
REMARK    9  A    between atoms: C13_33  and  N9_34 
ROOT
HETATM    1  C5  UNL     1      66.851  47.606  27.356  1.00  0.00     0.041 A 
HETATM    2  C6  UNL     1      66.991  48.242  26.146  1.00  0.00     0.020 A 
HETATM    3  C7  UNL     1      67.391  49.587  26.057  1.00  0.00     0.030 A 
HETATM    4  C8  UNL     1      67.653  50.308  27.188  1.00  0.00     0.035 A 
HETATM    5  C14 UNL     1      67.503  49.639  28.424  1.00  0.00     0.030 A 
HETATM    6  C15 UNL     1      67.114  48.328  28.500  1.00  0.00     0.020 A 
ENDROOT
BRANCH   4   7
HETATM    7  N5  UNL     1      68.041  51.665  27.177  1.00  0.00    -0.322 N 
HETATM    8  C9  UNL     1      67.329  52.747  26.646  1.00  0.00     0.275 C 
HETATM    9  O4  UNL     1      66.226  52.680  26.096  1.00  0.00    -0.266 OA
ATOM     10  H5  UNL     1      68.942  51.882  27.604  1.00  0.00     0.169 HD
BRANCH   8  11
HETATM   11  C10 UNL     1      67.930  54.101  26.737  1.00  0.00     0.135 A 
HETATM   12  C11 UNL     1      69.280  54.418  26.872  1.00  0.00     0.156 A 
HETATM   13  N6  UNL     1      69.422  55.749  26.920  1.00  0.00    -0.229 N 
HETATM   14  N10 UNL     1      68.209  56.244  26.819  1.00  0.00    -0.234 N 
HETATM   15  N11 UNL     1      67.302  55.291  26.709  1.00  0.00    -0.279 N 
ATOM     16  H10 UNL     1      67.995  57.240  26.824  1.00  0.00     0.209 HD
ATOM     17  H11 UNL     1      66.296  55.432  26.618  1.00  0.00     0.189 HD
BRANCH  13  18
HETATM   18  C12 UNL     1      70.623  56.478  27.052  1.00  0.00     0.195 A 
HETATM   19  N7  UNL     1      71.624  56.162  27.925  1.00  0.00    -0.220 N 
HETATM   20  O5  UNL     1      72.560  57.044  27.770  1.00  0.00    -0.153 OA
ATOM     21  H7  UNL     1      71.633  55.377  28.577  1.00  0.00     0.198 HD
HETATM   22  N8  UNL     1      72.253  57.909  26.867  1.00  0.00    -0.222 N 
HETATM   23  C13 UNL     1      71.042  57.603  26.380  1.00  0.00     0.169 A 
ATOM     24  H8  UNL     1      72.832  58.695  26.572  1.00  0.00     0.198 HD
BRANCH  23  25
HETATM   25  N9  UNL     1      70.360  58.209  25.464  1.00  0.00    -0.381 N 
ATOM     26  H92 UNL     1      69.370  58.453  25.460  1.00  0.00     0.157 HD
ATOM     27  H91 UNL     1      70.743  58.539  24.578  1.00  0.00     0.157 HD
ENDBRANCH  23  25
ENDBRANCH  13  18
ENDBRANCH   8  11
ENDBRANCH   4   7
BRANCH   1  28
HETATM   28  C4  UNL     1      66.430  46.198  27.394  1.00  0.00     0.315 C 
HETATM   29  O3  UNL     1      65.553  45.767  28.166  1.00  0.00    -0.257 OA
BRANCH  28  30
HETATM   30  O2  UNL     1      67.036  45.289  26.528  1.00  0.00    -0.180 OA
BRANCH  30  31
HETATM   31  N4  UNL     1      66.482  44.845  25.359  1.00  0.00    -0.087 N 
HETATM   32  C3  UNL     1      67.327  44.673  24.236  1.00  0.00     0.710 C 
HETATM   33  N2  UNL     1      66.767  44.527  22.947  1.00  0.00    -0.127 N 
HETATM   34  N3  UNL     1      68.619  44.648  24.387  1.00  0.00    -0.232 N 
ATOM     35  H2  UNL     1      66.914  43.670  22.413  1.00  0.00     0.206 HD
ATOM     36  H32 UNL     1      69.228  44.524  23.578  1.00  0.00     0.174 HD
ATOM     37  H31 UNL     1      69.023  44.753  25.318  1.00  0.00     0.174 HD
ATOM     38  H4  UNL     1      65.484  44.642  25.298  1.00  0.00     0.214 HD
BRANCH  33  39
HETATM   39  N1  UNL     1      66.013  45.570  22.416  1.00  0.00    -0.259 N 
HETATM   40  C1  UNL     1      66.415  46.915  22.744  1.00  0.00     0.181 C 
BRANCH  39  41
HETATM   41  C2  UNL     1      64.883  45.300  21.577  1.00  0.00     0.371 C 
HETATM   42  O1  UNL     1      64.563  46.018  20.601  1.00  0.00    -0.282 OA
ENDBRANCH  39  41
ENDBRANCH  33  39
ENDBRANCH  30  31
ENDBRANCH  28  30
ENDBRANCH   1  28
TORSDOF 9
ENDMDL
MODEL 2
REMARK VINA RESULT: -8.785893276      2.689     11.117
REMARK  9 active torsions:
REMARK  status: ('A' for Active; 'I' for Inactive)
REMARK    1  A    between atoms: N1_2  and  C2_3 
REMARK    2  A    between atoms: N1_2  and  N2_5 
REMARK       I    between atoms: N2_5  and  C3_7 
REMARK       I    between atoms: C3_7  and  N4_11 
REMARK    3  A    between atoms: N4_11  and  O2_13 
REMARK    4  A    between atoms: O2_13  and  C4_14 
REMARK    5  A    between atoms: C4_14  and  C5_16 
REMARK    6  A    between atoms: C8_19  and  N5_20 
REMARK       I    between atoms: N5_20  and  C9_22 
REMARK    7  A    between atoms: C9_22  and  C10_24 
REMARK    8  A    between atoms: N6_26  and  C12_27 
REMARK    9  A    between atoms: C13_33  and  N9_34 
ROOT
HETATM    1  C5  UNL     1      66.871  54.407  25.968  1.00  0.00     0.041 A 
HETATM    2  C6  UNL     1      65.761  54.120  25.209  1.00  0.00     0.020 A 
HETATM    3  C7  UNL     1      65.407  52.798  24.886  1.00  0.00     0.030 A 
HETATM    4  C8  UNL     1      66.167  51.751  25.323  1.00  0.00     0.035 A 
HETATM    5  C14 UNL     1      67.305  52.063  26.102  1.00  0.00     0.030 A 
HETATM    6  C15 UNL     1      67.641  53.355  26.412  1.00  0.00     0.020 A 
ENDROOT
BRANCH   4   7
HETATM    7  N5  UNL     1      65.883  50.400  25.023  1.00  0.00    -0.322 N 
HETATM    8  C9  UNL     1      66.546  49.577  24.106  1.00  0.00     0.275 C 
HETATM    9  O4  UNL     1      67.505  49.911  23.404  1.00  0.00    -0.266 OA
ATOM     10  H5  UNL     1      65.107  49.977  25.533  1.00  0.00     0.169 HD
BRANCH   8  11
HETATM   11  C10 UNL     1      66.076  48.179  23.943  1.00  0.00     0.135 A 
HETATM   12  C11 UNL     1      66.532  47.236  23.023  1.00  0.00     0.156 A 
HETATM   13  N6  UNL     1      65.860  46.091  23.190  1.00  0.00    -0.229 N 
HETATM   14  N10 UNL     1      65.017  46.308  24.174  1.00  0.00    -0.234 N 
HETATM   15  N11 UNL     1      65.122  47.538  24.642  1.00  0.00    -0.279 N 
ATOM     16  H10 UNL     1      64.364  45.612  24.533  1.00  0.00     0.209 HD
ATOM     17  H11 UNL     1      64.572  47.935  25.403  1.00  0.00     0.189 HD
BRANCH  13  18
HETATM   18  C12 UNL     1      66.018  44.891  22.463  1.00  0.00     0.195 A 
HETATM   19  N7  UNL     1      65.299  44.566  21.349  1.00  0.00    -0.220 N 
HETATM   20  O5  UNL     1      65.710  43.402  20.955  1.00  0.00    -0.153 OA
ATOM     21  H7  UNL     1      64.575  45.133  20.909  1.00  0.00     0.198 HD
HETATM   22  N8  UNL     1      66.638  42.942  21.719  1.00  0.00    -0.222 N 
HETATM   23  C13 UNL     1      66.873  43.838  22.687  1.00  0.00     0.169 A 
ATOM     24  H8  UNL     1      67.114  42.047  21.606  1.00  0.00     0.198 HD
BRANCH  23  25
HETATM   25  N9  UNL     1      67.722  43.774  23.661  1.00  0.00    -0.381 N 
ATOM     26  H92 UNL     1      67.761  44.334  24.513  1.00  0.00     0.157 HD
ATOM     27  H91 UNL     1      68.504  43.122  23.707  1.00  0.00     0.157 HD
ENDBRANCH  23  25
ENDBRANCH  13  18
ENDBRANCH   8  11
ENDBRANCH   4   7
BRANCH   1  28
HETATM   28  C4  UNL     1      67.197  55.807  26.278  1.00  0.00     0.315 C 
HETATM   29  O3  UNL     1      66.401  56.587  26.833  1.00  0.00    -0.257 OA
BRANCH  28  30
HETATM   30  O2  UNL     1      68.456  56.298  25.936  1.00  0.00    -0.180 OA
BRANCH  30  31
HETATM   31  N4  UNL     1      69.446  56.585  26.835  1.00  0.00    -0.087 N 
HETATM   32  C3  UNL     1      70.438  57.526  26.467  1.00  0.00     0.710 C 
HETATM   33  N2  UNL     1      71.634  57.619  27.214  1.00  0.00    -0.127 N 
HETATM   34  N3  UNL     1      70.252  58.307  25.444  1.00  0.00    -0.232 N 
ATOM     35  H2  UNL     1      71.874  58.482  27.702  1.00  0.00     0.206 HD
ATOM     36  H32 UNL     1      70.966  58.985  25.179  1.00  0.00     0.174 HD
ATOM     37  H31 UNL     1      69.388  58.240  24.905  1.00  0.00     0.174 HD
ATOM     38  H4  UNL     1      69.469  56.132  27.749  1.00  0.00     0.214 HD
BRANCH  33  39
HETATM   39  N1  UNL     1      72.481  56.515  27.273  1.00  0.00    -0.259 N 
HETATM   40  C1  UNL     1      73.353  56.285  26.148  1.00  0.00     0.181 C 
BRANCH  39  41
HETATM   41  C2  UNL     1      72.475  55.650  28.416  1.00  0.00     0.371 C 
HETATM   42  O1  UNL     1      71.427  55.270  28.986  1.00  0.00    -0.282 OA
ENDBRANCH  39  41
ENDBRANCH  33  39
ENDBRANCH  30  31
ENDBRANCH  28  30
ENDBRANCH   1  28
TORSDOF 9
ENDMDL
MODEL 3
REMARK VINA RESULT: -8.663526947      1.273      1.677
REMARK  9 active torsions:
REMARK  status: ('A' for Active; 'I' for Inactive)
REMARK    1  A    between atoms: N1_2  and  C2_3 
REMARK    2  A    between atoms: N1_2  and  N2_5 
REMARK       I    between atoms: N2_5  and  C3_7 
REMARK       I    between atoms: C3_7  and  N4_11 
REMARK    3  A    between atoms: N4_11  and  O2_13 
REMARK    4  A    between atoms: O2_13  and  C4_14 
REMARK    5  A    between atoms: C4_14  and  C5_16 
REMARK    6  A    between atoms: C8_19  and  N5_20 
REMARK       I    between atoms: N5_20  and  C9_22 
REMARK    7  A    between atoms: C9_22  and  C10_24 
REMARK    8  A    between atoms: N6_26  and  C12_27 
REMARK    9  A    between atoms: C13_33  and  N9_34 
ROOT
HETATM    1  C5  UNL     1      67.164  47.208  27.141  1.00  0.00     0.041 A 
HETATM    2  C6  UNL     1      67.031  48.128  28.153  1.00  0.00     0.020 A 
HETATM    3  C7  UNL     1      67.721  49.353  28.136  1.00  0.00     0.030 A 
HETATM    4  C8  UNL     1      68.554  49.664  27.099  1.00  0.00     0.035 A 
HETATM    5  C14 UNL     1      68.679  48.707  26.067  1.00  0.00     0.030 A 
HETATM    6  C15 UNL     1      68.002  47.516  26.092  1.00  0.00     0.020 A 
ENDROOT
BRANCH   4   7
HETATM    7  N5  UNL     1      69.292  50.866  27.023  1.00  0.00    -0.322 N 
HETATM    8  C9  UNL     1      69.061  51.950  26.168  1.00  0.00     0.275 C 
HETATM    9  O4  UNL     1      68.155  52.026  25.333  1.00  0.00    -0.266 OA
ATOM     10  H5  UNL     1      70.082  50.954  27.662  1.00  0.00     0.169 HD
BRANCH   8  11
HETATM   11  C10 UNL     1      69.969  53.121  26.251  1.00  0.00     0.135 A 
HETATM   12  C11 UNL     1      69.746  54.315  26.933  1.00  0.00     0.156 A 
HETATM   13  N6  UNL     1      70.800  55.124  26.771  1.00  0.00    -0.229 N 
HETATM   14  N10 UNL     1      71.648  54.463  26.016  1.00  0.00    -0.234 N 
HETATM   15  N11 UNL     1      71.183  53.270  25.692  1.00  0.00    -0.279 N 
ATOM     16  H10 UNL     1      72.554  54.825  25.718  1.00  0.00     0.209 HD
ATOM     17  H11 UNL     1      71.663  52.580  25.115  1.00  0.00     0.189 HD
BRANCH  13  18
HETATM   18  C12 UNL     1      70.973  56.423  27.296  1.00  0.00     0.195 A 
HETATM   19  N7  UNL     1      71.498  56.692  28.527  1.00  0.00    -0.220 N 
HETATM   20  O5  UNL     1      71.502  57.980  28.668  1.00  0.00    -0.153 OA
ATOM     21  H7  UNL     1      71.827  56.007  29.208  1.00  0.00     0.198 HD
HETATM   22  N8  UNL     1      71.023  58.573  27.631  1.00  0.00    -0.222 N 
HETATM   23  C13 UNL     1      70.672  57.641  26.734  1.00  0.00     0.169 A 
ATOM     24  H8  UNL     1      70.927  59.581  27.512  1.00  0.00     0.198 HD
BRANCH  23  25
HETATM   25  N9  UNL     1      70.152  57.801  25.561  1.00  0.00    -0.381 N 
ATOM     26  H92 UNL     1      69.860  57.092  24.889  1.00  0.00     0.157 HD
ATOM     27  H91 UNL     1      69.956  58.705  25.131  1.00  0.00     0.157 HD
ENDBRANCH  23  25
ENDBRANCH  13  18
ENDBRANCH   8  11
ENDBRANCH   4   7
BRANCH   1  28
HETATM   28  C4  UNL     1      66.419  45.941  27.207  1.00  0.00     0.315 C 
HETATM   29  O3  UNL     1      65.418  45.775  27.929  1.00  0.00    -0.257 OA
BRANCH  28  30
HETATM   30  O2  UNL     1      66.846  44.866  26.430  1.00  0.00    -0.180 OA
BRANCH  30  31
HETATM   31  N4  UNL     1      66.320  44.531  25.214  1.00  0.00    -0.087 N 
HETATM   32  C3  UNL     1      67.193  44.442  24.103  1.00  0.00     0.710 C 
HETATM   33  N2  UNL     1      66.668  44.415  22.792  1.00  0.00    -0.127 N 
HETATM   34  N3  UNL     1      68.480  44.384  24.286  1.00  0.00    -0.232 N 
ATOM     35  H2  UNL     1      66.818  43.605  22.191  1.00  0.00     0.206 HD
ATOM     36  H32 UNL     1      69.110  44.320  23.486  1.00  0.00     0.174 HD
ATOM     37  H31 UNL     1      68.860  44.404  25.233  1.00  0.00     0.174 HD
ATOM     38  H4  UNL     1      65.321  44.350  25.109  1.00  0.00     0.214 HD
BRANCH  33  39
HETATM   39  N1  UNL     1      65.943  45.511  22.332  1.00  0.00    -0.259 N 
HETATM   40  C1  UNL     1      66.395  46.822  22.730  1.00  0.00     0.181 C 
BRANCH  39  41
HETATM   41  C2  UNL     1      64.793  45.328  21.495  1.00  0.00     0.371 C 
HETATM   42  O1  UNL     1      64.539  46.051  20.506  1.00  0.00    -0.282 OA
ENDBRANCH  39  41
ENDBRANCH  33  39
ENDBRANCH  30  31
ENDBRANCH  28  30
ENDBRANCH   1  28
TORSDOF 9
ENDMDL
MODEL 4
REMARK VINA RESULT: -8.538209269      4.243      7.371
REMARK  9 active torsions:
REMARK  status: ('A' for Active; 'I' for Inactive)
REMARK    1  A    between atoms: N1_2  and  C2_3 
REMARK    2  A    between atoms: N1_2  and  N2_5 
REMARK       I    between atoms: N2_5  and  C3_7 
REMARK       I    between atoms: C3_7  and  N4_11 
REMARK    3  A    between atoms: N4_11  and  O2_13 
REMARK    4  A    between atoms: O2_13  and  C4_14 
REMARK    5  A    between atoms: C4_14  and  C5_16 
REMARK    6  A    between atoms: C8_19  and  N5_20 
REMARK       I    between atoms: N5_20  and  C9_22 
REMARK    7  A    between atoms: C9_22  and  C10_24 
REMARK    8  A    between atoms: N6_26  and  C12_27 
REMARK    9  A    between atoms: C13_33  and  N9_34 
ROOT
HETATM    1  C5  UNL     1      73.012  52.947  26.782  1.00  0.00     0.041 A 
HETATM    2  C6  UNL     1      73.907  53.826  27.344  1.00  0.00     0.020 A 
HETATM    3  C7  UNL     1      73.738  55.218  27.248  1.00  0.00     0.030 A 
HETATM    4  C8  UNL     1      72.664  55.742  26.584  1.00  0.00     0.035 A 
HETATM    5  C14 UNL     1      71.753  54.824  26.013  1.00  0.00     0.030 A 
HETATM    6  C15 UNL     1      71.927  53.469  26.112  1.00  0.00     0.020 A 
ENDROOT
BRANCH   4   7
HETATM    7  N5  UNL     1      72.439  57.128  26.432  1.00  0.00    -0.322 N 
HETATM    8  C9  UNL     1      71.635  57.949  27.233  1.00  0.00     0.275 C 
HETATM    9  O4  UNL     1      70.989  57.580  28.218  1.00  0.00    -0.266 OA
ATOM     10  H5  UNL     1      72.914  57.582  25.652  1.00  0.00     0.169 HD
BRANCH   8  11
HETATM   11  C10 UNL     1      71.534  59.389  26.888  1.00  0.00     0.135 A 
HETATM   12  C11 UNL     1      70.926  59.948  25.766  1.00  0.00     0.156 A 
HETATM   13  N6  UNL     1      71.042  61.280  25.815  1.00  0.00    -0.229 N 
HETATM   14  N10 UNL     1      71.697  61.544  26.922  1.00  0.00    -0.234 N 
HETATM   15  N11 UNL     1      72.002  60.442  27.581  1.00  0.00    -0.279 N 
ATOM     16  H10 UNL     1      71.939  62.484  27.234  1.00  0.00     0.209 HD
ATOM     17  H11 UNL     1      72.508  60.397  28.466  1.00  0.00     0.189 HD
BRANCH  13  18
HETATM   18  C12 UNL     1      70.563  62.217  24.873  1.00  0.00     0.195 A 
HETATM   19  N7  UNL     1      69.255  62.587  24.751  1.00  0.00    -0.220 N 
HETATM   20  O5  UNL     1      69.191  63.455  23.791  1.00  0.00    -0.153 OA
ATOM     21  H7  UNL     1      68.474  62.244  25.311  1.00  0.00     0.198 HD
HETATM   22  N8  UNL     1      70.349  63.682  23.278  1.00  0.00    -0.222 N 
HETATM   23  C13 UNL     1      71.253  62.929  23.920  1.00  0.00     0.169 A 
ATOM     24  H8  UNL     1      70.546  64.326  22.512  1.00  0.00     0.198 HD
BRANCH  23  25
HETATM   25  N9  UNL     1      72.528  62.849  23.722  1.00  0.00    -0.381 N 
ATOM     26  H92 UNL     1      73.188  62.157  24.075  1.00  0.00     0.157 HD
ATOM     27  H91 UNL     1      73.070  63.503  23.157  1.00  0.00     0.157 HD
ENDBRANCH  23  25
ENDBRANCH  13  18
ENDBRANCH   8  11
ENDBRANCH   4   7
BRANCH   1  28
HETATM   28  C4  UNL     1      73.235  51.500  26.911  1.00  0.00     0.315 C 
HETATM   29  O3  UNL     1      74.345  51.001  27.177  1.00  0.00    -0.257 OA
BRANCH  28  30
HETATM   30  O2  UNL     1      72.160  50.632  26.728  1.00  0.00    -0.180 OA
BRANCH  30  31
HETATM   31  N4  UNL     1      71.152  50.444  27.633  1.00  0.00    -0.087 N 
HETATM   32  C3  UNL     1      70.973  49.152  28.183  1.00  0.00     0.710 C 
HETATM   33  N2  UNL     1      69.776  48.834  28.863  1.00  0.00    -0.127 N 
HETATM   34  N3  UNL     1      71.908  48.255  28.064  1.00  0.00    -0.232 N 
ATOM     35  H2  UNL     1      69.794  48.577  29.850  1.00  0.00     0.206 HD
ATOM     36  H32 UNL     1      71.778  47.324  28.460  1.00  0.00     0.174 HD
ATOM     37  H31 UNL     1      72.772  48.484  27.573  1.00  0.00     0.174 HD
ATOM     38  H4  UNL     1      70.545  51.217  27.906  1.00  0.00     0.214 HD
BRANCH  33  39
HETATM   39  N1  UNL     1      68.571  48.875  28.166  1.00  0.00    -0.259 N 
HETATM   40  C1  UNL     1      68.480  48.106  26.949  1.00  0.00     0.181 C 
BRANCH  39  41
HETATM   41  C2  UNL     1      67.472  49.656  28.652  1.00  0.00     0.371 C 
HETATM   42  O1  UNL     1      67.183  50.791  28.208  1.00  0.00    -0.282 OA
ENDBRANCH  39  41
ENDBRANCH  33  39
ENDBRANCH  30  31
ENDBRANCH  28  30
ENDBRANCH   1  28
TORSDOF 9
ENDMDL
MODEL 5
REMARK VINA RESULT: -8.514301881      2.667     11.299
REMARK  9 active torsions:
REMARK  status: ('A' for Active; 'I' for Inactive)
REMARK    1  A    between atoms: N1_2  and  C2_3 
REMARK    2  A    between atoms: N1_2  and  N2_5 
REMARK       I    between atoms: N2_5  and  C3_7 
REMARK       I    between atoms: C3_7  and  N4_11 
REMARK    3  A    between atoms: N4_11  and  O2_13 
REMARK    4  A    between atoms: O2_13  and  C4_14 
REMARK    5  A    between atoms: C4_14  and  C5_16 
REMARK    6  A    between atoms: C8_19  and  N5_20 
REMARK       I    between atoms: N5_20  and  C9_22 
REMARK    7  A    between atoms: C9_22  and  C10_24 
REMARK    8  A    between atoms: N6_26  and  C12_27 
REMARK    9  A    between atoms: C13_33  and  N9_34 
ROOT
HETATM    1  C5  UNL     1      66.874  54.300  26.014  1.00  0.00     0.041 A 
HETATM    2  C6  UNL     1      65.782  54.058  25.216  1.00  0.00     0.020 A 
HETATM    3  C7  UNL     1      65.396  52.752  24.865  1.00  0.00     0.030 A 
HETATM    4  C8  UNL     1      66.107  51.675  25.313  1.00  0.00     0.035 A 
HETATM    5  C14 UNL     1      67.228  51.942  26.133  1.00  0.00     0.030 A 
HETATM    6  C15 UNL     1      67.596  53.218  26.470  1.00  0.00     0.020 A 
ENDROOT
BRANCH   4   7
HETATM    7  N5  UNL     1      65.790  50.338  24.988  1.00  0.00    -0.322 N 
HETATM    8  C9  UNL     1      66.609  49.405  24.342  1.00  0.00     0.275 C 
HETATM    9  O4  UNL     1      67.762  49.610  23.953  1.00  0.00    -0.266 OA
ATOM     10  H5  UNL     1      64.858  50.016  25.253  1.00  0.00     0.169 HD
BRANCH   8  11
HETATM   11  C10 UNL     1      66.070  48.045  24.092  1.00  0.00     0.135 A 
HETATM   12  C11 UNL     1      66.341  47.216  23.006  1.00  0.00     0.156 A 
HETATM   13  N6  UNL     1      65.665  46.069  23.142  1.00  0.00    -0.229 N 
HETATM   14  N10 UNL     1      64.995  46.177  24.267  1.00  0.00    -0.234 N 
HETATM   15  N11 UNL     1      65.216  47.339  24.854  1.00  0.00    -0.279 N 
ATOM     16  H10 UNL     1      64.382  45.453  24.641  1.00  0.00     0.209 HD
ATOM     17  H11 UNL     1      64.807  47.648  25.736  1.00  0.00     0.189 HD
BRANCH  13  18
HETATM   18  C12 UNL     1      65.663  44.966  22.261  1.00  0.00     0.195 A 
HETATM   19  N7  UNL     1      64.789  44.810  21.223  1.00  0.00    -0.220 N 
HETATM   20  O5  UNL     1      65.083  43.690  20.641  1.00  0.00    -0.153 OA
ATOM     21  H7  UNL     1      64.044  45.454  20.957  1.00  0.00     0.198 HD
HETATM   22  N8  UNL     1      66.077  43.104  21.211  1.00  0.00    -0.222 N 
HETATM   23  C13 UNL     1      66.483  43.862  22.240  1.00  0.00     0.169 A 
ATOM     24  H8  UNL     1      66.486  42.214  20.929  1.00  0.00     0.198 HD
BRANCH  23  25
HETATM   25  N9  UNL     1      67.446  43.646  23.075  1.00  0.00    -0.381 N 
ATOM     26  H92 UNL     1      67.678  44.152  23.929  1.00  0.00     0.157 HD
ATOM     27  H91 UNL     1      68.136  42.901  22.984  1.00  0.00     0.157 HD
ENDBRANCH  23  25
ENDBRANCH  13  18
ENDBRANCH   8  11
ENDBRANCH   4   7
BRANCH   1  28
HETATM   28  C4  UNL     1      67.235  55.685  26.352  1.00  0.00     0.315 C 
HETATM   29  O3  UNL     1      66.544  56.669  26.029  1.00  0.00    -0.257 OA
BRANCH  28  30
HETATM   30  O2  UNL     1      68.408  55.922  27.068  1.00  0.00    -0.180 OA
BRANCH  30  31
HETATM   31  N4  UNL     1      69.506  56.563  26.565  1.00  0.00    -0.087 N 
HETATM   32  C3  UNL     1      70.757  56.349  27.194  1.00  0.00     0.710 C 
HETATM   33  N2  UNL     1      71.840  57.214  26.922  1.00  0.00    -0.127 N 
HETATM   34  N3  UNL     1      70.912  55.357  28.021  1.00  0.00    -0.232 N 
ATOM     35  H2  UNL     1      72.692  56.857  26.490  1.00  0.00     0.206 HD
ATOM     36  H32 UNL     1      71.813  55.204  28.474  1.00  0.00     0.174 HD
ATOM     37  H31 UNL     1      70.130  54.733  28.217  1.00  0.00     0.174 HD
ATOM     38  H4  UNL     1      69.426  57.180  25.757  1.00  0.00     0.214 HD
BRANCH  33  39
HETATM   39  N1  UNL     1      71.728  58.562  27.253  1.00  0.00    -0.259 N 
HETATM   40  C1  UNL     1      72.077  58.948  28.598  1.00  0.00     0.181 C 
BRANCH  39  41
HETATM   41  C2  UNL     1      71.282  59.518  26.283  1.00  0.00     0.371 C 
HETATM   42  O1  UNL     1      70.677  59.202  25.232  1.00  0.00    -0.282 OA
ENDBRANCH  39  41
ENDBRANCH  33  39
ENDBRANCH  30  31
ENDBRANCH  28  30
ENDBRANCH   1  28
TORSDOF 9
ENDMDL
