MODEL 1
REMARK VINA RESULT: -8.642144114      0.000      0.000
REMARK  9 active torsions:
REMARK  status: ('A' for Active; 'I' for Inactive)
REMARK    1  A    between atoms: C9_13  and  S1_14 
REMARK    2  A    between atoms: C12_22  and  N2_23 
REMARK    3  A    between atoms: N2_23  and  S2_25 
REMARK    4  A    between atoms: S2_25  and  O8_28 
REMARK    5  A    between atoms: O8_28  and  C13_29 
REMARK    6  A    between atoms: C13_29  and  C14_30 
REMARK    7  A    between atoms: C14_30  and  C15_31 
REMARK    8  A    between atoms: C15_31  and  C16_32 
REMARK    9  A    between atoms: C16_32  and  C17_33 
ROOT
HETATM    1  C1  UNL     1      36.609 -15.858  29.042  1.00  0.00     0.049 C 
HETATM    2  C2  UNL     1      37.591 -16.965  29.100  1.00  0.00    -0.042 A 
HETATM    3  C3  UNL     1      38.228 -17.371  30.250  1.00  0.00     0.090 A 
HETATM    4  C4  UNL     1      39.125 -18.415  30.186  1.00  0.00     0.288 A 
HETATM    5  O1  UNL     1      39.680 -18.747  31.263  1.00  0.00    -0.260 OA
HETATM    6  O2  UNL     1      39.402 -19.041  29.073  1.00  0.00    -0.274 OA
HETATM    7  C5  UNL     1      38.827 -18.699  27.947  1.00  0.00     0.106 A 
HETATM    8  C6  UNL     1      37.912 -17.658  27.928  1.00  0.00     0.020 A 
HETATM    9  C7  UNL     1      37.313 -17.319  26.734  1.00  0.00     0.103 A 
HETATM   10  N1  UNL     1      37.621 -17.992  25.619  1.00  0.00    -0.363 N 
ATOM     11  H1  UNL     1      37.173 -17.737  24.738  1.00  0.00     0.165 HD
HETATM   12  C8  UNL     1      38.505 -18.995  25.641  1.00  0.00     0.074 A 
HETATM   13  C9  UNL     1      38.745 -19.654  24.447  1.00  0.00     0.133 A 
HETATM   14  C10 UNL     1      39.627 -20.703  24.433  1.00  0.00     0.101 A 
HETATM   15 CL1  UNL     1      39.954 -21.569  22.925  1.00  0.00    -0.079 Cl
HETATM   16  C11 UNL     1      40.271 -21.101  25.584  1.00  0.00     0.168 A 
HETATM   17  F1  UNL     1      41.124 -22.168  25.490  1.00  0.00    -0.202 F 
HETATM   18  C12 UNL     1      40.048 -20.452  26.798  1.00  0.00     0.100 A 
HETATM   19  C28 UNL     1      39.164 -19.409  26.806  1.00  0.00     0.058 A 
ENDROOT
BRANCH  18  20
HETATM   20  N2  UNL     1      40.760 -20.824  27.929  1.00  0.00    -0.258 N 
ATOM     21  H2  UNL     1      41.575 -20.265  28.184  1.00  0.00     0.181 HD
BRANCH  20  22
HETATM   22  S2  UNL     1      40.348 -22.202  28.956  1.00  0.00     0.363 S 
HETATM   23  O6  UNL     1      41.062 -21.994  30.253  1.00  0.00    -0.175 OA
HETATM   24  O7  UNL     1      38.858 -22.010  29.217  1.00  0.00    -0.175 OA
BRANCH  22  25
HETATM   25  O8  UNL     1      40.733 -23.503  28.126  1.00  0.00    -0.248 OA
BRANCH  25  26
HETATM   26  C13 UNL     1      40.144 -24.717  28.152  1.00  0.00     0.082 C 
HETATM   27  C22 UNL     1      40.179 -25.272  29.574  1.00  0.00     0.039 C 
HETATM   28  C23 UNL     1      40.345 -26.722  29.713  1.00  0.00     0.003 C 
HETATM   29  C24 UNL     1      41.424 -27.327  28.848  1.00  0.00     0.004 C 
HETATM   30  C25 UNL     1      40.984 -26.998  27.414  1.00  0.00    -0.016 C 
HETATM   31  C26 UNL     1      41.958 -27.646  26.446  1.00  0.00     0.010 C 
HETATM   32  C27 UNL     1      41.123 -25.536  27.263  1.00  0.00     0.044 C 
BRANCH  26  33
HETATM   33  C14 UNL     1      38.821 -24.898  27.534  1.00  0.00     0.045 C 
BRANCH  33  34
HETATM   34  C15 UNL     1      38.394 -24.083  26.386  1.00  0.00     0.072 C 
BRANCH  34  35
HETATM   35  C16 UNL     1      37.604 -24.965  25.413  1.00  0.00     0.167 C 
HETATM   36  O9  UNL     1      37.876 -24.662  24.100  1.00  0.00    -0.353 OA
HETATM   37  C20 UNL     1      37.039 -23.596  23.754  1.00  0.00     0.197 C 
HETATM   38  C21 UNL     1      35.957 -23.587  24.788  1.00  0.00     0.197 C 
HETATM   39  O10 UNL     1      36.259 -24.648  25.603  1.00  0.00    -0.353 OA
BRANCH  35  40
HETATM   40  C17 UNL     1      37.766 -26.426  25.662  1.00  0.00     0.040 C 
HETATM   41  C18 UNL     1      36.419 -27.141  25.576  1.00  0.00     0.015 C 
HETATM   42  C19 UNL     1      38.561 -26.969  24.463  1.00  0.00     0.015 C 
ENDBRANCH  35  40
ENDBRANCH  34  35
ENDBRANCH  33  34
ENDBRANCH  26  33
ENDBRANCH  25  26
ENDBRANCH  22  25
ENDBRANCH  20  22
ENDBRANCH  18  20
BRANCH  13  43
HETATM   43  S1  UNL     1      37.940 -19.165  22.972  1.00  0.00     0.141 S 
HETATM   44  O3  UNL     1      38.607 -17.984  22.375  1.00  0.00    -0.591 OA
HETATM   45  O4  UNL     1      37.951 -20.280  21.953  1.00  0.00    -0.591 OA
HETATM   46  O5  UNL     1      36.305 -18.829  23.275  1.00  0.00    -0.591 OA
ENDBRANCH  13  43
TORSDOF 9
ENDMDL
MODEL 2
REMARK VINA RESULT: -8.530402807      2.879      7.783
REMARK  9 active torsions:
REMARK  status: ('A' for Active; 'I' for Inactive)
REMARK    1  A    between atoms: C9_13  and  S1_14 
REMARK    2  A    between atoms: C12_22  and  N2_23 
REMARK    3  A    between atoms: N2_23  and  S2_25 
REMARK    4  A    between atoms: S2_25  and  O8_28 
REMARK    5  A    between atoms: O8_28  and  C13_29 
REMARK    6  A    between atoms: C13_29  and  C14_30 
REMARK    7  A    between atoms: C14_30  and  C15_31 
REMARK    8  A    between atoms: C15_31  and  C16_32 
REMARK    9  A    between atoms: C16_32  and  C17_33 
ROOT
HETATM    1  C1  UNL     1      37.502 -25.703  24.962  1.00  0.00     0.049 C 
HETATM    2  C2  UNL     1      37.632 -24.540  25.871  1.00  0.00    -0.042 A 
HETATM    3  C3  UNL     1      36.754 -23.482  25.899  1.00  0.00     0.090 A 
HETATM    4  C4  UNL     1      36.974 -22.453  26.788  1.00  0.00     0.288 A 
HETATM    5  O1  UNL     1      36.144 -21.509  26.775  1.00  0.00    -0.260 OA
HETATM    6  O2  UNL     1      37.989 -22.435  27.612  1.00  0.00    -0.274 OA
HETATM    7  C5  UNL     1      38.858 -23.415  27.630  1.00  0.00     0.106 A 
HETATM    8  C6  UNL     1      38.706 -24.488  26.766  1.00  0.00     0.020 A 
HETATM    9  C7  UNL     1      39.628 -25.512  26.806  1.00  0.00     0.103 A 
HETATM   10  N1  UNL     1      40.648 -25.457  27.671  1.00  0.00    -0.363 N 
ATOM     11  H1  UNL     1      41.326 -26.218  27.697  1.00  0.00     0.165 HD
HETATM   12  C8  UNL     1      40.792 -24.419  28.502  1.00  0.00     0.074 A 
HETATM   13  C9  UNL     1      41.861 -24.456  29.382  1.00  0.00     0.133 A 
HETATM   14  C10 UNL     1      42.029 -23.423  30.266  1.00  0.00     0.101 A 
HETATM   15 CL1  UNL     1      43.383 -23.439  31.405  1.00  0.00    -0.079 Cl
HETATM   16  C11 UNL     1      41.154 -22.359  30.286  1.00  0.00     0.168 A 
HETATM   17  F1  UNL     1      41.381 -21.375  31.210  1.00  0.00    -0.202 F 
HETATM   18  C12 UNL     1      40.071 -22.298  29.409  1.00  0.00     0.100 A 
HETATM   19  C28 UNL     1      39.907 -23.334  28.532  1.00  0.00     0.058 A 
ENDROOT
BRANCH  18  20
HETATM   20  N2  UNL     1      39.244 -21.184  29.398  1.00  0.00    -0.258 N 
ATOM     21  H2  UNL     1      38.321 -21.271  29.823  1.00  0.00     0.181 HD
BRANCH  20  22
HETATM   22  S2  UNL     1      39.687 -19.624  28.695  1.00  0.00     0.363 S 
HETATM   23  O6  UNL     1      39.795 -18.660  29.833  1.00  0.00    -0.175 OA
HETATM   24  O7  UNL     1      41.096 -19.866  28.165  1.00  0.00    -0.175 OA
BRANCH  22  25
HETATM   25  O8  UNL     1      38.588 -19.307  27.591  1.00  0.00    -0.248 OA
BRANCH  25  26
HETATM   26  C13 UNL     1      38.228 -18.108  27.087  1.00  0.00     0.082 C 
HETATM   27  C22 UNL     1      39.467 -17.229  26.926  1.00  0.00     0.039 C 
HETATM   28  C23 UNL     1      39.293 -15.793  27.162  1.00  0.00     0.003 C 
HETATM   29  C24 UNL     1      38.512 -15.441  28.405  1.00  0.00     0.004 C 
HETATM   30  C25 UNL     1      37.139 -16.092  28.183  1.00  0.00    -0.016 C 
HETATM   31  C26 UNL     1      36.232 -15.720  29.342  1.00  0.00     0.010 C 
HETATM   32  C27 UNL     1      37.358 -17.551  28.248  1.00  0.00     0.044 C 
BRANCH  26  33
HETATM   33  C14 UNL     1      37.366 -18.048  25.896  1.00  0.00     0.045 C 
BRANCH  33  34
HETATM   34  C15 UNL     1      37.935 -17.990  24.541  1.00  0.00     0.072 C 
BRANCH  34  35
HETATM   35  C16 UNL     1      37.383 -19.159  23.717  1.00  0.00     0.167 C 
HETATM   36  O9  UNL     1      37.819 -20.376  24.185  1.00  0.00    -0.353 OA
HETATM   37  C20 UNL     1      39.070 -20.604  23.601  1.00  0.00     0.197 C 
HETATM   38  C21 UNL     1      39.138 -19.674  22.430  1.00  0.00     0.197 C 
HETATM   39  O10 UNL     1      37.929 -19.028  22.439  1.00  0.00    -0.353 OA
BRANCH  35  40
HETATM   40  C17 UNL     1      35.899 -19.146  23.579  1.00  0.00     0.040 C 
HETATM   41  C18 UNL     1      35.483 -18.473  22.272  1.00  0.00     0.015 C 
HETATM   42  C19 UNL     1      35.483 -20.616  23.397  1.00  0.00     0.015 C 
ENDBRANCH  35  40
ENDBRANCH  34  35
ENDBRANCH  33  34
ENDBRANCH  26  33
ENDBRANCH  25  26
ENDBRANCH  22  25
ENDBRANCH  20  22
ENDBRANCH  18  20
BRANCH  13  43
HETATM   43  S1  UNL     1      42.986 -25.796  29.374  1.00  0.00     0.141 S 
HETATM   44  O3  UNL     1      43.756 -25.829  28.108  1.00  0.00    -0.591 OA
HETATM   45  O4  UNL     1      43.966 -25.689  30.519  1.00  0.00    -0.591 OA
HETATM   46  O5  UNL     1      42.162 -27.261  29.602  1.00  0.00    -0.591 OA
ENDBRANCH  13  43
TORSDOF 9
ENDMDL
MODEL 3
REMARK VINA RESULT: -8.401544614      2.899      5.113
REMARK  9 active torsions:
REMARK  status: ('A' for Active; 'I' for Inactive)
REMARK    1  A    between atoms: C9_13  and  S1_14 
REMARK    2  A    between atoms: C12_22  and  N2_23 
REMARK    3  A    between atoms: N2_23  and  S2_25 
REMARK    4  A    between atoms: S2_25  and  O8_28 
REMARK    5  A    between atoms: O8_28  and  C13_29 
REMARK    6  A    between atoms: C13_29  and  C14_30 
REMARK    7  A    between atoms: C14_30  and  C15_31 
REMARK    8  A    between atoms: C15_31  and  C16_32 
REMARK    9  A    between atoms: C16_32  and  C17_33 
ROOT
HETATM    1  C1  UNL     1      37.317 -14.245  27.702  1.00  0.00     0.049 C 
HETATM    2  C2  UNL     1      37.578 -15.564  28.324  1.00  0.00    -0.042 A 
HETATM    3  C3  UNL     1      37.732 -15.760  29.677  1.00  0.00     0.090 A 
HETATM    4  C4  UNL     1      37.972 -17.034  30.146  1.00  0.00     0.288 A 
HETATM    5  O1  UNL     1      38.105 -17.161  31.388  1.00  0.00    -0.260 OA
HETATM    6  O2  UNL     1      38.062 -18.072  29.357  1.00  0.00    -0.274 OA
HETATM    7  C5  UNL     1      37.924 -17.945  28.060  1.00  0.00     0.106 A 
HETATM    8  C6  UNL     1      37.680 -16.697  27.510  1.00  0.00     0.020 A 
HETATM    9  C7  UNL     1      37.531 -16.587  26.145  1.00  0.00     0.103 A 
HETATM   10  N1  UNL     1      37.623 -17.678  25.374  1.00  0.00    -0.363 N 
ATOM     11  H1  UNL     1      37.511 -17.590  24.364  1.00  0.00     0.165 HD
HETATM   12  C8  UNL     1      37.860 -18.881  25.908  1.00  0.00     0.074 A 
HETATM   13  C9  UNL     1      37.914 -19.959  25.041  1.00  0.00     0.133 A 
HETATM   14  C10 UNL     1      38.131 -21.211  25.551  1.00  0.00     0.101 A 
HETATM   15 CL1  UNL     1      38.203 -22.611  24.471  1.00  0.00    -0.079 Cl
HETATM   16  C11 UNL     1      38.295 -21.405  26.905  1.00  0.00     0.168 A 
HETATM   17  F1  UNL     1      38.490 -22.690  27.338  1.00  0.00    -0.202 F 
HETATM   18  C12 UNL     1      38.247 -20.335  27.799  1.00  0.00     0.100 A 
HETATM   19  C28 UNL     1      38.026 -19.088  27.283  1.00  0.00     0.058 A 
ENDROOT
BRANCH  18  20
HETATM   20  N2  UNL     1      38.485 -20.543  29.149  1.00  0.00    -0.258 N 
ATOM     21  H2  UNL     1      37.682 -20.557  29.779  1.00  0.00     0.181 HD
BRANCH  20  22
HETATM   22  S2  UNL     1      40.090 -20.786  29.850  1.00  0.00     0.363 S 
HETATM   23  O6  UNL     1      41.072 -20.249  28.858  1.00  0.00    -0.175 OA
HETATM   24  O7  UNL     1      40.092 -19.847  31.051  1.00  0.00    -0.175 OA
BRANCH  22  25
HETATM   25  O8  UNL     1      40.194 -22.335  30.194  1.00  0.00    -0.248 OA
BRANCH  25  26
HETATM   26  C13 UNL     1      41.173 -23.202  29.863  1.00  0.00     0.082 C 
HETATM   27  C22 UNL     1      41.474 -23.088  28.370  1.00  0.00     0.039 C 
HETATM   28  C23 UNL     1      41.845 -24.324  27.675  1.00  0.00     0.003 C 
HETATM   29  C24 UNL     1      40.971 -25.516  27.982  1.00  0.00     0.004 C 
HETATM   30  C25 UNL     1      41.127 -25.715  29.497  1.00  0.00    -0.016 C 
HETATM   31  C26 UNL     1      40.357 -26.959  29.905  1.00  0.00     0.010 C 
HETATM   32  C27 UNL     1      40.467 -24.560  30.136  1.00  0.00     0.044 C 
BRANCH  26  33
HETATM   33  C14 UNL     1      42.409 -23.244  30.660  1.00  0.00     0.045 C 
BRANCH  33  34
HETATM   34  C15 UNL     1      43.024 -22.015  31.185  1.00  0.00     0.072 C 
BRANCH  34  35
HETATM   35  C16 UNL     1      44.475 -21.933  30.697  1.00  0.00     0.167 C 
HETATM   36  O9  UNL     1      45.200 -23.051  31.035  1.00  0.00    -0.353 OA
HETATM   37  C20 UNL     1      45.666 -22.846  32.338  1.00  0.00     0.197 C 
HETATM   38  C21 UNL     1      45.552 -21.373  32.575  1.00  0.00     0.197 C 
HETATM   39  O10 UNL     1      45.062 -20.877  31.394  1.00  0.00    -0.353 OA
BRANCH  35  40
HETATM   40  C17 UNL     1      44.601 -21.642  29.241  1.00  0.00     0.040 C 
HETATM   41  C18 UNL     1      45.608 -20.518  29.000  1.00  0.00     0.015 C 
HETATM   42  C19 UNL     1      45.265 -22.884  28.622  1.00  0.00     0.015 C 
ENDBRANCH  35  40
ENDBRANCH  34  35
ENDBRANCH  33  34
ENDBRANCH  26  33
ENDBRANCH  25  26
ENDBRANCH  22  25
ENDBRANCH  20  22
ENDBRANCH  18  20
BRANCH  13  43
HETATM   43  S1  UNL     1      37.710 -19.737  23.317  1.00  0.00     0.141 S 
HETATM   44  O3  UNL     1      38.947 -19.196  22.706  1.00  0.00    -0.591 OA
HETATM   45  O4  UNL     1      37.380 -21.045  22.637  1.00  0.00    -0.591 OA
HETATM   46  O5  UNL     1      36.399 -18.707  23.004  1.00  0.00    -0.591 OA
ENDBRANCH  13  43
TORSDOF 9
ENDMDL
MODEL 4
REMARK VINA RESULT: -8.292608608      3.096      5.901
REMARK  9 active torsions:
REMARK  status: ('A' for Active; 'I' for Inactive)
REMARK    1  A    between atoms: C9_13  and  S1_14 
REMARK    2  A    between atoms: C12_22  and  N2_23 
REMARK    3  A    between atoms: N2_23  and  S2_25 
REMARK    4  A    between atoms: S2_25  and  O8_28 
REMARK    5  A    between atoms: O8_28  and  C13_29 
REMARK    6  A    between atoms: C13_29  and  C14_30 
REMARK    7  A    between atoms: C14_30  and  C15_31 
REMARK    8  A    between atoms: C15_31  and  C16_32 
REMARK    9  A    between atoms: C16_32  and  C17_33 
ROOT
HETATM    1  C1  UNL     1      35.630 -18.898  21.809  1.00  0.00     0.049 C 
HETATM    2  C2  UNL     1      36.000 -19.903  22.832  1.00  0.00    -0.042 A 
HETATM    3  C3  UNL     1      35.839 -21.260  22.673  1.00  0.00     0.090 A 
HETATM    4  C4  UNL     1      36.219 -22.104  23.694  1.00  0.00     0.288 A 
HETATM    5  O1  UNL     1      36.052 -23.334  23.500  1.00  0.00    -0.260 OA
HETATM    6  O2  UNL     1      36.728 -21.670  24.817  1.00  0.00    -0.274 OA
HETATM    7  C5  UNL     1      36.904 -20.389  25.025  1.00  0.00     0.106 A 
HETATM    8  C6  UNL     1      36.547 -19.475  24.047  1.00  0.00     0.020 A 
HETATM    9  C7  UNL     1      36.748 -18.132  24.283  1.00  0.00     0.103 A 
HETATM   10  N1  UNL     1      37.279 -17.732  25.445  1.00  0.00    -0.363 N 
ATOM     11  H1  UNL     1      37.425 -16.737  25.614  1.00  0.00     0.165 HD
HETATM   12  C8  UNL     1      37.620 -18.617  26.388  1.00  0.00     0.074 A 
HETATM   13  C9  UNL     1      38.186 -18.119  27.549  1.00  0.00     0.133 A 
HETATM   14  C10 UNL     1      38.572 -18.995  28.529  1.00  0.00     0.101 A 
HETATM   15 CL1  UNL     1      39.301 -18.391  30.025  1.00  0.00    -0.079 Cl
HETATM   16  C11 UNL     1      38.401 -20.353  28.372  1.00  0.00     0.168 A 
HETATM   17  F1  UNL     1      38.828 -21.163  29.390  1.00  0.00    -0.202 F 
HETATM   18  C12 UNL     1      37.831 -20.879  27.213  1.00  0.00     0.100 A 
HETATM   19  C28 UNL     1      37.452 -20.000  26.237  1.00  0.00     0.058 A 
ENDROOT
BRANCH  18  20
HETATM   20  N2  UNL     1      37.604 -22.243  27.105  1.00  0.00    -0.258 N 
ATOM     21  H2  UNL     1      36.645 -22.577  27.212  1.00  0.00     0.181 HD
BRANCH  20  22
HETATM   22  S2  UNL     1      38.866 -23.441  26.795  1.00  0.00     0.363 S 
HETATM   23  O6  UNL     1      38.180 -24.646  26.234  1.00  0.00    -0.175 OA
HETATM   24  O7  UNL     1      39.677 -22.810  25.668  1.00  0.00    -0.175 OA
BRANCH  22  25
HETATM   25  O8  UNL     1      39.642 -23.633  28.169  1.00  0.00    -0.248 OA
BRANCH  25  26
HETATM   26  C13 UNL     1      40.797 -24.293  28.393  1.00  0.00     0.082 C 
HETATM   27  C22 UNL     1      41.524 -24.516  27.067  1.00  0.00     0.039 C 
HETATM   28  C23 UNL     1      42.279 -25.766  26.930  1.00  0.00     0.003 C 
HETATM   29  C24 UNL     1      41.548 -27.006  27.386  1.00  0.00     0.004 C 
HETATM   30  C25 UNL     1      41.256 -26.746  28.870  1.00  0.00    -0.016 C 
HETATM   31  C26 UNL     1      40.600 -27.981  29.460  1.00  0.00     0.010 C 
HETATM   32  C27 UNL     1      40.260 -25.657  28.912  1.00  0.00     0.044 C 
BRANCH  26  33
HETATM   33  C14 UNL     1      41.717 -23.818  29.438  1.00  0.00     0.045 C 
BRANCH  33  34
HETATM   34  C15 UNL     1      41.769 -22.400  29.825  1.00  0.00     0.072 C 
BRANCH  34  35
HETATM   35  C16 UNL     1      43.202 -21.885  29.646  1.00  0.00     0.167 C 
HETATM   36  O9  UNL     1      44.124 -22.904  29.650  1.00  0.00    -0.353 OA
HETATM   37  C20 UNL     1      44.425 -23.165  30.992  1.00  0.00     0.197 C 
HETATM   38  C21 UNL     1      43.972 -21.953  31.744  1.00  0.00     0.197 C 
HETATM   39  O10 UNL     1      43.484 -21.115  30.775  1.00  0.00    -0.353 OA
BRANCH  35  40
HETATM   40  C17 UNL     1      43.380 -21.016  28.448  1.00  0.00     0.040 C 
HETATM   41  C18 UNL     1      43.999 -21.805  27.295  1.00  0.00     0.015 C 
HETATM   42  C19 UNL     1      41.960 -20.681  27.960  1.00  0.00     0.015 C 
ENDBRANCH  35  40
ENDBRANCH  34  35
ENDBRANCH  33  34
ENDBRANCH  26  33
ENDBRANCH  25  26
ENDBRANCH  22  25
ENDBRANCH  20  22
ENDBRANCH  18  20
BRANCH  13  43
HETATM   43  S1  UNL     1      38.412 -16.398  27.772  1.00  0.00     0.141 S 
HETATM   44  O3  UNL     1      39.837 -16.027  27.603  1.00  0.00    -0.591 OA
HETATM   45  O4  UNL     1      37.597 -15.610  26.773  1.00  0.00    -0.591 OA
HETATM   46  O5  UNL     1      37.858 -15.922  29.303  1.00  0.00    -0.591 OA
ENDBRANCH  13  43
TORSDOF 9
ENDMDL
MODEL 5
REMARK VINA RESULT: -8.290088856      1.659      2.040
REMARK  9 active torsions:
REMARK  status: ('A' for Active; 'I' for Inactive)
REMARK    1  A    between atoms: C9_13  and  S1_14 
REMARK    2  A    between atoms: C12_22  and  N2_23 
REMARK    3  A    between atoms: N2_23  and  S2_25 
REMARK    4  A    between atoms: S2_25  and  O8_28 
REMARK    5  A    between atoms: O8_28  and  C13_29 
REMARK    6  A    between atoms: C13_29  and  C14_30 
REMARK    7  A    between atoms: C14_30  and  C15_31 
REMARK    8  A    between atoms: C15_31  and  C16_32 
REMARK    9  A    between atoms: C16_32  and  C17_33 
ROOT
HETATM    1  C1  UNL     1      36.563 -14.021  28.129  1.00  0.00     0.049 C 
HETATM    2  C2  UNL     1      37.331 -15.240  28.473  1.00  0.00    -0.042 A 
HETATM    3  C3  UNL     1      37.359 -15.806  29.727  1.00  0.00     0.090 A 
HETATM    4  C4  UNL     1      38.110 -16.943  29.932  1.00  0.00     0.288 A 
HETATM    5  O1  UNL     1      38.103 -17.421  31.093  1.00  0.00    -0.260 OA
HETATM    6  O2  UNL     1      38.805 -17.512  28.982  1.00  0.00    -0.274 OA
HETATM    7  C5  UNL     1      38.817 -17.017  27.769  1.00  0.00     0.106 A 
HETATM    8  C6  UNL     1      38.086 -15.876  27.481  1.00  0.00     0.020 A 
HETATM    9  C7  UNL     1      38.107 -15.377  26.197  1.00  0.00     0.103 A 
HETATM   10  N1  UNL     1      38.826 -15.996  25.253  1.00  0.00    -0.363 N 
ATOM     11  H1  UNL     1      38.837 -15.622  24.303  1.00  0.00     0.165 HD
HETATM   12  C8  UNL     1      39.531 -17.097  25.534  1.00  0.00     0.074 A 
HETATM   13  C9  UNL     1      40.226 -17.688  24.492  1.00  0.00     0.133 A 
HETATM   14  C10 UNL     1      40.941 -18.831  24.735  1.00  0.00     0.101 A 
HETATM   15 CL1  UNL     1      41.838 -19.613  23.425  1.00  0.00    -0.079 Cl
HETATM   16  C11 UNL     1      40.975 -19.390  25.993  1.00  0.00     0.168 A 
HETATM   17  F1  UNL     1      41.699 -20.542  26.150  1.00  0.00    -0.202 F 
HETATM   18  C12 UNL     1      40.286 -18.813  27.059  1.00  0.00     0.100 A 
HETATM   19  C28 UNL     1      39.571 -17.674  26.810  1.00  0.00     0.058 A 
ENDROOT
BRANCH  18  20
HETATM   20  N2  UNL     1      40.392 -19.353  28.333  1.00  0.00    -0.258 N 
ATOM     21  H2  UNL     1      40.864 -18.799  29.048  1.00  0.00     0.181 HD
BRANCH  20  22
HETATM   22  S2  UNL     1      39.763 -20.939  28.796  1.00  0.00     0.363 S 
HETATM   23  O6  UNL     1      39.984 -21.068  30.270  1.00  0.00    -0.175 OA
HETATM   24  O7  UNL     1      38.262 -20.799  28.569  1.00  0.00    -0.175 OA
BRANCH  22  25
HETATM   25  O8  UNL     1      40.499 -21.997  27.866  1.00  0.00    -0.248 OA
BRANCH  25  26
HETATM   26  C13 UNL     1      40.069 -23.217  27.482  1.00  0.00     0.082 C 
HETATM   27  C22 UNL     1      39.549 -23.981  28.698  1.00  0.00     0.039 C 
HETATM   28  C23 UNL     1      39.772 -25.430  28.712  1.00  0.00     0.003 C 
HETATM   29  C24 UNL     1      41.167 -25.865  28.329  1.00  0.00     0.004 C 
HETATM   30  C25 UNL     1      41.346 -25.334  26.900  1.00  0.00    -0.016 C 
HETATM   31  C26 UNL     1      42.693 -25.798  26.374  1.00  0.00     0.010 C 
HETATM   32  C27 UNL     1      41.401 -23.862  27.008  1.00  0.00     0.044 C 
BRANCH  26  33
HETATM   33  C14 UNL     1      39.153 -23.339  26.337  1.00  0.00     0.045 C 
BRANCH  33  34
HETATM   34  C15 UNL     1      37.727 -23.646  26.526  1.00  0.00     0.072 C 
BRANCH  34  35
HETATM   35  C16 UNL     1      37.300 -24.696  25.493  1.00  0.00     0.167 C 
HETATM   36  O9  UNL     1      37.772 -24.406  24.235  1.00  0.00    -0.353 OA
HETATM   37  C20 UNL     1      36.855 -23.521  23.658  1.00  0.00     0.197 C 
HETATM   38  C21 UNL     1      35.605 -23.658  24.469  1.00  0.00     0.197 C 
HETATM   39  O10 UNL     1      35.910 -24.612  25.404  1.00  0.00    -0.353 OA
BRANCH  35  40
HETATM   40  C17 UNL     1      37.648 -26.092  25.880  1.00  0.00     0.040 C 
HETATM   41  C18 UNL     1      36.421 -27.000  25.786  1.00  0.00     0.015 C 
HETATM   42  C19 UNL     1      38.587 -26.610  24.777  1.00  0.00     0.015 C 
ENDBRANCH  35  40
ENDBRANCH  34  35
ENDBRANCH  33  34
ENDBRANCH  26  33
ENDBRANCH  25  26
ENDBRANCH  22  25
ENDBRANCH  20  22
ENDBRANCH  18  20
BRANCH  13  43
HETATM   43  S1  UNL     1      40.198 -16.994  22.886  1.00  0.00     0.141 S 
HETATM   44  O3  UNL     1      39.561 -17.923  21.923  1.00  0.00    -0.591 OA
HETATM   45  O4  UNL     1      39.427 -15.695  22.869  1.00  0.00    -0.591 OA
HETATM   46  O5  UNL     1      41.771 -16.608  22.381  1.00  0.00    -0.591 OA
ENDBRANCH  13  43
TORSDOF 9
ENDMDL
