MODEL 1
REMARK VINA RESULT: -8.829616093      0.000      0.000
REMARK  5 active torsions:
REMARK  status: ('A' for Active; 'I' for Inactive)
REMARK    1  A    between atoms: C2_2  and  O2_4 
REMARK    2  A    between atoms: O2_4  and  C3_5 
REMARK    3  A    between atoms: C10_12  and  O3_13 
REMARK    4  A    between atoms: C17_23  and  C18_24 
REMARK    5  A    between atoms: C18_24  and  C19_25 
ROOT
HETATM    1  C3  UNL     1      39.344 -28.514   1.567  1.00  0.00     0.144 C 
HETATM    2  C4  UNL     1      40.850 -28.187   1.400  1.00  0.00     0.061 C 
HETATM    3  C5  UNL     1      41.150 -27.840  -0.013  1.00  0.00    -0.018 C 
HETATM    4  C6  UNL     1      40.356 -28.046  -1.055  1.00  0.00    -0.069 C 
HETATM    5  C7  UNL     1      40.981 -27.567  -2.359  1.00  0.00     0.047 C 
HETATM    6  C8  UNL     1      39.035 -28.627  -1.110  1.00  0.00    -0.012 C 
HETATM    7  C9  UNL     1      38.633 -29.776  -0.325  1.00  0.00     0.048 C 
HETATM    8  C10 UNL     1      37.091 -29.635  -0.264  1.00  0.00     0.129 C 
HETATM    9  C11 UNL     1      36.632 -31.039  -0.166  1.00  0.00     0.073 C 
HETATM   10  C12 UNL     1      37.138 -31.605   1.122  1.00  0.00     0.099 C 
HETATM   11  C13 UNL     1      37.735 -32.982   0.763  1.00  0.00     0.050 C 
HETATM   12  O4  UNL     1      35.988 -31.967   1.822  1.00  0.00    -0.229 OA
HETATM   13  O5  UNL     1      35.216 -30.956   2.156  1.00  0.00    -0.229 OA
HETATM   14  C14 UNL     1      35.167 -31.090   3.573  1.00  0.00     0.096 C 
HETATM   15  C15 UNL     1      34.568 -29.923   4.241  1.00  0.00     0.042 C 
HETATM   16  C16 UNL     1      33.186 -30.093   4.756  1.00  0.00     0.007 C 
HETATM   17  C17 UNL     1      32.887 -31.424   5.350  1.00  0.00    -0.013 C 
HETATM   18  C20 UNL     1      34.048 -32.391   5.306  1.00  0.00     0.007 C 
HETATM   19  C21 UNL     1      34.522 -32.406   3.851  1.00  0.00     0.042 C 
HETATM   20  C22 UNL     1      36.665 -31.257   3.907  1.00  0.00     0.042 C 
HETATM   21  C23 UNL     1      37.440 -30.155   3.160  1.00  0.00     0.011 C 
HETATM   22  C24 UNL     1      38.093 -30.754   1.909  1.00  0.00     0.034 C 
HETATM   23  C25 UNL     1      39.013 -29.871   1.159  1.00  0.00    -0.001 C 
HETATM   24  C26 UNL     1      40.347 -30.659   1.125  1.00  0.00     0.019 C 
ENDROOT
BRANCH  17  25
HETATM   25  C18 UNL     1      32.283 -31.347   6.740  1.00  0.00     0.019 C 
BRANCH  25  26
HETATM   26  C19 UNL     1      33.122 -32.163   7.727  1.00  0.00     0.115 C 
HETATM   27 CL1  UNL     1      34.330 -31.124   8.504  1.00  0.00    -0.130 Cl
ENDBRANCH  25  26
ENDBRANCH  17  25
BRANCH   8  28
HETATM   28  O3  UNL     1      36.635 -29.119  -1.486  1.00  0.00    -0.395 OA
ATOM     29  H3  UNL     1      35.690 -29.214  -1.526  1.00  0.00     0.210 HD
ENDBRANCH   8  28
BRANCH   1  30
HETATM   30  O2  UNL     1      39.067 -28.008   2.815  1.00  0.00    -0.315 OA
BRANCH  30  31
HETATM   31  C2  UNL     1      38.906 -26.687   3.137  1.00  0.00     0.255 C 
HETATM   32  C1  UNL     1      38.449 -25.652   2.207  1.00  0.00     0.126 C 
HETATM   33  O1  UNL     1      39.172 -26.340   4.329  1.00  0.00    -0.266 OA
ENDBRANCH  30  31
ENDBRANCH   1  30
TORSDOF 5
ENDMDL
MODEL 2
REMARK VINA RESULT: -8.554392548      0.992      1.073
REMARK  5 active torsions:
REMARK  status: ('A' for Active; 'I' for Inactive)
REMARK    1  A    between atoms: C2_2  and  O2_4 
REMARK    2  A    between atoms: O2_4  and  C3_5 
REMARK    3  A    between atoms: C10_12  and  O3_13 
REMARK    4  A    between atoms: C17_23  and  C18_24 
REMARK    5  A    between atoms: C18_24  and  C19_25 
ROOT
HETATM    1  C3  UNL     1      38.854 -28.256   0.877  1.00  0.00     0.144 C 
HETATM    2  C4  UNL     1      40.273 -27.757   0.502  1.00  0.00     0.061 C 
HETATM    3  C5  UNL     1      40.361 -27.501  -0.959  1.00  0.00    -0.018 C 
HETATM    4  C6  UNL     1      39.490 -27.896  -1.877  1.00  0.00    -0.069 C 
HETATM    5  C7  UNL     1      39.892 -27.460  -3.279  1.00  0.00     0.047 C 
HETATM    6  C8  UNL     1      38.262 -28.642  -1.725  1.00  0.00    -0.012 C 
HETATM    7  C9  UNL     1      38.112 -29.759  -0.815  1.00  0.00     0.048 C 
HETATM    8  C10 UNL     1      36.581 -29.809  -0.575  1.00  0.00     0.129 C 
HETATM    9  C11 UNL     1      36.332 -31.245  -0.318  1.00  0.00     0.073 C 
HETATM   10  C12 UNL     1      37.052 -31.626   0.934  1.00  0.00     0.099 C 
HETATM   11  C13 UNL     1      37.787 -32.943   0.606  1.00  0.00     0.050 C 
HETATM   12  O4  UNL     1      36.049 -32.068   1.796  1.00  0.00    -0.229 OA
HETATM   13  O5  UNL     1      35.190 -31.137   2.149  1.00  0.00    -0.229 OA
HETATM   14  C14 UNL     1      35.320 -31.150   3.567  1.00  0.00     0.096 C 
HETATM   15  C15 UNL     1      34.648 -30.014   4.218  1.00  0.00     0.042 C 
HETATM   16  C16 UNL     1      33.369 -30.310   4.911  1.00  0.00     0.007 C 
HETATM   17  C17 UNL     1      33.322 -31.612   5.632  1.00  0.00    -0.013 C 
HETATM   18  C20 UNL     1      34.591 -32.424   5.515  1.00  0.00     0.007 C 
HETATM   19  C21 UNL     1      34.895 -32.508   4.017  1.00  0.00     0.042 C 
HETATM   20  C22 UNL     1      36.854 -31.097   3.724  1.00  0.00     0.042 C 
HETATM   21  C23 UNL     1      37.383 -29.976   2.809  1.00  0.00     0.011 C 
HETATM   22  C24 UNL     1      37.966 -30.596   1.534  1.00  0.00     0.034 C 
HETATM   23  C25 UNL     1      38.666 -29.674   0.614  1.00  0.00    -0.001 C 
HETATM   24  C26 UNL     1      40.083 -30.287   0.472  1.00  0.00     0.019 C 
ENDROOT
BRANCH  17  25
HETATM   25  C18 UNL     1      32.874 -31.488   7.077  1.00  0.00     0.019 C 
BRANCH  25  26
HETATM   26  C19 UNL     1      31.460 -30.906   7.144  1.00  0.00     0.115 C 
HETATM   27 CL1  UNL     1      30.409 -31.964   8.102  1.00  0.00    -0.130 Cl
ENDBRANCH  25  26
ENDBRANCH  17  25
BRANCH   8  28
HETATM   28  O3  UNL     1      35.924 -29.464  -1.764  1.00  0.00    -0.395 OA
ATOM     29  H3  UNL     1      35.807 -28.522  -1.789  1.00  0.00     0.210 HD
ENDBRANCH   8  28
BRANCH   1  30
HETATM   30  O2  UNL     1      38.654 -27.680   2.110  1.00  0.00    -0.315 OA
BRANCH  30  31
HETATM   31  C2  UNL     1      38.795 -26.353   2.419  1.00  0.00     0.255 C 
HETATM   32  C1  UNL     1      38.223 -25.252   1.643  1.00  0.00     0.126 C 
HETATM   33  O1  UNL     1      39.473 -26.064   3.454  1.00  0.00    -0.266 OA
ENDBRANCH  30  31
ENDBRANCH   1  30
TORSDOF 5
ENDMDL
MODEL 3
REMARK VINA RESULT: -8.404373054      0.995      1.082
REMARK  5 active torsions:
REMARK  status: ('A' for Active; 'I' for Inactive)
REMARK    1  A    between atoms: C2_2  and  O2_4 
REMARK    2  A    between atoms: O2_4  and  C3_5 
REMARK    3  A    between atoms: C10_12  and  O3_13 
REMARK    4  A    between atoms: C17_23  and  C18_24 
REMARK    5  A    between atoms: C18_24  and  C19_25 
ROOT
HETATM    1  C3  UNL     1      38.952 -27.894   0.531  1.00  0.00     0.144 C 
HETATM    2  C4  UNL     1      40.329 -27.300   0.137  1.00  0.00     0.061 C 
HETATM    3  C5  UNL     1      40.392 -27.072  -1.330  1.00  0.00    -0.018 C 
HETATM    4  C6  UNL     1      39.550 -27.553  -2.234  1.00  0.00    -0.069 C 
HETATM    5  C7  UNL     1      39.914 -27.121  -3.648  1.00  0.00     0.047 C 
HETATM    6  C8  UNL     1      38.382 -28.385  -2.059  1.00  0.00    -0.012 C 
HETATM    7  C9  UNL     1      38.319 -29.488  -1.122  1.00  0.00     0.048 C 
HETATM    8  C10 UNL     1      36.797 -29.646  -0.873  1.00  0.00     0.129 C 
HETATM    9  C11 UNL     1      36.656 -31.091  -0.582  1.00  0.00     0.073 C 
HETATM   10  C12 UNL     1      37.407 -31.388   0.675  1.00  0.00     0.099 C 
HETATM   11  C13 UNL     1      38.237 -32.653   0.373  1.00  0.00     0.050 C 
HETATM   12  O4  UNL     1      36.443 -31.882   1.552  1.00  0.00    -0.229 OA
HETATM   13  O5  UNL     1      35.518 -31.010   1.888  1.00  0.00    -0.229 OA
HETATM   14  C14 UNL     1      35.653 -30.980   3.305  1.00  0.00     0.096 C 
HETATM   15  C15 UNL     1      34.901 -29.883   3.933  1.00  0.00     0.042 C 
HETATM   16  C16 UNL     1      33.650 -30.257   4.639  1.00  0.00     0.007 C 
HETATM   17  C17 UNL     1      33.703 -31.541   5.390  1.00  0.00    -0.013 C 
HETATM   18  C20 UNL     1      35.028 -32.259   5.286  1.00  0.00     0.007 C 
HETATM   19  C21 UNL     1      35.333 -32.355   3.789  1.00  0.00     0.042 C 
HETATM   20  C22 UNL     1      37.180 -30.809   3.453  1.00  0.00     0.042 C 
HETATM   21  C23 UNL     1      37.620 -29.674   2.509  1.00  0.00     0.011 C 
HETATM   22  C24 UNL     1      38.244 -30.279   1.246  1.00  0.00     0.034 C 
HETATM   23  C25 UNL     1      38.870 -29.328   0.301  1.00  0.00    -0.001 C 
HETATM   24  C26 UNL     1      40.328 -29.837   0.166  1.00  0.00     0.019 C 
ENDROOT
BRANCH  17  25
HETATM   25  C18 UNL     1      33.252 -31.418   6.835  1.00  0.00     0.019 C 
BRANCH  25  26
HETATM   26  C19 UNL     1      34.436 -31.037   7.727  1.00  0.00     0.115 C 
HETATM   27 CL1  UNL     1      34.083 -31.444   9.415  1.00  0.00    -0.130 Cl
ENDBRANCH  25  26
ENDBRANCH  17  25
BRANCH   8  28
HETATM   28  O3  UNL     1      36.112 -29.380  -2.067  1.00  0.00    -0.395 OA
ATOM     29  H3  UNL     1      35.623 -28.571  -1.967  1.00  0.00     0.210 HD
ENDBRANCH   8  28
BRANCH   1  30
HETATM   30  O2  UNL     1      38.714 -27.306   1.751  1.00  0.00    -0.315 OA
BRANCH  30  31
HETATM   31  C2  UNL     1      38.766 -25.966   2.030  1.00  0.00     0.255 C 
HETATM   32  C1  UNL     1      38.036 -24.933   1.295  1.00  0.00     0.126 C 
HETATM   33  O1  UNL     1      39.503 -25.601   2.998  1.00  0.00    -0.266 OA
ENDBRANCH  30  31
ENDBRANCH   1  30
TORSDOF 5
ENDMDL
MODEL 4
REMARK VINA RESULT: -8.192478020      1.158      1.315
REMARK  5 active torsions:
REMARK  status: ('A' for Active; 'I' for Inactive)
REMARK    1  A    between atoms: C2_2  and  O2_4 
REMARK    2  A    between atoms: O2_4  and  C3_5 
REMARK    3  A    between atoms: C10_12  and  O3_13 
REMARK    4  A    between atoms: C17_23  and  C18_24 
REMARK    5  A    between atoms: C18_24  and  C19_25 
ROOT
HETATM    1  C3  UNL     1      38.686 -28.271   0.106  1.00  0.00     0.144 C 
HETATM    2  C4  UNL     1      39.996 -27.526  -0.257  1.00  0.00     0.061 C 
HETATM    3  C5  UNL     1      40.269 -27.641  -1.713  1.00  0.00    -0.018 C 
HETATM    4  C6  UNL     1      39.681 -28.478  -2.557  1.00  0.00    -0.069 C 
HETATM    5  C7  UNL     1      40.204 -28.327  -3.978  1.00  0.00     0.047 C 
HETATM    6  C8  UNL     1      38.648 -29.459  -2.315  1.00  0.00    -0.012 C 
HETATM    7  C9  UNL     1      38.606 -30.301  -1.137  1.00  0.00     0.048 C 
HETATM    8  C10 UNL     1      37.109 -30.695  -1.045  1.00  0.00     0.129 C 
HETATM    9  C11 UNL     1      37.155 -32.029  -0.405  1.00  0.00     0.073 C 
HETATM   10  C12 UNL     1      37.720 -31.868   0.968  1.00  0.00     0.099 C 
HETATM   11  C13 UNL     1      38.781 -32.979   1.113  1.00  0.00     0.050 C 
HETATM   12  O4  UNL     1      36.713 -32.324   1.818  1.00  0.00    -0.229 OA
HETATM   13  O5  UNL     1      35.616 -31.598   1.797  1.00  0.00    -0.229 OA
HETATM   14  C14 UNL     1      35.504 -31.210   3.162  1.00  0.00     0.096 C 
HETATM   15  C15 UNL     1      34.489 -30.167   3.383  1.00  0.00     0.042 C 
HETATM   16  C16 UNL     1      33.213 -30.605   4.003  1.00  0.00     0.007 C 
HETATM   17  C17 UNL     1      33.344 -31.640   5.064  1.00  0.00    -0.013 C 
HETATM   18  C20 UNL     1      34.766 -32.085   5.316  1.00  0.00     0.007 C 
HETATM   19  C21 UNL     1      35.331 -32.468   3.946  1.00  0.00     0.042 C 
HETATM   20  C22 UNL     1      36.936 -30.710   3.448  1.00  0.00     0.042 C 
HETATM   21  C23 UNL     1      37.341 -29.764   2.301  1.00  0.00     0.011 C 
HETATM   22  C24 UNL     1      38.258 -30.513   1.327  1.00  0.00     0.034 C 
HETATM   23  C25 UNL     1      38.875 -29.706   0.251  1.00  0.00    -0.001 C 
HETATM   24  C26 UNL     1      40.397 -29.934   0.435  1.00  0.00     0.019 C 
ENDROOT
BRANCH  17  25
HETATM   25  C18 UNL     1      32.641 -31.272   6.359  1.00  0.00     0.019 C 
BRANCH  25  26
HETATM   26  C19 UNL     1      33.154 -32.149   7.505  1.00  0.00     0.115 C 
HETATM   27 CL1  UNL     1      34.088 -31.170   8.650  1.00  0.00    -0.130 Cl
ENDBRANCH  25  26
ENDBRANCH  17  25
BRANCH   8  28
HETATM   28  O3  UNL     1      36.602 -30.858  -2.342  1.00  0.00    -0.395 OA
ATOM     29  H3  UNL     1      35.790 -31.348  -2.295  1.00  0.00     0.210 HD
ENDBRANCH   8  28
BRANCH   1  30
HETATM   30  O2  UNL     1      38.153 -27.472   1.091  1.00  0.00    -0.315 OA
BRANCH  30  31
HETATM   31  C2  UNL     1      38.850 -26.638   1.923  1.00  0.00     0.255 C 
HETATM   32  C1  UNL     1      39.770 -27.083   2.970  1.00  0.00     0.126 C 
HETATM   33  O1  UNL     1      38.683 -25.388   1.769  1.00  0.00    -0.266 OA
ENDBRANCH  30  31
ENDBRANCH   1  30
TORSDOF 5
ENDMDL
MODEL 5
REMARK VINA RESULT: -8.186945194      3.343      8.101
REMARK  5 active torsions:
REMARK  status: ('A' for Active; 'I' for Inactive)
REMARK    1  A    between atoms: C2_2  and  O2_4 
REMARK    2  A    between atoms: O2_4  and  C3_5 
REMARK    3  A    between atoms: C10_12  and  O3_13 
REMARK    4  A    between atoms: C17_23  and  C18_24 
REMARK    5  A    between atoms: C18_24  and  C19_25 
ROOT
HETATM    1  C3  UNL     1      35.553 -30.745   2.309  1.00  0.00     0.144 C 
HETATM    2  C4  UNL     1      34.649 -31.822   2.962  1.00  0.00     0.061 C 
HETATM    3  C5  UNL     1      34.527 -31.577   4.422  1.00  0.00    -0.018 C 
HETATM    4  C6  UNL     1      35.282 -30.761   5.146  1.00  0.00    -0.069 C 
HETATM    5  C7  UNL     1      34.879 -30.754   6.614  1.00  0.00     0.047 C 
HETATM    6  C8  UNL     1      36.376 -29.911   4.738  1.00  0.00    -0.012 C 
HETATM    7  C9  UNL     1      37.381 -30.308   3.773  1.00  0.00     0.048 C 
HETATM    8  C10 UNL     1      37.916 -28.950   3.249  1.00  0.00     0.129 C 
HETATM    9  C11 UNL     1      39.319 -29.261   2.895  1.00  0.00     0.073 C 
HETATM   10  C12 UNL     1      39.309 -30.261   1.785  1.00  0.00     0.099 C 
HETATM   11  C13 UNL     1      40.330 -31.344   2.193  1.00  0.00     0.050 C 
HETATM   12  O4  UNL     1      39.971 -29.627   0.735  1.00  0.00    -0.229 OA
HETATM   13  O5  UNL     1      39.351 -28.568   0.263  1.00  0.00    -0.229 OA
HETATM   14  C14 UNL     1      39.177 -28.922  -1.104  1.00  0.00     0.096 C 
HETATM   15  C15 UNL     1      38.272 -28.013  -1.825  1.00  0.00     0.042 C 
HETATM   16  C16 UNL     1      38.908 -27.047  -2.756  1.00  0.00     0.007 C 
HETATM   17  C17 UNL     1      40.070 -27.572  -3.523  1.00  0.00    -0.013 C 
HETATM   18  C20 UNL     1      40.417 -29.008  -3.202  1.00  0.00     0.007 C 
HETATM   19  C21 UNL     1      40.546 -29.075  -1.679  1.00  0.00     0.042 C 
HETATM   20  C22 UNL     1      38.598 -30.347  -0.970  1.00  0.00     0.042 C 
HETATM   21  C23 UNL     1      37.463 -30.297   0.071  1.00  0.00     0.011 C 
HETATM   22  C24 UNL     1      37.977 -30.844   1.407  1.00  0.00     0.034 C 
HETATM   23  C25 UNL     1      36.972 -31.022   2.478  1.00  0.00    -0.001 C 
HETATM   24  C26 UNL     1      37.086 -32.520   2.858  1.00  0.00     0.019 C 
ENDROOT
BRANCH  17  25
HETATM   25  C18 UNL     1      39.958 -27.350  -5.020  1.00  0.00     0.019 C 
BRANCH  25  26
HETATM   26  C19 UNL     1      41.187 -26.597  -5.535  1.00  0.00     0.115 C 
HETATM   27 CL1  UNL     1      42.059 -25.855  -4.181  1.00  0.00    -0.130 Cl
ENDBRANCH  25  26
ENDBRANCH  17  25
BRANCH   8  28
HETATM   28  O3  UNL     1      37.933 -28.031   4.307  1.00  0.00    -0.395 OA
ATOM     29  H3  UNL     1      38.133 -27.169   3.962  1.00  0.00     0.210 HD
ENDBRANCH   8  28
BRANCH   1  30
HETATM   30  O2  UNL     1      34.957 -30.560   1.084  1.00  0.00    -0.315 OA
BRANCH  30  31
HETATM   31  C2  UNL     1      33.631 -30.745   0.791  1.00  0.00     0.255 C 
HETATM   32  C1  UNL     1      32.537 -29.943   1.340  1.00  0.00     0.126 C 
HETATM   33  O1  UNL     1      33.337 -31.679  -0.017  1.00  0.00    -0.266 OA
ENDBRANCH  30  31
ENDBRANCH   1  30
TORSDOF 5
ENDMDL
