MODEL 1
REMARK VINA RESULT: -9.854168088      0.000      0.000
REMARK  6 active torsions:
REMARK  status: ('A' for Active; 'I' for Inactive)
REMARK    1  A    between atoms: C4_4  and  C5_5 
REMARK    2  A    between atoms: C5_5  and  O2_7 
REMARK    3  A    between atoms: O2_7  and  C6_8 
REMARK    4  A    between atoms: C6_8  and  C7_10 
REMARK    5  A    between atoms: C10_13  and  O4_14 
REMARK    6  A    between atoms: C20_26  and  C21_27 
ROOT
HETATM    1  C7  UNL     1      35.245 -32.115   1.771  1.00  0.00     0.091 C 
HETATM    2  C8  UNL     1      33.975 -31.488   1.286  1.00  0.00     0.017 C 
HETATM    3  C9  UNL     1      34.114 -30.515   0.188  1.00  0.00     0.033 C 
HETATM    4  C10 UNL     1      35.228 -30.643  -0.766  1.00  0.00     0.126 C 
HETATM    5  C11 UNL     1      36.282 -31.618  -0.412  1.00  0.00    -0.013 C 
HETATM    6  C12 UNL     1      35.743 -33.006  -0.777  1.00  0.00     0.018 C 
HETATM    7  C13 UNL     1      37.607 -31.463  -1.046  1.00  0.00     0.012 C 
HETATM    8  C14 UNL     1      37.732 -30.597  -2.236  1.00  0.00     0.002 C 
HETATM    9  C15 UNL     1      39.171 -30.105  -2.328  1.00  0.00     0.016 C 
HETATM   10  C16 UNL     1      39.340 -28.736  -1.678  1.00  0.00     0.014 C 
HETATM   11  C17 UNL     1      38.165 -27.841  -1.905  1.00  0.00     0.023 C 
HETATM   12  C18 UNL     1      40.518 -28.087  -2.427  1.00  0.00     0.023 C 
HETATM   13  C19 UNL     1      39.765 -28.839  -0.277  1.00  0.00     0.144 C 
HETATM   14  O5  UNL     1      40.782 -29.481  -0.044  1.00  0.00    -0.296 OA
HETATM   15  C20 UNL     1      39.083 -28.237   0.898  1.00  0.00     0.098 C 
HETATM   16  C22 UNL     1      39.054 -29.183   2.049  1.00  0.00    -0.075 C 
HETATM   17  C23 UNL     1      40.250 -29.181   2.969  1.00  0.00     0.044 C 
HETATM   18  C24 UNL     1      38.064 -30.019   2.317  1.00  0.00    -0.023 C 
HETATM   19  C25 UNL     1      36.817 -30.151   1.513  1.00  0.00     0.033 C 
HETATM   20  C26 UNL     1      36.476 -31.542   1.112  1.00  0.00     0.013 C 
ENDROOT
BRANCH   1  21
HETATM   21  C6  UNL     1      35.317 -32.149   3.246  1.00  0.00     0.271 C 
HETATM   22  O3  UNL     1      36.374 -32.582   3.771  1.00  0.00    -0.264 OA
BRANCH  21  23
HETATM   23  O2  UNL     1      34.301 -31.738   4.085  1.00  0.00    -0.241 OA
BRANCH  23  24
HETATM   24  C5  UNL     1      34.378 -30.552   4.831  1.00  0.00     0.290 C 
HETATM   25  O1  UNL     1      34.060 -29.508   4.215  1.00  0.00    -0.260 OA
BRANCH  24  26
HETATM   26  C4  UNL     1      34.806 -30.574   6.232  1.00  0.00     0.084 C 
HETATM   27  C2  UNL     1      35.927 -30.100   6.674  1.00  0.00    -0.082 C 
HETATM   28  C1  UNL     1      36.896 -29.476   5.747  1.00  0.00     0.043 C 
HETATM   29  C3  UNL     1      36.236 -30.189   8.131  1.00  0.00     0.043 C 
ENDBRANCH  24  26
ENDBRANCH  23  24
ENDBRANCH  21  23
ENDBRANCH   1  21
BRANCH   4  30
HETATM   30  O4  UNL     1      34.752 -30.950  -2.071  1.00  0.00    -0.395 OA
ATOM     31  H4  UNL     1      35.351 -30.632  -2.737  1.00  0.00     0.210 HD
ENDBRANCH   4  30
BRANCH  15  32
HETATM   32  C21 UNL     1      39.912 -27.010   1.309  1.00  0.00     0.131 C 
HETATM   33 CL1  UNL     1      38.929 -25.555   1.063  1.00  0.00    -0.129 Cl
ENDBRANCH  15  32
TORSDOF 6
ENDMDL
MODEL 2
REMARK VINA RESULT: -9.294294210      1.675      2.544
REMARK  6 active torsions:
REMARK  status: ('A' for Active; 'I' for Inactive)
REMARK    1  A    between atoms: C4_4  and  C5_5 
REMARK    2  A    between atoms: C5_5  and  O2_7 
REMARK    3  A    between atoms: O2_7  and  C6_8 
REMARK    4  A    between atoms: C6_8  and  C7_10 
REMARK    5  A    between atoms: C10_13  and  O4_14 
REMARK    6  A    between atoms: C20_26  and  C21_27 
ROOT
HETATM    1  C7  UNL     1      33.479 -31.351   3.073  1.00  0.00     0.091 C 
HETATM    2  C8  UNL     1      32.375 -30.559   2.444  1.00  0.00     0.017 C 
HETATM    3  C9  UNL     1      32.567 -30.194   1.030  1.00  0.00     0.033 C 
HETATM    4  C10 UNL     1      33.382 -31.054   0.157  1.00  0.00     0.126 C 
HETATM    5  C11 UNL     1      34.158 -32.119   0.829  1.00  0.00    -0.013 C 
HETATM    6  C12 UNL     1      33.179 -33.261   1.125  1.00  0.00     0.018 C 
HETATM    7  C13 UNL     1      35.316 -32.687   0.111  1.00  0.00     0.012 C 
HETATM    8  C14 UNL     1      35.447 -32.443  -1.340  1.00  0.00     0.002 C 
HETATM    9  C15 UNL     1      36.918 -32.556  -1.720  1.00  0.00     0.016 C 
HETATM   10  C16 UNL     1      37.602 -31.193  -1.729  1.00  0.00     0.014 C 
HETATM   11  C17 UNL     1      36.715 -30.106  -2.246  1.00  0.00     0.023 C 
HETATM   12  C18 UNL     1      38.742 -31.331  -2.753  1.00  0.00     0.023 C 
HETATM   13  C19 UNL     1      38.250 -30.892  -0.447  1.00  0.00     0.144 C 
HETATM   14  O5  UNL     1      39.063 -31.705  -0.024  1.00  0.00    -0.296 OA
HETATM   15  C20 UNL     1      38.020 -29.691   0.397  1.00  0.00     0.098 C 
HETATM   16  C22 UNL     1      37.948 -30.051   1.841  1.00  0.00    -0.075 C 
HETATM   17  C23 UNL     1      39.253 -30.111   2.598  1.00  0.00     0.044 C 
HETATM   18  C24 UNL     1      36.834 -30.321   2.500  1.00  0.00    -0.023 C 
HETATM   19  C25 UNL     1      35.467 -30.311   1.906  1.00  0.00     0.033 C 
HETATM   20  C26 UNL     1      34.666 -31.537   2.159  1.00  0.00     0.013 C 
ENDROOT
BRANCH   1  21
HETATM   21  C6  UNL     1      33.832 -30.840   4.414  1.00  0.00     0.271 C 
HETATM   22  O3  UNL     1      33.986 -29.600   4.547  1.00  0.00    -0.264 OA
BRANCH  21  23
HETATM   23  O2  UNL     1      34.004 -31.636   5.529  1.00  0.00    -0.241 OA
BRANCH  23  24
HETATM   24  C5  UNL     1      33.066 -31.677   6.572  1.00  0.00     0.290 C 
HETATM   25  O1  UNL     1      31.866 -31.719   6.214  1.00  0.00    -0.260 OA
BRANCH  24  26
HETATM   26  C4  UNL     1      33.500 -31.671   7.971  1.00  0.00     0.084 C 
HETATM   27  C2  UNL     1      34.584 -31.114   8.410  1.00  0.00    -0.082 C 
HETATM   28  C1  UNL     1      35.498 -30.415   7.482  1.00  0.00     0.043 C 
HETATM   29  C3  UNL     1      34.904 -31.185   9.866  1.00  0.00     0.043 C 
ENDBRANCH  24  26
ENDBRANCH  23  24
ENDBRANCH  21  23
ENDBRANCH   1  21
BRANCH   4  30
HETATM   30  O4  UNL     1      32.588 -31.652  -0.860  1.00  0.00    -0.395 OA
ATOM     31  H4  UNL     1      32.257 -30.998  -1.466  1.00  0.00     0.210 HD
ENDBRANCH   4  30
BRANCH  15  32
HETATM   32  C21 UNL     1      39.233 -28.769   0.194  1.00  0.00     0.131 C 
HETATM   33 CL1  UNL     1      38.709 -27.337  -0.711  1.00  0.00    -0.129 Cl
ENDBRANCH  15  32
TORSDOF 6
ENDMDL
MODEL 3
REMARK VINA RESULT: -9.093084168      1.594      2.538
REMARK  6 active torsions:
REMARK  status: ('A' for Active; 'I' for Inactive)
REMARK    1  A    between atoms: C4_4  and  C5_5 
REMARK    2  A    between atoms: C5_5  and  O2_7 
REMARK    3  A    between atoms: O2_7  and  C6_8 
REMARK    4  A    between atoms: C6_8  and  C7_10 
REMARK    5  A    between atoms: C10_13  and  O4_14 
REMARK    6  A    between atoms: C20_26  and  C21_27 
ROOT
HETATM    1  C7  UNL     1      33.520 -31.324   3.055  1.00  0.00     0.091 C 
HETATM    2  C8  UNL     1      32.410 -30.544   2.423  1.00  0.00     0.017 C 
HETATM    3  C9  UNL     1      32.592 -30.198   1.002  1.00  0.00     0.033 C 
HETATM    4  C10 UNL     1      33.403 -31.069   0.135  1.00  0.00     0.126 C 
HETATM    5  C11 UNL     1      34.186 -32.124   0.818  1.00  0.00    -0.013 C 
HETATM    6  C12 UNL     1      33.211 -33.263   1.137  1.00  0.00     0.018 C 
HETATM    7  C13 UNL     1      35.341 -32.699   0.101  1.00  0.00     0.012 C 
HETATM    8  C14 UNL     1      35.461 -32.476  -1.355  1.00  0.00     0.002 C 
HETATM    9  C15 UNL     1      36.930 -32.591  -1.743  1.00  0.00     0.016 C 
HETATM   10  C16 UNL     1      37.611 -31.227  -1.776  1.00  0.00     0.014 C 
HETATM   11  C17 UNL     1      36.719 -30.150  -2.302  1.00  0.00     0.023 C 
HETATM   12  C18 UNL     1      38.745 -31.378  -2.805  1.00  0.00     0.023 C 
HETATM   13  C19 UNL     1      38.267 -30.907  -0.502  1.00  0.00     0.144 C 
HETATM   14  O5  UNL     1      39.084 -31.713  -0.073  1.00  0.00    -0.296 OA
HETATM   15  C20 UNL     1      38.040 -29.694   0.326  1.00  0.00     0.098 C 
HETATM   16  C22 UNL     1      37.979 -30.034   1.775  1.00  0.00    -0.075 C 
HETATM   17  C23 UNL     1      39.288 -30.081   2.525  1.00  0.00     0.044 C 
HETATM   18  C24 UNL     1      36.869 -30.297   2.445  1.00  0.00    -0.023 C 
HETATM   19  C25 UNL     1      35.498 -30.297   1.861  1.00  0.00     0.033 C 
HETATM   20  C26 UNL     1      34.701 -31.522   2.137  1.00  0.00     0.013 C 
ENDROOT
BRANCH   1  21
HETATM   21  C6  UNL     1      33.880 -30.794   4.386  1.00  0.00     0.271 C 
HETATM   22  O3  UNL     1      33.763 -29.557   4.576  1.00  0.00    -0.264 OA
BRANCH  21  23
HETATM   23  O2  UNL     1      34.338 -31.567   5.434  1.00  0.00    -0.241 OA
BRANCH  23  24
HETATM   24  C5  UNL     1      34.522 -31.047   6.725  1.00  0.00     0.290 C 
HETATM   25  O1  UNL     1      33.564 -31.218   7.514  1.00  0.00    -0.260 OA
BRANCH  24  26
HETATM   26  C4  UNL     1      35.764 -30.360   7.087  1.00  0.00     0.084 C 
HETATM   27  C2  UNL     1      36.212 -30.224   8.294  1.00  0.00    -0.082 C 
HETATM   28  C1  UNL     1      35.462 -30.779   9.441  1.00  0.00     0.043 C 
HETATM   29  C3  UNL     1      37.496 -29.497   8.520  1.00  0.00     0.043 C 
ENDBRANCH  24  26
ENDBRANCH  23  24
ENDBRANCH  21  23
ENDBRANCH   1  21
BRANCH   4  30
HETATM   30  O4  UNL     1      32.604 -31.683  -0.868  1.00  0.00    -0.395 OA
ATOM     31  H4  UNL     1      32.783 -31.311  -1.724  1.00  0.00     0.210 HD
ENDBRANCH   4  30
BRANCH  15  32
HETATM   32  C21 UNL     1      39.250 -28.774   0.101  1.00  0.00     0.131 C 
HETATM   33 CL1  UNL     1      38.686 -27.277  -0.666  1.00  0.00    -0.129 Cl
ENDBRANCH  15  32
TORSDOF 6
ENDMDL
MODEL 4
REMARK VINA RESULT: -8.988527426      1.463      2.125
REMARK  6 active torsions:
REMARK  status: ('A' for Active; 'I' for Inactive)
REMARK    1  A    between atoms: C4_4  and  C5_5 
REMARK    2  A    between atoms: C5_5  and  O2_7 
REMARK    3  A    between atoms: O2_7  and  C6_8 
REMARK    4  A    between atoms: C6_8  and  C7_10 
REMARK    5  A    between atoms: C10_13  and  O4_14 
REMARK    6  A    between atoms: C20_26  and  C21_27 
ROOT
HETATM    1  C7  UNL     1      36.071 -31.935   0.000  1.00  0.00     0.091 C 
HETATM    2  C8  UNL     1      35.068 -31.499  -1.022  1.00  0.00     0.017 C 
HETATM    3  C9  UNL     1      35.483 -30.394  -1.904  1.00  0.00     0.033 C 
HETATM    4  C10 UNL     1      36.910 -30.201  -2.211  1.00  0.00     0.126 C 
HETATM    5  C11 UNL     1      37.865 -31.001  -1.413  1.00  0.00    -0.013 C 
HETATM    6  C12 UNL     1      37.874 -32.411  -2.014  1.00  0.00     0.018 C 
HETATM    7  C13 UNL     1      39.262 -30.531  -1.333  1.00  0.00     0.012 C 
HETATM    8  C14 UNL     1      39.732 -29.521  -2.304  1.00  0.00     0.002 C 
HETATM    9  C15 UNL     1      40.903 -28.766  -1.689  1.00  0.00     0.016 C 
HETATM   10  C16 UNL     1      40.449 -27.476  -1.014  1.00  0.00     0.014 C 
HETATM   11  C17 UNL     1      39.350 -26.792  -1.761  1.00  0.00     0.023 C 
HETATM   12  C18 UNL     1      41.666 -26.538  -1.098  1.00  0.00     0.023 C 
HETATM   13  C19 UNL     1      40.187 -27.664   0.418  1.00  0.00     0.144 C 
HETATM   14  O5  UNL     1      41.093 -28.132   1.098  1.00  0.00    -0.296 OA
HETATM   15  C20 UNL     1      38.925 -27.341   1.133  1.00  0.00     0.098 C 
HETATM   16  C22 UNL     1      38.573 -28.406   2.114  1.00  0.00    -0.075 C 
HETATM   17  C23 UNL     1      39.174 -28.294   3.494  1.00  0.00     0.044 C 
HETATM   18  C24 UNL     1      37.781 -29.435   1.863  1.00  0.00    -0.023 C 
HETATM   19  C25 UNL     1      37.112 -29.699   0.558  1.00  0.00     0.033 C 
HETATM   20  C26 UNL     1      37.308 -31.071   0.020  1.00  0.00     0.013 C 
ENDROOT
BRANCH   1  21
HETATM   21  C6  UNL     1      35.457 -32.129   1.330  1.00  0.00     0.271 C 
HETATM   22  O3  UNL     1      34.228 -31.891   1.449  1.00  0.00    -0.264 OA
BRANCH  21  23
HETATM   23  O2  UNL     1      36.143 -32.554   2.450  1.00  0.00    -0.241 OA
BRANCH  23  24
HETATM   24  C5  UNL     1      35.650 -32.361   3.749  1.00  0.00     0.290 C 
HETATM   25  O1  UNL     1      34.660 -33.065   4.059  1.00  0.00    -0.260 OA
BRANCH  24  26
HETATM   26  C4  UNL     1      36.277 -31.393   4.653  1.00  0.00     0.084 C 
HETATM   27  C2  UNL     1      35.822 -30.206   4.901  1.00  0.00    -0.082 C 
HETATM   28  C1  UNL     1      34.581 -29.727   4.255  1.00  0.00     0.043 C 
HETATM   29  C3  UNL     1      36.563 -29.321   5.847  1.00  0.00     0.043 C 
ENDBRANCH  24  26
ENDBRANCH  23  24
ENDBRANCH  21  23
ENDBRANCH   1  21
BRANCH   4  30
HETATM   30  O4  UNL     1      37.174 -30.433  -3.589  1.00  0.00    -0.395 OA
ATOM     31  H4  UNL     1      38.106 -30.391  -3.772  1.00  0.00     0.210 HD
ENDBRANCH   4  30
BRANCH  15  32
HETATM   32  C21 UNL     1      39.179 -26.041   1.911  1.00  0.00     0.131 C 
HETATM   33 CL1  UNL     1      37.996 -24.828   1.386  1.00  0.00    -0.129 Cl
ENDBRANCH  15  32
TORSDOF 6
ENDMDL
MODEL 5
REMARK VINA RESULT: -8.899295271      1.408      2.051
REMARK  6 active torsions:
REMARK  status: ('A' for Active; 'I' for Inactive)
REMARK    1  A    between atoms: C4_4  and  C5_5 
REMARK    2  A    between atoms: C5_5  and  O2_7 
REMARK    3  A    between atoms: O2_7  and  C6_8 
REMARK    4  A    between atoms: C6_8  and  C7_10 
REMARK    5  A    between atoms: C10_13  and  O4_14 
REMARK    6  A    between atoms: C20_26  and  C21_27 
ROOT
HETATM    1  C7  UNL     1      36.575 -31.881   0.266  1.00  0.00     0.091 C 
HETATM    2  C8  UNL     1      35.393 -31.587  -0.604  1.00  0.00     0.017 C 
HETATM    3  C9  UNL     1      35.545 -30.459  -1.540  1.00  0.00     0.033 C 
HETATM    4  C10 UNL     1      36.881 -30.105  -2.048  1.00  0.00     0.126 C 
HETATM    5  C11 UNL     1      38.028 -30.771  -1.391  1.00  0.00    -0.013 C 
HETATM    6  C12 UNL     1      38.120 -32.183  -1.982  1.00  0.00     0.018 C 
HETATM    7  C13 UNL     1      39.356 -30.138  -1.512  1.00  0.00     0.012 C 
HETATM    8  C14 UNL     1      39.560 -29.100  -2.544  1.00  0.00     0.002 C 
HETATM    9  C15 UNL     1      40.708 -28.200  -2.104  1.00  0.00     0.016 C 
HETATM   10  C16 UNL     1      40.202 -26.959  -1.377  1.00  0.00     0.014 C 
HETATM   11  C17 UNL     1      38.935 -26.424  -1.962  1.00  0.00     0.023 C 
HETATM   12  C18 UNL     1      41.274 -25.886  -1.636  1.00  0.00     0.023 C 
HETATM   13  C19 UNL     1      40.169 -27.148   0.078  1.00  0.00     0.144 C 
HETATM   14  O5  UNL     1      41.211 -27.491   0.624  1.00  0.00    -0.296 OA
HETATM   15  C20 UNL     1      38.991 -26.961   0.965  1.00  0.00     0.098 C 
HETATM   16  C22 UNL     1      38.911 -28.040   1.990  1.00  0.00    -0.075 C 
HETATM   17  C23 UNL     1      39.682 -27.829   3.270  1.00  0.00     0.044 C 
HETATM   18  C24 UNL     1      38.220 -29.160   1.857  1.00  0.00    -0.023 C 
HETATM   19  C25 UNL     1      37.410 -29.527   0.662  1.00  0.00     0.033 C 
HETATM   20  C26 UNL     1      37.691 -30.877   0.107  1.00  0.00     0.013 C 
ENDROOT
BRANCH   1  21
HETATM   21  C6  UNL     1      36.182 -32.119   1.670  1.00  0.00     0.271 C 
HETATM   22  O3  UNL     1      37.065 -32.529   2.465  1.00  0.00    -0.264 OA
BRANCH  21  23
HETATM   23  O2  UNL     1      34.909 -31.922   2.167  1.00  0.00    -0.241 OA
BRANCH  23  24
HETATM   24  C5  UNL     1      34.534 -30.739   2.821  1.00  0.00     0.290 C 
HETATM   25  O1  UNL     1      33.525 -30.162   2.351  1.00  0.00    -0.260 OA
BRANCH  24  26
HETATM   26  C4  UNL     1      35.293 -30.245   3.972  1.00  0.00     0.084 C 
HETATM   27  C2  UNL     1      35.068 -30.571   5.205  1.00  0.00    -0.082 C 
HETATM   28  C1  UNL     1      33.977 -31.509   5.547  1.00  0.00     0.043 C 
HETATM   29  C3  UNL     1      35.922 -29.991   6.282  1.00  0.00     0.043 C 
ENDBRANCH  24  26
ENDBRANCH  23  24
ENDBRANCH  21  23
ENDBRANCH   1  21
BRANCH   4  30
HETATM   30  O4  UNL     1      36.974 -30.334  -3.449  1.00  0.00    -0.395 OA
ATOM     31  H4  UNL     1      37.812 -30.719  -3.679  1.00  0.00     0.210 HD
ENDBRANCH   4  30
BRANCH  15  32
HETATM   32  C21 UNL     1      39.195 -25.624   1.695  1.00  0.00     0.131 C 
HETATM   33 CL1  UNL     1      37.682 -24.702   1.617  1.00  0.00    -0.129 Cl
ENDBRANCH  15  32
TORSDOF 6
ENDMDL
