MODEL 1
REMARK VINA RESULT: -7.528700450      0.000      0.000
REMARK  9 active torsions:
REMARK  status: ('A' for Active; 'I' for Inactive)
REMARK    1  A    between atoms: O1_2  and  C2_3 
REMARK    2  A    between atoms: C2_3  and  C3_5 
REMARK    3  A    between atoms: C3_5  and  O3_6 
REMARK    4  A    between atoms: C6_12  and  N1_13 
REMARK    5  A    between atoms: N1_13  and  O6_14 
REMARK    6  A    between atoms: N1_13  and  O7_16 
REMARK    7  A    between atoms: C7_18  and  C8_19 
REMARK    8  A    between atoms: C11_24  and  O10_25 
REMARK    9  A    between atoms: C11_24  and  C12_27 
ROOT
HETATM    1  C3  UNL     1      -3.421   2.583  11.694  1.00  0.00     0.305 C 
HETATM    2  O4  UNL     1      -3.324   2.627  13.094  1.00  0.00    -0.298 OA
HETATM    3  C4  UNL     1      -4.324   3.004  13.943  1.00  0.00     0.129 A 
HETATM    4  C5  UNL     1      -5.221   3.963  13.459  1.00  0.00     0.161 A 
HETATM    5  O5  UNL     1      -6.080   4.180  14.403  1.00  0.00    -0.287 OA
HETATM    6  C6  UNL     1      -5.823   3.438  15.480  1.00  0.00     0.194 A 
HETATM    7  C7  UNL     1      -4.709   2.676  15.222  1.00  0.00     0.096 A 
HETATM    8  C10 UNL     1      -5.010   4.459  12.125  1.00  0.00     0.234 C 
HETATM    9  O9  UNL     1      -5.369   5.608  11.817  1.00  0.00    -0.286 OA
HETATM   10  C11 UNL     1      -4.367   3.608  11.111  1.00  0.00     0.252 C 
ENDROOT
BRANCH   1  11
HETATM   11  C2  UNL     1      -3.808   1.219  11.239  1.00  0.00     0.326 C 
HETATM   12  O2  UNL     1      -3.585   0.830  10.075  1.00  0.00    -0.259 OA
BRANCH  11  13
HETATM   13  O1  UNL     1      -4.434   0.306  12.081  1.00  0.00    -0.322 OA
HETATM   14  C1  UNL     1      -4.189  -1.097  11.964  1.00  0.00     0.213 C 
ENDBRANCH  11  13
ENDBRANCH   1  11
BRANCH   1  15
HETATM   15  O3  UNL     1      -2.146   2.836  11.190  1.00  0.00    -0.354 OA
ATOM     16  H3  UNL     1      -1.971   3.760  11.325  1.00  0.00     0.213 HD
ENDBRANCH   1  15
BRANCH  10  17
HETATM   17  O10 UNL     1      -5.432   2.965  10.440  1.00  0.00    -0.370 OA
ATOM     18  H10 UNL     1      -5.464   3.243   9.532  1.00  0.00     0.212 HD
ENDBRANCH  10  17
BRANCH  10  19
HETATM   19  C12 UNL     1      -3.667   4.469  10.120  1.00  0.00     0.171 C 
HETATM   20  C13 UNL     1      -2.981   5.737  10.540  1.00  0.00     0.095 C 
HETATM   21  O11 UNL     1      -3.658   4.132   8.958  1.00  0.00    -0.294 OA
ENDBRANCH  10  19
BRANCH   7  22
HETATM   22  C8  UNL     1      -4.067   1.720  16.109  1.00  0.00     0.162 C 
HETATM   23  C9  UNL     1      -4.672   0.429  16.475  1.00  0.00     0.097 C 
HETATM   24  O8  UNL     1      -2.926   1.974  16.614  1.00  0.00    -0.293 OA
ENDBRANCH   7  22
BRANCH   6  25
HETATM   25  N1  UNL     1      -6.543   3.404  16.704  1.00  0.00    -0.011 NA
BRANCH  25  26
HETATM   26  O6  UNL     1      -7.178   4.550  16.982  1.00  0.00    -0.283 OA
ATOM     27  H6  UNL     1      -8.000   4.648  16.518  1.00  0.00     0.240 HD
ENDBRANCH  25  26
BRANCH  25  28
HETATM   28  O7  UNL     1      -7.511   2.444  16.578  1.00  0.00    -0.283 OA
ATOM     29  H7  UNL     1      -8.281   2.758  17.037  1.00  0.00     0.240 HD
ENDBRANCH  25  28
ENDBRANCH   6  25
TORSDOF 9
ENDMDL
MODEL 2
REMARK VINA RESULT: -7.430409859      1.884      4.076
REMARK  9 active torsions:
REMARK  status: ('A' for Active; 'I' for Inactive)
REMARK    1  A    between atoms: O1_2  and  C2_3 
REMARK    2  A    between atoms: C2_3  and  C3_5 
REMARK    3  A    between atoms: C3_5  and  O3_6 
REMARK    4  A    between atoms: C6_12  and  N1_13 
REMARK    5  A    between atoms: N1_13  and  O6_14 
REMARK    6  A    between atoms: N1_13  and  O7_16 
REMARK    7  A    between atoms: C7_18  and  C8_19 
REMARK    8  A    between atoms: C11_24  and  O10_25 
REMARK    9  A    between atoms: C11_24  and  C12_27 
ROOT
HETATM    1  C3  UNL     1      -4.919   4.847  12.935  1.00  0.00     0.305 C 
HETATM    2  O4  UNL     1      -5.719   4.081  13.798  1.00  0.00    -0.298 OA
HETATM    3  C4  UNL     1      -5.274   3.062  14.589  1.00  0.00     0.129 A 
HETATM    4  C5  UNL     1      -4.191   2.322  14.100  1.00  0.00     0.161 A 
HETATM    5  O5  UNL     1      -3.927   1.416  14.986  1.00  0.00    -0.287 OA
HETATM    6  C6  UNL     1      -4.753   1.496  16.029  1.00  0.00     0.194 A 
HETATM    7  C7  UNL     1      -5.625   2.534  15.810  1.00  0.00     0.096 A 
HETATM    8  C10 UNL     1      -3.651   2.700  12.822  1.00  0.00     0.234 C 
HETATM    9  O9  UNL     1      -3.105   1.853  12.094  1.00  0.00    -0.286 OA
HETATM   10  C11 UNL     1      -3.738   4.095  12.362  1.00  0.00     0.252 C 
ENDROOT
BRANCH   1  11
HETATM   11  C2  UNL     1      -4.450   6.085  13.616  1.00  0.00     0.326 C 
HETATM   12  O2  UNL     1      -4.296   6.134  14.853  1.00  0.00    -0.259 OA
BRANCH  11  13
HETATM   13  O1  UNL     1      -4.155   7.251  12.916  1.00  0.00    -0.322 OA
HETATM   14  C1  UNL     1      -2.974   8.003  13.196  1.00  0.00     0.213 C 
ENDBRANCH  11  13
ENDBRANCH   1  11
BRANCH   1  15
HETATM   15  O3  UNL     1      -5.732   5.247  11.875  1.00  0.00    -0.354 OA
ATOM     16  H3  UNL     1      -5.334   4.917  11.078  1.00  0.00     0.213 HD
ENDBRANCH   1  15
BRANCH  10  17
HETATM   17  O10 UNL     1      -2.528   4.696  12.776  1.00  0.00    -0.370 OA
ATOM     18  H10 UNL     1      -1.786   4.198  12.453  1.00  0.00     0.212 HD
ENDBRANCH  10  17
BRANCH  10  19
HETATM   19  C12 UNL     1      -3.767   4.122  10.875  1.00  0.00     0.171 C 
HETATM   20  C13 UNL     1      -2.744   4.893  10.092  1.00  0.00     0.095 C 
HETATM   21  O11 UNL     1      -4.635   3.509  10.297  1.00  0.00    -0.294 OA
ENDBRANCH  10  19
BRANCH   7  22
HETATM   22  C8  UNL     1      -6.697   2.987  16.681  1.00  0.00     0.162 C 
HETATM   23  C9  UNL     1      -6.841   4.385  17.120  1.00  0.00     0.097 C 
HETATM   24  O8  UNL     1      -7.574   2.168  17.105  1.00  0.00    -0.293 OA
ENDBRANCH   7  22
BRANCH   6  25
HETATM   25  N1  UNL     1      -4.769   0.676  17.190  1.00  0.00    -0.011 NA
BRANCH  25  26
HETATM   26  O6  UNL     1      -5.208   1.309  18.285  1.00  0.00    -0.283 OA
ATOM     27  H6  UNL     1      -5.570   2.169  18.104  1.00  0.00     0.240 HD
ENDBRANCH  25  26
BRANCH  25  28
HETATM   28  O7  UNL     1      -5.651  -0.345  16.952  1.00  0.00    -0.283 OA
ATOM     29  H7  UNL     1      -5.452  -1.038  17.570  1.00  0.00     0.240 HD
ENDBRANCH  25  28
ENDBRANCH   6  25
TORSDOF 9
ENDMDL
MODEL 3
REMARK VINA RESULT: -7.260271737      2.028      4.103
REMARK  9 active torsions:
REMARK  status: ('A' for Active; 'I' for Inactive)
REMARK    1  A    between atoms: O1_2  and  C2_3 
REMARK    2  A    between atoms: C2_3  and  C3_5 
REMARK    3  A    between atoms: C3_5  and  O3_6 
REMARK    4  A    between atoms: C6_12  and  N1_13 
REMARK    5  A    between atoms: N1_13  and  O6_14 
REMARK    6  A    between atoms: N1_13  and  O7_16 
REMARK    7  A    between atoms: C7_18  and  C8_19 
REMARK    8  A    between atoms: C11_24  and  O10_25 
REMARK    9  A    between atoms: C11_24  and  C12_27 
ROOT
HETATM    1  C3  UNL     1      -3.472   5.379  11.803  1.00  0.00     0.305 C 
HETATM    2  O4  UNL     1      -4.497   4.833  12.594  1.00  0.00    -0.298 OA
HETATM    3  C4  UNL     1      -4.421   3.655  13.278  1.00  0.00     0.129 A 
HETATM    4  C5  UNL     1      -3.621   2.657  12.711  1.00  0.00     0.161 A 
HETATM    5  O5  UNL     1      -3.683   1.634  13.502  1.00  0.00    -0.287 OA
HETATM    6  C6  UNL     1      -4.465   1.875  14.555  1.00  0.00     0.194 A 
HETATM    7  C7  UNL     1      -4.953   3.155  14.444  1.00  0.00     0.096 A 
HETATM    8  C10 UNL     1      -2.957   2.960  11.472  1.00  0.00     0.234 C 
HETATM    9  O9  UNL     1      -2.695   2.055  10.661  1.00  0.00    -0.286 OA
HETATM   10  C11 UNL     1      -2.582   4.346  11.151  1.00  0.00     0.252 C 
ENDROOT
BRANCH   1  11
HETATM   11  C2  UNL     1      -2.648   6.330  12.599  1.00  0.00     0.326 C 
HETATM   12  O2  UNL     1      -1.965   7.221  12.053  1.00  0.00    -0.259 OA
BRANCH  11  13
HETATM   13  O1  UNL     1      -2.593   6.282  13.988  1.00  0.00    -0.322 OA
HETATM   14  C1  UNL     1      -3.057   7.372  14.785  1.00  0.00     0.213 C 
ENDBRANCH  11  13
ENDBRANCH   1  11
BRANCH   1  15
HETATM   15  O3  UNL     1      -4.089   6.118  10.794  1.00  0.00    -0.354 OA
ATOM     16  H3  UNL     1      -4.187   5.540  10.046  1.00  0.00     0.213 HD
ENDBRANCH   1  15
BRANCH  10  17
HETATM   17  O10 UNL     1      -1.253   4.484  11.613  1.00  0.00    -0.370 OA
ATOM     18  H10 UNL     1      -0.735   3.731  11.353  1.00  0.00     0.212 HD
ENDBRANCH  10  17
BRANCH  10  19
HETATM   19  C12 UNL     1      -2.564   4.522   9.674  1.00  0.00     0.171 C 
HETATM   20  C13 UNL     1      -1.382   5.132   8.978  1.00  0.00     0.095 C 
HETATM   21  O11 UNL     1      -3.525   4.163   9.032  1.00  0.00    -0.294 OA
ENDBRANCH  10  19
BRANCH   7  22
HETATM   22  C8  UNL     1      -5.844   3.844  15.363  1.00  0.00     0.162 C 
HETATM   23  C9  UNL     1      -6.081   5.296  15.317  1.00  0.00     0.097 C 
HETATM   24  O8  UNL     1      -6.467   3.197  16.264  1.00  0.00    -0.293 OA
ENDBRANCH   7  22
BRANCH   6  25
HETATM   25  N1  UNL     1      -4.771   0.998  15.630  1.00  0.00    -0.011 NA
BRANCH  25  26
HETATM   26  O6  UNL     1      -4.646  -0.297  15.314  1.00  0.00    -0.283 OA
ATOM     27  H6  UNL     1      -3.768  -0.635  15.447  1.00  0.00     0.240 HD
ENDBRANCH  25  26
BRANCH  25  28
HETATM   28  O7  UNL     1      -3.864   1.246  16.626  1.00  0.00    -0.283 OA
ATOM     29  H7  UNL     1      -3.113   0.687  16.467  1.00  0.00     0.240 HD
ENDBRANCH  25  28
ENDBRANCH   6  25
TORSDOF 9
ENDMDL
MODEL 4
REMARK VINA RESULT: -7.197358917      3.530      6.056
REMARK  9 active torsions:
REMARK  status: ('A' for Active; 'I' for Inactive)
REMARK    1  A    between atoms: O1_2  and  C2_3 
REMARK    2  A    between atoms: C2_3  and  C3_5 
REMARK    3  A    between atoms: C3_5  and  O3_6 
REMARK    4  A    between atoms: C6_12  and  N1_13 
REMARK    5  A    between atoms: N1_13  and  O6_14 
REMARK    6  A    between atoms: N1_13  and  O7_16 
REMARK    7  A    between atoms: C7_18  and  C8_19 
REMARK    8  A    between atoms: C11_24  and  O10_25 
REMARK    9  A    between atoms: C11_24  and  C12_27 
ROOT
HETATM    1  C3  UNL     1      -3.234   3.177  10.875  1.00  0.00     0.305 C 
HETATM    2  O4  UNL     1      -2.163   3.736  10.159  1.00  0.00    -0.298 OA
HETATM    3  C4  UNL     1      -1.079   4.351  10.714  1.00  0.00     0.129 A 
HETATM    4  C5  UNL     1      -1.296   5.023  11.922  1.00  0.00     0.161 A 
HETATM    5  O5  UNL     1      -0.160   5.532  12.277  1.00  0.00    -0.287 OA
HETATM    6  C6  UNL     1       0.799   5.250  11.395  1.00  0.00     0.194 A 
HETATM    7  C7  UNL     1       0.249   4.498  10.385  1.00  0.00     0.096 A 
HETATM    8  C10 UNL     1      -2.629   5.004  12.464  1.00  0.00     0.234 C 
HETATM    9  O9  UNL     1      -3.034   5.942  13.171  1.00  0.00    -0.286 OA
HETATM   10  C11 UNL     1      -3.526   3.871  12.186  1.00  0.00     0.252 C 
ENDROOT
BRANCH   1  11
HETATM   11  C2  UNL     1      -3.004   1.724  11.111  1.00  0.00     0.326 C 
HETATM   12  O2  UNL     1      -1.889   1.198  10.922  1.00  0.00    -0.259 OA
BRANCH  11  13
HETATM   13  O1  UNL     1      -4.014   0.876  11.555  1.00  0.00    -0.322 OA
HETATM   14  C1  UNL     1      -3.877  -0.543  11.472  1.00  0.00     0.213 C 
ENDBRANCH  11  13
ENDBRANCH   1  11
BRANCH   1  15
HETATM   15  O3  UNL     1      -4.364   3.286  10.066  1.00  0.00    -0.354 OA
ATOM     16  H3  UNL     1      -5.055   3.658  10.602  1.00  0.00     0.213 HD
ENDBRANCH   1  15
BRANCH  10  17
HETATM   17  O10 UNL     1      -3.338   2.979  13.266  1.00  0.00    -0.370 OA
ATOM     18  H10 UNL     1      -3.256   3.461  14.080  1.00  0.00     0.212 HD
ENDBRANCH  10  17
BRANCH  10  19
HETATM   19  C12 UNL     1      -4.937   4.340  12.231  1.00  0.00     0.171 C 
HETATM   20  C13 UNL     1      -5.911   3.778  13.227  1.00  0.00     0.095 C 
HETATM   21  O11 UNL     1      -5.296   5.188  11.447  1.00  0.00    -0.294 OA
ENDBRANCH  10  19
BRANCH   7  22
HETATM   22  C8  UNL     1       0.922   3.965   9.212  1.00  0.00     0.162 C 
HETATM   23  C9  UNL     1       0.356   4.044   7.855  1.00  0.00     0.097 C 
HETATM   24  O8  UNL     1       2.055   3.396   9.321  1.00  0.00    -0.293 OA
ENDBRANCH   7  22
BRANCH   6  25
HETATM   25  N1  UNL     1       2.167   5.634  11.445  1.00  0.00    -0.011 NA
BRANCH  25  26
HETATM   26  O6  UNL     1       2.385   6.733  12.178  1.00  0.00    -0.283 OA
ATOM     27  H6  UNL     1       3.283   6.814  12.478  1.00  0.00     0.240 HD
ENDBRANCH  25  26
BRANCH  25  28
HETATM   28  O7  UNL     1       2.851   4.616  12.055  1.00  0.00    -0.283 OA
ATOM     29  H7  UNL     1       3.024   3.957  11.393  1.00  0.00     0.240 HD
ENDBRANCH  25  28
ENDBRANCH   6  25
TORSDOF 9
ENDMDL
MODEL 5
REMARK VINA RESULT: -7.124886441      1.655      3.775
REMARK  9 active torsions:
REMARK  status: ('A' for Active; 'I' for Inactive)
REMARK    1  A    between atoms: O1_2  and  C2_3 
REMARK    2  A    between atoms: C2_3  and  C3_5 
REMARK    3  A    between atoms: C3_5  and  O3_6 
REMARK    4  A    between atoms: C6_12  and  N1_13 
REMARK    5  A    between atoms: N1_13  and  O6_14 
REMARK    6  A    between atoms: N1_13  and  O7_16 
REMARK    7  A    between atoms: C7_18  and  C8_19 
REMARK    8  A    between atoms: C11_24  and  O10_25 
REMARK    9  A    between atoms: C11_24  and  C12_27 
ROOT
HETATM    1  C3  UNL     1      -3.634   2.440  11.243  1.00  0.00     0.305 C 
HETATM    2  O4  UNL     1      -4.496   2.992  12.204  1.00  0.00    -0.298 OA
HETATM    3  C4  UNL     1      -4.625   2.557  13.491  1.00  0.00     0.129 A 
HETATM    4  C5  UNL     1      -4.421   1.190  13.709  1.00  0.00     0.161 A 
HETATM    5  O5  UNL     1      -4.587   0.984  14.976  1.00  0.00    -0.287 OA
HETATM    6  C6  UNL     1      -4.887   2.112  15.620  1.00  0.00     0.194 A 
HETATM    7  C7  UNL     1      -4.919   3.136  14.704  1.00  0.00     0.096 A 
HETATM    8  C10 UNL     1      -4.097   0.376  12.568  1.00  0.00     0.234 C 
HETATM    9  O9  UNL     1      -4.414  -0.826  12.542  1.00  0.00    -0.286 OA
HETATM   10  C11 UNL     1      -3.387   0.958  11.419  1.00  0.00     0.252 C 
ENDROOT
BRANCH   1  11
HETATM   11  C2  UNL     1      -2.337   3.171  11.221  1.00  0.00     0.326 C 
HETATM   12  O2  UNL     1      -1.731   3.398  10.154  1.00  0.00    -0.259 OA
BRANCH  11  13
HETATM   13  O1  UNL     1      -1.731   3.642  12.381  1.00  0.00    -0.322 OA
HETATM   14  C1  UNL     1      -1.266   4.989  12.478  1.00  0.00     0.213 C 
ENDBRANCH  11  13
ENDBRANCH   1  11
BRANCH   1  15
HETATM   15  O3  UNL     1      -4.235   2.634  10.000  1.00  0.00    -0.354 OA
ATOM     16  H3  UNL     1      -5.034   2.120   9.993  1.00  0.00     0.213 HD
ENDBRANCH   1  15
BRANCH  10  17
HETATM   17  O10 UNL     1      -2.017   0.717  11.671  1.00  0.00    -0.370 OA
ATOM     18  H10 UNL     1      -1.913   0.228  12.479  1.00  0.00     0.212 HD
ENDBRANCH  10  17
BRANCH  10  19
HETATM   19  C12 UNL     1      -3.754   0.213  10.185  1.00  0.00     0.171 C 
HETATM   20  C13 UNL     1      -5.181   0.121   9.728  1.00  0.00     0.095 C 
HETATM   21  O11 UNL     1      -2.879  -0.326   9.546  1.00  0.00    -0.294 OA
ENDBRANCH  10  19
BRANCH   7  22
HETATM   22  C8  UNL     1      -5.204   4.539  14.955  1.00  0.00     0.162 C 
HETATM   23  C9  UNL     1      -4.226   5.614  14.718  1.00  0.00     0.097 C 
HETATM   24  O8  UNL     1      -6.341   4.897  15.401  1.00  0.00    -0.293 OA
ENDBRANCH   7  22
BRANCH   6  25
HETATM   25  N1  UNL     1      -5.137   2.281  17.009  1.00  0.00    -0.011 NA
BRANCH  25  26
HETATM   26  O6  UNL     1      -6.400   2.627  17.285  1.00  0.00    -0.283 OA
ATOM     27  H6  UNL     1      -6.753   2.189  18.051  1.00  0.00     0.240 HD
ENDBRANCH  25  26
BRANCH  25  28
HETATM   28  O7  UNL     1      -4.925   1.067  17.608  1.00  0.00    -0.283 OA
ATOM     29  H7  UNL     1      -4.423   1.228  18.398  1.00  0.00     0.240 HD
ENDBRANCH  25  28
ENDBRANCH   6  25
TORSDOF 9
ENDMDL
