MODEL 1
REMARK VINA RESULT: -7.876459293      0.000      0.000
REMARK  4 active torsions:
REMARK  status: ('A' for Active; 'I' for Inactive)
REMARK    1  A    between atoms: C3_3  and  N1_4 
REMARK    2  A    between atoms: N1_4  and  N2_6 
REMARK       I    between atoms: N2_6  and  C4_8 
REMARK    3  A    between atoms: C4_8  and  C5_10 
REMARK    4  A    between atoms: C5_10  and  C6_11 
ROOT
HETATM    1  C1  UNL     1       9.509   8.761   4.149  1.00  0.00     0.052 C 
HETATM    2  C2  UNL     1      10.450   9.374   3.125  1.00  0.00    -0.019 A 
HETATM    3  C3  UNL     1       9.904   9.886   1.980  1.00  0.00     0.095 A 
HETATM    4  S1  UNL     1      11.259  10.460   1.124  1.00  0.00    -0.075 SA
HETATM    5  C9  UNL     1      12.483  10.039   2.233  1.00  0.00    -0.008 A 
HETATM    6  C10 UNL     1      11.796   9.460   3.243  1.00  0.00    -0.036 A 
HETATM    7  C11 UNL     1      12.623   8.963   4.420  1.00  0.00     0.040 C 
HETATM    8  C12 UNL     1      13.859   9.790   4.532  1.00  0.00     0.009 C 
HETATM    9  C13 UNL     1      14.666   9.504   3.256  1.00  0.00    -0.014 C 
HETATM   10  C14 UNL     1      16.075   9.983   3.387  1.00  0.00     0.010 C 
HETATM   11  C15 UNL     1      13.966  10.235   2.166  1.00  0.00     0.051 C 
ENDROOT
BRANCH   3  12
HETATM   12  N1  UNL     1       8.534   9.949   1.555  1.00  0.00    -0.291 N 
ATOM     13  H1  UNL     1       8.005   9.100   1.356  1.00  0.00     0.187 HD
BRANCH  12  14
HETATM   14  N2  UNL     1       7.953  11.199   1.423  1.00  0.00    -0.269 N 
HETATM   15  C4  UNL     1       7.185  11.752   2.478  1.00  0.00     0.236 C 
HETATM   16  O1  UNL     1       7.004  11.128   3.565  1.00  0.00    -0.272 OA
ATOM     17  H2  UNL     1       8.079  11.726   0.558  1.00  0.00     0.190 HD
BRANCH  15  18
HETATM   18  C5  UNL     1       6.573  13.091   2.315  1.00  0.00     0.108 C 
BRANCH  18  19
HETATM   19  C6  UNL     1       7.545  14.127   1.853  1.00  0.00    -0.014 C 
HETATM   20  C7  UNL     1       8.118  14.833   3.092  1.00  0.00     0.010 C 
HETATM   21  C8  UNL     1       6.942  15.205   1.002  1.00  0.00     0.010 C 
ENDBRANCH  18  19
ENDBRANCH  15  18
ENDBRANCH  12  14
ENDBRANCH   3  12
TORSDOF 4
ENDMDL
MODEL 2
REMARK VINA RESULT: -7.737538302      2.232      2.554
REMARK  4 active torsions:
REMARK  status: ('A' for Active; 'I' for Inactive)
REMARK    1  A    between atoms: C3_3  and  N1_4 
REMARK    2  A    between atoms: N1_4  and  N2_6 
REMARK       I    between atoms: N2_6  and  C4_8 
REMARK    3  A    between atoms: C4_8  and  C5_10 
REMARK    4  A    between atoms: C5_10  and  C6_11 
ROOT
HETATM    1  C1  UNL     1       9.484   8.674   4.147  1.00  0.00     0.052 C 
HETATM    2  C2  UNL     1      10.417   9.293   3.119  1.00  0.00    -0.019 A 
HETATM    3  C3  UNL     1       9.865   9.781   1.967  1.00  0.00     0.095 A 
HETATM    4  S1  UNL     1      11.212  10.371   1.108  1.00  0.00    -0.075 SA
HETATM    5  C9  UNL     1      12.440   9.987   2.226  1.00  0.00    -0.008 A 
HETATM    6  C10 UNL     1      11.761   9.406   3.241  1.00  0.00    -0.036 A 
HETATM    7  C11 UNL     1      12.592   8.940   4.427  1.00  0.00     0.040 C 
HETATM    8  C12 UNL     1      13.812   9.792   4.532  1.00  0.00     0.009 C 
HETATM    9  C13 UNL     1      14.629   9.506   3.263  1.00  0.00    -0.014 C 
HETATM   10  C14 UNL     1      16.028  10.013   3.393  1.00  0.00     0.010 C 
HETATM   11  C15 UNL     1      13.919  10.211   2.161  1.00  0.00     0.051 C 
ENDROOT
BRANCH   3  12
HETATM   12  N1  UNL     1       8.496   9.812   1.536  1.00  0.00    -0.291 N 
ATOM     13  H1  UNL     1       7.736   9.602   2.183  1.00  0.00     0.187 HD
BRANCH  12  14
HETATM   14  N2  UNL     1       8.239  10.137   0.215  1.00  0.00    -0.269 N 
HETATM   15  C4  UNL     1       6.918  10.424  -0.213  1.00  0.00     0.236 C 
HETATM   16  O1  UNL     1       5.938  10.391   0.588  1.00  0.00    -0.272 OA
ATOM     17  H2  UNL     1       9.007  10.171  -0.456  1.00  0.00     0.190 HD
BRANCH  15  18
HETATM   18  C5  UNL     1       6.667  10.770  -1.631  1.00  0.00     0.108 C 
BRANCH  18  19
HETATM   19  C6  UNL     1       6.144  12.157  -1.813  1.00  0.00    -0.014 C 
HETATM   20  C7  UNL     1       5.923  12.393  -3.316  1.00  0.00     0.010 C 
HETATM   21  C8  UNL     1       7.079  13.236  -1.356  1.00  0.00     0.010 C 
ENDBRANCH  18  19
ENDBRANCH  15  18
ENDBRANCH  12  14
ENDBRANCH   3  12
TORSDOF 4
ENDMDL
MODEL 3
REMARK VINA RESULT: -7.671416598      1.738      1.886
REMARK  4 active torsions:
REMARK  status: ('A' for Active; 'I' for Inactive)
REMARK    1  A    between atoms: C3_3  and  N1_4 
REMARK    2  A    between atoms: N1_4  and  N2_6 
REMARK       I    between atoms: N2_6  and  C4_8 
REMARK    3  A    between atoms: C4_8  and  C5_10 
REMARK    4  A    between atoms: C5_10  and  C6_11 
ROOT
HETATM    1  C1  UNL     1       9.478   8.683   4.012  1.00  0.00     0.052 C 
HETATM    2  C2  UNL     1      10.463   9.264   3.012  1.00  0.00    -0.019 A 
HETATM    3  C3  UNL     1       9.971   9.708   1.814  1.00  0.00     0.095 A 
HETATM    4  S1  UNL     1      11.361  10.267   1.005  1.00  0.00    -0.075 SA
HETATM    5  C9  UNL     1      12.530   9.927   2.198  1.00  0.00    -0.008 A 
HETATM    6  C10 UNL     1      11.798   9.384   3.198  1.00  0.00    -0.036 A 
HETATM    7  C11 UNL     1      12.568   8.964   4.442  1.00  0.00     0.040 C 
HETATM    8  C12 UNL     1      13.781   9.821   4.578  1.00  0.00     0.009 C 
HETATM    9  C13 UNL     1      14.662   9.489   3.364  1.00  0.00    -0.014 C 
HETATM   10  C14 UNL     1      16.052  10.003   3.547  1.00  0.00     0.010 C 
HETATM   11  C15 UNL     1      14.010  10.151   2.202  1.00  0.00     0.051 C 
ENDROOT
BRANCH   3  12
HETATM   12  N1  UNL     1       8.626   9.720   1.313  1.00  0.00    -0.291 N 
ATOM     13  H1  UNL     1       7.916   9.098   1.697  1.00  0.00     0.187 HD
BRANCH  12  14
HETATM   14  N2  UNL     1       8.324  10.604   0.291  1.00  0.00    -0.269 N 
HETATM   15  C4  UNL     1       6.979  10.815  -0.106  1.00  0.00     0.236 C 
HETATM   16  O1  UNL     1       6.019  10.207   0.453  1.00  0.00    -0.272 OA
ATOM     17  H2  UNL     1       9.076  11.108  -0.180  1.00  0.00     0.190 HD
BRANCH  15  18
HETATM   18  C5  UNL     1       6.679  11.766  -1.201  1.00  0.00     0.108 C 
BRANCH  18  19
HETATM   19  C6  UNL     1       7.264  13.121  -0.978  1.00  0.00    -0.014 C 
HETATM   20  C7  UNL     1       6.535  13.768   0.212  1.00  0.00     0.010 C 
HETATM   21  C8  UNL     1       7.096  14.066  -2.130  1.00  0.00     0.010 C 
ENDBRANCH  18  19
ENDBRANCH  15  18
ENDBRANCH  12  14
ENDBRANCH   3  12
TORSDOF 4
ENDMDL
MODEL 4
REMARK VINA RESULT: -7.642415222      1.313      2.032
REMARK  4 active torsions:
REMARK  status: ('A' for Active; 'I' for Inactive)
REMARK    1  A    between atoms: C3_3  and  N1_4 
REMARK    2  A    between atoms: N1_4  and  N2_6 
REMARK       I    between atoms: N2_6  and  C4_8 
REMARK    3  A    between atoms: C4_8  and  C5_10 
REMARK    4  A    between atoms: C5_10  and  C6_11 
ROOT
HETATM    1  C1  UNL     1      10.791  10.509   0.413  1.00  0.00     0.052 C 
HETATM    2  C2  UNL     1      10.993   9.983   1.824  1.00  0.00    -0.019 A 
HETATM    3  C3  UNL     1       9.918   9.421   2.457  1.00  0.00     0.095 A 
HETATM    4  S1  UNL     1      10.550   8.971   3.973  1.00  0.00    -0.075 SA
HETATM    5  C9  UNL     1      12.156   9.502   3.770  1.00  0.00    -0.008 A 
HETATM    6  C10 UNL     1      12.153  10.019   2.520  1.00  0.00    -0.036 A 
HETATM    7  C11 UNL     1      13.474  10.590   2.025  1.00  0.00     0.040 C 
HETATM    8  C12 UNL     1      14.597   9.879   2.702  1.00  0.00     0.009 C 
HETATM    9  C13 UNL     1      14.477  10.235   4.191  1.00  0.00    -0.014 C 
HETATM   10  C14 UNL     1      15.724   9.886   4.934  1.00  0.00     0.010 C 
HETATM   11  C15 UNL     1      13.326   9.441   4.702  1.00  0.00     0.051 C 
ENDROOT
BRANCH   3  12
HETATM   12  N1  UNL     1       8.569   9.234   2.003  1.00  0.00    -0.291 N 
ATOM     13  H1  UNL     1       8.209   8.303   1.792  1.00  0.00     0.187 HD
BRANCH  12  14
HETATM   14  N2  UNL     1       7.772  10.357   1.860  1.00  0.00    -0.269 N 
HETATM   15  C4  UNL     1       7.155  10.952   2.990  1.00  0.00     0.236 C 
HETATM   16  O1  UNL     1       7.309  10.481   4.155  1.00  0.00    -0.272 OA
ATOM     17  H2  UNL     1       7.627  10.760   0.933  1.00  0.00     0.190 HD
BRANCH  15  18
HETATM   18  C5  UNL     1       6.307  12.153   2.814  1.00  0.00     0.108 C 
BRANCH  18  19
HETATM   19  C6  UNL     1       6.951  13.404   3.314  1.00  0.00    -0.014 C 
HETATM   20  C7  UNL     1       5.910  14.534   3.260  1.00  0.00     0.010 C 
HETATM   21  C8  UNL     1       8.116  13.872   2.495  1.00  0.00     0.010 C 
ENDBRANCH  18  19
ENDBRANCH  15  18
ENDBRANCH  12  14
ENDBRANCH   3  12
TORSDOF 4
ENDMDL
MODEL 5
REMARK VINA RESULT: -7.615483755      2.234      2.606
REMARK  4 active torsions:
REMARK  status: ('A' for Active; 'I' for Inactive)
REMARK    1  A    between atoms: C3_3  and  N1_4 
REMARK    2  A    between atoms: N1_4  and  N2_6 
REMARK       I    between atoms: N2_6  and  C4_8 
REMARK    3  A    between atoms: C4_8  and  C5_10 
REMARK    4  A    between atoms: C5_10  and  C6_11 
ROOT
HETATM    1  C1  UNL     1       9.528   8.684   4.231  1.00  0.00     0.052 C 
HETATM    2  C2  UNL     1      10.412   9.332   3.179  1.00  0.00    -0.019 A 
HETATM    3  C3  UNL     1       9.809   9.837   2.060  1.00  0.00     0.095 A 
HETATM    4  S1  UNL     1      11.114  10.458   1.160  1.00  0.00    -0.075 SA
HETATM    5  C9  UNL     1      12.391  10.065   2.219  1.00  0.00    -0.008 A 
HETATM    6  C10 UNL     1      11.759   9.457   3.249  1.00  0.00    -0.036 A 
HETATM    7  C11 UNL     1      12.642   8.977   4.391  1.00  0.00     0.040 C 
HETATM    8  C12 UNL     1      13.857   9.839   4.464  1.00  0.00     0.009 C 
HETATM    9  C13 UNL     1      14.624   9.587   3.157  1.00  0.00    -0.014 C 
HETATM   10  C14 UNL     1      16.022  10.107   3.241  1.00  0.00     0.010 C 
HETATM   11  C15 UNL     1      13.864  10.306   2.100  1.00  0.00     0.051 C 
ENDROOT
BRANCH   3  12
HETATM   12  N1  UNL     1       8.424   9.862   1.686  1.00  0.00    -0.291 N 
ATOM     13  H1  UNL     1       7.701   9.525   2.321  1.00  0.00     0.187 HD
BRANCH  12  14
HETATM   14  N2  UNL     1       8.099  10.357   0.434  1.00  0.00    -0.269 N 
HETATM   15  C4  UNL     1       7.431  11.601   0.303  1.00  0.00     0.236 C 
HETATM   16  O1  UNL     1       7.109  12.292   1.313  1.00  0.00    -0.272 OA
ATOM     17  H2  UNL     1       8.344   9.823  -0.400  1.00  0.00     0.190 HD
BRANCH  15  18
HETATM   18  C5  UNL     1       7.094  12.113  -1.046  1.00  0.00     0.108 C 
BRANCH  18  19
HETATM   19  C6  UNL     1       6.162  11.220  -1.796  1.00  0.00    -0.014 C 
HETATM   20  C7  UNL     1       5.962  11.809  -3.203  1.00  0.00     0.010 C 
HETATM   21  C8  UNL     1       4.793  11.108  -1.195  1.00  0.00     0.010 C 
ENDBRANCH  18  19
ENDBRANCH  15  18
ENDBRANCH  12  14
ENDBRANCH   3  12
TORSDOF 4
ENDMDL
