MODEL 1
REMARK VINA RESULT: -5.308580620      0.000      0.000
REMARK  3 active torsions:
REMARK  status: ('A' for Active; 'I' for Inactive)
REMARK    1  A    between atoms: N1_2  and  C2_5 
REMARK    2  A    between atoms: C6_9  and  C7_10 
REMARK    3  A    between atoms: C7_10  and  N2_11 
ROOT
HETATM    1  C2  UNL     1     -42.460 -14.997   4.780  1.00  0.00     0.194 C 
HETATM    2  C3  UNL     1     -42.661 -15.528   6.188  1.00  0.00     0.034 C 
HETATM    3  C4  UNL     1     -41.245 -15.997   6.629  1.00  0.00     0.008 C 
HETATM    4  C5  UNL     1     -40.437 -15.106   5.839  1.00  0.00     0.001 C 
HETATM    5  C6  UNL     1     -39.037 -15.343   5.469  1.00  0.00     0.016 C 
HETATM    6  C8  UNL     1     -38.859 -14.495   4.245  1.00  0.00     0.007 C 
HETATM    7  C9  UNL     1     -40.294 -14.260   3.709  1.00  0.00     0.012 C 
HETATM    8  C10 UNL     1     -41.060 -15.283   4.444  1.00  0.00    -0.012 C 
HETATM    9  C11 UNL     1     -40.844 -16.631   3.887  1.00  0.00     0.018 C 
ENDROOT
BRANCH   5  10
HETATM   10  C7  UNL     1     -38.040 -14.971   6.534  1.00  0.00     0.234 C 
BRANCH  10  11
HETATM   11  N2  UNL     1     -36.848 -15.725   6.491  1.00  0.00    -0.079 N 
ATOM     12  H23 UNL     1     -36.664 -16.155   7.397  1.00  0.00     0.274 HD
ATOM     13  H22 UNL     1     -36.976 -16.565   5.925  1.00  0.00     0.274 HD
ATOM     14  H21 UNL     1     -36.035 -15.198   6.172  1.00  0.00     0.274 HD
ENDBRANCH  10  11
ENDBRANCH   5  10
BRANCH   1  15
HETATM   15  N1  UNL     1     -42.877 -13.635   4.590  1.00  0.00    -0.074 N 
HETATM   16  C1  UNL     1     -44.223 -13.453   5.092  1.00  0.00     0.267 C 
ATOM     17  H12 UNL     1     -42.789 -13.342   3.617  1.00  0.00     0.277 HD
ATOM     18  H11 UNL     1     -42.222 -12.973   5.005  1.00  0.00     0.277 HD
ENDBRANCH   1  15
TORSDOF 3
ENDMDL
MODEL 2
REMARK VINA RESULT: -4.751465291      1.834      3.292
REMARK  3 active torsions:
REMARK  status: ('A' for Active; 'I' for Inactive)
REMARK    1  A    between atoms: N1_2  and  C2_5 
REMARK    2  A    between atoms: C6_9  and  C7_10 
REMARK    3  A    between atoms: C7_10  and  N2_11 
ROOT
HETATM    1  C2  UNL     1     -41.803 -16.117   3.244  1.00  0.00     0.194 C 
HETATM    2  C3  UNL     1     -40.895 -15.362   2.292  1.00  0.00     0.034 C 
HETATM    3  C4  UNL     1     -40.123 -14.366   3.205  1.00  0.00     0.008 C 
HETATM    4  C5  UNL     1     -40.137 -15.106   4.438  1.00  0.00     0.001 C 
HETATM    5  C6  UNL     1     -39.968 -14.522   5.774  1.00  0.00     0.016 C 
HETATM    6  C8  UNL     1     -40.617 -15.532   6.673  1.00  0.00     0.007 C 
HETATM    7  C9  UNL     1     -41.562 -16.342   5.749  1.00  0.00     0.012 C 
HETATM    8  C10 UNL     1     -41.625 -15.480   4.554  1.00  0.00    -0.012 C 
HETATM    9  C11 UNL     1     -42.494 -14.308   4.772  1.00  0.00     0.018 C 
ENDROOT
BRANCH   5  10
HETATM   10  C7  UNL     1     -38.537 -14.284   6.173  1.00  0.00     0.234 C 
BRANCH  10  11
HETATM   11  N2  UNL     1     -38.250 -12.943   6.505  1.00  0.00    -0.079 N 
ATOM     12  H23 UNL     1     -37.244 -12.779   6.499  1.00  0.00     0.274 HD
ATOM     13  H22 UNL     1     -38.531 -12.319   5.749  1.00  0.00     0.274 HD
ATOM     14  H21 UNL     1     -38.657 -12.639   7.390  1.00  0.00     0.274 HD
ENDBRANCH  10  11
ENDBRANCH   5  10
BRANCH   1  15
HETATM   15  N1  UNL     1     -41.638 -17.544   3.222  1.00  0.00    -0.074 N 
HETATM   16  C1  UNL     1     -40.884 -17.939   2.050  1.00  0.00     0.267 C 
ATOM     17  H12 UNL     1     -42.531 -18.033   3.284  1.00  0.00     0.277 HD
ATOM     18  H11 UNL     1     -41.217 -17.894   4.082  1.00  0.00     0.277 HD
ENDBRANCH   1  15
TORSDOF 3
ENDMDL
MODEL 3
REMARK VINA RESULT: -4.691726266      1.951      4.028
REMARK  3 active torsions:
REMARK  status: ('A' for Active; 'I' for Inactive)
REMARK    1  A    between atoms: N1_2  and  C2_5 
REMARK    2  A    between atoms: C6_9  and  C7_10 
REMARK    3  A    between atoms: C7_10  and  N2_11 
ROOT
HETATM    1  C2  UNL     1     -39.378 -14.459   5.428  1.00  0.00     0.194 C 
HETATM    2  C3  UNL     1     -39.899 -15.213   6.638  1.00  0.00     0.034 C 
HETATM    3  C4  UNL     1     -41.194 -15.910   6.130  1.00  0.00     0.008 C 
HETATM    4  C5  UNL     1     -40.860 -16.057   4.738  1.00  0.00     0.001 C 
HETATM    5  C6  UNL     1     -41.832 -16.230   3.652  1.00  0.00     0.016 C 
HETATM    6  C8  UNL     1     -41.080 -15.761   2.442  1.00  0.00     0.007 C 
HETATM    7  C9  UNL     1     -39.941 -14.870   3.000  1.00  0.00     0.012 C 
HETATM    8  C10 UNL     1     -40.394 -14.634   4.383  1.00  0.00    -0.012 C 
HETATM    9  C11 UNL     1     -41.485 -13.643   4.438  1.00  0.00     0.018 C 
ENDROOT
BRANCH   5  10
HETATM   10  C7  UNL     1     -42.319 -17.643   3.471  1.00  0.00     0.234 C 
BRANCH  10  11
HETATM   11  N2  UNL     1     -41.550 -18.402   2.564  1.00  0.00    -0.079 N 
ATOM     12  H23 UNL     1     -42.104 -19.166   2.177  1.00  0.00     0.274 HD
ATOM     13  H22 UNL     1     -41.372 -17.869   1.712  1.00  0.00     0.274 HD
ATOM     14  H21 UNL     1     -40.677 -18.755   2.955  1.00  0.00     0.274 HD
ENDBRANCH  10  11
ENDBRANCH   5  10
BRANCH   1  15
HETATM   15  N1  UNL     1     -38.034 -14.795   5.048  1.00  0.00    -0.074 N 
HETATM   16  C1  UNL     1     -37.314 -15.328   6.187  1.00  0.00     0.267 C 
ATOM     17  H12 UNL     1     -37.548 -14.004   4.626  1.00  0.00     0.277 HD
ATOM     18  H11 UNL     1     -38.009 -15.428   4.250  1.00  0.00     0.277 HD
ENDBRANCH   1  15
TORSDOF 3
ENDMDL
MODEL 4
REMARK VINA RESULT: -4.673519827      1.240      4.592
REMARK  3 active torsions:
REMARK  status: ('A' for Active; 'I' for Inactive)
REMARK    1  A    between atoms: N1_2  and  C2_5 
REMARK    2  A    between atoms: C6_9  and  C7_10 
REMARK    3  A    between atoms: C7_10  and  N2_11 
ROOT
HETATM    1  C2  UNL     1     -39.665 -15.335   5.178  1.00  0.00     0.194 C 
HETATM    2  C3  UNL     1     -39.701 -14.275   4.093  1.00  0.00     0.034 C 
HETATM    3  C4  UNL     1     -41.215 -14.087   3.788  1.00  0.00     0.008 C 
HETATM    4  C5  UNL     1     -41.766 -14.443   5.068  1.00  0.00     0.001 C 
HETATM    5  C6  UNL     1     -43.144 -14.895   5.297  1.00  0.00     0.016 C 
HETATM    6  C8  UNL     1     -43.045 -15.655   6.586  1.00  0.00     0.007 C 
HETATM    7  C9  UNL     1     -41.546 -16.027   6.716  1.00  0.00     0.012 C 
HETATM    8  C10 UNL     1     -41.054 -15.777   5.349  1.00  0.00    -0.012 C 
HETATM    9  C11 UNL     1     -41.458 -16.849   4.419  1.00  0.00     0.018 C 
ENDROOT
BRANCH   5  10
HETATM   10  C7  UNL     1     -44.155 -13.784   5.401  1.00  0.00     0.234 C 
BRANCH  10  11
HETATM   11  N2  UNL     1     -45.081 -13.949   6.453  1.00  0.00    -0.079 N 
ATOM     12  H23 UNL     1     -44.950 -14.853   6.906  1.00  0.00     0.274 HD
ATOM     13  H22 UNL     1     -44.853 -13.331   7.231  1.00  0.00     0.274 HD
ATOM     14  H21 UNL     1     -46.053 -13.827   6.171  1.00  0.00     0.274 HD
ENDBRANCH  10  11
ENDBRANCH   5  10
BRANCH   1  15
HETATM   15  N1  UNL     1     -38.990 -14.935   6.382  1.00  0.00    -0.074 N 
HETATM   16  C1  UNL     1     -37.582 -15.263   6.294  1.00  0.00     0.267 C 
ATOM     17  H12 UNL     1     -39.423 -15.335   7.214  1.00  0.00     0.277 HD
ATOM     18  H11 UNL     1     -39.139 -13.949   6.594  1.00  0.00     0.277 HD
ENDBRANCH   1  15
TORSDOF 3
ENDMDL
MODEL 5
REMARK VINA RESULT: -4.632058252      1.780      2.843
REMARK  3 active torsions:
REMARK  status: ('A' for Active; 'I' for Inactive)
REMARK    1  A    between atoms: N1_2  and  C2_5 
REMARK    2  A    between atoms: C6_9  and  C7_10 
REMARK    3  A    between atoms: C7_10  and  N2_11 
ROOT
HETATM    1  C2  UNL     1     -42.425 -16.577   4.223  1.00  0.00     0.194 C 
HETATM    2  C3  UNL     1     -41.763 -16.533   2.858  1.00  0.00     0.034 C 
HETATM    3  C4  UNL     1     -40.545 -15.586   3.051  1.00  0.00     0.008 C 
HETATM    4  C5  UNL     1     -40.286 -15.805   4.450  1.00  0.00     0.001 C 
HETATM    5  C6  UNL     1     -39.560 -14.879   5.328  1.00  0.00     0.016 C 
HETATM    6  C8  UNL     1     -40.052 -15.250   6.696  1.00  0.00     0.007 C 
HETATM    7  C9  UNL     1     -41.396 -15.982   6.452  1.00  0.00     0.012 C 
HETATM    8  C10 UNL     1     -41.689 -15.617   5.054  1.00  0.00    -0.012 C 
HETATM    9  C11 UNL     1     -42.180 -14.231   4.943  1.00  0.00     0.018 C 
ENDROOT
BRANCH   5  10
HETATM   10  C7  UNL     1     -38.061 -14.989   5.245  1.00  0.00     0.234 C 
BRANCH  10  11
HETATM   11  N2  UNL     1     -37.444 -15.331   6.467  1.00  0.00    -0.079 N 
ATOM     12  H23 UNL     1     -36.884 -16.177   6.361  1.00  0.00     0.274 HD
ATOM     13  H22 UNL     1     -36.707 -14.664   6.695  1.00  0.00     0.274 HD
ATOM     14  H21 UNL     1     -38.094 -15.427   7.247  1.00  0.00     0.274 HD
ENDBRANCH  10  11
ENDBRANCH   5  10
BRANCH   1  15
HETATM   15  N1  UNL     1     -42.566 -17.896   4.776  1.00  0.00    -0.074 N 
HETATM   16  C1  UNL     1     -43.967 -18.258   4.848  1.00  0.00     0.267 C 
ATOM     17  H12 UNL     1     -42.103 -17.982   5.680  1.00  0.00     0.277 HD
ATOM     18  H11 UNL     1     -42.020 -18.587   4.262  1.00  0.00     0.277 HD
ENDBRANCH   1  15
TORSDOF 3
ENDMDL
