MODEL 1
REMARK VINA RESULT: -5.491626940      0.000      0.000
REMARK  4 active torsions:
REMARK  status: ('A' for Active; 'I' for Inactive)
REMARK    1  A    between atoms: O1_1  and  N1_3 
REMARK    2  A    between atoms: N1_3  and  N2_5 
REMARK    3  A    between atoms: C4_9  and  C5_10 
REMARK    4  A    between atoms: C5_10  and  O2_11 
ROOT
HETATM    1  C5  UNL     1       1.301   4.694   5.962  1.00  0.00     0.128 C 
HETATM    2  C6  UNL     1       0.507   3.749   5.086  1.00  0.00     0.279 C 
HETATM    3  N3  UNL     1      -0.328   4.859   4.712  1.00  0.00    -0.061 N 
HETATM    4  C7  UNL     1       0.038   5.546   3.496  1.00  0.00     0.237 C 
HETATM    5  C8  UNL     1      -0.741   4.899   2.388  1.00  0.00     0.029 C 
HETATM    6  C9  UNL     1      -1.987   4.411   3.085  1.00  0.00     0.029 C 
HETATM    7  C10 UNL     1      -1.731   4.588   4.581  1.00  0.00     0.237 C 
HETATM    8  C11 UNL     1       0.096   5.567   5.879  1.00  0.00     0.279 C 
ENDROOT
BRANCH   1   9
HETATM    9  C4  UNL     1       1.567   4.047   7.302  1.00  0.00     0.142 C 
HETATM   10  N2  UNL     1       2.971   4.011   7.617  1.00  0.00    -0.301 N 
HETATM   11  C1  UNL     1       3.160   2.916   8.535  1.00  0.00     0.145 C 
HETATM   12  C2  UNL     1       2.306   1.834   7.934  1.00  0.00     0.024 C 
HETATM   13  C3  UNL     1       1.221   2.577   7.204  1.00  0.00     0.032 C 
BRANCH  10  14
HETATM   14  N1  UNL     1       3.979   4.840   7.154  1.00  0.00    -0.212 N 
ATOM     15  H1  UNL     1       3.772   5.585   6.488  1.00  0.00     0.215 HD
BRANCH  14  16
HETATM   16  O1  UNL     1       5.158   4.662   7.570  1.00  0.00    -0.275 OA
ATOM     17  H1  UNL     1       5.852   5.219   7.239  1.00  0.00     0.246 HD
ENDBRANCH  14  16
ENDBRANCH  10  14
ENDBRANCH   1   9
BRANCH   1  18
HETATM   18  O2  UNL     1       2.450   5.124   5.356  1.00  0.00    -0.384 OA
ATOM     19  H2  UNL     1       2.280   5.761   4.672  1.00  0.00     0.210 HD
ENDBRANCH   1  18
TORSDOF 4
ENDMDL
MODEL 2
REMARK VINA RESULT: -5.185699771      3.441      6.412
REMARK  4 active torsions:
REMARK  status: ('A' for Active; 'I' for Inactive)
REMARK    1  A    between atoms: O1_1  and  N1_3 
REMARK    2  A    between atoms: N1_3  and  N2_5 
REMARK    3  A    between atoms: C4_9  and  C5_10 
REMARK    4  A    between atoms: C5_10  and  O2_11 
ROOT
HETATM    1  C5  UNL     1      -0.463   3.997   1.988  1.00  0.00     0.128 C 
HETATM    2  C6  UNL     1       0.566   4.979   2.508  1.00  0.00     0.279 C 
HETATM    3  N3  UNL     1      -0.157   5.018   3.751  1.00  0.00    -0.061 N 
HETATM    4  C7  UNL     1       0.305   4.117   4.781  1.00  0.00     0.237 C 
HETATM    5  C8  UNL     1       1.293   4.885   5.610  1.00  0.00     0.029 C 
HETATM    6  C9  UNL     1       0.815   6.310   5.479  1.00  0.00     0.029 C 
HETATM    7  C10 UNL     1      -0.259   6.298   4.392  1.00  0.00     0.237 C 
HETATM    8  C11 UNL     1      -1.322   4.523   3.086  1.00  0.00     0.279 C 
ENDROOT
BRANCH   1   9
HETATM    9  C4  UNL     1      -0.866   4.378   0.582  1.00  0.00     0.142 C 
HETATM   10  N2  UNL     1       0.247   4.341  -0.330  1.00  0.00    -0.301 N 
HETATM   11  C1  UNL     1      -0.073   5.241  -1.409  1.00  0.00     0.145 C 
HETATM   12  C2  UNL     1      -0.655   6.424  -0.686  1.00  0.00     0.024 C 
HETATM   13  C3  UNL     1      -1.245   5.842   0.568  1.00  0.00     0.032 C 
BRANCH  10  14
HETATM   14  N1  UNL     1       1.416   3.604  -0.232  1.00  0.00    -0.212 N 
ATOM     15  H1  UNL     1       1.823   3.398   0.680  1.00  0.00     0.215 HD
BRANCH  14  16
HETATM   16  O1  UNL     1       1.969   3.192  -1.289  1.00  0.00    -0.275 OA
ATOM     17  H1  UNL     1       1.823   2.295  -1.566  1.00  0.00     0.246 HD
ENDBRANCH  14  16
ENDBRANCH  10  14
ENDBRANCH   1   9
BRANCH   1  18
HETATM   18  O2  UNL     1      -0.034   2.701   2.072  1.00  0.00    -0.384 OA
ATOM     19  H2  UNL     1       0.874   2.603   1.808  1.00  0.00     0.210 HD
ENDBRANCH   1  18
TORSDOF 4
ENDMDL
MODEL 3
REMARK VINA RESULT: -5.107131431      2.391      3.050
REMARK  4 active torsions:
REMARK  status: ('A' for Active; 'I' for Inactive)
REMARK    1  A    between atoms: O1_1  and  N1_3 
REMARK    2  A    between atoms: N1_3  and  N2_5 
REMARK    3  A    between atoms: C4_9  and  C5_10 
REMARK    4  A    between atoms: C5_10  and  O2_11 
ROOT
HETATM    1  C5  UNL     1       0.074   4.132   5.918  1.00  0.00     0.128 C 
HETATM    2  C6  UNL     1       0.612   5.493   5.531  1.00  0.00     0.279 C 
HETATM    3  N3  UNL     1      -0.196   5.430   4.342  1.00  0.00    -0.061 N 
HETATM    4  C7  UNL     1      -1.494   6.060   4.425  1.00  0.00     0.237 C 
HETATM    5  C8  UNL     1      -1.318   7.469   3.940  1.00  0.00     0.029 C 
HETATM    6  C9  UNL     1      -0.172   7.355   2.965  1.00  0.00     0.029 C 
HETATM    7  C10 UNL     1       0.394   5.947   3.140  1.00  0.00     0.237 C 
HETATM    8  C11 UNL     1      -0.277   4.010   4.475  1.00  0.00     0.279 C 
ENDROOT
BRANCH   1   9
HETATM    9  C4  UNL     1       1.205   3.257   6.408  1.00  0.00     0.142 C 
HETATM   10  N2  UNL     1       0.823   2.465   7.548  1.00  0.00    -0.301 N 
HETATM   11  C1  UNL     1       2.036   2.160   8.264  1.00  0.00     0.145 C 
HETATM   12  C2  UNL     1       2.770   3.473   8.237  1.00  0.00     0.024 C 
HETATM   13  C3  UNL     1       2.289   4.144   6.980  1.00  0.00     0.032 C 
BRANCH  10  14
HETATM   14  N1  UNL     1      -0.445   2.054   7.925  1.00  0.00    -0.212 N 
ATOM     15  H1  UNL     1      -1.264   2.349   7.394  1.00  0.00     0.215 HD
BRANCH  14  16
HETATM   16  O1  UNL     1      -0.571   1.308   8.935  1.00  0.00    -0.275 OA
ATOM     17  H1  UNL     1      -1.190   1.552   9.613  1.00  0.00     0.246 HD
ENDBRANCH  14  16
ENDBRANCH  10  14
ENDBRANCH   1   9
BRANCH   1  18
HETATM   18  O2  UNL     1      -0.948   4.215   6.824  1.00  0.00    -0.384 OA
ATOM     19  H2  UNL     1      -1.522   4.952   6.653  1.00  0.00     0.210 HD
ENDBRANCH   1  18
TORSDOF 4
ENDMDL
MODEL 4
REMARK VINA RESULT: -4.746001146      2.338      3.128
REMARK  4 active torsions:
REMARK  status: ('A' for Active; 'I' for Inactive)
REMARK    1  A    between atoms: O1_1  and  N1_3 
REMARK    2  A    between atoms: N1_3  and  N2_5 
REMARK    3  A    between atoms: C4_9  and  C5_10 
REMARK    4  A    between atoms: C5_10  and  O2_11 
ROOT
HETATM    1  C5  UNL     1      -0.285   4.794   4.951  1.00  0.00     0.128 C 
HETATM    2  C6  UNL     1       0.118   5.786   3.881  1.00  0.00     0.279 C 
HETATM    3  N3  UNL     1      -1.028   5.368   3.117  1.00  0.00    -0.061 N 
HETATM    4  C7  UNL     1      -2.223   6.161   3.284  1.00  0.00     0.237 C 
HETATM    5  C8  UNL     1      -2.194   7.211   2.213  1.00  0.00     0.029 C 
HETATM    6  C9  UNL     1      -1.419   6.546   1.102  1.00  0.00     0.029 C 
HETATM    7  C10 UNL     1      -0.844   5.262   1.698  1.00  0.00     0.237 C 
HETATM    8  C11 UNL     1      -1.079   4.152   3.865  1.00  0.00     0.279 C 
ENDROOT
BRANCH   1   9
HETATM    9  C4  UNL     1       0.932   4.035   5.427  1.00  0.00     0.142 C 
HETATM   10  N2  UNL     1       0.691   3.349   6.670  1.00  0.00    -0.301 N 
HETATM   11  C1  UNL     1       1.974   3.185   7.307  1.00  0.00     0.145 C 
HETATM   12  C2  UNL     1       2.623   4.523   7.084  1.00  0.00     0.024 C 
HETATM   13  C3  UNL     1       2.003   5.032   5.812  1.00  0.00     0.032 C 
BRANCH  10  14
HETATM   14  N1  UNL     1      -0.516   2.915   7.194  1.00  0.00    -0.212 N 
ATOM     15  H1  UNL     1      -1.398   3.248   6.806  1.00  0.00     0.215 HD
BRANCH  14  16
HETATM   16  O1  UNL     1      -0.506   2.100   8.158  1.00  0.00    -0.275 OA
ATOM     17  H1  UNL     1      -1.293   1.993   8.678  1.00  0.00     0.246 HD
ENDBRANCH  14  16
ENDBRANCH  10  14
ENDBRANCH   1   9
BRANCH   1  18
HETATM   18  O2  UNL     1      -0.964   5.385   5.980  1.00  0.00    -0.384 OA
ATOM     19  H2  UNL     1      -0.464   5.387   6.788  1.00  0.00     0.210 HD
ENDBRANCH   1  18
TORSDOF 4
ENDMDL
MODEL 5
REMARK VINA RESULT: -4.713910982      3.748      6.669
REMARK  4 active torsions:
REMARK  status: ('A' for Active; 'I' for Inactive)
REMARK    1  A    between atoms: O1_1  and  N1_3 
REMARK    2  A    between atoms: N1_3  and  N2_5 
REMARK    3  A    between atoms: C4_9  and  C5_10 
REMARK    4  A    between atoms: C5_10  and  O2_11 
ROOT
HETATM    1  C5  UNL     1      -0.301   4.594   1.239  1.00  0.00     0.128 C 
HETATM    2  C6  UNL     1       0.858   4.965   2.140  1.00  0.00     0.279 C 
HETATM    3  N3  UNL     1      -0.088   5.168   3.206  1.00  0.00    -0.061 N 
HETATM    4  C7  UNL     1      -0.302   4.042   4.085  1.00  0.00     0.237 C 
HETATM    5  C8  UNL     1       0.656   4.203   5.229  1.00  0.00     0.029 C 
HETATM    6  C9  UNL     1       0.830   5.699   5.322  1.00  0.00     0.029 C 
HETATM    7  C10 UNL     1       0.161   6.281   4.077  1.00  0.00     0.237 C 
HETATM    8  C11 UNL     1      -1.136   5.308   2.246  1.00  0.00     0.279 C 
ENDROOT
BRANCH   1   9
HETATM    9  C4  UNL     1      -0.142   5.273  -0.102  1.00  0.00     0.142 C 
HETATM   10  N2  UNL     1       1.008   4.789  -0.821  1.00  0.00    -0.301 N 
HETATM   11  C1  UNL     1       1.402   5.841  -1.725  1.00  0.00     0.145 C 
HETATM   12  C2  UNL     1       1.280   7.071  -0.869  1.00  0.00     0.024 C 
HETATM   13  C3  UNL     1       0.212   6.726   0.132  1.00  0.00     0.032 C 
BRANCH  10  14
HETATM   14  N1  UNL     1       1.646   3.566  -0.701  1.00  0.00    -0.212 N 
ATOM     15  H1  UNL     1       1.850   3.176   0.219  1.00  0.00     0.215 HD
BRANCH  14  16
HETATM   16  O1  UNL     1       1.971   2.941  -1.749  1.00  0.00    -0.275 OA
ATOM     17  H1  UNL     1       1.783   2.012  -1.807  1.00  0.00     0.246 HD
ENDBRANCH  14  16
ENDBRANCH  10  14
ENDBRANCH   1   9
BRANCH   1  18
HETATM   18  O2  UNL     1      -0.455   3.240   1.120  1.00  0.00    -0.384 OA
ATOM     19  H2  UNL     1      -1.252   2.930   1.535  1.00  0.00     0.210 HD
ENDBRANCH   1  18
TORSDOF 4
ENDMDL
