MODEL 1
REMARK VINA RESULT: -4.501089238      0.000      0.000
REMARK  4 active torsions:
REMARK  status: ('A' for Active; 'I' for Inactive)
REMARK    1  A    between atoms: C2_2  and  S1_3 
REMARK    2  A    between atoms: S1_3  and  C3_4 
REMARK    3  A    between atoms: N1_6  and  C5_7 
REMARK    4  A    between atoms: C11_14  and  O2_15 
ROOT
HETATM    1  C3  UNL     1      -1.431   4.349   4.499  1.00  0.00     0.106 C 
HETATM    2  C4  UNL     1      -0.698   4.092   5.801  1.00  0.00     0.290 C 
HETATM    3  N1  UNL     1       0.708   3.942   5.456  1.00  0.00     0.097 N 
HETATM    4  C10 UNL     1       0.900   4.943   4.445  1.00  0.00     0.305 C 
HETATM    5  C11 UNL     1      -0.320   4.745   3.556  1.00  0.00     0.161 C 
ENDROOT
BRANCH   3   6
HETATM    6  C5  UNL     1       1.463   4.159   6.656  1.00  0.00     0.227 C 
HETATM    7  C6  UNL     1       1.904   2.789   7.159  1.00  0.00     0.062 C 
HETATM    8  C7  UNL     1       2.617   2.898   8.479  1.00  0.00     0.169 C 
HETATM    9  O1  UNL     1       3.384   4.068   8.578  1.00  0.00    -0.391 OA
HETATM   10  C8  UNL     1       3.801   4.496   7.331  1.00  0.00     0.169 C 
HETATM   11  C9  UNL     1       2.656   5.042   6.495  1.00  0.00     0.062 C 
ENDBRANCH   3   6
BRANCH   1  12
HETATM   12  S1  UNL     1      -2.644   5.655   4.747  1.00  0.00    -0.160 SA
BRANCH  12  13
HETATM   13  C2  UNL     1      -2.287   6.716   6.149  1.00  0.00     0.070 C 
HETATM   14  C1  UNL     1      -1.206   7.727   5.886  1.00  0.00     0.016 C 
ENDBRANCH  12  13
ENDBRANCH   1  12
BRANCH   5  15
HETATM   15  O2  UNL     1      -0.609   5.868   2.808  1.00  0.00    -0.393 OA
ATOM     16  H2  UNL     1      -0.642   5.702   1.873  1.00  0.00     0.210 HD
ENDBRANCH   5  15
TORSDOF 4
ENDMDL
MODEL 2
REMARK VINA RESULT: -4.455069753      1.884      3.155
REMARK  4 active torsions:
REMARK  status: ('A' for Active; 'I' for Inactive)
REMARK    1  A    between atoms: C2_2  and  S1_3 
REMARK    2  A    between atoms: S1_3  and  C3_4 
REMARK    3  A    between atoms: N1_6  and  C5_7 
REMARK    4  A    between atoms: C11_14  and  O2_15 
ROOT
HETATM    1  C3  UNL     1       0.394   6.166   4.047  1.00  0.00     0.106 C 
HETATM    2  C4  UNL     1       1.197   5.077   4.732  1.00  0.00     0.290 C 
HETATM    3  N1  UNL     1       0.525   4.807   5.994  1.00  0.00     0.097 N 
HETATM    4  C10 UNL     1      -0.865   4.874   5.639  1.00  0.00     0.305 C 
HETATM    5  C11 UNL     1      -0.922   6.135   4.788  1.00  0.00     0.161 C 
ENDROOT
BRANCH   3   6
HETATM    6  C5  UNL     1       0.961   3.513   6.435  1.00  0.00     0.227 C 
HETATM    7  C6  UNL     1       2.122   3.739   7.396  1.00  0.00     0.062 C 
HETATM    8  C7  UNL     1       2.725   2.433   7.837  1.00  0.00     0.169 C 
HETATM    9  O1  UNL     1       1.766   1.419   7.971  1.00  0.00    -0.391 OA
HETATM   10  C8  UNL     1       0.524   1.946   8.276  1.00  0.00     0.169 C 
HETATM   11  C9  UNL     1      -0.091   2.691   7.104  1.00  0.00     0.062 C 
ENDBRANCH   3   6
BRANCH   1  12
HETATM   12  S1  UNL     1       0.227   5.771   2.299  1.00  0.00    -0.160 SA
BRANCH  12  13
HETATM   13  C2  UNL     1       0.366   4.020   1.937  1.00  0.00     0.070 C 
HETATM   14  C1  UNL     1      -0.887   3.240   2.221  1.00  0.00     0.016 C 
ENDBRANCH  12  13
ENDBRANCH   1  12
BRANCH   5  15
HETATM   15  O2  UNL     1      -2.022   6.153   3.955  1.00  0.00    -0.393 OA
ATOM     16  H2  UNL     1      -1.828   6.471   3.080  1.00  0.00     0.210 HD
ENDBRANCH   5  15
TORSDOF 4
ENDMDL
MODEL 3
REMARK VINA RESULT: -4.390413046      1.237      1.652
REMARK  4 active torsions:
REMARK  status: ('A' for Active; 'I' for Inactive)
REMARK    1  A    between atoms: C2_2  and  S1_3 
REMARK    2  A    between atoms: S1_3  and  C3_4 
REMARK    3  A    between atoms: N1_6  and  C5_7 
REMARK    4  A    between atoms: C11_14  and  O2_15 
ROOT
HETATM    1  C3  UNL     1      -1.360   4.273   4.665  1.00  0.00     0.106 C 
HETATM    2  C4  UNL     1      -0.569   4.019   5.934  1.00  0.00     0.290 C 
HETATM    3  N1  UNL     1       0.832   3.985   5.543  1.00  0.00     0.097 N 
HETATM    4  C10 UNL     1       0.920   5.037   4.570  1.00  0.00     0.305 C 
HETATM    5  C11 UNL     1      -0.310   4.786   3.708  1.00  0.00     0.161 C 
ENDROOT
BRANCH   3   6
HETATM    6  C5  UNL     1       1.607   4.209   6.729  1.00  0.00     0.227 C 
HETATM    7  C6  UNL     1       1.997   2.839   7.272  1.00  0.00     0.062 C 
HETATM    8  C7  UNL     1       2.726   2.960   8.582  1.00  0.00     0.169 C 
HETATM    9  O1  UNL     1       3.542   4.100   8.636  1.00  0.00    -0.391 OA
HETATM   10  C8  UNL     1       3.964   4.470   7.372  1.00  0.00     0.169 C 
HETATM   11  C9  UNL     1       2.834   5.036   6.529  1.00  0.00     0.062 C 
ENDBRANCH   3   6
BRANCH   1  12
HETATM   12  S1  UNL     1      -2.654   5.476   5.003  1.00  0.00    -0.160 SA
BRANCH  12  13
HETATM   13  C2  UNL     1      -4.179   5.168   4.110  1.00  0.00     0.070 C 
HETATM   14  C1  UNL     1      -4.226   3.828   3.431  1.00  0.00     0.016 C 
ENDBRANCH  12  13
ENDBRANCH   1  12
BRANCH   5  15
HETATM   15  O2  UNL     1      -0.702   5.914   3.017  1.00  0.00    -0.393 OA
ATOM     16  H2  UNL     1      -0.905   6.651   3.581  1.00  0.00     0.210 HD
ENDBRANCH   5  15
TORSDOF 4
ENDMDL
MODEL 4
REMARK VINA RESULT: -4.338180466      1.082      1.415
REMARK  4 active torsions:
REMARK  status: ('A' for Active; 'I' for Inactive)
REMARK    1  A    between atoms: C2_2  and  S1_3 
REMARK    2  A    between atoms: S1_3  and  C3_4 
REMARK    3  A    between atoms: N1_6  and  C5_7 
REMARK    4  A    between atoms: C11_14  and  O2_15 
ROOT
HETATM    1  C3  UNL     1      -1.303   4.277   4.702  1.00  0.00     0.106 C 
HETATM    2  C4  UNL     1      -0.500   3.995   5.957  1.00  0.00     0.290 C 
HETATM    3  N1  UNL     1       0.900   4.021   5.560  1.00  0.00     0.097 N 
HETATM    4  C10 UNL     1       0.951   5.115   4.631  1.00  0.00     0.305 C 
HETATM    5  C11 UNL     1      -0.274   4.862   3.764  1.00  0.00     0.161 C 
ENDROOT
BRANCH   3   6
HETATM    6  C5  UNL     1       1.672   4.220   6.752  1.00  0.00     0.227 C 
HETATM    7  C6  UNL     1       2.088   2.840   7.249  1.00  0.00     0.062 C 
HETATM    8  C7  UNL     1       2.817   2.932   8.561  1.00  0.00     0.169 C 
HETATM    9  O1  UNL     1       3.612   4.083   8.653  1.00  0.00    -0.391 OA
HETATM   10  C8  UNL     1       4.025   4.503   7.402  1.00  0.00     0.169 C 
HETATM   11  C9  UNL     1       2.884   5.076   6.578  1.00  0.00     0.062 C 
ENDBRANCH   3   6
BRANCH   1  12
HETATM   12  S1  UNL     1      -2.633   5.425   5.093  1.00  0.00    -0.160 SA
BRANCH  12  13
HETATM   13  C2  UNL     1      -3.429   5.100   6.667  1.00  0.00     0.070 C 
HETATM   14  C1  UNL     1      -4.146   3.781   6.725  1.00  0.00     0.016 C 
ENDBRANCH  12  13
ENDBRANCH   1  12
BRANCH   5  15
HETATM   15  O2  UNL     1      -0.704   6.005   3.121  1.00  0.00    -0.393 OA
ATOM     16  H2  UNL     1      -1.554   5.908   2.707  1.00  0.00     0.210 HD
ENDBRANCH   5  15
TORSDOF 4
ENDMDL
MODEL 5
REMARK VINA RESULT: -4.276008462      1.766      3.156
REMARK  4 active torsions:
REMARK  status: ('A' for Active; 'I' for Inactive)
REMARK    1  A    between atoms: C2_2  and  S1_3 
REMARK    2  A    between atoms: S1_3  and  C3_4 
REMARK    3  A    between atoms: N1_6  and  C5_7 
REMARK    4  A    between atoms: C11_14  and  O2_15 
ROOT
HETATM    1  C3  UNL     1      -0.765   4.908   3.614  1.00  0.00     0.106 C 
HETATM    2  C4  UNL     1       0.619   4.604   4.153  1.00  0.00     0.290 C 
HETATM    3  N1  UNL     1       0.533   4.739   5.599  1.00  0.00     0.097 N 
HETATM    4  C10 UNL     1      -0.746   4.162   5.901  1.00  0.00     0.305 C 
HETATM    5  C11 UNL     1      -1.641   4.783   4.838  1.00  0.00     0.161 C 
ENDROOT
BRANCH   3   6
HETATM    6  C5  UNL     1       1.649   4.030   6.156  1.00  0.00     0.227 C 
HETATM    7  C6  UNL     1       2.579   5.072   6.767  1.00  0.00     0.062 C 
HETATM    8  C7  UNL     1       3.839   4.437   7.288  1.00  0.00     0.169 C 
HETATM    9  O1  UNL     1       3.615   3.160   7.821  1.00  0.00    -0.391 OA
HETATM   10  C8  UNL     1       2.323   3.041   8.302  1.00  0.00     0.169 C 
HETATM   11  C9  UNL     1       1.292   3.010   7.187  1.00  0.00     0.062 C 
ENDBRANCH   3   6
BRANCH   1  12
HETATM   12  S1  UNL     1      -1.177   3.719   2.327  1.00  0.00    -0.160 SA
BRANCH  12  13
HETATM   13  C2  UNL     1      -0.580   4.179   0.700  1.00  0.00     0.070 C 
HETATM   14  C1  UNL     1       0.904   4.017   0.529  1.00  0.00     0.016 C 
ENDBRANCH  12  13
ENDBRANCH   1  12
BRANCH   5  15
HETATM   15  O2  UNL     1      -2.785   4.042   4.621  1.00  0.00    -0.393 OA
ATOM     16  H2  UNL     1      -3.076   3.563   5.388  1.00  0.00     0.210 HD
ENDBRANCH   5  15
TORSDOF 4
ENDMDL
