MODEL 1
REMARK VINA RESULT: -8.370475364      0.000      0.000
REMARK  18 active torsions:
REMARK  status: ('A' for Active; 'I' for Inactive)
REMARK    1  A    between atoms: C1_2  and  C2_4 
REMARK    2  A    between atoms: C2_4  and  N2_5 
REMARK    3  A    between atoms: C2_4  and  N7_21 
REMARK    4  A    between atoms: N3_7  and  C3_9 
REMARK    5  A    between atoms: C5_18  and  O2_19 
REMARK    6  A    between atoms: N7_21  and  C6_23 
REMARK    7  A    between atoms: C7_26  and  N9_27 
REMARK    8  A    between atoms: C9_34  and  C10_35 
REMARK    9  A    between atoms: C10_35  and  O3_36 
REMARK   10  A    between atoms: C10_35  and  N12_38 
REMARK       I    between atoms: N12_38  and  C11_40 
REMARK   11  A    between atoms: C11_40  and  C12_42 
REMARK   12  A    between atoms: C12_42  and  O5_43 
REMARK   13  A    between atoms: C12_42  and  C13_45 
REMARK   14  A    between atoms: C13_45  and  O6_46 
REMARK   15  A    between atoms: C13_45  and  C14_48 
REMARK   16  A    between atoms: C14_48  and  N13_49 
REMARK   17  A    between atoms: N13_49  and  C15_51 
REMARK   18  A    between atoms: C15_51  and  C16_52 
ROOT
HETATM    1  C6  UNL     1     -40.840  25.076  -4.091  1.00  0.00     0.133 A 
HETATM    2  N8  UNL     1     -41.549  24.005  -3.744  1.00  0.00    -0.176 N 
ATOM      3  H8  UNL     1     -42.560  24.094  -3.636  1.00  0.00     0.186 HD
HETATM    4  C7  UNL     1     -40.979  22.816  -3.534  1.00  0.00     0.678 A 
HETATM    5  N10 UNL     1     -39.644  22.672  -3.662  1.00  0.00    -0.178 N 
ATOM      6  H10 UNL     1     -39.226  21.757  -3.494  1.00  0.00     0.185 HD
HETATM    7  C8  UNL     1     -38.841  23.708  -4.007  1.00  0.00     0.146 A 
HETATM    8  N11 UNL     1     -37.439  23.464  -4.071  1.00  0.00    -0.081 NA
HETATM    9  C9  UNL     1     -39.432  24.919  -4.228  1.00  0.00     0.076 A 
ENDROOT
BRANCH   9  10
HETATM   10  C10 UNL     1     -38.646  26.091  -4.671  1.00  0.00     0.262 C 
BRANCH  10  11
HETATM   11  O3  UNL     1     -38.513  25.913  -6.109  1.00  0.00    -0.372 OA
ATOM     12  H3  UNL     1     -39.012  26.630  -6.482  1.00  0.00     0.212 HD
ENDBRANCH  10  11
BRANCH  10  13
HETATM   13  N12 UNL     1     -37.305  26.156  -4.225  1.00  0.00    -0.328 N 
HETATM   14  C11 UNL     1     -36.971  26.732  -2.979  1.00  0.00     0.251 C 
HETATM   15  O4  UNL     1     -37.814  27.249  -2.233  1.00  0.00    -0.270 OA
ATOM     16  H12 UNL     1     -36.563  25.779  -4.816  1.00  0.00     0.165 HD
BRANCH  14  17
HETATM   17  C12 UNL     1     -35.517  26.758  -2.464  1.00  0.00     0.240 C 
BRANCH  17  18
HETATM   18  O5  UNL     1     -34.732  26.735  -3.652  1.00  0.00    -0.383 OA
ATOM     19  H5  UNL     1     -33.866  26.992  -3.360  1.00  0.00     0.210 HD
ENDBRANCH  17  18
BRANCH  17  20
HETATM   20  C13 UNL     1     -35.324  25.521  -1.683  1.00  0.00     0.173 C 
BRANCH  20  21
HETATM   21  O6  UNL     1     -36.276  24.532  -1.742  1.00  0.00    -0.391 OA
ATOM     22  H6  UNL     1     -37.141  24.695  -1.383  1.00  0.00     0.210 HD
ENDBRANCH  20  21
BRANCH  20  23
HETATM   23  C14 UNL     1     -34.047  24.791  -2.225  1.00  0.00     0.149 C 
BRANCH  23  24
HETATM   24  N13 UNL     1     -34.461  23.972  -3.304  1.00  0.00    -0.415 N 
ATOM     25  H13 UNL     1     -35.438  23.943  -3.596  1.00  0.00     0.153 HD
BRANCH  24  26
HETATM   26  C15 UNL     1     -33.478  23.196  -3.964  1.00  0.00     0.153 C 
BRANCH  26  27
HETATM   27  C16 UNL     1     -32.614  23.984  -4.915  1.00  0.00    -0.038 A 
HETATM   28  C17 UNL     1     -32.945  24.193  -6.203  1.00  0.00     0.025 A 
HETATM   29  C18 UNL     1     -31.989  24.884  -6.977  1.00  0.00     0.088 A 
HETATM   30  N14 UNL     1     -30.840  25.310  -6.495  1.00  0.00    -0.375 N 
HETATM   31  C19 UNL     1     -30.492  25.103  -5.192  1.00  0.00     0.088 A 
ATOM     32  H14 UNL     1     -30.195  25.807  -7.111  1.00  0.00     0.164 HD
HETATM   33  C20 UNL     1     -31.392  24.439  -4.414  1.00  0.00     0.025 A 
ENDBRANCH  26  27
ENDBRANCH  24  26
ENDBRANCH  23  24
ENDBRANCH  20  23
ENDBRANCH  17  20
ENDBRANCH  14  17
ENDBRANCH  10  13
ENDBRANCH   9  10
BRANCH   1  34
HETATM   34  N7  UNL     1     -41.279  26.235  -4.284  1.00  0.00    -0.346 N 
ATOM     35  H7  UNL     1     -40.938  26.904  -3.594  1.00  0.00     0.163 HD
BRANCH  34  36
HETATM   36  C2  UNL     1     -42.134  26.825  -5.235  1.00  0.00     0.289 C 
BRANCH  36  37
HETATM   37  C1  UNL     1     -43.537  26.474  -5.037  1.00  0.00     0.274 C 
HETATM   38  N1  UNL     1     -44.437  27.554  -4.797  1.00  0.00    -0.059 NA
HETATM   39  O1  UNL     1     -44.055  25.332  -5.042  1.00  0.00    -0.272 OA
ENDBRANCH  36  37
BRANCH  36  40
HETATM   40  N2  UNL     1     -41.668  26.611  -6.611  1.00  0.00    -0.303 N 
HETATM   41  N3  UNL     1     -40.931  27.434  -7.168  1.00  0.00    -0.284 N 
ATOM     42  H3  UNL     1     -40.652  28.259  -6.637  1.00  0.00     0.188 HD
ATOM     43  H2  UNL     1     -41.955  25.771  -7.115  1.00  0.00     0.183 HD
BRANCH  41  44
HETATM   44  C3  UNL     1     -40.459  27.309  -8.472  1.00  0.00     0.187 A 
HETATM   45  N4  UNL     1     -39.197  27.026  -8.827  1.00  0.00    -0.171 N 
HETATM   46  C4  UNL     1     -39.093  27.000 -10.176  1.00  0.00     0.679 A 
ATOM     47  H4  UNL     1     -38.429  26.857  -8.176  1.00  0.00     0.186 HD
HETATM   48  N5  UNL     1     -38.031  26.758 -10.854  1.00  0.00    -0.234 N 
HETATM   49  N6  UNL     1     -40.317  27.269 -10.716  1.00  0.00    -0.167 N 
ATOM     50  H52 UNL     1     -37.116  26.557 -10.451  1.00  0.00     0.174 HD
ATOM     51  H51 UNL     1     -37.953  26.739 -11.871  1.00  0.00     0.174 HD
HETATM   52  C5  UNL     1     -41.150  27.458  -9.675  1.00  0.00     0.202 A 
ATOM     53  H6  UNL     1     -40.553  27.318 -11.707  1.00  0.00     0.186 HD
BRANCH  52  54
HETATM   54  O2  UNL     1     -42.515  27.754  -9.736  1.00  0.00    -0.343 OA
ATOM     55  H2  UNL     1     -43.083  27.430 -10.425  1.00  0.00     0.219 HD
ENDBRANCH  52  54
ENDBRANCH  41  44
ENDBRANCH  36  40
ENDBRANCH  34  36
ENDBRANCH   1  34
BRANCH   4  56
HETATM   56  N9  UNL     1     -41.742  21.788  -3.225  1.00  0.00    -0.234 N 
ATOM     57  H92 UNL     1     -42.689  21.927  -2.872  1.00  0.00     0.174 HD
ATOM     58  H91 UNL     1     -41.365  20.845  -3.326  1.00  0.00     0.174 HD
ENDBRANCH   4  56
TORSDOF 18
ENDMDL
MODEL 2
REMARK VINA RESULT: -8.352659377      4.136     11.052
REMARK  18 active torsions:
REMARK  status: ('A' for Active; 'I' for Inactive)
REMARK    1  A    between atoms: C1_2  and  C2_4 
REMARK    2  A    between atoms: C2_4  and  N2_5 
REMARK    3  A    between atoms: C2_4  and  N7_21 
REMARK    4  A    between atoms: N3_7  and  C3_9 
REMARK    5  A    between atoms: C5_18  and  O2_19 
REMARK    6  A    between atoms: N7_21  and  C6_23 
REMARK    7  A    between atoms: C7_26  and  N9_27 
REMARK    8  A    between atoms: C9_34  and  C10_35 
REMARK    9  A    between atoms: C10_35  and  O3_36 
REMARK   10  A    between atoms: C10_35  and  N12_38 
REMARK       I    between atoms: N12_38  and  C11_40 
REMARK   11  A    between atoms: C11_40  and  C12_42 
REMARK   12  A    between atoms: C12_42  and  O5_43 
REMARK   13  A    between atoms: C12_42  and  C13_45 
REMARK   14  A    between atoms: C13_45  and  O6_46 
REMARK   15  A    between atoms: C13_45  and  C14_48 
REMARK   16  A    between atoms: C14_48  and  N13_49 
REMARK   17  A    between atoms: N13_49  and  C15_51 
REMARK   18  A    between atoms: C15_51  and  C16_52 
ROOT
HETATM    1  C6  UNL     1     -30.349  23.943  -3.014  1.00  0.00     0.133 A 
HETATM    2  N8  UNL     1     -29.385  24.588  -3.667  1.00  0.00    -0.176 N 
ATOM      3  H8  UNL     1     -28.460  24.658  -3.240  1.00  0.00     0.186 HD
HETATM    4  C7  UNL     1     -29.590  25.147  -4.862  1.00  0.00     0.678 A 
HETATM    5  N10 UNL     1     -30.805  25.077  -5.444  1.00  0.00    -0.178 N 
ATOM      6  H10 UNL     1     -30.943  25.513  -6.355  1.00  0.00     0.185 HD
HETATM    7  C8  UNL     1     -31.847  24.445  -4.852  1.00  0.00     0.146 A 
HETATM    8  N11 UNL     1     -33.101  24.466  -5.528  1.00  0.00    -0.081 NA
HETATM    9  C9  UNL     1     -31.629  23.869  -3.634  1.00  0.00     0.076 A 
ENDROOT
BRANCH   9  10
HETATM   10  C10 UNL     1     -32.688  23.103  -2.942  1.00  0.00     0.262 C 
BRANCH  10  11
HETATM   11  O3  UNL     1     -33.058  22.063  -3.891  1.00  0.00    -0.372 OA
ATOM     12  H3  UNL     1     -34.008  22.088  -3.907  1.00  0.00     0.212 HD
ENDBRANCH  10  11
BRANCH  10  13
HETATM   13  N12 UNL     1     -33.907  23.781  -2.710  1.00  0.00    -0.328 N 
HETATM   14  C11 UNL     1     -34.021  24.766  -1.702  1.00  0.00     0.251 C 
HETATM   15  O4  UNL     1     -33.087  25.058  -0.943  1.00  0.00    -0.270 OA
ATOM     16  H12 UNL     1     -34.722  23.555  -3.281  1.00  0.00     0.165 HD
BRANCH  14  17
HETATM   17  C12 UNL     1     -35.333  25.546  -1.479  1.00  0.00     0.240 C 
BRANCH  17  18
HETATM   18  O5  UNL     1     -36.343  24.543  -1.539  1.00  0.00    -0.383 OA
ATOM     19  H5  UNL     1     -36.783  24.610  -0.700  1.00  0.00     0.210 HD
ENDBRANCH  17  18
BRANCH  17  20
HETATM   20  C13 UNL     1     -35.461  26.487  -2.609  1.00  0.00     0.173 C 
BRANCH  20  21
HETATM   21  O6  UNL     1     -34.917  26.157  -3.827  1.00  0.00    -0.391 OA
ATOM     22  H6  UNL     1     -34.069  26.509  -4.070  1.00  0.00     0.210 HD
ENDBRANCH  20  21
BRANCH  20  23
HETATM   23  C14 UNL     1     -36.983  26.643  -2.951  1.00  0.00     0.149 C 
BRANCH  23  24
HETATM   24  N13 UNL     1     -37.250  25.796  -4.055  1.00  0.00    -0.415 N 
ATOM     25  H13 UNL     1     -36.501  25.279  -4.514  1.00  0.00     0.153 HD
BRANCH  24  26
HETATM   26  C15 UNL     1     -38.590  25.691  -4.502  1.00  0.00     0.153 C 
BRANCH  26  27
HETATM   27  C16 UNL     1     -39.296  24.447  -4.028  1.00  0.00    -0.038 A 
HETATM   28  C17 UNL     1     -38.705  23.237  -3.996  1.00  0.00     0.025 A 
HETATM   29  C18 UNL     1     -39.529  22.163  -3.599  1.00  0.00     0.088 A 
HETATM   30  N14 UNL     1     -40.798  22.306  -3.275  1.00  0.00    -0.375 N 
HETATM   31  C19 UNL     1     -41.408  23.526  -3.306  1.00  0.00     0.088 A 
ATOM     32  H14 UNL     1     -41.336  21.486  -2.995  1.00  0.00     0.164 HD
HETATM   33  C20 UNL     1     -40.642  24.588  -3.683  1.00  0.00     0.025 A 
ENDBRANCH  26  27
ENDBRANCH  24  26
ENDBRANCH  23  24
ENDBRANCH  20  23
ENDBRANCH  17  20
ENDBRANCH  14  17
ENDBRANCH  10  13
ENDBRANCH   9  10
BRANCH   1  34
HETATM   34  N7  UNL     1     -30.262  23.411  -1.883  1.00  0.00    -0.346 N 
ATOM     35  H7  UNL     1     -30.843  22.577  -1.795  1.00  0.00     0.163 HD
BRANCH  34  36
HETATM   36  C2  UNL     1     -29.546  23.698  -0.705  1.00  0.00     0.289 C 
BRANCH  36  37
HETATM   37  C1  UNL     1     -28.838  22.539  -0.169  1.00  0.00     0.274 C 
HETATM   38  N1  UNL     1     -27.444  22.453  -0.457  1.00  0.00    -0.059 NA
HETATM   39  O1  UNL     1     -29.307  21.595   0.511  1.00  0.00    -0.272 OA
ENDBRANCH  36  37
BRANCH  36  40
HETATM   40  N2  UNL     1     -30.372  24.390   0.294  1.00  0.00    -0.303 N 
HETATM   41  N3  UNL     1     -30.037  24.421   1.484  1.00  0.00    -0.284 N 
ATOM     42  H3  UNL     1     -29.166  23.959   1.746  1.00  0.00     0.188 HD
ATOM     43  H2  UNL     1     -31.233  24.852   0.001  1.00  0.00     0.183 HD
BRANCH  41  44
HETATM   44  C3  UNL     1     -30.770  25.044   2.490  1.00  0.00     0.187 A 
HETATM   45  N4  UNL     1     -30.265  25.775   3.494  1.00  0.00    -0.171 N 
HETATM   46  C4  UNL     1     -31.265  26.213   4.294  1.00  0.00     0.679 A 
ATOM     47  H4  UNL     1     -29.273  25.972   3.634  1.00  0.00     0.186 HD
HETATM   48  N5  UNL     1     -31.138  26.939   5.344  1.00  0.00    -0.234 N 
HETATM   49  N6  UNL     1     -32.453  25.759   3.800  1.00  0.00    -0.167 N 
ATOM     50  H52 UNL     1     -30.251  27.279   5.714  1.00  0.00     0.174 HD
ATOM     51  H51 UNL     1     -31.892  27.269   5.947  1.00  0.00     0.174 HD
HETATM   52  C5  UNL     1     -32.150  25.046   2.698  1.00  0.00     0.202 A 
ATOM     53  H6  UNL     1     -33.382  25.927   4.186  1.00  0.00     0.186 HD
BRANCH  52  54
HETATM   54  O2  UNL     1     -33.048  24.391   1.851  1.00  0.00    -0.343 OA
ATOM     55  H2  UNL     1     -33.681  24.852   1.313  1.00  0.00     0.219 HD
ENDBRANCH  52  54
ENDBRANCH  41  44
ENDBRANCH  36  40
ENDBRANCH  34  36
ENDBRANCH   1  34
BRANCH   4  56
HETATM   56  N9  UNL     1     -28.584  25.742  -5.469  1.00  0.00    -0.234 N 
ATOM     57  H92 UNL     1     -27.627  25.413  -5.341  1.00  0.00     0.174 HD
ATOM     58  H91 UNL     1     -28.773  26.554  -6.057  1.00  0.00     0.174 HD
ENDBRANCH   4  56
TORSDOF 18
ENDMDL
MODEL 3
REMARK VINA RESULT: -8.280021795      2.365      3.453
REMARK  18 active torsions:
REMARK  status: ('A' for Active; 'I' for Inactive)
REMARK    1  A    between atoms: C1_2  and  C2_4 
REMARK    2  A    between atoms: C2_4  and  N2_5 
REMARK    3  A    between atoms: C2_4  and  N7_21 
REMARK    4  A    between atoms: N3_7  and  C3_9 
REMARK    5  A    between atoms: C5_18  and  O2_19 
REMARK    6  A    between atoms: N7_21  and  C6_23 
REMARK    7  A    between atoms: C7_26  and  N9_27 
REMARK    8  A    between atoms: C9_34  and  C10_35 
REMARK    9  A    between atoms: C10_35  and  O3_36 
REMARK   10  A    between atoms: C10_35  and  N12_38 
REMARK       I    between atoms: N12_38  and  C11_40 
REMARK   11  A    between atoms: C11_40  and  C12_42 
REMARK   12  A    between atoms: C12_42  and  O5_43 
REMARK   13  A    between atoms: C12_42  and  C13_45 
REMARK   14  A    between atoms: C13_45  and  O6_46 
REMARK   15  A    between atoms: C13_45  and  C14_48 
REMARK   16  A    between atoms: C14_48  and  N13_49 
REMARK   17  A    between atoms: N13_49  and  C15_51 
REMARK   18  A    between atoms: C15_51  and  C16_52 
ROOT
HETATM    1  C6  UNL     1     -40.976  25.186  -4.224  1.00  0.00     0.133 A 
HETATM    2  N8  UNL     1     -41.746  24.146  -3.913  1.00  0.00    -0.176 N 
ATOM      3  H8  UNL     1     -42.754  24.284  -3.831  1.00  0.00     0.186 HD
HETATM    4  C7  UNL     1     -41.241  22.928  -3.704  1.00  0.00     0.678 A 
HETATM    5  N10 UNL     1     -39.911  22.721  -3.797  1.00  0.00    -0.178 N 
ATOM      6  H10 UNL     1     -39.543  21.784  -3.631  1.00  0.00     0.185 HD
HETATM    7  C8  UNL     1     -39.050  23.721  -4.105  1.00  0.00     0.146 A 
HETATM    8  N11 UNL     1     -37.660  23.409  -4.133  1.00  0.00    -0.081 NA
HETATM    9  C9  UNL     1     -39.574  24.962  -4.324  1.00  0.00     0.076 A 
ENDROOT
BRANCH   9  10
HETATM   10  C10 UNL     1     -38.719  26.100  -4.728  1.00  0.00     0.262 C 
BRANCH  10  11
HETATM   11  O3  UNL     1     -38.590  25.958  -6.171  1.00  0.00    -0.372 OA
ATOM     12  H3  UNL     1     -37.836  25.391  -6.284  1.00  0.00     0.212 HD
ENDBRANCH  10  11
BRANCH  10  13
HETATM   13  N12 UNL     1     -37.380  26.073  -4.277  1.00  0.00    -0.328 N 
HETATM   14  C11 UNL     1     -37.010  26.643  -3.037  1.00  0.00     0.251 C 
HETATM   15  O4  UNL     1     -37.816  27.231  -2.303  1.00  0.00    -0.270 OA
ATOM     16  H12 UNL     1     -36.665  25.635  -4.857  1.00  0.00     0.165 HD
BRANCH  14  17
HETATM   17  C12 UNL     1     -35.560  26.571  -2.515  1.00  0.00     0.240 C 
BRANCH  17  18
HETATM   18  O5  UNL     1     -34.801  26.192  -3.659  1.00  0.00    -0.383 OA
ATOM     19  H5  UNL     1     -33.927  26.049  -3.318  1.00  0.00     0.210 HD
ENDBRANCH  17  18
BRANCH  17  20
HETATM   20  C13 UNL     1     -35.533  25.507  -1.492  1.00  0.00     0.173 C 
BRANCH  20  21
HETATM   21  O6  UNL     1     -36.515  24.546  -1.493  1.00  0.00    -0.391 OA
ATOM     22  H6  UNL     1     -36.305  23.665  -1.781  1.00  0.00     0.210 HD
ENDBRANCH  20  21
BRANCH  20  23
HETATM   23  C14 UNL     1     -34.231  24.658  -1.700  1.00  0.00     0.149 C 
BRANCH  23  24
HETATM   24  N13 UNL     1     -33.480  24.748  -0.502  1.00  0.00    -0.415 N 
ATOM     25  H13 UNL     1     -33.425  23.962   0.145  1.00  0.00     0.153 HD
BRANCH  24  26
HETATM   26  C15 UNL     1     -32.807  25.964  -0.231  1.00  0.00     0.153 C 
BRANCH  26  27
HETATM   27  C16 UNL     1     -32.361  26.109   1.201  1.00  0.00    -0.038 A 
HETATM   28  C17 UNL     1     -32.678  25.219   2.160  1.00  0.00     0.025 A 
HETATM   29  C18 UNL     1     -32.249  25.543   3.464  1.00  0.00     0.088 A 
HETATM   30  N14 UNL     1     -31.577  26.639   3.753  1.00  0.00    -0.375 N 
HETATM   31  C19 UNL     1     -31.251  27.550   2.790  1.00  0.00     0.088 A 
ATOM     32  H14 UNL     1     -31.294  26.810   4.718  1.00  0.00     0.164 HD
HETATM   33  C20 UNL     1     -31.649  27.269   1.518  1.00  0.00     0.025 A 
ENDBRANCH  26  27
ENDBRANCH  24  26
ENDBRANCH  23  24
ENDBRANCH  20  23
ENDBRANCH  17  20
ENDBRANCH  14  17
ENDBRANCH  10  13
ENDBRANCH   9  10
BRANCH   1  34
HETATM   34  N7  UNL     1     -41.353  26.367  -4.412  1.00  0.00    -0.346 N 
ATOM     35  H7  UNL     1     -40.971  27.016  -3.724  1.00  0.00     0.163 HD
BRANCH  34  36
HETATM   36  C2  UNL     1     -42.181  27.005  -5.356  1.00  0.00     0.289 C 
BRANCH  36  37
HETATM   37  C1  UNL     1     -43.600  26.735  -5.145  1.00  0.00     0.274 C 
HETATM   38  N1  UNL     1     -44.405  27.836  -4.731  1.00  0.00    -0.059 NA
HETATM   39  O1  UNL     1     -44.205  25.644  -5.276  1.00  0.00    -0.272 OA
ENDBRANCH  36  37
BRANCH  36  40
HETATM   40  N2  UNL     1     -41.739  26.765  -6.736  1.00  0.00    -0.303 N 
HETATM   41  N3  UNL     1     -40.902  27.501  -7.273  1.00  0.00    -0.284 N 
ATOM     42  H3  UNL     1     -40.524  28.272  -6.723  1.00  0.00     0.188 HD
ATOM     43  H2  UNL     1     -42.128  25.980  -7.259  1.00  0.00     0.183 HD
BRANCH  41  44
HETATM   44  C3  UNL     1     -40.444  27.346  -8.578  1.00  0.00     0.187 A 
HETATM   45  N4  UNL     1     -39.188  27.048  -8.940  1.00  0.00    -0.171 N 
HETATM   46  C4  UNL     1     -39.098  26.994 -10.290  1.00  0.00     0.679 A 
ATOM     47  H4  UNL     1     -38.414  26.887  -8.294  1.00  0.00     0.186 HD
HETATM   48  N5  UNL     1     -38.044  26.732 -10.973  1.00  0.00    -0.234 N 
HETATM   49  N6  UNL     1     -40.325  27.261 -10.823  1.00  0.00    -0.167 N 
ATOM     50  H52 UNL     1     -37.127  26.532 -10.575  1.00  0.00     0.174 HD
ATOM     51  H51 UNL     1     -37.976  26.691 -11.990  1.00  0.00     0.174 HD
HETATM   52  C5  UNL     1     -41.146  27.475  -9.777  1.00  0.00     0.202 A 
ATOM     53  H6  UNL     1     -40.571  27.291 -11.812  1.00  0.00     0.186 HD
BRANCH  52  54
HETATM   54  O2  UNL     1     -42.510  27.780  -9.831  1.00  0.00    -0.343 OA
ATOM     55  H2  UNL     1     -43.163  27.167 -10.147  1.00  0.00     0.219 HD
ENDBRANCH  52  54
ENDBRANCH  41  44
ENDBRANCH  36  40
ENDBRANCH  34  36
ENDBRANCH   1  34
BRANCH   4  56
HETATM   56  N9  UNL     1     -42.061  21.935  -3.431  1.00  0.00    -0.234 N 
ATOM     57  H92 UNL     1     -42.560  21.898  -2.542  1.00  0.00     0.174 HD
ATOM     58  H91 UNL     1     -42.178  21.188  -4.117  1.00  0.00     0.174 HD
ENDBRANCH   4  56
TORSDOF 18
ENDMDL
MODEL 4
REMARK VINA RESULT: -8.142866098      3.225      7.696
REMARK  18 active torsions:
REMARK  status: ('A' for Active; 'I' for Inactive)
REMARK    1  A    between atoms: C1_2  and  C2_4 
REMARK    2  A    between atoms: C2_4  and  N2_5 
REMARK    3  A    between atoms: C2_4  and  N7_21 
REMARK    4  A    between atoms: N3_7  and  C3_9 
REMARK    5  A    between atoms: C5_18  and  O2_19 
REMARK    6  A    between atoms: N7_21  and  C6_23 
REMARK    7  A    between atoms: C7_26  and  N9_27 
REMARK    8  A    between atoms: C9_34  and  C10_35 
REMARK    9  A    between atoms: C10_35  and  O3_36 
REMARK   10  A    between atoms: C10_35  and  N12_38 
REMARK       I    between atoms: N12_38  and  C11_40 
REMARK   11  A    between atoms: C11_40  and  C12_42 
REMARK   12  A    between atoms: C12_42  and  O5_43 
REMARK   13  A    between atoms: C12_42  and  C13_45 
REMARK   14  A    between atoms: C13_45  and  O6_46 
REMARK   15  A    between atoms: C13_45  and  C14_48 
REMARK   16  A    between atoms: C14_48  and  N13_49 
REMARK   17  A    between atoms: N13_49  and  C15_51 
REMARK   18  A    between atoms: C15_51  and  C16_52 
ROOT
HETATM    1  C6  UNL     1     -43.453  23.393  -5.081  1.00  0.00     0.133 A 
HETATM    2  N8  UNL     1     -44.161  22.310  -5.395  1.00  0.00    -0.176 N 
ATOM      3  H8  UNL     1     -43.977  21.438  -4.899  1.00  0.00     0.186 HD
HETATM    4  C7  UNL     1     -45.103  22.330  -6.341  1.00  0.00     0.678 A 
HETATM    5  N10 UNL     1     -45.360  23.468  -7.020  1.00  0.00    -0.178 N 
ATOM      6  H10 UNL     1     -46.081  23.462  -7.741  1.00  0.00     0.185 HD
HETATM    7  C8  UNL     1     -44.687  24.617  -6.771  1.00  0.00     0.146 A 
HETATM    8  N11 UNL     1     -45.000  25.752  -7.573  1.00  0.00    -0.081 NA
HETATM    9  C9  UNL     1     -43.730  24.592  -5.798  1.00  0.00     0.076 A 
ENDROOT
BRANCH   9  10
HETATM   10  C10 UNL     1     -42.990  25.813  -5.412  1.00  0.00     0.262 C 
BRANCH  10  11
HETATM   11  O3  UNL     1     -44.030  26.768  -5.058  1.00  0.00    -0.372 OA
ATOM     12  H3  UNL     1     -43.662  27.613  -5.291  1.00  0.00     0.212 HD
ENDBRANCH  10  11
BRANCH  10  13
HETATM   13  N12 UNL     1     -42.280  26.472  -6.443  1.00  0.00    -0.328 N 
HETATM   14  C11 UNL     1     -41.515  27.632  -6.185  1.00  0.00     0.251 C 
HETATM   15  O4  UNL     1     -41.459  28.161  -5.066  1.00  0.00    -0.270 OA
ATOM     16  H12 UNL     1     -42.320  26.102  -7.393  1.00  0.00     0.165 HD
BRANCH  14  17
HETATM   17  C12 UNL     1     -40.696  28.324  -7.294  1.00  0.00     0.240 C 
BRANCH  17  18
HETATM   18  O5  UNL     1     -41.381  27.976  -8.494  1.00  0.00    -0.383 OA
ATOM     19  H5  UNL     1     -41.171  28.684  -9.091  1.00  0.00     0.210 HD
ENDBRANCH  17  18
BRANCH  17  20
HETATM   20  C13 UNL     1     -39.350  27.719  -7.263  1.00  0.00     0.173 C 
BRANCH  20  21
HETATM   21  O6  UNL     1     -39.077  26.729  -6.351  1.00  0.00    -0.391 OA
ATOM     22  H6  UNL     1     -39.335  25.834  -6.543  1.00  0.00     0.210 HD
ENDBRANCH  20  21
BRANCH  20  23
HETATM   23  C14 UNL     1     -39.105  26.994  -8.631  1.00  0.00     0.149 C 
BRANCH  23  24
HETATM   24  N13 UNL     1     -38.432  27.912  -9.474  1.00  0.00    -0.415 N 
ATOM     25  H13 UNL     1     -37.885  28.679  -9.084  1.00  0.00     0.153 HD
BRANCH  24  26
HETATM   26  C15 UNL     1     -38.541  27.732 -10.874  1.00  0.00     0.153 C 
BRANCH  26  27
HETATM   27  C16 UNL     1     -39.846  28.215 -11.453  1.00  0.00    -0.038 A 
HETATM   28  C17 UNL     1     -40.218  29.509 -11.439  1.00  0.00     0.025 A 
HETATM   29  C18 UNL     1     -41.504  29.783 -11.950  1.00  0.00     0.088 A 
HETATM   30  N14 UNL     1     -42.309  28.852 -12.418  1.00  0.00    -0.375 N 
HETATM   31  C19 UNL     1     -41.945  27.536 -12.435  1.00  0.00     0.088 A 
ATOM     32  H14 UNL     1     -43.226  29.120 -12.775  1.00  0.00     0.164 HD
HETATM   33  C20 UNL     1     -40.708  27.235 -11.950  1.00  0.00     0.025 A 
ENDBRANCH  26  27
ENDBRANCH  24  26
ENDBRANCH  23  24
ENDBRANCH  20  23
ENDBRANCH  17  20
ENDBRANCH  14  17
ENDBRANCH  10  13
ENDBRANCH   9  10
BRANCH   1  34
HETATM   34  N7  UNL     1     -42.535  23.468  -4.231  1.00  0.00    -0.346 N 
ATOM     35  H7  UNL     1     -42.202  24.422  -4.096  1.00  0.00     0.163 HD
BRANCH  34  36
HETATM   36  C2  UNL     1     -41.858  22.537  -3.419  1.00  0.00     0.289 C 
BRANCH  36  37
HETATM   37  C1  UNL     1     -42.721  21.917  -2.419  1.00  0.00     0.274 C 
HETATM   38  N1  UNL     1     -42.450  20.555  -2.097  1.00  0.00    -0.059 NA
HETATM   39  O1  UNL     1     -43.687  22.433  -1.806  1.00  0.00    -0.272 OA
ENDBRANCH  36  37
BRANCH  36  40
HETATM   40  N2  UNL     1     -40.617  23.087  -2.859  1.00  0.00    -0.303 N 
HETATM   41  N3  UNL     1     -40.121  24.127  -3.311  1.00  0.00    -0.284 N 
ATOM     42  H3  UNL     1     -40.608  24.593  -4.076  1.00  0.00     0.188 HD
ATOM     43  H2  UNL     1     -40.157  22.605  -2.086  1.00  0.00     0.183 HD
BRANCH  41  44
HETATM   44  C3  UNL     1     -38.943  24.703  -2.843  1.00  0.00     0.187 A 
HETATM   45  N4  UNL     1     -37.901  24.043  -2.318  1.00  0.00    -0.171 N 
HETATM   46  C4  UNL     1     -36.937  24.921  -1.953  1.00  0.00     0.679 A 
ATOM     47  H4  UNL     1     -37.843  23.030  -2.209  1.00  0.00     0.186 HD
HETATM   48  N5  UNL     1     -35.806  24.632  -1.420  1.00  0.00    -0.234 N 
HETATM   49  N6  UNL     1     -37.359  26.184  -2.248  1.00  0.00    -0.167 N 
ATOM     50  H52 UNL     1     -35.490  23.688  -1.200  1.00  0.00     0.174 HD
ATOM     51  H51 UNL     1     -35.079  25.293  -1.145  1.00  0.00     0.174 HD
HETATM   52  C5  UNL     1     -38.584  26.050  -2.792  1.00  0.00     0.202 A 
ATOM     53  H6  UNL     1     -36.850  27.053  -2.090  1.00  0.00     0.186 HD
BRANCH  52  54
HETATM   54  O2  UNL     1     -39.411  27.076  -3.257  1.00  0.00    -0.343 OA
ATOM     55  H2  UNL     1     -39.268  27.991  -3.046  1.00  0.00     0.219 HD
ENDBRANCH  52  54
ENDBRANCH  41  44
ENDBRANCH  36  40
ENDBRANCH  34  36
ENDBRANCH   1  34
BRANCH   4  56
HETATM   56  N9  UNL     1     -45.790  21.232  -6.581  1.00  0.00    -0.234 N 
ATOM     57  H92 UNL     1     -46.782  21.176  -6.353  1.00  0.00     0.174 HD
ATOM     58  H91 UNL     1     -45.309  20.427  -6.983  1.00  0.00     0.174 HD
ENDBRANCH   4  56
TORSDOF 18
ENDMDL
MODEL 5
REMARK VINA RESULT: -7.950682454      2.485      3.632
REMARK  18 active torsions:
REMARK  status: ('A' for Active; 'I' for Inactive)
REMARK    1  A    between atoms: C1_2  and  C2_4 
REMARK    2  A    between atoms: C2_4  and  N2_5 
REMARK    3  A    between atoms: C2_4  and  N7_21 
REMARK    4  A    between atoms: N3_7  and  C3_9 
REMARK    5  A    between atoms: C5_18  and  O2_19 
REMARK    6  A    between atoms: N7_21  and  C6_23 
REMARK    7  A    between atoms: C7_26  and  N9_27 
REMARK    8  A    between atoms: C9_34  and  C10_35 
REMARK    9  A    between atoms: C10_35  and  O3_36 
REMARK   10  A    between atoms: C10_35  and  N12_38 
REMARK       I    between atoms: N12_38  and  C11_40 
REMARK   11  A    between atoms: C11_40  and  C12_42 
REMARK   12  A    between atoms: C12_42  and  O5_43 
REMARK   13  A    between atoms: C12_42  and  C13_45 
REMARK   14  A    between atoms: C13_45  and  O6_46 
REMARK   15  A    between atoms: C13_45  and  C14_48 
REMARK   16  A    between atoms: C14_48  and  N13_49 
REMARK   17  A    between atoms: N13_49  and  C15_51 
REMARK   18  A    between atoms: C15_51  and  C16_52 
ROOT
HETATM    1  C6  UNL     1     -40.913  25.200  -4.196  1.00  0.00     0.133 A 
HETATM    2  N8  UNL     1     -41.694  24.167  -3.888  1.00  0.00    -0.176 N 
ATOM      3  H8  UNL     1     -42.699  24.316  -3.802  1.00  0.00     0.186 HD
HETATM    4  C7  UNL     1     -41.201  22.942  -3.687  1.00  0.00     0.678 A 
HETATM    5  N10 UNL     1     -39.874  22.721  -3.785  1.00  0.00    -0.178 N 
ATOM      6  H10 UNL     1     -39.516  21.779  -3.625  1.00  0.00     0.185 HD
HETATM    7  C8  UNL     1     -39.002  23.712  -4.091  1.00  0.00     0.146 A 
HETATM    8  N11 UNL     1     -37.616  23.385  -4.126  1.00  0.00    -0.081 NA
HETATM    9  C9  UNL     1     -39.514  24.960  -4.303  1.00  0.00     0.076 A 
ENDROOT
BRANCH   9  10
HETATM   10  C10 UNL     1     -38.648  26.090  -4.704  1.00  0.00     0.262 C 
BRANCH  10  11
HETATM   11  O3  UNL     1     -38.521  25.952  -6.147  1.00  0.00    -0.372 OA
ATOM     12  H3  UNL     1     -38.831  25.072  -6.327  1.00  0.00     0.212 HD
ENDBRANCH  10  11
BRANCH  10  13
HETATM   13  N12 UNL     1     -37.308  26.049  -4.254  1.00  0.00    -0.328 N 
HETATM   14  C11 UNL     1     -36.925  26.633  -3.025  1.00  0.00     0.251 C 
HETATM   15  O4  UNL     1     -37.720  27.248  -2.301  1.00  0.00    -0.270 OA
ATOM     16  H12 UNL     1     -36.602  25.587  -4.828  1.00  0.00     0.165 HD
BRANCH  14  17
HETATM   17  C12 UNL     1     -35.476  26.545  -2.505  1.00  0.00     0.240 C 
BRANCH  17  18
HETATM   18  O5  UNL     1     -34.722  26.164  -3.651  1.00  0.00    -0.383 OA
ATOM     19  H5  UNL     1     -34.549  25.240  -3.515  1.00  0.00     0.210 HD
ENDBRANCH  17  18
BRANCH  17  20
HETATM   20  C13 UNL     1     -35.459  25.476  -1.486  1.00  0.00     0.173 C 
BRANCH  20  21
HETATM   21  O6  UNL     1     -36.447  24.522  -1.494  1.00  0.00    -0.391 OA
ATOM     22  H6  UNL     1     -36.506  23.919  -2.225  1.00  0.00     0.210 HD
ENDBRANCH  20  21
BRANCH  20  23
HETATM   23  C14 UNL     1     -34.162  24.620  -1.694  1.00  0.00     0.149 C 
BRANCH  23  24
HETATM   24  N13 UNL     1     -33.417  24.693  -0.491  1.00  0.00    -0.415 N 
ATOM     25  H13 UNL     1     -33.415  23.920   0.173  1.00  0.00     0.153 HD
BRANCH  24  26
HETATM   26  C15 UNL     1     -32.677  25.874  -0.240  1.00  0.00     0.153 C 
BRANCH  26  27
HETATM   27  C16 UNL     1     -32.286  26.053   1.205  1.00  0.00    -0.038 A 
HETATM   28  C17 UNL     1     -32.645  25.189   2.173  1.00  0.00     0.025 A 
HETATM   29  C18 UNL     1     -32.264  25.544   3.484  1.00  0.00     0.088 A 
HETATM   30  N14 UNL     1     -31.598  26.644   3.771  1.00  0.00    -0.375 N 
HETATM   31  C19 UNL     1     -31.230  27.529   2.799  1.00  0.00     0.088 A 
ATOM     32  H14 UNL     1     -31.352  26.839   4.742  1.00  0.00     0.164 HD
HETATM   33  C20 UNL     1     -31.581  27.217   1.520  1.00  0.00     0.025 A 
ENDBRANCH  26  27
ENDBRANCH  24  26
ENDBRANCH  23  24
ENDBRANCH  20  23
ENDBRANCH  17  20
ENDBRANCH  14  17
ENDBRANCH  10  13
ENDBRANCH   9  10
BRANCH   1  34
HETATM   34  N7  UNL     1     -41.276  26.386  -4.378  1.00  0.00    -0.346 N 
ATOM     35  H7  UNL     1     -40.919  27.020  -3.664  1.00  0.00     0.163 HD
BRANCH  34  36
HETATM   36  C2  UNL     1     -42.065  27.045  -5.341  1.00  0.00     0.289 C 
BRANCH  36  37
HETATM   37  C1  UNL     1     -43.407  26.483  -5.462  1.00  0.00     0.274 C 
HETATM   38  N1  UNL     1     -44.470  27.236  -4.882  1.00  0.00    -0.059 NA
HETATM   39  O1  UNL     1     -43.746  25.406  -6.009  1.00  0.00    -0.272 OA
ENDBRANCH  36  37
BRANCH  36  40
HETATM   40  N2  UNL     1     -41.371  27.182  -6.628  1.00  0.00    -0.303 N 
HETATM   41  N3  UNL     1     -42.005  27.366  -7.675  1.00  0.00    -0.284 N 
ATOM     42  H3  UNL     1     -43.021  27.428  -7.612  1.00  0.00     0.188 HD
ATOM     43  H2  UNL     1     -40.353  27.126  -6.660  1.00  0.00     0.183 HD
BRANCH  41  44
HETATM   44  C3  UNL     1     -41.422  27.493  -8.933  1.00  0.00     0.187 A 
HETATM   45  N4  UNL     1     -42.076  27.517 -10.103  1.00  0.00    -0.171 N 
HETATM   46  C4  UNL     1     -41.192  27.635 -11.122  1.00  0.00     0.679 A 
ATOM     47  H4  UNL     1     -43.089  27.456 -10.210  1.00  0.00     0.186 HD
HETATM   48  N5  UNL     1     -41.474  27.691 -12.373  1.00  0.00    -0.234 N 
HETATM   49  N6  UNL     1     -39.931  27.691 -10.605  1.00  0.00    -0.167 N 
ATOM     50  H52 UNL     1     -42.416  27.649 -12.759  1.00  0.00     0.174 HD
ATOM     51  H51 UNL     1     -40.808  27.779 -13.140  1.00  0.00     0.174 HD
HETATM   52  C5  UNL     1     -40.072  27.605  -9.268  1.00  0.00     0.202 A 
ATOM     53  H6  UNL     1     -39.058  27.781 -11.125  1.00  0.00     0.186 HD
BRANCH  52  54
HETATM   54  O2  UNL     1     -39.051  27.626  -8.314  1.00  0.00    -0.343 OA
ATOM     55  H2  UNL     1     -38.330  28.245  -8.342  1.00  0.00     0.219 HD
ENDBRANCH  52  54
ENDBRANCH  41  44
ENDBRANCH  36  40
ENDBRANCH  34  36
ENDBRANCH   1  34
BRANCH   4  56
HETATM   56  N9  UNL     1     -42.032  21.957  -3.416  1.00  0.00    -0.234 N 
ATOM     57  H92 UNL     1     -42.883  22.124  -2.879  1.00  0.00     0.174 HD
ATOM     58  H91 UNL     1     -41.802  21.016  -3.736  1.00  0.00     0.174 HD
ENDBRANCH   4  56
TORSDOF 18
ENDMDL
