MODEL 1
REMARK VINA RESULT: -8.123780643      0.000      0.000
REMARK  14 active torsions:
REMARK  status: ('A' for Active; 'I' for Inactive)
REMARK    1  A    between atoms: C2_2  and  C3_3 
REMARK    2  A    between atoms: C3_3  and  C5_5 
REMARK    3  A    between atoms: C5_5  and  N1_6 
REMARK       I    between atoms: N1_6  and  C6_8 
REMARK    4  A    between atoms: C6_8  and  C7_10 
REMARK    5  A    between atoms: C7_10  and  C8_11 
REMARK    6  A    between atoms: C8_11  and  C9_12 
REMARK    7  A    between atoms: N2_15  and  C12_16 
REMARK    8  A    between atoms: C15_25  and  N6_26 
REMARK    9  A    between atoms: C17_30  and  N7_31 
REMARK   10  A    between atoms: N7_31  and  C18_32 
REMARK   11  A    between atoms: C18_32  and  C19_33 
REMARK   12  A    between atoms: C19_33  and  C20_34 
REMARK   13  A    between atoms: C24_40  and  C25_41 
REMARK   14  A    between atoms: C25_41  and  O2_42 
ROOT
HETATM    1  C12 UNL     1      47.115  17.554  37.745  1.00  0.00     0.684 A 
HETATM    2  N3  UNL     1      46.791  16.534  38.584  1.00  0.00    -0.175 N 
ATOM      3  H3  UNL     1      46.303  16.722  39.459  1.00  0.00     0.186 HD
HETATM    4  C13 UNL     1      47.120  15.282  38.246  1.00  0.00     0.141 A 
HETATM    5  N4  UNL     1      46.766  14.280  39.108  1.00  0.00    -0.337 N 
ATOM      6  H4  UNL     1      46.281  14.500  39.979  1.00  0.00     0.168 HD
HETATM    7  C14 UNL     1      47.055  13.033  38.809  1.00  0.00     0.183 A 
HETATM    8  N5  UNL     1      47.689  12.761  37.668  1.00  0.00    -0.338 N 
ATOM      9  H5  UNL     1      47.907  11.789  37.448  1.00  0.00     0.168 HD
HETATM   10  C15 UNL     1      48.059  13.732  36.782  1.00  0.00     0.118 A 
HETATM   11  C16 UNL     1      47.770  15.038  37.073  1.00  0.00     0.111 A 
HETATM   12  C17 UNL     1      48.134  16.044  36.164  1.00  0.00     0.210 A 
HETATM   13  N8  UNL     1      47.740  17.316  36.620  1.00  0.00    -0.163 N 
ATOM     14  H8  UNL     1      47.959  18.116  36.026  1.00  0.00     0.187 HD
ENDROOT
BRANCH   1  15
HETATM   15  N2  UNL     1      46.718  18.858  38.133  1.00  0.00    -0.217 N 
HETATM   16  C11 UNL     1      47.607  19.636  38.963  1.00  0.00     0.141 C 
HETATM   17  C10 UNL     1      47.864  20.995  38.430  1.00  0.00     0.025 C 
HETATM   18  C9  UNL     1      46.958  21.329  37.300  1.00  0.00    -0.005 C 
HETATM   19  C24 UNL     1      45.554  20.864  37.398  1.00  0.00     0.032 C 
HETATM   20  C23 UNL     1      45.455  19.381  37.694  1.00  0.00     0.148 C 
BRANCH  18  21
HETATM   21  C8  UNL     1      46.981  22.859  37.174  1.00  0.00     0.014 C 
BRANCH  21  22
HETATM   22  C7  UNL     1      47.647  23.263  35.891  1.00  0.00     0.103 C 
BRANCH  22  23
HETATM   23  C6  UNL     1      46.597  23.428  34.836  1.00  0.00     0.221 C 
HETATM   24  N1  UNL     1      46.106  24.690  34.469  1.00  0.00    -0.340 N 
ATOM     25  H1  UNL     1      46.514  25.457  35.003  1.00  0.00     0.167 HD
HETATM   26  O1  UNL     1      46.174  22.388  34.293  1.00  0.00    -0.273 OA
BRANCH  24  27
HETATM   27  C5  UNL     1      45.167  25.108  33.517  1.00  0.00     0.068 C 
BRANCH  27  28
HETATM   28  C3  UNL     1      45.580  25.466  32.135  1.00  0.00     0.019 C 
HETATM   29  C4  UNL     1      44.475  26.425  31.630  1.00  0.00     0.015 C 
BRANCH  28  30
HETATM   30  C2  UNL     1      45.767  24.344  31.195  1.00  0.00     0.005 C 
HETATM   31  C1  UNL     1      45.114  24.663  29.834  1.00  0.00     0.006 C 
ENDBRANCH  28  30
ENDBRANCH  27  28
ENDBRANCH  24  27
ENDBRANCH  22  23
ENDBRANCH  21  22
ENDBRANCH  18  21
BRANCH  19  32
HETATM   32  C25 UNL     1      44.684  21.634  38.317  1.00  0.00     0.170 C 
BRANCH  32  33
HETATM   33  O2  UNL     1      43.569  22.172  37.713  1.00  0.00    -0.400 OA
ATOM     34  H2  UNL     1      43.415  23.084  37.929  1.00  0.00     0.209 HD
ENDBRANCH  32  33
ENDBRANCH  19  32
ENDBRANCH   1  15
BRANCH  12  35
HETATM   35  N7  UNL     1      48.701  15.964  35.123  1.00  0.00    -0.402 NA
BRANCH  35  36
HETATM   36  C18 UNL     1      49.332  15.876  33.965  1.00  0.00     0.158 C 
BRANCH  36  37
HETATM   37  C19 UNL     1      48.597  16.019  32.634  1.00  0.00     0.063 C 
BRANCH  37  38
HETATM   38  C20 UNL     1      49.165  17.121  31.820  1.00  0.00    -0.017 C 
HETATM   39  C21 UNL     1      48.702  17.158  30.382  1.00  0.00     0.010 C 
HETATM   40  C22 UNL     1      50.698  17.014  31.812  1.00  0.00     0.010 C 
ENDBRANCH  37  38
ENDBRANCH  36  37
ENDBRANCH  35  36
ENDBRANCH  12  35
BRANCH  10  41
HETATM   41  N6  UNL     1      48.634  13.422  35.695  1.00  0.00    -0.385 N 
ATOM     42  H62 UNL     1      48.424  12.540  35.227  1.00  0.00     0.157 HD
ATOM     43  H61 UNL     1      49.333  14.042  35.286  1.00  0.00     0.157 HD
ENDBRANCH  10  41
TORSDOF 14
ENDMDL
MODEL 2
REMARK VINA RESULT: -7.921068760      4.606      7.566
REMARK  14 active torsions:
REMARK  status: ('A' for Active; 'I' for Inactive)
REMARK    1  A    between atoms: C2_2  and  C3_3 
REMARK    2  A    between atoms: C3_3  and  C5_5 
REMARK    3  A    between atoms: C5_5  and  N1_6 
REMARK       I    between atoms: N1_6  and  C6_8 
REMARK    4  A    between atoms: C6_8  and  C7_10 
REMARK    5  A    between atoms: C7_10  and  C8_11 
REMARK    6  A    between atoms: C8_11  and  C9_12 
REMARK    7  A    between atoms: N2_15  and  C12_16 
REMARK    8  A    between atoms: C15_25  and  N6_26 
REMARK    9  A    between atoms: C17_30  and  N7_31 
REMARK   10  A    between atoms: N7_31  and  C18_32 
REMARK   11  A    between atoms: C18_32  and  C19_33 
REMARK   12  A    between atoms: C19_33  and  C20_34 
REMARK   13  A    between atoms: C24_40  and  C25_41 
REMARK   14  A    between atoms: C25_41  and  O2_42 
ROOT
HETATM    1  C12 UNL     1      49.739  19.977  39.780  1.00  0.00     0.684 A 
HETATM    2  N3  UNL     1      50.488  19.956  38.645  1.00  0.00    -0.175 N 
ATOM      3  H3  UNL     1      50.107  19.566  37.783  1.00  0.00     0.186 HD
HETATM    4  C13 UNL     1      51.731  20.452  38.673  1.00  0.00     0.141 A 
HETATM    5  N4  UNL     1      52.450  20.425  37.509  1.00  0.00    -0.337 N 
ATOM      6  H4  UNL     1      52.042  20.026  36.664  1.00  0.00     0.168 HD
HETATM    7  C14 UNL     1      53.668  20.917  37.487  1.00  0.00     0.183 A 
HETATM    8  N5  UNL     1      54.188  21.436  38.600  1.00  0.00    -0.338 N 
ATOM      9  H5  UNL     1      55.135  21.815  38.569  1.00  0.00     0.168 HD
HETATM   10  C15 UNL     1      53.503  21.482  39.781  1.00  0.00     0.118 A 
HETATM   11  C16 UNL     1      52.233  20.974  39.828  1.00  0.00     0.111 A 
HETATM   12  C17 UNL     1      51.514  21.026  41.033  1.00  0.00     0.210 A 
HETATM   13  N8  UNL     1      50.225  20.478  40.887  1.00  0.00    -0.163 N 
ATOM     14  H8  UNL     1      49.622  20.472  41.709  1.00  0.00     0.187 HD
ENDROOT
BRANCH   1  15
HETATM   15  N2  UNL     1      48.419  19.468  39.690  1.00  0.00    -0.217 N 
HETATM   16  C11 UNL     1      47.460  19.846  40.699  1.00  0.00     0.141 C 
HETATM   17  C10 UNL     1      46.190  20.362  40.133  1.00  0.00     0.025 C 
HETATM   18  C9  UNL     1      46.106  20.141  38.665  1.00  0.00    -0.005 C 
HETATM   19  C24 UNL     1      46.644  18.862  38.142  1.00  0.00     0.032 C 
HETATM   20  C23 UNL     1      48.062  18.598  38.604  1.00  0.00     0.148 C 
BRANCH  18  21
HETATM   21  C8  UNL     1      44.618  20.255  38.302  1.00  0.00     0.014 C 
BRANCH  21  22
HETATM   22  C7  UNL     1      44.268  21.683  37.996  1.00  0.00     0.103 C 
BRANCH  22  23
HETATM   23  C6  UNL     1      44.150  21.840  36.511  1.00  0.00     0.221 C 
HETATM   24  N1  UNL     1      44.827  22.853  35.816  1.00  0.00    -0.340 N 
ATOM     25  H1  UNL     1      45.372  23.466  36.421  1.00  0.00     0.167 HD
HETATM   26  O1  UNL     1      43.419  21.025  35.914  1.00  0.00    -0.273 OA
BRANCH  24  27
HETATM   27  C5  UNL     1      44.905  23.190  34.459  1.00  0.00     0.068 C 
BRANCH  27  28
HETATM   28  C3  UNL     1      46.197  23.576  33.834  1.00  0.00     0.019 C 
HETATM   29  C4  UNL     1      47.245  23.401  34.959  1.00  0.00     0.015 C 
BRANCH  28  30
HETATM   30  C2  UNL     1      46.268  24.934  33.262  1.00  0.00     0.005 C 
HETATM   31  C1  UNL     1      45.591  24.976  31.877  1.00  0.00     0.006 C 
ENDBRANCH  28  30
ENDBRANCH  27  28
ENDBRANCH  24  27
ENDBRANCH  22  23
ENDBRANCH  21  22
ENDBRANCH  18  21
BRANCH  19  32
HETATM   32  C25 UNL     1      45.795  17.669  38.365  1.00  0.00     0.170 C 
BRANCH  32  33
HETATM   33  O2  UNL     1      45.193  17.189  37.223  1.00  0.00    -0.400 OA
ATOM     34  H2  UNL     1      44.402  17.655  36.979  1.00  0.00     0.209 HD
ENDBRANCH  32  33
ENDBRANCH  19  32
ENDBRANCH   1  15
BRANCH  12  35
HETATM   35  N7  UNL     1      51.835  21.445  42.097  1.00  0.00    -0.402 NA
BRANCH  35  36
HETATM   36  C18 UNL     1      52.192  21.910  43.281  1.00  0.00     0.158 C 
BRANCH  36  37
HETATM   37  C19 UNL     1      51.689  23.252  43.805  1.00  0.00     0.063 C 
BRANCH  37  38
HETATM   38  C20 UNL     1      52.748  24.289  43.738  1.00  0.00    -0.017 C 
HETATM   39  C21 UNL     1      52.855  25.007  42.412  1.00  0.00     0.010 C 
HETATM   40  C22 UNL     1      54.112  23.646  44.029  1.00  0.00     0.010 C 
ENDBRANCH  37  38
ENDBRANCH  36  37
ENDBRANCH  35  36
ENDBRANCH  12  35
BRANCH  10  41
HETATM   41  N6  UNL     1      54.028  22.012  40.806  1.00  0.00    -0.385 N 
ATOM     42  H62 UNL     1      53.725  21.746  41.743  1.00  0.00     0.157 HD
ATOM     43  H61 UNL     1      54.745  22.731  40.705  1.00  0.00     0.157 HD
ENDBRANCH  10  41
TORSDOF 14
ENDMDL
MODEL 3
REMARK VINA RESULT: -7.808326734      4.294      6.822
REMARK  14 active torsions:
REMARK  status: ('A' for Active; 'I' for Inactive)
REMARK    1  A    between atoms: C2_2  and  C3_3 
REMARK    2  A    between atoms: C3_3  and  C5_5 
REMARK    3  A    between atoms: C5_5  and  N1_6 
REMARK       I    between atoms: N1_6  and  C6_8 
REMARK    4  A    between atoms: C6_8  and  C7_10 
REMARK    5  A    between atoms: C7_10  and  C8_11 
REMARK    6  A    between atoms: C8_11  and  C9_12 
REMARK    7  A    between atoms: N2_15  and  C12_16 
REMARK    8  A    between atoms: C15_25  and  N6_26 
REMARK    9  A    between atoms: C17_30  and  N7_31 
REMARK   10  A    between atoms: N7_31  and  C18_32 
REMARK   11  A    between atoms: C18_32  and  C19_33 
REMARK   12  A    between atoms: C19_33  and  C20_34 
REMARK   13  A    between atoms: C24_40  and  C25_41 
REMARK   14  A    between atoms: C25_41  and  O2_42 
ROOT
HETATM    1  C12 UNL     1      49.246  19.990  40.097  1.00  0.00     0.684 A 
HETATM    2  N3  UNL     1      49.042  18.693  40.451  1.00  0.00    -0.175 N 
ATOM      3  H3  UNL     1      48.432  18.096  39.893  1.00  0.00     0.186 HD
HETATM    4  C13 UNL     1      49.652  18.209  41.540  1.00  0.00     0.141 A 
HETATM    5  N4  UNL     1      49.433  16.897  41.858  1.00  0.00    -0.337 N 
ATOM      6  H4  UNL     1      48.815  16.326  41.282  1.00  0.00     0.168 HD
HETATM    7  C14 UNL     1      50.024  16.376  42.909  1.00  0.00     0.183 A 
HETATM    8  N5  UNL     1      50.831  17.134  43.653  1.00  0.00    -0.338 N 
ATOM      9  H5  UNL     1      51.284  16.717  44.467  1.00  0.00     0.168 HD
HETATM   10  C15 UNL     1      51.074  18.448  43.370  1.00  0.00     0.118 A 
HETATM   11  C16 UNL     1      50.468  19.012  42.280  1.00  0.00     0.111 A 
HETATM   12  C17 UNL     1      50.720  20.358  41.971  1.00  0.00     0.210 A 
HETATM   13  N8  UNL     1      50.030  20.758  40.811  1.00  0.00    -0.163 N 
ATOM     14  H8  UNL     1      50.150  21.722  40.502  1.00  0.00     0.187 HD
ENDROOT
BRANCH   1  15
HETATM   15  N2  UNL     1      48.602  20.445  38.920  1.00  0.00    -0.217 N 
HETATM   16  C11 UNL     1      47.802  19.512  38.163  1.00  0.00     0.141 C 
HETATM   17  C10 UNL     1      46.442  20.020  37.860  1.00  0.00     0.025 C 
HETATM   18  C9  UNL     1      46.302  21.462  38.192  1.00  0.00    -0.005 C 
HETATM   19  C24 UNL     1      47.462  22.339  37.904  1.00  0.00     0.032 C 
HETATM   20  C23 UNL     1      48.748  21.813  38.508  1.00  0.00     0.148 C 
BRANCH  18  21
HETATM   21  C8  UNL     1      45.078  21.961  37.408  1.00  0.00     0.014 C 
BRANCH  21  22
HETATM   22  C7  UNL     1      44.689  20.958  36.362  1.00  0.00     0.103 C 
BRANCH  22  23
HETATM   23  C6  UNL     1      44.607  21.653  35.038  1.00  0.00     0.221 C 
HETATM   24  N1  UNL     1      44.584  23.052  34.935  1.00  0.00    -0.340 N 
ATOM     25  H1  UNL     1      44.603  23.527  35.837  1.00  0.00     0.167 HD
HETATM   26  O1  UNL     1      44.560  20.930  34.022  1.00  0.00    -0.273 OA
BRANCH  24  27
HETATM   27  C5  UNL     1      44.539  23.926  33.842  1.00  0.00     0.068 C 
BRANCH  27  28
HETATM   28  C3  UNL     1      45.786  24.435  33.211  1.00  0.00     0.019 C 
HETATM   29  C4  UNL     1      45.515  25.937  32.959  1.00  0.00     0.015 C 
BRANCH  28  30
HETATM   30  C2  UNL     1      46.210  23.765  31.966  1.00  0.00     0.005 C 
HETATM   31  C1  UNL     1      45.578  24.450  30.739  1.00  0.00     0.006 C 
ENDBRANCH  28  30
ENDBRANCH  27  28
ENDBRANCH  24  27
ENDBRANCH  22  23
ENDBRANCH  21  22
ENDBRANCH  18  21
BRANCH  19  32
HETATM   32  C25 UNL     1      47.664  22.691  36.480  1.00  0.00     0.170 C 
BRANCH  32  33
HETATM   33  O2  UNL     1      47.405  24.012  36.188  1.00  0.00    -0.400 OA
ATOM     34  H2  UNL     1      48.178  24.565  36.182  1.00  0.00     0.209 HD
ENDBRANCH  32  33
ENDBRANCH  19  32
ENDBRANCH   1  15
BRANCH  12  35
HETATM   35  N7  UNL     1      51.398  21.157  42.531  1.00  0.00    -0.402 NA
BRANCH  35  36
HETATM   36  C18 UNL     1      52.153  22.046  43.154  1.00  0.00     0.158 C 
BRANCH  36  37
HETATM   37  C19 UNL     1      53.025  23.038  42.390  1.00  0.00     0.063 C 
BRANCH  37  38
HETATM   38  C20 UNL     1      52.716  24.437  42.778  1.00  0.00    -0.017 C 
HETATM   39  C21 UNL     1      53.017  25.474  41.720  1.00  0.00     0.010 C 
HETATM   40  C22 UNL     1      53.517  24.808  44.035  1.00  0.00     0.010 C 
ENDBRANCH  37  38
ENDBRANCH  36  37
ENDBRANCH  35  36
ENDBRANCH  12  35
BRANCH  10  41
HETATM   41  N6  UNL     1      51.872  19.121  44.089  1.00  0.00    -0.385 N 
ATOM     42  H62 UNL     1      52.347  18.692  44.883  1.00  0.00     0.157 HD
ATOM     43  H61 UNL     1      52.031  20.111  43.896  1.00  0.00     0.157 HD
ENDBRANCH  10  41
TORSDOF 14
ENDMDL
MODEL 4
REMARK VINA RESULT: -7.735340020      1.612      2.308
REMARK  14 active torsions:
REMARK  status: ('A' for Active; 'I' for Inactive)
REMARK    1  A    between atoms: C2_2  and  C3_3 
REMARK    2  A    between atoms: C3_3  and  C5_5 
REMARK    3  A    between atoms: C5_5  and  N1_6 
REMARK       I    between atoms: N1_6  and  C6_8 
REMARK    4  A    between atoms: C6_8  and  C7_10 
REMARK    5  A    between atoms: C7_10  and  C8_11 
REMARK    6  A    between atoms: C8_11  and  C9_12 
REMARK    7  A    between atoms: N2_15  and  C12_16 
REMARK    8  A    between atoms: C15_25  and  N6_26 
REMARK    9  A    between atoms: C17_30  and  N7_31 
REMARK   10  A    between atoms: N7_31  and  C18_32 
REMARK   11  A    between atoms: C18_32  and  C19_33 
REMARK   12  A    between atoms: C19_33  and  C20_34 
REMARK   13  A    between atoms: C24_40  and  C25_41 
REMARK   14  A    between atoms: C25_41  and  O2_42 
ROOT
HETATM    1  C12 UNL     1      46.983  19.038  38.313  1.00  0.00     0.684 A 
HETATM    2  N3  UNL     1      47.039  18.704  39.630  1.00  0.00    -0.175 N 
ATOM      3  H3  UNL     1      46.689  19.346  40.340  1.00  0.00     0.186 HD
HETATM    4  C13 UNL     1      47.560  17.523  39.982  1.00  0.00     0.141 A 
HETATM    5  N4  UNL     1      47.589  17.215  41.315  1.00  0.00    -0.337 N 
ATOM      6  H4  UNL     1      47.233  17.880  42.003  1.00  0.00     0.168 HD
HETATM    7  C14 UNL     1      48.076  16.059  41.705  1.00  0.00     0.183 A 
HETATM    8  N5  UNL     1      48.537  15.200  40.795  1.00  0.00    -0.338 N 
ATOM      9  H5  UNL     1      48.913  14.305  41.111  1.00  0.00     0.168 HD
HETATM   10  C15 UNL     1      48.527  15.469  39.456  1.00  0.00     0.118 A 
HETATM   11  C16 UNL     1      48.025  16.668  39.027  1.00  0.00     0.111 A 
HETATM   12  C17 UNL     1      47.997  16.951  37.653  1.00  0.00     0.210 A 
HETATM   13  N8  UNL     1      47.431  18.215  37.399  1.00  0.00    -0.163 N 
ATOM     14  H8  UNL     1      47.364  18.513  36.426  1.00  0.00     0.187 HD
ENDROOT
BRANCH   1  15
HETATM   15  N2  UNL     1      46.395  20.287  37.990  1.00  0.00    -0.217 N 
HETATM   16  C11 UNL     1      46.999  21.491  38.507  1.00  0.00     0.141 C 
HETATM   17  C10 UNL     1      47.252  22.512  37.461  1.00  0.00     0.025 C 
HETATM   18  C9  UNL     1      46.603  22.159  36.172  1.00  0.00    -0.005 C 
HETATM   19  C24 UNL     1      45.260  21.535  36.238  1.00  0.00     0.032 C 
HETATM   20  C23 UNL     1      45.225  20.332  37.158  1.00  0.00     0.148 C 
BRANCH  18  21
HETATM   21  C8  UNL     1      46.520  23.463  35.365  1.00  0.00     0.014 C 
BRANCH  21  22
HETATM   22  C7  UNL     1      46.687  23.178  33.901  1.00  0.00     0.103 C 
BRANCH  22  23
HETATM   23  C6  UNL     1      45.533  23.781  33.161  1.00  0.00     0.221 C 
HETATM   24  N1  UNL     1      45.599  25.066  32.604  1.00  0.00    -0.340 N 
ATOM     25  H1  UNL     1      46.485  25.540  32.777  1.00  0.00     0.167 HD
HETATM   26  O1  UNL     1      44.503  23.085  33.058  1.00  0.00    -0.273 OA
BRANCH  24  27
HETATM   27  C5  UNL     1      44.692  25.831  31.859  1.00  0.00     0.068 C 
BRANCH  27  28
HETATM   28  C3  UNL     1      44.774  25.893  30.376  1.00  0.00     0.019 C 
HETATM   29  C4  UNL     1      43.425  26.507  29.933  1.00  0.00     0.015 C 
BRANCH  28  30
HETATM   30  C2  UNL     1      45.019  24.616  29.679  1.00  0.00     0.005 C 
HETATM   31  C1  UNL     1      45.787  24.855  28.363  1.00  0.00     0.006 C 
ENDBRANCH  28  30
ENDBRANCH  27  28
ENDBRANCH  24  27
ENDBRANCH  22  23
ENDBRANCH  21  22
ENDBRANCH  18  21
BRANCH  19  32
HETATM   32  C25 UNL     1      44.139  22.454  36.544  1.00  0.00     0.170 C 
BRANCH  32  33
HETATM   33  O2  UNL     1      43.505  22.185  37.737  1.00  0.00    -0.400 OA
ATOM     34  H2  UNL     1      42.632  22.554  37.802  1.00  0.00     0.209 HD
ENDBRANCH  32  33
ENDBRANCH  19  32
ENDBRANCH   1  15
BRANCH  12  35
HETATM   35  N7  UNL     1      48.371  16.302  36.731  1.00  0.00    -0.402 NA
BRANCH  35  36
HETATM   36  C18 UNL     1      48.786  15.579  35.705  1.00  0.00     0.158 C 
BRANCH  36  37
HETATM   37  C19 UNL     1      49.659  16.171  34.603  1.00  0.00     0.063 C 
BRANCH  37  38
HETATM   38  C20 UNL     1      48.947  16.188  33.301  1.00  0.00    -0.017 C 
HETATM   39  C21 UNL     1      49.640  16.962  32.204  1.00  0.00     0.010 C 
HETATM   40  C22 UNL     1      47.551  16.800  33.491  1.00  0.00     0.010 C 
ENDBRANCH  37  38
ENDBRANCH  36  37
ENDBRANCH  35  36
ENDBRANCH  12  35
BRANCH  10  41
HETATM   41  N6  UNL     1      48.949  14.608  38.626  1.00  0.00    -0.385 N 
ATOM     42  H62 UNL     1      48.664  13.631  38.699  1.00  0.00     0.157 HD
ATOM     43  H61 UNL     1      49.598  14.879  37.887  1.00  0.00     0.157 HD
ENDBRANCH  10  41
TORSDOF 14
ENDMDL
MODEL 5
REMARK VINA RESULT: -7.726244483      0.754      1.086
REMARK  14 active torsions:
REMARK  status: ('A' for Active; 'I' for Inactive)
REMARK    1  A    between atoms: C2_2  and  C3_3 
REMARK    2  A    between atoms: C3_3  and  C5_5 
REMARK    3  A    between atoms: C5_5  and  N1_6 
REMARK       I    between atoms: N1_6  and  C6_8 
REMARK    4  A    between atoms: C6_8  and  C7_10 
REMARK    5  A    between atoms: C7_10  and  C8_11 
REMARK    6  A    between atoms: C8_11  and  C9_12 
REMARK    7  A    between atoms: N2_15  and  C12_16 
REMARK    8  A    between atoms: C15_25  and  N6_26 
REMARK    9  A    between atoms: C17_30  and  N7_31 
REMARK   10  A    between atoms: N7_31  and  C18_32 
REMARK   11  A    between atoms: C18_32  and  C19_33 
REMARK   12  A    between atoms: C19_33  and  C20_34 
REMARK   13  A    between atoms: C24_40  and  C25_41 
REMARK   14  A    between atoms: C25_41  and  O2_42 
ROOT
HETATM    1  C12 UNL     1      47.322  17.350  37.526  1.00  0.00     0.684 A 
HETATM    2  N3  UNL     1      47.179  16.264  38.332  1.00  0.00    -0.175 N 
ATOM      3  H3  UNL     1      46.788  16.365  39.269  1.00  0.00     0.186 HD
HETATM    4  C13 UNL     1      47.557  15.062  37.883  1.00  0.00     0.141 A 
HETATM    5  N4  UNL     1      47.387  13.991  38.717  1.00  0.00    -0.337 N 
ATOM      6  H4  UNL     1      46.996  14.125  39.650  1.00  0.00     0.168 HD
HETATM    7  C14 UNL     1      47.730  12.790  38.310  1.00  0.00     0.183 A 
HETATM    8  N5  UNL     1      48.239  12.630  37.088  1.00  0.00    -0.338 N 
ATOM      9  H5  UNL     1      48.501  11.691  36.785  1.00  0.00     0.168 HD
HETATM   10  C15 UNL     1      48.425  13.672  36.226  1.00  0.00     0.118 A 
HETATM   11  C16 UNL     1      48.077  14.933  36.629  1.00  0.00     0.111 A 
HETATM   12  C17 UNL     1      48.252  16.011  35.747  1.00  0.00     0.210 A 
HETATM   13  N8  UNL     1      47.822  17.222  36.323  1.00  0.00    -0.163 N 
ATOM     14  H8  UNL     1      47.907  18.067  35.758  1.00  0.00     0.187 HD
ENDROOT
BRANCH   1  15
HETATM   15  N2  UNL     1      46.878  18.595  38.038  1.00  0.00    -0.217 N 
HETATM   16  C11 UNL     1      47.741  19.321  38.938  1.00  0.00     0.141 C 
HETATM   17  C10 UNL     1      47.946  20.734  38.538  1.00  0.00     0.025 C 
HETATM   18  C9  UNL     1      47.025  21.141  37.445  1.00  0.00    -0.005 C 
HETATM   19  C24 UNL     1      45.640  20.617  37.498  1.00  0.00     0.032 C 
HETATM   20  C23 UNL     1      45.595  19.110  37.649  1.00  0.00     0.148 C 
BRANCH  18  21
HETATM   21  C8  UNL     1      46.992  22.676  37.467  1.00  0.00     0.014 C 
BRANCH  21  22
HETATM   22  C7  UNL     1      47.631  23.226  36.224  1.00  0.00     0.103 C 
BRANCH  22  23
HETATM   23  C6  UNL     1      46.627  23.192  35.113  1.00  0.00     0.221 C 
HETATM   24  N1  UNL     1      47.009  23.272  33.766  1.00  0.00    -0.340 N 
ATOM     25  H1  UNL     1      48.014  23.377  33.634  1.00  0.00     0.167 HD
HETATM   26  O1  UNL     1      45.428  23.089  35.439  1.00  0.00    -0.273 OA
BRANCH  24  27
HETATM   27  C5  UNL     1      46.286  23.236  32.567  1.00  0.00     0.068 C 
BRANCH  27  28
HETATM   28  C3  UNL     1      45.438  24.382  32.144  1.00  0.00     0.019 C 
HETATM   29  C4  UNL     1      45.619  24.459  30.610  1.00  0.00     0.015 C 
BRANCH  28  30
HETATM   30  C2  UNL     1      45.737  25.684  32.771  1.00  0.00     0.005 C 
HETATM   31  C1  UNL     1      44.929  26.809  32.094  1.00  0.00     0.006 C 
ENDBRANCH  28  30
ENDBRANCH  27  28
ENDBRANCH  24  27
ENDBRANCH  22  23
ENDBRANCH  21  22
ENDBRANCH  18  21
BRANCH  19  32
HETATM   32  C25 UNL     1      44.745  21.264  38.486  1.00  0.00     0.170 C 
BRANCH  32  33
HETATM   33  O2  UNL     1      43.724  21.996  37.921  1.00  0.00    -0.400 OA
ATOM     34  H2  UNL     1      42.856  21.668  38.124  1.00  0.00     0.209 HD
ENDBRANCH  32  33
ENDBRANCH  19  32
ENDBRANCH   1  15
BRANCH  12  35
HETATM   35  N7  UNL     1      48.693  16.033  34.644  1.00  0.00    -0.402 NA
BRANCH  35  36
HETATM   36  C18 UNL     1      49.183  16.056  33.417  1.00  0.00     0.158 C 
BRANCH  36  37
HETATM   37  C19 UNL     1      48.522  16.859  32.300  1.00  0.00     0.063 C 
BRANCH  37  38
HETATM   38  C20 UNL     1      49.502  17.230  31.250  1.00  0.00    -0.017 C 
HETATM   39  C21 UNL     1      49.354  16.483  29.945  1.00  0.00     0.010 C 
HETATM   40  C22 UNL     1      50.926  16.981  31.769  1.00  0.00     0.010 C 
ENDBRANCH  37  38
ENDBRANCH  36  37
ENDBRANCH  35  36
ENDBRANCH  12  35
BRANCH  10  41
HETATM   41  N6  UNL     1      48.886  13.467  35.063  1.00  0.00    -0.385 N 
ATOM     42  H62 UNL     1      49.009  14.239  34.408  1.00  0.00     0.157 HD
ATOM     43  H61 UNL     1      49.118  12.521  34.759  1.00  0.00     0.157 HD
ENDBRANCH  10  41
TORSDOF 14
ENDMDL
