MODEL 1
REMARK VINA RESULT: -7.059508639      0.000      0.000
REMARK  13 active torsions:
REMARK  status: ('A' for Active; 'I' for Inactive)
REMARK    1  A    between atoms: C2_2  and  C3_3 
REMARK    2  A    between atoms: C3_3  and  N1_4 
REMARK    3  A    between atoms: N1_4  and  C4_6 
REMARK    4  A    between atoms: C6_9  and  N3_10 
REMARK       I    between atoms: N3_10  and  C7_12 
REMARK    5  A    between atoms: C12_20  and  C13_21 
REMARK       I    between atoms: C13_21  and  N5_23 
REMARK    6  A    between atoms: N5_23  and  C14_25 
REMARK    7  A    between atoms: C14_25  and  C15_26 
REMARK    8  A    between atoms: C15_26  and  C16_27 
REMARK    9  A    between atoms: C16_27  and  C17_28 
REMARK   10  A    between atoms: N6_30  and  C19_31 
REMARK   11  A    between atoms: N7_34  and  C22_35 
REMARK   12  A    between atoms: C22_35  and  C23_36 
REMARK   13  A    between atoms: C23_36  and  N8_37 
ROOT
HETATM    1  C4  UNL     1      51.967  19.692  39.813  1.00  0.00     0.070 A 
HETATM    2  C5  UNL     1      52.073  18.400  40.232  1.00  0.00     0.117 A 
HETATM    3  N2  UNL     1      53.270  17.920  40.787  1.00  0.00    -0.096 NA
HETATM    4  C6  UNL     1      50.992  17.572  40.104  1.00  0.00     0.136 A 
HETATM    5  N4  UNL     1      49.851  18.033  39.574  1.00  0.00    -0.326 N 
ATOM      6  H4  UNL     1      49.058  17.396  39.488  1.00  0.00     0.169 HD
HETATM    7  C9  UNL     1      49.708  19.329  39.143  1.00  0.00     0.127 A 
HETATM    8  C10 UNL     1      50.780  20.157  39.267  1.00  0.00     0.039 A 
HETATM    9  C11 UNL     1      50.389  21.361  38.776  1.00  0.00     0.053 A 
HETATM   10  C12 UNL     1      49.052  21.271  38.342  1.00  0.00     0.109 A 
HETATM   11  N6  UNL     1      48.652  20.014  38.577  1.00  0.00    -0.297 N 
ENDROOT
BRANCH  11  12
HETATM   12  C19 UNL     1      47.427  19.404  38.358  1.00  0.00     0.031 C 
HETATM   13  C20 UNL     1      47.213  18.190  37.552  1.00  0.00     0.085 C 
HETATM   14  C21 UNL     1      45.648  18.264  37.520  1.00  0.00     0.279 C 
HETATM   15  N7  UNL     1      45.293  18.833  38.851  1.00  0.00     0.100 N 
HETATM   16  C24 UNL     1      46.513  19.090  39.523  1.00  0.00     0.265 C 
HETATM   17  C25 UNL     1      46.563  20.079  40.608  1.00  0.00     0.049 C 
BRANCH  15  18
HETATM   18  C22 UNL     1      44.381  19.869  38.575  1.00  0.00     0.300 C 
BRANCH  18  19
HETATM   19  C23 UNL     1      44.728  20.881  37.534  1.00  0.00     0.259 C 
BRANCH  19  20
HETATM   20  N8  UNL     1      43.978  22.100  37.792  1.00  0.00    -0.078 N 
ATOM     21  H83 UNL     1      42.994  21.916  37.991  1.00  0.00     0.274 HD
ATOM     22  H82 UNL     1      44.226  22.528  38.684  1.00  0.00     0.274 HD
ATOM     23  H81 UNL     1      44.102  22.738  37.007  1.00  0.00     0.274 HD
ENDBRANCH  19  20
ENDBRANCH  18  19
ENDBRANCH  15  18
ENDBRANCH  11  12
BRANCH  10  24
HETATM   24  C13 UNL     1      48.373  22.418  37.793  1.00  0.00     0.268 C 
HETATM   25  O2  UNL     1      48.093  23.411  38.436  1.00  0.00    -0.266 OA
HETATM   26  N5  UNL     1      47.990  22.441  36.421  1.00  0.00    -0.356 N 
ATOM     27  H5  UNL     1      48.207  21.630  35.842  1.00  0.00     0.162 HD
BRANCH  26  28
HETATM   28  C14 UNL     1      47.306  23.561  35.811  1.00  0.00     0.123 C 
BRANCH  28  29
HETATM   29  C15 UNL     1      46.405  23.186  34.670  1.00  0.00     0.020 C 
BRANCH  29  30
HETATM   30  C16 UNL     1      46.504  24.267  33.616  1.00  0.00     0.001 C 
BRANCH  30  31
HETATM   31  C17 UNL     1      45.204  24.906  33.266  1.00  0.00    -0.004 C 
HETATM   32  C18 UNL     1      45.343  26.219  32.539  1.00  0.00     0.005 C 
ENDBRANCH  30  31
ENDBRANCH  29  30
ENDBRANCH  28  29
ENDBRANCH  26  28
ENDBRANCH  10  24
BRANCH   4  33
HETATM   33  N3  UNL     1      51.058  16.331  40.495  1.00  0.00    -0.312 N 
HETATM   34  C7  UNL     1      50.136  15.851  41.441  1.00  0.00     0.219 C 
HETATM   35  C8  UNL     1      50.371  16.045  42.891  1.00  0.00     0.117 C 
HETATM   36  O1  UNL     1      49.084  15.241  41.054  1.00  0.00    -0.274 OA
ATOM     37  H3  UNL     1      51.775  15.711  40.117  1.00  0.00     0.170 HD
ENDBRANCH   4  33
BRANCH   1  38
HETATM   38  N1  UNL     1      53.081  20.560  39.937  1.00  0.00    -0.384 N 
ATOM     39  H1  UNL     1      53.878  20.443  39.312  1.00  0.00     0.160 HD
BRANCH  38  40
HETATM   40  C3  UNL     1      53.107  21.605  40.932  1.00  0.00     0.146 C 
BRANCH  40  41
HETATM   41  C2  UNL     1      53.550  22.860  40.266  1.00  0.00    -0.018 C 
HETATM   42  C1  UNL     1      53.054  24.035  40.614  1.00  0.00     0.008 C 
ENDBRANCH  40  41
ENDBRANCH  38  40
ENDBRANCH   1  38
TORSDOF 13
ENDMDL
MODEL 2
REMARK VINA RESULT: -6.580222186      1.829      6.702
REMARK  13 active torsions:
REMARK  status: ('A' for Active; 'I' for Inactive)
REMARK    1  A    between atoms: C2_2  and  C3_3 
REMARK    2  A    between atoms: C3_3  and  N1_4 
REMARK    3  A    between atoms: N1_4  and  C4_6 
REMARK    4  A    between atoms: C6_9  and  N3_10 
REMARK       I    between atoms: N3_10  and  C7_12 
REMARK    5  A    between atoms: C12_20  and  C13_21 
REMARK       I    between atoms: C13_21  and  N5_23 
REMARK    6  A    between atoms: N5_23  and  C14_25 
REMARK    7  A    between atoms: C14_25  and  C15_26 
REMARK    8  A    between atoms: C15_26  and  C16_27 
REMARK    9  A    between atoms: C16_27  and  C17_28 
REMARK   10  A    between atoms: N6_30  and  C19_31 
REMARK   11  A    between atoms: N7_34  and  C22_35 
REMARK   12  A    between atoms: C22_35  and  C23_36 
REMARK   13  A    between atoms: C23_36  and  N8_37 
ROOT
HETATM    1  C4  UNL     1      47.230  21.530  37.846  1.00  0.00     0.070 A 
HETATM    2  C5  UNL     1      46.179  20.666  37.776  1.00  0.00     0.117 A 
HETATM    3  N2  UNL     1      44.937  21.084  37.275  1.00  0.00    -0.096 NA
HETATM    4  C6  UNL     1      46.353  19.378  38.201  1.00  0.00     0.136 A 
HETATM    5  N4  UNL     1      47.540  18.980  38.679  1.00  0.00    -0.326 N 
ATOM      6  H4  UNL     1      47.645  18.015  38.991  1.00  0.00     0.169 HD
HETATM    7  C9  UNL     1      48.620  19.824  38.763  1.00  0.00     0.127 A 
HETATM    8  C10 UNL     1      48.454  21.106  38.342  1.00  0.00     0.039 A 
HETATM    9  C11 UNL     1      49.648  21.725  38.527  1.00  0.00     0.053 A 
HETATM   10  C12 UNL     1      50.566  20.807  39.072  1.00  0.00     0.109 A 
HETATM   11  N6  UNL     1      49.914  19.644  39.209  1.00  0.00    -0.297 N 
ENDROOT
BRANCH  11  12
HETATM   12  C19 UNL     1      50.354  18.415  39.676  1.00  0.00     0.031 C 
HETATM   13  C20 UNL     1      51.265  17.508  38.955  1.00  0.00     0.085 C 
HETATM   14  C21 UNL     1      51.085  16.275  39.904  1.00  0.00     0.279 C 
HETATM   15  N7  UNL     1      50.908  16.887  41.251  1.00  0.00     0.100 N 
HETATM   16  C24 UNL     1      50.937  18.291  41.068  1.00  0.00     0.265 C 
HETATM   17  C25 UNL     1      50.312  19.177  42.058  1.00  0.00     0.049 C 
BRANCH  15  18
HETATM   18  C22 UNL     1      49.781  16.247  41.800  1.00  0.00     0.300 C 
BRANCH  18  19
HETATM   19  C23 UNL     1      48.596  15.993  40.927  1.00  0.00     0.259 C 
BRANCH  19  20
HETATM   20  N8  UNL     1      47.477  16.785  41.411  1.00  0.00    -0.078 N 
ATOM     21  H83 UNL     1      47.027  16.367  42.225  1.00  0.00     0.274 HD
ATOM     22  H82 UNL     1      47.777  17.658  41.846  1.00  0.00     0.274 HD
ATOM     23  H81 UNL     1      46.823  16.938  40.643  1.00  0.00     0.274 HD
ENDBRANCH  19  20
ENDBRANCH  18  19
ENDBRANCH  15  18
ENDBRANCH  11  12
BRANCH  10  24
HETATM   24  C13 UNL     1      51.926  21.194  39.351  1.00  0.00     0.268 C 
HETATM   25  O2  UNL     1      52.889  20.772  38.741  1.00  0.00    -0.266 OA
HETATM   26  N5  UNL     1      52.212  22.127  40.389  1.00  0.00    -0.356 N 
ATOM     27  H5  UNL     1      51.434  22.510  40.926  1.00  0.00     0.162 HD
BRANCH  26  28
HETATM   28  C14 UNL     1      53.554  22.556  40.718  1.00  0.00     0.123 C 
BRANCH  28  29
HETATM   29  C15 UNL     1      53.971  23.838  40.059  1.00  0.00     0.020 C 
BRANCH  29  30
HETATM   30  C16 UNL     1      52.909  24.879  40.340  1.00  0.00     0.001 C 
BRANCH  30  31
HETATM   31  C17 UNL     1      52.991  25.491  41.696  1.00  0.00    -0.004 C 
HETATM   32  C18 UNL     1      54.387  25.877  42.111  1.00  0.00     0.005 C 
ENDBRANCH  30  31
ENDBRANCH  29  30
ENDBRANCH  28  29
ENDBRANCH  26  28
ENDBRANCH  10  24
BRANCH   4  33
HETATM   33  N3  UNL     1      45.369  18.524  38.147  1.00  0.00    -0.312 N 
HETATM   34  C7  UNL     1      45.624  17.196  37.763  1.00  0.00     0.219 C 
HETATM   35  C8  UNL     1      45.680  16.821  36.331  1.00  0.00     0.117 C 
HETATM   36  O1  UNL     1      45.808  16.299  38.652  1.00  0.00    -0.274 OA
ATOM     37  H3  UNL     1      44.421  18.817  38.382  1.00  0.00     0.170 HD
ENDBRANCH   4  33
BRANCH   1  38
HETATM   38  N1  UNL     1      47.063  22.868  37.411  1.00  0.00    -0.384 N 
ATOM     39  H1  UNL     1      46.525  23.518  37.985  1.00  0.00     0.160 HD
BRANCH  38  40
HETATM   40  C3  UNL     1      47.640  23.329  36.172  1.00  0.00     0.146 C 
BRANCH  40  41
HETATM   41  C2  UNL     1      46.591  23.248  35.119  1.00  0.00    -0.018 C 
HETATM   42  C1  UNL     1      46.505  24.157  34.162  1.00  0.00     0.008 C 
ENDBRANCH  40  41
ENDBRANCH  38  40
ENDBRANCH   1  38
TORSDOF 13
ENDMDL
MODEL 3
REMARK VINA RESULT: -6.574980003      2.434      6.963
REMARK  13 active torsions:
REMARK  status: ('A' for Active; 'I' for Inactive)
REMARK    1  A    between atoms: C2_2  and  C3_3 
REMARK    2  A    between atoms: C3_3  and  N1_4 
REMARK    3  A    between atoms: N1_4  and  C4_6 
REMARK    4  A    between atoms: C6_9  and  N3_10 
REMARK       I    between atoms: N3_10  and  C7_12 
REMARK    5  A    between atoms: C12_20  and  C13_21 
REMARK       I    between atoms: C13_21  and  N5_23 
REMARK    6  A    between atoms: N5_23  and  C14_25 
REMARK    7  A    between atoms: C14_25  and  C15_26 
REMARK    8  A    between atoms: C15_26  and  C16_27 
REMARK    9  A    between atoms: C16_27  and  C17_28 
REMARK   10  A    between atoms: N6_30  and  C19_31 
REMARK   11  A    between atoms: N7_34  and  C22_35 
REMARK   12  A    between atoms: C22_35  and  C23_36 
REMARK   13  A    between atoms: C23_36  and  N8_37 
ROOT
HETATM    1  C4  UNL     1      48.174  19.801  38.955  1.00  0.00     0.070 A 
HETATM    2  C5  UNL     1      47.417  18.858  39.583  1.00  0.00     0.117 A 
HETATM    3  N2  UNL     1      46.129  18.546  39.120  1.00  0.00    -0.096 NA
HETATM    4  C6  UNL     1      47.931  18.217  40.676  1.00  0.00     0.136 A 
HETATM    5  N4  UNL     1      49.161  18.517  41.116  1.00  0.00    -0.326 N 
ATOM      6  H4  UNL     1      49.523  18.026  41.933  1.00  0.00     0.169 HD
HETATM    7  C9  UNL     1      49.951  19.461  40.507  1.00  0.00     0.127 A 
HETATM    8  C10 UNL     1      49.445  20.103  39.420  1.00  0.00     0.039 A 
HETATM    9  C11 UNL     1      50.404  20.972  39.011  1.00  0.00     0.053 A 
HETATM   10  C12 UNL     1      51.521  20.863  39.862  1.00  0.00     0.109 A 
HETATM   11  N6  UNL     1      51.222  19.928  40.775  1.00  0.00    -0.297 N 
ENDROOT
BRANCH  11  12
HETATM   12  C19 UNL     1      51.974  19.422  41.824  1.00  0.00     0.031 C 
HETATM   13  C20 UNL     1      53.240  18.681  41.683  1.00  0.00     0.085 C 
HETATM   14  C21 UNL     1      53.341  18.207  43.173  1.00  0.00     0.279 C 
HETATM   15  N7  UNL     1      52.756  19.340  43.946  1.00  0.00     0.100 N 
HETATM   16  C24 UNL     1      52.336  20.305  42.999  1.00  0.00     0.265 C 
HETATM   17  C25 UNL     1      51.300  21.284  43.354  1.00  0.00     0.049 C 
BRANCH  15  18
HETATM   18  C22 UNL     1      51.843  18.744  44.834  1.00  0.00     0.300 C 
BRANCH  18  19
HETATM   19  C23 UNL     1      51.711  17.257  44.848  1.00  0.00     0.259 C 
BRANCH  19  20
HETATM   20  N8  UNL     1      50.341  16.901  44.516  1.00  0.00    -0.078 N 
ATOM     21  H83 UNL     1      49.759  16.779  45.345  1.00  0.00     0.274 HD
ATOM     22  H82 UNL     1      49.829  17.676  44.095  1.00  0.00     0.274 HD
ATOM     23  H81 UNL     1      50.348  16.072  43.923  1.00  0.00     0.274 HD
ENDBRANCH  19  20
ENDBRANCH  18  19
ENDBRANCH  15  18
ENDBRANCH  11  12
BRANCH  10  24
HETATM   24  C13 UNL     1      52.702  21.661  39.643  1.00  0.00     0.268 C 
HETATM   25  O2  UNL     1      53.600  21.347  38.886  1.00  0.00    -0.266 OA
HETATM   26  N5  UNL     1      52.871  22.900  40.324  1.00  0.00    -0.356 N 
ATOM     27  H5  UNL     1      52.140  23.205  40.967  1.00  0.00     0.162 HD
BRANCH  26  28
HETATM   28  C14 UNL     1      54.032  23.747  40.148  1.00  0.00     0.123 C 
BRANCH  28  29
HETATM   29  C15 UNL     1      53.730  25.217  40.160  1.00  0.00     0.020 C 
BRANCH  29  30
HETATM   30  C16 UNL     1      52.829  25.504  41.342  1.00  0.00     0.001 C 
BRANCH  30  31
HETATM   31  C17 UNL     1      53.522  25.494  42.661  1.00  0.00    -0.004 C 
HETATM   32  C18 UNL     1      52.793  24.719  43.728  1.00  0.00     0.005 C 
ENDBRANCH  30  31
ENDBRANCH  29  30
ENDBRANCH  28  29
ENDBRANCH  26  28
ENDBRANCH  10  24
BRANCH   4  33
HETATM   33  N3  UNL     1      47.235  17.308  41.299  1.00  0.00    -0.312 N 
HETATM   34  C7  UNL     1      47.767  16.017  41.462  1.00  0.00     0.219 C 
HETATM   35  C8  UNL     1      47.634  15.005  40.389  1.00  0.00     0.117 C 
HETATM   36  O1  UNL     1      48.370  15.707  42.543  1.00  0.00    -0.274 OA
ATOM     37  H3  UNL     1      46.311  17.533  41.667  1.00  0.00     0.170 HD
ENDBRANCH   4  33
BRANCH   1  38
HETATM   38  N1  UNL     1      47.652  20.476  37.824  1.00  0.00    -0.384 N 
ATOM     39  H1  UNL     1      47.794  20.079  36.895  1.00  0.00     0.160 HD
BRANCH  38  40
HETATM   40  C3  UNL     1      46.922  21.713  37.961  1.00  0.00     0.146 C 
BRANCH  40  41
HETATM   41  C2  UNL     1      47.729  22.793  37.331  1.00  0.00    -0.018 C 
HETATM   42  C1  UNL     1      47.535  23.151  36.073  1.00  0.00     0.008 C 
ENDBRANCH  40  41
ENDBRANCH  38  40
ENDBRANCH   1  38
TORSDOF 13
ENDMDL
MODEL 4
REMARK VINA RESULT: -6.405994118      1.941      6.896
REMARK  13 active torsions:
REMARK  status: ('A' for Active; 'I' for Inactive)
REMARK    1  A    between atoms: C2_2  and  C3_3 
REMARK    2  A    between atoms: C3_3  and  N1_4 
REMARK    3  A    between atoms: N1_4  and  C4_6 
REMARK    4  A    between atoms: C6_9  and  N3_10 
REMARK       I    between atoms: N3_10  and  C7_12 
REMARK    5  A    between atoms: C12_20  and  C13_21 
REMARK       I    between atoms: C13_21  and  N5_23 
REMARK    6  A    between atoms: N5_23  and  C14_25 
REMARK    7  A    between atoms: C14_25  and  C15_26 
REMARK    8  A    between atoms: C15_26  and  C16_27 
REMARK    9  A    between atoms: C16_27  and  C17_28 
REMARK   10  A    between atoms: N6_30  and  C19_31 
REMARK   11  A    between atoms: N7_34  and  C22_35 
REMARK   12  A    between atoms: C22_35  and  C23_36 
REMARK   13  A    between atoms: C23_36  and  N8_37 
ROOT
HETATM    1  C4  UNL     1      47.312  21.464  37.981  1.00  0.00     0.070 A 
HETATM    2  C5  UNL     1      46.266  20.592  37.959  1.00  0.00     0.117 A 
HETATM    3  N2  UNL     1      45.012  20.986  37.466  1.00  0.00    -0.096 NA
HETATM    4  C6  UNL     1      46.455  19.320  38.424  1.00  0.00     0.136 A 
HETATM    5  N4  UNL     1      47.653  18.946  38.894  1.00  0.00    -0.326 N 
ATOM      6  H4  UNL     1      47.770  17.992  39.237  1.00  0.00     0.169 HD
HETATM    7  C9  UNL     1      48.729  19.799  38.931  1.00  0.00     0.127 A 
HETATM    8  C10 UNL     1      48.547  21.065  38.469  1.00  0.00     0.039 A 
HETATM    9  C11 UNL     1      49.740  21.697  38.612  1.00  0.00     0.053 A 
HETATM   10  C12 UNL     1      50.673  20.803  39.173  1.00  0.00     0.109 A 
HETATM   11  N6  UNL     1      50.031  19.641  39.360  1.00  0.00    -0.297 N 
ENDROOT
BRANCH  11  12
HETATM   12  C19 UNL     1      50.488  18.431  39.860  1.00  0.00     0.031 C 
HETATM   13  C20 UNL     1      51.380  17.499  39.148  1.00  0.00     0.085 C 
HETATM   14  C21 UNL     1      51.229  16.302  40.148  1.00  0.00     0.279 C 
HETATM   15  N7  UNL     1      51.089  16.965  41.475  1.00  0.00     0.100 N 
HETATM   16  C24 UNL     1      51.109  18.361  41.239  1.00  0.00     0.265 C 
HETATM   17  C25 UNL     1      50.511  19.283  42.212  1.00  0.00     0.049 C 
BRANCH  15  18
HETATM   18  C22 UNL     1      49.980  16.344  42.080  1.00  0.00     0.300 C 
BRANCH  18  19
HETATM   19  C23 UNL     1      48.857  15.872  41.218  1.00  0.00     0.259 C 
BRANCH  19  20
HETATM   20  N8  UNL     1      47.667  16.651  41.523  1.00  0.00    -0.078 N 
ATOM     21  H83 UNL     1      47.110  16.233  42.269  1.00  0.00     0.274 HD
ATOM     22  H82 UNL     1      47.888  17.532  41.988  1.00  0.00     0.274 HD
ATOM     23  H81 UNL     1      47.131  16.786  40.667  1.00  0.00     0.274 HD
ENDBRANCH  19  20
ENDBRANCH  18  19
ENDBRANCH  15  18
ENDBRANCH  11  12
BRANCH  10  24
HETATM   24  C13 UNL     1      52.036  21.207  39.414  1.00  0.00     0.268 C 
HETATM   25  O2  UNL     1      53.002  20.661  38.919  1.00  0.00    -0.266 OA
HETATM   26  N5  UNL     1      52.320  22.309  40.272  1.00  0.00    -0.356 N 
ATOM     27  H5  UNL     1      51.538  22.799  40.707  1.00  0.00     0.162 HD
BRANCH  26  28
HETATM   28  C14 UNL     1      53.664  22.764  40.554  1.00  0.00     0.123 C 
BRANCH  28  29
HETATM   29  C15 UNL     1      53.922  23.061  42.003  1.00  0.00     0.020 C 
BRANCH  29  30
HETATM   30  C16 UNL     1      53.013  24.196  42.421  1.00  0.00     0.001 C 
BRANCH  30  31
HETATM   31  C17 UNL     1      52.238  23.937  43.667  1.00  0.00    -0.004 C 
HETATM   32  C18 UNL     1      51.728  22.524  43.788  1.00  0.00     0.005 C 
ENDBRANCH  30  31
ENDBRANCH  29  30
ENDBRANCH  28  29
ENDBRANCH  26  28
ENDBRANCH  10  24
BRANCH   4  33
HETATM   33  N3  UNL     1      45.477  18.459  38.416  1.00  0.00    -0.312 N 
HETATM   34  C7  UNL     1      45.715  17.141  37.989  1.00  0.00     0.219 C 
HETATM   35  C8  UNL     1      45.680  16.797  36.548  1.00  0.00     0.117 C 
HETATM   36  O1  UNL     1      45.963  16.228  38.845  1.00  0.00    -0.274 OA
ATOM     37  H3  UNL     1      44.543  18.739  38.719  1.00  0.00     0.170 HD
ENDBRANCH   4  33
BRANCH   1  38
HETATM   38  N1  UNL     1      47.129  22.786  37.504  1.00  0.00    -0.384 N 
ATOM     39  H1  UNL     1      46.606  23.455  38.070  1.00  0.00     0.160 HD
BRANCH  38  40
HETATM   40  C3  UNL     1      47.668  23.204  36.233  1.00  0.00     0.146 C 
BRANCH  40  41
HETATM   41  C2  UNL     1      46.559  23.199  35.241  1.00  0.00    -0.018 C 
HETATM   42  C1  UNL     1      46.587  23.979  34.174  1.00  0.00     0.008 C 
ENDBRANCH  40  41
ENDBRANCH  38  40
ENDBRANCH   1  38
TORSDOF 13
ENDMDL
MODEL 5
REMARK VINA RESULT: -6.366357563      3.226      5.929
REMARK  13 active torsions:
REMARK  status: ('A' for Active; 'I' for Inactive)
REMARK    1  A    between atoms: C2_2  and  C3_3 
REMARK    2  A    between atoms: C3_3  and  N1_4 
REMARK    3  A    between atoms: N1_4  and  C4_6 
REMARK    4  A    between atoms: C6_9  and  N3_10 
REMARK       I    between atoms: N3_10  and  C7_12 
REMARK    5  A    between atoms: C12_20  and  C13_21 
REMARK       I    between atoms: C13_21  and  N5_23 
REMARK    6  A    between atoms: N5_23  and  C14_25 
REMARK    7  A    between atoms: C14_25  and  C15_26 
REMARK    8  A    between atoms: C15_26  and  C16_27 
REMARK    9  A    between atoms: C16_27  and  C17_28 
REMARK   10  A    between atoms: N6_30  and  C19_31 
REMARK   11  A    between atoms: N7_34  and  C22_35 
REMARK   12  A    between atoms: C22_35  and  C23_36 
REMARK   13  A    between atoms: C23_36  and  N8_37 
ROOT
HETATM    1  C4  UNL     1      48.578  15.165  36.008  1.00  0.00     0.070 A 
HETATM    2  C5  UNL     1      49.875  14.847  36.282  1.00  0.00     0.117 A 
HETATM    3  N2  UNL     1      50.481  13.728  35.689  1.00  0.00    -0.096 NA
HETATM    4  C6  UNL     1      50.581  15.638  37.145  1.00  0.00     0.136 A 
HETATM    5  N4  UNL     1      50.000  16.706  37.709  1.00  0.00    -0.326 N 
ATOM      6  H4  UNL     1      50.547  17.280  38.351  1.00  0.00     0.169 HD
HETATM    7  C9  UNL     1      48.697  17.055  37.455  1.00  0.00     0.127 A 
HETATM    8  C10 UNL     1      47.989  16.273  36.598  1.00  0.00     0.039 A 
HETATM    9  C11 UNL     1      46.749  16.821  36.517  1.00  0.00     0.053 A 
HETATM   10  C12 UNL     1      46.694  17.962  37.342  1.00  0.00     0.109 A 
HETATM   11  N6  UNL     1      47.902  18.089  37.909  1.00  0.00    -0.297 N 
ENDROOT
BRANCH  11  12
HETATM   12  C19 UNL     1      48.389  19.048  38.783  1.00  0.00     0.031 C 
HETATM   13  C20 UNL     1      48.572  20.474  38.465  1.00  0.00     0.085 C 
HETATM   14  C21 UNL     1      49.381  20.848  39.753  1.00  0.00     0.279 C 
HETATM   15  N7  UNL     1      48.790  19.976  40.808  1.00  0.00     0.100 N 
HETATM   16  C24 UNL     1      47.805  19.179  40.174  1.00  0.00     0.265 C 
HETATM   17  C25 UNL     1      47.391  17.904  40.772  1.00  0.00     0.049 C 
BRANCH  15  18
HETATM   18  C22 UNL     1      49.891  19.392  41.460  1.00  0.00     0.300 C 
BRANCH  18  19
HETATM   19  C23 UNL     1      51.266  19.669  40.949  1.00  0.00     0.259 C 
BRANCH  19  20
HETATM   20  N8  UNL     1      51.922  18.407  40.648  1.00  0.00    -0.078 N 
ATOM     21  H83 UNL     1      51.747  17.698  41.360  1.00  0.00     0.274 HD
ATOM     22  H82 UNL     1      51.492  17.924  39.858  1.00  0.00     0.274 HD
ATOM     23  H81 UNL     1      52.917  18.576  40.505  1.00  0.00     0.274 HD
ENDBRANCH  19  20
ENDBRANCH  18  19
ENDBRANCH  15  18
ENDBRANCH  11  12
BRANCH  10  24
HETATM   24  C13 UNL     1      45.494  18.756  37.430  1.00  0.00     0.268 C 
HETATM   25  O2  UNL     1      44.504  18.420  38.050  1.00  0.00    -0.266 OA
HETATM   26  N5  UNL     1      45.414  20.018  36.773  1.00  0.00    -0.356 N 
ATOM     27  H5  UNL     1      46.223  20.341  36.242  1.00  0.00     0.162 HD
BRANCH  26  28
HETATM   28  C14 UNL     1      44.239  20.861  36.823  1.00  0.00     0.123 C 
BRANCH  28  29
HETATM   29  C15 UNL     1      44.473  22.273  36.370  1.00  0.00     0.020 C 
BRANCH  29  30
HETATM   30  C16 UNL     1      45.168  22.229  35.027  1.00  0.00     0.001 C 
BRANCH  30  31
HETATM   31  C17 UNL     1      46.308  23.179  34.891  1.00  0.00    -0.004 C 
HETATM   32  C18 UNL     1      47.270  23.150  36.051  1.00  0.00     0.005 C 
ENDBRANCH  30  31
ENDBRANCH  29  30
ENDBRANCH  28  29
ENDBRANCH  26  28
ENDBRANCH  10  24
BRANCH   4  33
HETATM   33  N3  UNL     1      51.824  15.364  37.429  1.00  0.00    -0.312 N 
HETATM   34  C7  UNL     1      52.794  16.378  37.347  1.00  0.00     0.219 C 
HETATM   35  C8  UNL     1      53.436  16.706  36.053  1.00  0.00     0.117 C 
HETATM   36  O1  UNL     1      53.129  17.026  38.394  1.00  0.00    -0.274 OA
ATOM     37  H3  UNL     1      52.090  14.420  37.708  1.00  0.00     0.170 HD
ENDBRANCH   4  33
BRANCH   1  38
HETATM   38  N1  UNL     1      47.834  14.353  35.117  1.00  0.00    -0.384 N 
ATOM     39  H1  UNL     1      47.623  13.389  35.375  1.00  0.00     0.160 HD
BRANCH  38  40
HETATM   40  C3  UNL     1      47.369  14.864  33.850  1.00  0.00     0.146 C 
BRANCH  40  41
HETATM   41  C2  UNL     1      48.535  15.456  33.139  1.00  0.00    -0.018 C 
HETATM   42  C1  UNL     1      48.508  16.699  32.691  1.00  0.00     0.008 C 
ENDBRANCH  40  41
ENDBRANCH  38  40
ENDBRANCH   1  38
TORSDOF 13
ENDMDL
