MODEL 1
REMARK VINA RESULT: -10.007300237      0.000      0.000
REMARK  10 active torsions:
REMARK  status: ('A' for Active; 'I' for Inactive)
REMARK    1  A    between atoms: C2_2  and  C3_3 
REMARK    2  A    between atoms: C8_8  and  N1_9 
REMARK    3  A    between atoms: C8_8  and  C25_36 
REMARK       I    between atoms: N1_9  and  C9_11 
REMARK    4  A    between atoms: C9_11  and  C10_13 
REMARK    5  A    between atoms: C12_16  and  C14_18 
REMARK    6  A    between atoms: N2_20  and  C15_21 
REMARK    7  A    between atoms: C15_21  and  O2_22 
REMARK    8  A    between atoms: C16_24  and  N3_25 
REMARK    9  A    between atoms: C16_24  and  C19_30 
REMARK       I    between atoms: N3_25  and  C17_27 
REMARK       I    between atoms: C25_36  and  N4_38 
REMARK   10  A    between atoms: N4_38  and  C26_40 
ROOT
HETATM    1  N1  UNL     1      47.757  17.798   9.485  1.00  0.00    -0.341 N 
ATOM      2  H1  UNL     1      48.217  17.884   8.579  1.00  0.00     0.163 HD
HETATM    3  C9  UNL     1      47.430  19.072   9.941  1.00  0.00     0.242 C 
HETATM    4  O1  UNL     1      46.800  19.214  10.994  1.00  0.00    -0.271 OA
ENDROOT
BRANCH   3   5
HETATM    5  C10 UNL     1      47.887  20.169   9.117  1.00  0.00     0.189 C 
HETATM    6  C11 UNL     1      49.449  19.912   8.884  1.00  0.00     0.111 C 
HETATM    7  S1  UNL     1      49.496  20.975   7.413  1.00  0.00    -0.134 SA
HETATM    8  C12 UNL     1      48.128  22.090   7.979  1.00  0.00     0.093 C 
HETATM    9  C13 UNL     1      46.847  21.808   7.195  1.00  0.00     0.052 C 
HETATM   10  N2  UNL     1      47.878  21.564   9.352  1.00  0.00    -0.327 N 
BRANCH   8  11
HETATM   11  C14 UNL     1      48.636  23.421   7.746  1.00  0.00     0.157 C 
HETATM   12 CL1  UNL     1      49.895  23.206   6.411  1.00  0.00    -0.127 Cl
ENDBRANCH   8  11
BRANCH  10  13
HETATM   13  C15 UNL     1      47.549  22.316  10.495  1.00  0.00     0.164 C 
HETATM   14  C16 UNL     1      46.362  22.794  11.171  1.00  0.00     0.067 C 
BRANCH  13  15
HETATM   15  O2  UNL     1      48.636  22.693  11.174  1.00  0.00    -0.345 OA
ATOM     16  H2  UNL     1      49.144  21.948  11.471  1.00  0.00     0.219 HD
ENDBRANCH  13  15
BRANCH  14  17
HETATM   17  N3  UNL     1      45.648  21.732  11.870  1.00  0.00    -0.327 N 
HETATM   18  C17 UNL     1      45.562  21.580  13.265  1.00  0.00     0.218 C 
HETATM   19  C18 UNL     1      44.837  20.479  13.919  1.00  0.00     0.117 C 
HETATM   20  O3  UNL     1      46.145  22.433  14.013  1.00  0.00    -0.274 OA
ATOM     21  H3  UNL     1      45.168  21.039  11.296  1.00  0.00     0.168 HD
ENDBRANCH  14  17
BRANCH  14  22
HETATM   22  C19 UNL     1      45.675  24.019  10.818  1.00  0.00     0.040 C 
HETATM   23  C20 UNL     1      44.271  24.091  11.424  1.00  0.00     0.011 C 
HETATM   24  C21 UNL     1      43.195  24.381  10.430  1.00  0.00     0.001 C 
HETATM   25  C22 UNL     1      43.433  25.665   9.664  1.00  0.00     0.000 C 
HETATM   26  C23 UNL     1      44.910  25.897   9.464  1.00  0.00     0.001 C 
HETATM   27  C24 UNL     1      45.563  24.506   9.431  1.00  0.00     0.011 C 
ENDBRANCH  14  22
ENDBRANCH  10  13
ENDBRANCH   3   5
BRANCH   1  28
HETATM   28  C8  UNL     1      47.679  16.406   9.831  1.00  0.00     0.117 C 
HETATM   29  C6  UNL     1      47.025  15.461   8.970  1.00  0.00     0.020 C 
HETATM   30  C5  UNL     1      47.986  14.958   7.831  1.00  0.00     0.013 C 
HETATM   31  C7  UNL     1      46.486  14.157   9.472  1.00  0.00     0.013 C 
HETATM   32  C4  UNL     1      48.854  13.969   8.516  1.00  0.00    -0.001 A 
HETATM   33  C3  UNL     1      50.350  14.074   8.604  1.00  0.00     0.016 A 
HETATM   34  C32 UNL     1      49.462  14.556   9.736  1.00  0.00     0.001 A 
HETATM   35  C31 UNL     1      49.198  16.014   9.810  1.00  0.00     0.047 C 
BRANCH  33  36
HETATM   36  C2  UNL     1      50.999  12.712   8.677  1.00  0.00    -0.031 C 
HETATM   37  C1  UNL     1      51.746  12.313   7.641  1.00  0.00     0.007 C 
ENDBRANCH  33  36
BRANCH  28  38
HETATM   38  C25 UNL     1      47.390  16.371  11.323  1.00  0.00     0.247 C 
HETATM   39  O4  UNL     1      48.313  16.455  12.173  1.00  0.00    -0.271 OA
HETATM   40  N4  UNL     1      46.077  16.271  11.889  1.00  0.00    -0.347 N 
ATOM     41  H4  UNL     1      45.273  16.214  11.265  1.00  0.00     0.163 HD
BRANCH  40  42
HETATM   42  C26 UNL     1      45.858  16.247  13.324  1.00  0.00     0.158 C 
HETATM   43  C27 UNL     1      45.955  14.913  13.969  1.00  0.00     0.059 C 
HETATM   44  C28 UNL     1      44.619  14.466  14.487  1.00  0.00     0.170 C 
HETATM   45  O5  UNL     1      44.160  15.441  15.383  1.00  0.00    -0.384 OA
HETATM   46  C29 UNL     1      43.603  16.499  14.628  1.00  0.00     0.248 C 
HETATM   47  C30 UNL     1      44.489  16.853  13.517  1.00  0.00     0.172 C 
HETATM   48  O6  UNL     1      44.120  17.668  12.698  1.00  0.00    -0.293 OA
ENDBRANCH  40  42
ENDBRANCH  28  38
ENDBRANCH   1  28
TORSDOF 10
ENDMDL
MODEL 2
REMARK VINA RESULT: -9.798524484      3.352      7.977
REMARK  10 active torsions:
REMARK  status: ('A' for Active; 'I' for Inactive)
REMARK    1  A    between atoms: C2_2  and  C3_3 
REMARK    2  A    between atoms: C8_8  and  N1_9 
REMARK    3  A    between atoms: C8_8  and  C25_36 
REMARK       I    between atoms: N1_9  and  C9_11 
REMARK    4  A    between atoms: C9_11  and  C10_13 
REMARK    5  A    between atoms: C12_16  and  C14_18 
REMARK    6  A    between atoms: N2_20  and  C15_21 
REMARK    7  A    between atoms: C15_21  and  O2_22 
REMARK    8  A    between atoms: C16_24  and  N3_25 
REMARK    9  A    between atoms: C16_24  and  C19_30 
REMARK       I    between atoms: N3_25  and  C17_27 
REMARK       I    between atoms: C25_36  and  N4_38 
REMARK   10  A    between atoms: N4_38  and  C26_40 
ROOT
HETATM    1  N1  UNL     1      46.768  17.310  11.586  1.00  0.00    -0.341 N 
ATOM      2  H1  UNL     1      46.198  18.116  11.329  1.00  0.00     0.163 HD
HETATM    3  C9  UNL     1      46.233  16.735  12.736  1.00  0.00     0.242 C 
HETATM    4  O1  UNL     1      46.720  15.698  13.198  1.00  0.00    -0.271 OA
ENDROOT
BRANCH   3   5
HETATM    5  C10 UNL     1      45.115  17.437  13.326  1.00  0.00     0.189 C 
HETATM    6  C11 UNL     1      45.466  17.576  14.882  1.00  0.00     0.111 C 
HETATM    7  S1  UNL     1      44.307  18.954  15.113  1.00  0.00    -0.134 SA
HETATM    8  C12 UNL     1      43.140  18.404  13.781  1.00  0.00     0.093 C 
HETATM    9  C13 UNL     1      43.273  19.298  12.549  1.00  0.00     0.052 C 
HETATM   10  N2  UNL     1      43.744  17.098  13.391  1.00  0.00    -0.327 N 
BRANCH   8  11
HETATM   11  C14 UNL     1      41.835  18.498  14.392  1.00  0.00     0.157 C 
HETATM   12 CL1  UNL     1      42.000  17.560  15.976  1.00  0.00    -0.127 Cl
ENDBRANCH   8  11
BRANCH  10  13
HETATM   13  C15 UNL     1      43.054  15.927  13.025  1.00  0.00     0.164 C 
HETATM   14  C16 UNL     1      43.285  14.499  12.996  1.00  0.00     0.067 C 
BRANCH  13  15
HETATM   15  O2  UNL     1      41.819  16.191  12.591  1.00  0.00    -0.345 OA
ATOM     16  H2  UNL     1      41.650  15.800  11.742  1.00  0.00     0.219 HD
ENDBRANCH  13  15
BRANCH  14  17
HETATM   17  N3  UNL     1      43.259  13.898  14.324  1.00  0.00    -0.327 N 
HETATM   18  C17 UNL     1      42.103  13.554  15.047  1.00  0.00     0.218 C 
HETATM   19  C18 UNL     1      42.134  12.961  16.393  1.00  0.00     0.117 C 
HETATM   20  O3  UNL     1      40.962  13.768  14.519  1.00  0.00    -0.274 OA
ATOM     21  H3  UNL     1      44.158  13.711  14.768  1.00  0.00     0.168 HD
ENDBRANCH  14  17
BRANCH  14  22
HETATM   22  C19 UNL     1      43.948  13.815  11.905  1.00  0.00     0.040 C 
HETATM   23  C20 UNL     1      42.958  13.099  10.982  1.00  0.00     0.011 C 
HETATM   24  C21 UNL     1      43.274  11.659  10.753  1.00  0.00     0.001 C 
HETATM   25  C22 UNL     1      44.663  11.444  10.192  1.00  0.00     0.000 C 
HETATM   26  C23 UNL     1      45.617  12.486  10.723  1.00  0.00     0.001 C 
HETATM   27  C24 UNL     1      45.082  12.893  12.104  1.00  0.00     0.011 C 
ENDBRANCH  14  22
ENDBRANCH  10  13
ENDBRANCH   3   5
BRANCH   1  28
HETATM   28  C8  UNL     1      47.833  17.177  10.632  1.00  0.00     0.117 C 
HETATM   29  C6  UNL     1      49.089  16.584  10.996  1.00  0.00     0.020 C 
HETATM   30  C5  UNL     1      49.031  15.014  10.908  1.00  0.00     0.013 C 
HETATM   31  C7  UNL     1      50.355  16.856  10.244  1.00  0.00     0.013 C 
HETATM   32  C4  UNL     1      49.147  14.742   9.454  1.00  0.00    -0.001 A 
HETATM   33  C3  UNL     1      48.114  14.006   8.647  1.00  0.00     0.016 A 
HETATM   34  C32 UNL     1      48.143  15.522   8.689  1.00  0.00     0.001 A 
HETATM   35  C31 UNL     1      47.182  16.188   9.602  1.00  0.00     0.047 C 
BRANCH  33  36
HETATM   36  C2  UNL     1      48.738  13.268   7.487  1.00  0.00    -0.031 C 
HETATM   37  C1  UNL     1      49.728  12.405   7.747  1.00  0.00     0.007 C 
ENDBRANCH  33  36
BRANCH  28  38
HETATM   38  C25 UNL     1      47.830  18.471   9.834  1.00  0.00     0.247 C 
HETATM   39  O4  UNL     1      47.666  18.475   8.587  1.00  0.00    -0.271 OA
HETATM   40  N4  UNL     1      47.982  19.775  10.410  1.00  0.00    -0.347 N 
ATOM     41  H4  UNL     1      48.105  19.859  11.419  1.00  0.00     0.163 HD
BRANCH  40  42
HETATM   42  C26 UNL     1      47.967  20.980   9.600  1.00  0.00     0.158 C 
HETATM   43  C27 UNL     1      49.279  21.405   9.051  1.00  0.00     0.059 C 
HETATM   44  C28 UNL     1      49.730  22.697   9.671  1.00  0.00     0.170 C 
HETATM   45  O5  UNL     1      48.735  23.655   9.433  1.00  0.00    -0.384 OA
HETATM   46  C29 UNL     1      47.708  23.464  10.385  1.00  0.00     0.248 C 
HETATM   47  C30 UNL     1      47.374  22.041  10.495  1.00  0.00     0.172 C 
HETATM   48  O6  UNL     1      46.589  21.679  11.345  1.00  0.00    -0.293 OA
ENDBRANCH  40  42
ENDBRANCH  28  38
ENDBRANCH   1  28
TORSDOF 10
ENDMDL
MODEL 3
REMARK VINA RESULT: -9.695512929      3.810      7.055
REMARK  10 active torsions:
REMARK  status: ('A' for Active; 'I' for Inactive)
REMARK    1  A    between atoms: C2_2  and  C3_3 
REMARK    2  A    between atoms: C8_8  and  N1_9 
REMARK    3  A    between atoms: C8_8  and  C25_36 
REMARK       I    between atoms: N1_9  and  C9_11 
REMARK    4  A    between atoms: C9_11  and  C10_13 
REMARK    5  A    between atoms: C12_16  and  C14_18 
REMARK    6  A    between atoms: N2_20  and  C15_21 
REMARK    7  A    between atoms: C15_21  and  O2_22 
REMARK    8  A    between atoms: C16_24  and  N3_25 
REMARK    9  A    between atoms: C16_24  and  C19_30 
REMARK       I    between atoms: N3_25  and  C17_27 
REMARK       I    between atoms: C25_36  and  N4_38 
REMARK   10  A    between atoms: N4_38  and  C26_40 
ROOT
HETATM    1  N1  UNL     1      44.102  14.167  12.730  1.00  0.00    -0.341 N 
ATOM      2  H1  UNL     1      43.652  14.781  12.051  1.00  0.00     0.163 HD
HETATM    3  C9  UNL     1      44.612  14.946  13.764  1.00  0.00     0.242 C 
HETATM    4  O1  UNL     1      45.146  14.412  14.742  1.00  0.00    -0.271 OA
ENDROOT
BRANCH   3   5
HETATM    5  C10 UNL     1      44.485  16.377  13.593  1.00  0.00     0.189 C 
HETATM    6  C11 UNL     1      43.197  16.587  12.666  1.00  0.00     0.111 C 
HETATM    7  S1  UNL     1      42.983  18.309  13.200  1.00  0.00    -0.134 SA
HETATM    8  C12 UNL     1      44.786  18.601  13.521  1.00  0.00     0.093 C 
HETATM    9  C13 UNL     1      45.064  18.631  15.023  1.00  0.00     0.052 C 
HETATM   10  N2  UNL     1      45.375  17.322  13.033  1.00  0.00    -0.327 N 
BRANCH   8  11
HETATM   11  C14 UNL     1      45.059  19.868  12.884  1.00  0.00     0.157 C 
HETATM   12 CL1  UNL     1      43.409  20.448  12.288  1.00  0.00    -0.127 Cl
ENDBRANCH   8  11
BRANCH  10  13
HETATM   13  C15 UNL     1      46.596  17.163  12.352  1.00  0.00     0.164 C 
HETATM   14  C16 UNL     1      47.087  17.180  10.990  1.00  0.00     0.067 C 
BRANCH  13  15
HETATM   15  O2  UNL     1      47.612  16.948  13.192  1.00  0.00    -0.345 OA
ATOM     16  H2  UNL     1      48.113  17.739  13.352  1.00  0.00     0.219 HD
ENDBRANCH  13  15
BRANCH  14  17
HETATM   17  N3  UNL     1      47.142  18.526  10.431  1.00  0.00    -0.327 N 
HETATM   18  C17 UNL     1      48.297  19.169   9.952  1.00  0.00     0.218 C 
HETATM   19  C18 UNL     1      48.299  20.537   9.409  1.00  0.00     0.117 C 
HETATM   20  O3  UNL     1      49.409  18.546   9.991  1.00  0.00    -0.274 OA
ATOM     21  H3  UNL     1      46.266  19.046  10.382  1.00  0.00     0.168 HD
ENDBRANCH  14  17
BRANCH  14  22
HETATM   22  C19 UNL     1      47.055  16.031  10.110  1.00  0.00     0.040 C 
HETATM   23  C20 UNL     1      47.727  14.804  10.733  1.00  0.00     0.011 C 
HETATM   24  C21 UNL     1      48.773  14.181   9.869  1.00  0.00     0.001 C 
HETATM   25  C22 UNL     1      48.246  13.775   8.509  1.00  0.00     0.000 C 
HETATM   26  C23 UNL     1      47.172  14.731   8.050  1.00  0.00     0.001 C 
HETATM   27  C24 UNL     1      47.493  16.083   8.703  1.00  0.00     0.011 C 
ENDBRANCH  14  22
ENDBRANCH  10  13
ENDBRANCH   3   5
BRANCH   1  28
HETATM   28  C8  UNL     1      43.980  12.810  12.275  1.00  0.00     0.117 C 
HETATM   29  C6  UNL     1      43.606  12.510  10.921  1.00  0.00     0.020 C 
HETATM   30  C5  UNL     1      44.849  12.550   9.958  1.00  0.00     0.013 C 
HETATM   31  C7  UNL     1      42.995  11.200  10.528  1.00  0.00     0.013 C 
HETATM   32  C4  UNL     1      45.536  11.261  10.219  1.00  0.00    -0.001 A 
HETATM   33  C3  UNL     1      46.952  11.141  10.708  1.00  0.00     0.016 A 
HETATM   34  C32 UNL     1      45.782  11.078  11.671  1.00  0.00     0.001 A 
HETATM   35  C31 UNL     1      45.462  12.317  12.422  1.00  0.00     0.047 C 
BRANCH  33  36
HETATM   36  C2  UNL     1      47.601   9.868  10.220  1.00  0.00    -0.031 C 
HETATM   37  C1  UNL     1      48.048   9.830   8.959  1.00  0.00     0.007 C 
ENDBRANCH  33  36
BRANCH  28  38
HETATM   38  C25 UNL     1      43.308  12.057  13.412  1.00  0.00     0.247 C 
HETATM   39  O4  UNL     1      43.961  11.299  14.174  1.00  0.00    -0.271 OA
HETATM   40  N4  UNL     1      41.915  12.155  13.734  1.00  0.00    -0.347 N 
ATOM     41  H4  UNL     1      41.319  12.763  13.172  1.00  0.00     0.163 HD
BRANCH  40  42
HETATM   42  C26 UNL     1      41.326  11.416  14.836  1.00  0.00     0.158 C 
HETATM   43  C27 UNL     1      40.523  10.226  14.458  1.00  0.00     0.059 C 
HETATM   44  C28 UNL     1      39.069  10.435  14.772  1.00  0.00     0.170 C 
HETATM   45  O5  UNL     1      38.964  10.716  16.141  1.00  0.00    -0.384 OA
HETATM   46  C29 UNL     1      39.283  12.080  16.331  1.00  0.00     0.248 C 
HETATM   47  C30 UNL     1      40.491  12.430  15.581  1.00  0.00     0.172 C 
HETATM   48  O6  UNL     1      40.852  13.587  15.540  1.00  0.00    -0.293 OA
ENDBRANCH  40  42
ENDBRANCH  28  38
ENDBRANCH   1  28
TORSDOF 10
ENDMDL
MODEL 4
REMARK VINA RESULT: -9.607655975      3.604      9.319
REMARK  10 active torsions:
REMARK  status: ('A' for Active; 'I' for Inactive)
REMARK    1  A    between atoms: C2_2  and  C3_3 
REMARK    2  A    between atoms: C8_8  and  N1_9 
REMARK    3  A    between atoms: C8_8  and  C25_36 
REMARK       I    between atoms: N1_9  and  C9_11 
REMARK    4  A    between atoms: C9_11  and  C10_13 
REMARK    5  A    between atoms: C12_16  and  C14_18 
REMARK    6  A    between atoms: N2_20  and  C15_21 
REMARK    7  A    between atoms: C15_21  and  O2_22 
REMARK    8  A    between atoms: C16_24  and  N3_25 
REMARK    9  A    between atoms: C16_24  and  C19_30 
REMARK       I    between atoms: N3_25  and  C17_27 
REMARK       I    between atoms: C25_36  and  N4_38 
REMARK   10  A    between atoms: N4_38  and  C26_40 
ROOT
HETATM    1  N1  UNL     1      45.177  20.393  13.578  1.00  0.00    -0.341 N 
ATOM      2  H1  UNL     1      44.840  20.030  14.469  1.00  0.00     0.163 HD
HETATM    3  C9  UNL     1      45.392  19.323  12.714  1.00  0.00     0.242 C 
HETATM    4  O1  UNL     1      45.739  19.525  11.546  1.00  0.00    -0.271 OA
ENDROOT
BRANCH   3   5
HETATM    5  C10 UNL     1      45.196  18.008  13.284  1.00  0.00     0.189 C 
HETATM    6  C11 UNL     1      45.459  18.175  14.854  1.00  0.00     0.111 C 
HETATM    7  S1  UNL     1      44.541  16.663  15.260  1.00  0.00    -0.134 SA
HETATM    8  C12 UNL     1      44.923  15.811  13.658  1.00  0.00     0.093 C 
HETATM    9  C13 UNL     1      43.690  15.792  12.754  1.00  0.00     0.052 C 
HETATM   10  N2  UNL     1      45.860  16.785  13.030  1.00  0.00    -0.327 N 
BRANCH   8  11
HETATM   11  C14 UNL     1      45.339  14.485  14.051  1.00  0.00     0.157 C 
HETATM   12 CL1  UNL     1      44.849  13.408  12.632  1.00  0.00    -0.127 Cl
ENDBRANCH   8  11
BRANCH  10  13
HETATM   13  C15 UNL     1      46.993  16.483  12.253  1.00  0.00     0.164 C 
HETATM   14  C16 UNL     1      47.300  16.096  10.892  1.00  0.00     0.067 C 
BRANCH  13  15
HETATM   15  O2  UNL     1      48.125  16.595  12.954  1.00  0.00    -0.345 OA
ATOM     16  H2  UNL     1      48.412  17.498  13.022  1.00  0.00     0.219 HD
ENDBRANCH  13  15
BRANCH  14  17
HETATM   17  N3  UNL     1      47.155  17.199   9.949  1.00  0.00    -0.327 N 
HETATM   18  C17 UNL     1      48.204  17.972   9.422  1.00  0.00     0.218 C 
HETATM   19  C18 UNL     1      47.998  19.085   8.480  1.00  0.00     0.117 C 
HETATM   20  O3  UNL     1      49.400  17.708   9.775  1.00  0.00    -0.274 OA
ATOM     21  H3  UNL     1      46.209  17.428   9.644  1.00  0.00     0.168 HD
ENDBRANCH  14  17
BRANCH  14  22
HETATM   22  C19 UNL     1      47.266  14.728  10.419  1.00  0.00     0.040 C 
HETATM   23  C20 UNL     1      48.352  13.863  11.063  1.00  0.00     0.011 C 
HETATM   24  C21 UNL     1      49.202  13.125  10.082  1.00  0.00     0.001 C 
HETATM   25  C22 UNL     1      48.396  12.238   9.157  1.00  0.00     0.000 C 
HETATM   26  C23 UNL     1      47.047  12.853   8.875  1.00  0.00     0.001 C 
HETATM   27  C24 UNL     1      47.237  14.373   8.988  1.00  0.00     0.011 C 
ENDBRANCH  14  22
ENDBRANCH  10  13
ENDBRANCH   3   5
BRANCH   1  28
HETATM   28  C8  UNL     1      45.260  21.824  13.665  1.00  0.00     0.117 C 
HETATM   29  C6  UNL     1      46.460  22.525  13.301  1.00  0.00     0.020 C 
HETATM   30  C5  UNL     1      46.530  22.777  11.750  1.00  0.00     0.013 C 
HETATM   31  C7  UNL     1      46.780  23.893  13.818  1.00  0.00     0.013 C 
HETATM   32  C4  UNL     1      45.612  23.924  11.541  1.00  0.00    -0.001 A 
HETATM   33  C3  UNL     1      44.402  23.886  10.650  1.00  0.00     0.016 A 
HETATM   34  C32 UNL     1      44.284  23.654  12.145  1.00  0.00     0.001 A 
HETATM   35  C31 UNL     1      44.186  22.246  12.601  1.00  0.00     0.047 C 
BRANCH  33  36
HETATM   36  C2  UNL     1      44.098  25.246  10.068  1.00  0.00    -0.031 C 
HETATM   37  C1  UNL     1      44.936  25.741   9.150  1.00  0.00     0.007 C 
ENDBRANCH  33  36
BRANCH  28  38
HETATM   38  C25 UNL     1      44.550  22.196  14.957  1.00  0.00     0.247 C 
HETATM   39  O4  UNL     1      45.011  21.866  16.080  1.00  0.00    -0.271 OA
HETATM   40  N4  UNL     1      43.338  22.959  15.022  1.00  0.00    -0.347 N 
ATOM     41  H4  UNL     1      42.907  23.278  14.155  1.00  0.00     0.163 HD
BRANCH  40  42
HETATM   42  C26 UNL     1      42.704  23.291  16.286  1.00  0.00     0.158 C 
HETATM   43  C27 UNL     1      41.379  22.666  16.526  1.00  0.00     0.059 C 
HETATM   44  C28 UNL     1      40.290  23.701  16.537  1.00  0.00     0.170 C 
HETATM   45  O5  UNL     1      40.605  24.642  17.527  1.00  0.00    -0.384 OA
HETATM   46  C29 UNL     1      41.559  25.536  16.990  1.00  0.00     0.248 C 
HETATM   47  C30 UNL     1      42.612  24.797  16.289  1.00  0.00     0.172 C 
HETATM   48  O6  UNL     1      43.458  25.409  15.673  1.00  0.00    -0.293 OA
ENDBRANCH  40  42
ENDBRANCH  28  38
ENDBRANCH   1  28
TORSDOF 10
ENDMDL
MODEL 5
REMARK VINA RESULT: -9.559177936      5.131      8.272
REMARK  10 active torsions:
REMARK  status: ('A' for Active; 'I' for Inactive)
REMARK    1  A    between atoms: C2_2  and  C3_3 
REMARK    2  A    between atoms: C8_8  and  N1_9 
REMARK    3  A    between atoms: C8_8  and  C25_36 
REMARK       I    between atoms: N1_9  and  C9_11 
REMARK    4  A    between atoms: C9_11  and  C10_13 
REMARK    5  A    between atoms: C12_16  and  C14_18 
REMARK    6  A    between atoms: N2_20  and  C15_21 
REMARK    7  A    between atoms: C15_21  and  O2_22 
REMARK    8  A    between atoms: C16_24  and  N3_25 
REMARK    9  A    between atoms: C16_24  and  C19_30 
REMARK       I    between atoms: N3_25  and  C17_27 
REMARK       I    between atoms: C25_36  and  N4_38 
REMARK   10  A    between atoms: N4_38  and  C26_40 
ROOT
HETATM    1  N1  UNL     1      46.272  13.385  10.760  1.00  0.00    -0.341 N 
ATOM      2  H1  UNL     1      45.380  13.667  10.351  1.00  0.00     0.163 HD
HETATM    3  C9  UNL     1      46.021  12.697  11.943  1.00  0.00     0.242 C 
HETATM    4  O1  UNL     1      46.952  12.197  12.583  1.00  0.00    -0.271 OA
ENDROOT
BRANCH   3   5
HETATM    5  C10 UNL     1      44.634  12.633  12.351  1.00  0.00     0.189 C 
HETATM    6  C11 UNL     1      43.782  12.922  11.027  1.00  0.00     0.111 C 
HETATM    7  S1  UNL     1      42.288  12.152  11.712  1.00  0.00    -0.134 SA
HETATM    8  C12 UNL     1      42.691  12.565  13.474  1.00  0.00     0.093 C 
HETATM    9  C13 UNL     1      43.149  11.315  14.226  1.00  0.00     0.052 C 
HETATM   10  N2  UNL     1      43.917  13.396  13.301  1.00  0.00    -0.327 N 
BRANCH   8  11
HETATM   11  C14 UNL     1      41.461  13.106  14.002  1.00  0.00     0.157 C 
HETATM   12 CL1  UNL     1      41.418  12.527  15.756  1.00  0.00    -0.127 Cl
ENDBRANCH   8  11
BRANCH  10  13
HETATM   13  C15 UNL     1      44.278  14.530  14.052  1.00  0.00     0.164 C 
HETATM   14  C16 UNL     1      43.750  15.844  14.349  1.00  0.00     0.067 C 
BRANCH  13  15
HETATM   15  O2  UNL     1      45.434  14.354  14.697  1.00  0.00    -0.345 OA
ATOM     16  H2  UNL     1      46.109  14.004  14.127  1.00  0.00     0.219 HD
ENDBRANCH  13  15
BRANCH  14  17
HETATM   17  N3  UNL     1      42.621  15.801  15.271  1.00  0.00    -0.327 N 
HETATM   18  C17 UNL     1      42.692  15.977  16.664  1.00  0.00     0.218 C 
HETATM   19  C18 UNL     1      41.520  15.909  17.551  1.00  0.00     0.117 C 
HETATM   20  O3  UNL     1      43.828  16.202  17.199  1.00  0.00    -0.274 OA
ATOM     21  H3  UNL     1      41.700  15.628  14.870  1.00  0.00     0.168 HD
ENDBRANCH  14  17
BRANCH  14  22
HETATM   22  C19 UNL     1      43.947  17.000  13.499  1.00  0.00     0.040 C 
HETATM   23  C20 UNL     1      45.031  16.766  12.443  1.00  0.00     0.011 C 
HETATM   24  C21 UNL     1      46.090  17.817  12.417  1.00  0.00     0.001 C 
HETATM   25  C22 UNL     1      45.533  19.208  12.204  1.00  0.00     0.000 C 
HETATM   26  C23 UNL     1      44.172  19.338  12.843  1.00  0.00     0.001 C 
HETATM   27  C24 UNL     1      44.159  18.360  14.027  1.00  0.00     0.011 C 
ENDBRANCH  14  22
ENDBRANCH  10  13
ENDBRANCH   3   5
BRANCH   1  28
HETATM   28  C8  UNL     1      47.333  13.842   9.907  1.00  0.00     0.117 C 
HETATM   29  C6  UNL     1      47.057  14.567   8.698  1.00  0.00     0.020 C 
HETATM   30  C5  UNL     1      46.843  16.099   8.982  1.00  0.00     0.013 C 
HETATM   31  C7  UNL     1      48.027  14.630   7.560  1.00  0.00     0.013 C 
HETATM   32  C4  UNL     1      48.222  16.617   9.161  1.00  0.00    -0.001 A 
HETATM   33  C3  UNL     1      48.714  17.294  10.409  1.00  0.00     0.016 A 
HETATM   34  C32 UNL     1      48.960  15.816  10.169  1.00  0.00     0.001 A 
HETATM   35  C31 UNL     1      48.052  14.864  10.856  1.00  0.00     0.047 C 
BRANCH  33  36
HETATM   36  C2  UNL     1      49.798  18.301  10.104  1.00  0.00    -0.031 C 
HETATM   37  C1  UNL     1      49.429  19.514   9.677  1.00  0.00     0.007 C 
ENDBRANCH  33  36
BRANCH  28  38
HETATM   38  C25 UNL     1      48.347  12.710   9.876  1.00  0.00     0.247 C 
HETATM   39  O4  UNL     1      49.454  12.802  10.466  1.00  0.00    -0.271 OA
HETATM   40  N4  UNL     1      48.137  11.456   9.214  1.00  0.00    -0.347 N 
ATOM     41  H4  UNL     1      47.257  11.296   8.725  1.00  0.00     0.163 HD
BRANCH  40  42
HETATM   42  C26 UNL     1      49.140  10.406   9.220  1.00  0.00     0.158 C 
HETATM   43  C27 UNL     1      49.833  10.169   7.929  1.00  0.00     0.059 C 
HETATM   44  C28 UNL     1      49.474   8.825   7.362  1.00  0.00     0.170 C 
HETATM   45  O5  UNL     1      49.812   7.855   8.317  1.00  0.00    -0.384 OA
HETATM   46  C29 UNL     1      48.780   7.814   9.281  1.00  0.00     0.248 C 
HETATM   47  C30 UNL     1      48.406   9.172   9.686  1.00  0.00     0.172 C 
HETATM   48  O6  UNL     1      47.460   9.332  10.427  1.00  0.00    -0.293 OA
ENDBRANCH  40  42
ENDBRANCH  28  38
ENDBRANCH   1  28
TORSDOF 10
ENDMDL
