MODEL 1
REMARK VINA RESULT: -11.065000448      0.000      0.000
REMARK  11 active torsions:
REMARK  status: ('A' for Active; 'I' for Inactive)
REMARK    1  A    between atoms: N1_2  and  C3_4 
REMARK    2  A    between atoms: C3_4  and  C4_5 
REMARK    3  A    between atoms: C4_5  and  O1_6 
REMARK    4  A    between atoms: O1_6  and  C5_7 
REMARK    5  A    between atoms: C7_11  and  C8_12 
REMARK       I    between atoms: C8_12  and  N3_14 
REMARK    6  A    between atoms: N3_14  and  C9_15 
REMARK    7  A    between atoms: N3_14  and  C24_33 
REMARK    8  A    between atoms: C9_15  and  C10_16 
REMARK    9  A    between atoms: C13_20  and  C14_21 
REMARK   10  A    between atoms: C18_25  and  C19_26 
REMARK   11  A    between atoms: C26_36  and  C27_37 
ROOT
HETATM    1  C8  UNL     1     -82.747 158.836 -15.577  1.00  0.00     0.293 C 
HETATM    2  O2  UNL     1     -82.071 159.201 -16.563  1.00  0.00    -0.264 OA
HETATM    3  N3  UNL     1     -83.335 159.690 -14.639  1.00  0.00    -0.292 N 
ENDROOT
BRANCH   3   4
HETATM    4  C9  UNL     1     -84.721 159.726 -14.220  1.00  0.00     0.180 C 
BRANCH   4   5
HETATM    5  C10 UNL     1     -85.351 161.074 -14.480  1.00  0.00     0.009 A 
HETATM    6  S1  UNL     1     -85.767 161.716 -16.004  1.00  0.00    -0.096 SA
HETATM    7  C11 UNL     1     -86.216 163.276 -15.540  1.00  0.00    -0.010 A 
HETATM    8  C12 UNL     1     -86.036 163.284 -14.178  1.00  0.00    -0.028 A 
HETATM    9  C23 UNL     1     -86.644 164.233 -16.573  1.00  0.00     0.046 C 
HETATM   10  C13 UNL     1     -85.575 162.108 -13.611  1.00  0.00    -0.031 A 
HETATM   11  C18 UNL     1     -86.425 164.537 -13.410  1.00  0.00     0.085 C 
HETATM   12  C20 UNL     1     -86.285 165.773 -14.233  1.00  0.00     0.015 C 
HETATM   13  C21 UNL     1     -87.407 166.148 -15.122  1.00  0.00     0.001 C 
HETATM   14  C22 UNL     1     -87.681 165.235 -16.251  1.00  0.00     0.005 C 
BRANCH  10  15
HETATM   15  C14 UNL     1     -85.447 161.975 -12.167  1.00  0.00     0.020 C 
HETATM   16  C15 UNL     1     -84.365 162.776 -11.438  1.00  0.00     0.009 C 
HETATM   17  C16 UNL     1     -84.747 161.877 -10.241  1.00  0.00     0.001 C 
HETATM   18  C17 UNL     1     -85.083 160.822 -11.363  1.00  0.00     0.009 C 
ENDBRANCH  10  15
BRANCH  11  19
HETATM   19  C19 UNL     1     -87.754 164.471 -12.764  1.00  0.00     0.361 C 
HETATM   20  F1  UNL     1     -87.835 164.114 -11.465  1.00  0.00    -0.214 F 
HETATM   21  F2  UNL     1     -88.419 163.423 -13.463  1.00  0.00    -0.214 F 
ENDBRANCH  11  19
ENDBRANCH   4   5
ENDBRANCH   3   4
BRANCH   3  22
HETATM   22  C24 UNL     1     -82.431 160.760 -14.147  1.00  0.00     0.118 A 
HETATM   23  C25 UNL     1     -81.958 161.765 -14.938  1.00  0.00     0.100 A 
HETATM   24  S2  UNL     1     -80.950 162.638 -13.828  1.00  0.00    -0.076 SA
HETATM   25  C26 UNL     1     -81.199 161.660 -12.453  1.00  0.00     0.160 A 
HETATM   26  N4  UNL     1     -82.024 160.746 -12.911  1.00  0.00    -0.332 N 
ATOM     27  H4  UNL     1     -82.352 160.010 -12.286  1.00  0.00     0.168 HD
BRANCH  25  28
HETATM   28  C27 UNL     1     -80.582 161.804 -11.079  1.00  0.00     0.439 C 
HETATM   29  F3  UNL     1     -81.486 161.298 -10.172  1.00  0.00    -0.164 F 
HETATM   30  F4  UNL     1     -79.413 161.050 -10.990  1.00  0.00    -0.164 F 
HETATM   31  F5  UNL     1     -80.234 163.113 -10.848  1.00  0.00    -0.164 F 
ENDBRANCH  25  28
ENDBRANCH   3  22
BRANCH   1  32
HETATM   32  C7  UNL     1     -82.922 157.356 -15.377  1.00  0.00     0.177 A 
HETATM   33  N2  UNL     1     -83.869 156.680 -14.785  1.00  0.00    -0.344 N 
HETATM   34  C6  UNL     1     -83.614 155.374 -14.711  1.00  0.00     0.145 A 
ATOM     35  H2  UNL     1     -84.718 157.109 -14.415  1.00  0.00     0.167 HD
HETATM   36  C5  UNL     1     -82.350 155.210 -15.331  1.00  0.00     0.159 A 
HETATM   37  N5  UNL     1     -81.985 156.425 -15.712  1.00  0.00    -0.317 N 
ATOM     38  H5  UNL     1     -81.111 156.638 -16.195  1.00  0.00     0.169 HD
BRANCH  36  39
HETATM   39  O1  UNL     1     -81.747 153.998 -15.448  1.00  0.00    -0.333 OA
BRANCH  39  40
HETATM   40  C4  UNL     1     -81.704 153.131 -16.516  1.00  0.00     0.197 C 
BRANCH  40  41
HETATM   41  C3  UNL     1     -81.959 151.710 -15.913  1.00  0.00     0.142 C 
BRANCH  41  42
HETATM   42  N1  UNL     1     -83.033 151.808 -15.002  1.00  0.00    -0.419 N 
HETATM   43  C1  UNL     1     -82.890 151.313 -13.695  1.00  0.00     0.142 C 
HETATM   44  C2  UNL     1     -84.330 151.599 -15.608  1.00  0.00     0.142 C 
ENDBRANCH  41  42
ENDBRANCH  40  41
ENDBRANCH  39  40
ENDBRANCH  36  39
ENDBRANCH   1  32
TORSDOF 11
ENDMDL
MODEL 2
REMARK VINA RESULT: -10.868057139      0.642      1.257
REMARK  11 active torsions:
REMARK  status: ('A' for Active; 'I' for Inactive)
REMARK    1  A    between atoms: N1_2  and  C3_4 
REMARK    2  A    between atoms: C3_4  and  C4_5 
REMARK    3  A    between atoms: C4_5  and  O1_6 
REMARK    4  A    between atoms: O1_6  and  C5_7 
REMARK    5  A    between atoms: C7_11  and  C8_12 
REMARK       I    between atoms: C8_12  and  N3_14 
REMARK    6  A    between atoms: N3_14  and  C9_15 
REMARK    7  A    between atoms: N3_14  and  C24_33 
REMARK    8  A    between atoms: C9_15  and  C10_16 
REMARK    9  A    between atoms: C13_20  and  C14_21 
REMARK   10  A    between atoms: C18_25  and  C19_26 
REMARK   11  A    between atoms: C26_36  and  C27_37 
ROOT
HETATM    1  C8  UNL     1     -82.663 158.711 -15.520  1.00  0.00     0.293 C 
HETATM    2  O2  UNL     1     -81.989 159.046 -16.518  1.00  0.00    -0.264 OA
HETATM    3  N3  UNL     1     -83.277 159.594 -14.626  1.00  0.00    -0.292 N 
ENDROOT
BRANCH   3   4
HETATM    4  C9  UNL     1     -84.666 159.617 -14.217  1.00  0.00     0.180 C 
BRANCH   4   5
HETATM    5  C10 UNL     1     -85.301 160.965 -14.465  1.00  0.00     0.009 A 
HETATM    6  S1  UNL     1     -85.723 161.617 -15.984  1.00  0.00    -0.096 SA
HETATM    7  C11 UNL     1     -86.176 163.172 -15.508  1.00  0.00    -0.010 A 
HETATM    8  C12 UNL     1     -85.994 163.170 -14.146  1.00  0.00    -0.028 A 
HETATM    9  C23 UNL     1     -86.610 164.135 -16.533  1.00  0.00     0.046 C 
HETATM   10  C13 UNL     1     -85.527 161.991 -13.588  1.00  0.00    -0.031 A 
HETATM   11  C18 UNL     1     -86.386 164.416 -13.368  1.00  0.00     0.085 C 
HETATM   12  C20 UNL     1     -86.252 165.659 -14.182  1.00  0.00     0.015 C 
HETATM   13  C21 UNL     1     -87.377 166.036 -15.066  1.00  0.00     0.001 C 
HETATM   14  C22 UNL     1     -87.650 165.131 -16.201  1.00  0.00     0.005 C 
BRANCH  10  15
HETATM   15  C14 UNL     1     -85.397 161.849 -12.146  1.00  0.00     0.020 C 
HETATM   16  C15 UNL     1     -84.362 162.698 -11.403  1.00  0.00     0.009 C 
HETATM   17  C16 UNL     1     -84.697 161.766 -10.219  1.00  0.00     0.001 C 
HETATM   18  C17 UNL     1     -84.973 160.708 -11.354  1.00  0.00     0.009 C 
ENDBRANCH  10  15
BRANCH  11  19
HETATM   19  C19 UNL     1     -87.713 164.341 -12.721  1.00  0.00     0.361 C 
HETATM   20  F1  UNL     1     -87.790 163.980 -11.422  1.00  0.00    -0.214 F 
HETATM   21  F2  UNL     1     -88.373 163.290 -13.420  1.00  0.00    -0.214 F 
ENDBRANCH  11  19
ENDBRANCH   4   5
ENDBRANCH   3   4
BRANCH   3  22
HETATM   22  C24 UNL     1     -82.400 160.707 -14.179  1.00  0.00     0.118 A 
HETATM   23  C25 UNL     1     -81.977 161.706 -15.004  1.00  0.00     0.100 A 
HETATM   24  S2  UNL     1     -80.979 162.641 -13.937  1.00  0.00    -0.076 SA
HETATM   25  C26 UNL     1     -81.168 161.691 -12.533  1.00  0.00     0.160 A 
HETATM   26  N4  UNL     1     -81.969 160.738 -12.952  1.00  0.00    -0.332 N 
ATOM     27  H4  UNL     1     -82.260 160.007 -12.302  1.00  0.00     0.168 HD
BRANCH  25  28
HETATM   28  C27 UNL     1     -80.529 161.890 -11.175  1.00  0.00     0.439 C 
HETATM   29  F3  UNL     1     -80.268 163.235 -11.043  1.00  0.00    -0.164 F 
HETATM   30  F4  UNL     1     -81.413 161.520 -10.163  1.00  0.00    -0.164 F 
HETATM   31  F5  UNL     1     -79.418 161.092 -11.051  1.00  0.00    -0.164 F 
ENDBRANCH  25  28
ENDBRANCH   3  22
BRANCH   1  32
HETATM   32  C7  UNL     1     -82.805 157.239 -15.252  1.00  0.00     0.177 A 
HETATM   33  N2  UNL     1     -81.962 156.256 -15.412  1.00  0.00    -0.344 N 
HETATM   34  C6  UNL     1     -82.496 155.060 -15.166  1.00  0.00     0.145 A 
ATOM     35  H2  UNL     1     -80.991 156.389 -15.696  1.00  0.00     0.167 HD
HETATM   36  C5  UNL     1     -83.843 155.324 -14.811  1.00  0.00     0.159 A 
HETATM   37  N5  UNL     1     -83.971 156.642 -14.877  1.00  0.00    -0.317 N 
ATOM     38  H5  UNL     1     -84.834 157.146 -14.672  1.00  0.00     0.169 HD
BRANCH  36  39
HETATM   39  O1  UNL     1     -84.720 154.338 -14.489  1.00  0.00    -0.333 OA
BRANCH  39  40
HETATM   40  C4  UNL     1     -84.493 153.102 -13.928  1.00  0.00     0.197 C 
BRANCH  40  41
HETATM   41  C3  UNL     1     -84.362 152.112 -15.133  1.00  0.00     0.142 C 
BRANCH  41  42
HETATM   42  N1  UNL     1     -83.181 151.360 -14.952  1.00  0.00    -0.419 N 
HETATM   43  C1  UNL     1     -82.564 151.318 -13.690  1.00  0.00     0.142 C 
HETATM   44  C2  UNL     1     -82.282 151.409 -16.083  1.00  0.00     0.142 C 
ENDBRANCH  41  42
ENDBRANCH  40  41
ENDBRANCH  39  40
ENDBRANCH  36  39
ENDBRANCH   1  32
TORSDOF 11
ENDMDL
MODEL 3
REMARK VINA RESULT: -9.476787451      1.125      1.434
REMARK  11 active torsions:
REMARK  status: ('A' for Active; 'I' for Inactive)
REMARK    1  A    between atoms: N1_2  and  C3_4 
REMARK    2  A    between atoms: C3_4  and  C4_5 
REMARK    3  A    between atoms: C4_5  and  O1_6 
REMARK    4  A    between atoms: O1_6  and  C5_7 
REMARK    5  A    between atoms: C7_11  and  C8_12 
REMARK       I    between atoms: C8_12  and  N3_14 
REMARK    6  A    between atoms: N3_14  and  C9_15 
REMARK    7  A    between atoms: N3_14  and  C24_33 
REMARK    8  A    between atoms: C9_15  and  C10_16 
REMARK    9  A    between atoms: C13_20  and  C14_21 
REMARK   10  A    between atoms: C18_25  and  C19_26 
REMARK   11  A    between atoms: C26_36  and  C27_37 
ROOT
HETATM    1  C8  UNL     1     -82.659 158.853 -14.840  1.00  0.00     0.293 C 
HETATM    2  O2  UNL     1     -81.835 159.423 -15.588  1.00  0.00    -0.264 OA
HETATM    3  N3  UNL     1     -83.329 159.453 -13.770  1.00  0.00    -0.292 N 
ENDROOT
BRANCH   3   4
HETATM    4  C9  UNL     1     -84.756 159.491 -13.526  1.00  0.00     0.180 C 
BRANCH   4   5
HETATM    5  C10 UNL     1     -85.373 160.784 -14.004  1.00  0.00     0.009 A 
HETATM    6  S1  UNL     1     -85.673 161.220 -15.625  1.00  0.00    -0.096 SA
HETATM    7  C11 UNL     1     -86.167 162.819 -15.401  1.00  0.00    -0.010 A 
HETATM    8  C12 UNL     1     -86.095 163.003 -14.042  1.00  0.00    -0.028 A 
HETATM    9  C23 UNL     1     -86.520 163.629 -16.578  1.00  0.00     0.046 C 
HETATM   10  C13 UNL     1     -85.671 161.916 -13.295  1.00  0.00    -0.031 A 
HETATM   11  C18 UNL     1     -86.552 164.337 -13.473  1.00  0.00     0.085 C 
HETATM   12  C20 UNL     1     -86.356 165.460 -14.434  1.00  0.00     0.015 C 
HETATM   13  C21 UNL     1     -87.408 165.700 -15.447  1.00  0.00     0.001 C 
HETATM   14  C22 UNL     1     -87.586 164.646 -16.468  1.00  0.00     0.005 C 
BRANCH  10  15
HETATM   15  C14 UNL     1     -85.657 161.971 -11.840  1.00  0.00     0.020 C 
HETATM   16  C15 UNL     1     -84.573 162.792 -11.136  1.00  0.00     0.009 C 
HETATM   17  C16 UNL     1     -85.104 162.087  -9.868  1.00  0.00     0.001 C 
HETATM   18  C17 UNL     1     -85.437 160.915 -10.868  1.00  0.00     0.009 C 
ENDBRANCH  10  15
BRANCH  11  19
HETATM   19  C19 UNL     1     -87.926 164.331 -12.928  1.00  0.00     0.361 C 
HETATM   20  F1  UNL     1     -88.108 164.114 -11.608  1.00  0.00    -0.214 F 
HETATM   21  F2  UNL     1     -88.537 163.210 -13.560  1.00  0.00    -0.214 F 
ENDBRANCH  11  19
ENDBRANCH   4   5
ENDBRANCH   3   4
BRANCH   3  22
HETATM   22  C24 UNL     1     -82.449 160.256 -12.881  1.00  0.00     0.118 A 
HETATM   23  C25 UNL     1     -82.299 160.006 -11.550  1.00  0.00     0.100 A 
HETATM   24  S2  UNL     1     -81.214 161.274 -11.077  1.00  0.00    -0.076 SA
HETATM   25  C26 UNL     1     -81.041 162.026 -12.598  1.00  0.00     0.160 A 
HETATM   26  N4  UNL     1     -81.802 161.277 -13.363  1.00  0.00    -0.332 N 
ATOM     27  H4  UNL     1     -81.888 161.501 -14.354  1.00  0.00     0.168 HD
BRANCH  25  28
HETATM   28  C27 UNL     1     -80.243 163.265 -12.944  1.00  0.00     0.439 C 
HETATM   29  F3  UNL     1     -80.484 164.192 -11.956  1.00  0.00    -0.164 F 
HETATM   30  F4  UNL     1     -78.878 162.980 -12.944  1.00  0.00    -0.164 F 
HETATM   31  F5  UNL     1     -80.563 163.699 -14.207  1.00  0.00    -0.164 F 
ENDBRANCH  25  28
ENDBRANCH   3  22
BRANCH   1  32
HETATM   32  C7  UNL     1     -82.934 157.399 -15.106  1.00  0.00     0.177 A 
HETATM   33  N2  UNL     1     -84.036 156.706 -15.005  1.00  0.00    -0.344 N 
HETATM   34  C6  UNL     1     -83.857 155.403 -15.222  1.00  0.00     0.145 A 
ATOM     35  H2  UNL     1     -84.941 157.120 -14.783  1.00  0.00     0.167 HD
HETATM   36  C5  UNL     1     -82.472 155.260 -15.488  1.00  0.00     0.159 A 
HETATM   37  N5  UNL     1     -81.971 156.484 -15.407  1.00  0.00    -0.317 N 
ATOM     38  H5  UNL     1     -80.987 156.712 -15.553  1.00  0.00     0.169 HD
BRANCH  36  39
HETATM   39  O1  UNL     1     -81.902 154.057 -15.757  1.00  0.00    -0.333 OA
BRANCH  39  40
HETATM   40  C4  UNL     1     -82.286 153.074 -16.641  1.00  0.00     0.197 C 
BRANCH  40  41
HETATM   41  C3  UNL     1     -81.922 151.720 -15.948  1.00  0.00     0.142 C 
BRANCH  41  42
HETATM   42  N1  UNL     1     -83.044 151.297 -15.202  1.00  0.00    -0.419 N 
HETATM   43  C1  UNL     1     -84.339 151.627 -15.637  1.00  0.00     0.142 C 
HETATM   44  C2  UNL     1     -82.839 151.338 -13.771  1.00  0.00     0.142 C 
ENDBRANCH  41  42
ENDBRANCH  40  41
ENDBRANCH  39  40
ENDBRANCH  36  39
ENDBRANCH   1  32
TORSDOF 11
ENDMDL
MODEL 4
REMARK VINA RESULT: -9.326487829      1.224      1.645
REMARK  11 active torsions:
REMARK  status: ('A' for Active; 'I' for Inactive)
REMARK    1  A    between atoms: N1_2  and  C3_4 
REMARK    2  A    between atoms: C3_4  and  C4_5 
REMARK    3  A    between atoms: C4_5  and  O1_6 
REMARK    4  A    between atoms: O1_6  and  C5_7 
REMARK    5  A    between atoms: C7_11  and  C8_12 
REMARK       I    between atoms: C8_12  and  N3_14 
REMARK    6  A    between atoms: N3_14  and  C9_15 
REMARK    7  A    between atoms: N3_14  and  C24_33 
REMARK    8  A    between atoms: C9_15  and  C10_16 
REMARK    9  A    between atoms: C13_20  and  C14_21 
REMARK   10  A    between atoms: C18_25  and  C19_26 
REMARK   11  A    between atoms: C26_36  and  C27_37 
ROOT
HETATM    1  C8  UNL     1     -83.008 158.928 -14.553  1.00  0.00     0.293 C 
HETATM    2  O2  UNL     1     -82.071 159.439 -15.203  1.00  0.00    -0.264 OA
HETATM    3  N3  UNL     1     -83.786 159.590 -13.599  1.00  0.00    -0.292 N 
ENDROOT
BRANCH   3   4
HETATM    4  C9  UNL     1     -85.230 159.689 -13.546  1.00  0.00     0.180 C 
BRANCH   4   5
HETATM    5  C10 UNL     1     -85.719 161.031 -14.039  1.00  0.00     0.009 A 
HETATM    6  S1  UNL     1     -85.999 161.467 -15.664  1.00  0.00    -0.096 SA
HETATM    7  C11 UNL     1     -86.324 163.112 -15.462  1.00  0.00    -0.010 A 
HETATM    8  C12 UNL     1     -86.211 163.310 -14.107  1.00  0.00    -0.028 A 
HETATM    9  C23 UNL     1     -86.611 163.934 -16.649  1.00  0.00     0.046 C 
HETATM   10  C13 UNL     1     -85.888 162.199 -13.346  1.00  0.00    -0.031 A 
HETATM   11  C18 UNL     1     -86.519 164.694 -13.557  1.00  0.00     0.085 C 
HETATM   12  C20 UNL     1     -86.225 165.775 -14.542  1.00  0.00     0.015 C 
HETATM   13  C21 UNL     1     -87.263 166.104 -15.544  1.00  0.00     0.001 C 
HETATM   14  C22 UNL     1     -87.565 165.057 -16.542  1.00  0.00     0.005 C 
BRANCH  10  15
HETATM   15  C14 UNL     1     -85.845 162.276 -11.894  1.00  0.00     0.020 C 
HETATM   16  C15 UNL     1     -87.146 162.135 -11.100  1.00  0.00     0.009 C 
HETATM   17  C16 UNL     1     -86.274 162.599  -9.914  1.00  0.00     0.001 C 
HETATM   18  C17 UNL     1     -85.481 163.383 -11.027  1.00  0.00     0.009 C 
ENDBRANCH  10  15
BRANCH  11  19
HETATM   19  C19 UNL     1     -87.878 164.838 -12.993  1.00  0.00     0.361 C 
HETATM   20  F1  UNL     1     -88.034 164.850 -11.652  1.00  0.00    -0.214 F 
HETATM   21  F2  UNL     1     -88.550 163.656 -13.418  1.00  0.00    -0.214 F 
ENDBRANCH  11  19
ENDBRANCH   4   5
ENDBRANCH   3   4
BRANCH   3  22
HETATM   22  C24 UNL     1     -82.997 160.391 -12.628  1.00  0.00     0.118 A 
HETATM   23  C25 UNL     1     -83.206 160.356 -11.281  1.00  0.00     0.100 A 
HETATM   24  S2  UNL     1     -82.037 161.507 -10.717  1.00  0.00    -0.076 SA
HETATM   25  C26 UNL     1     -81.381 161.949 -12.228  1.00  0.00     0.160 A 
HETATM   26  N4  UNL     1     -82.075 161.203 -13.058  1.00  0.00    -0.332 N 
ATOM     27  H4  UNL     1     -81.888 161.263 -14.058  1.00  0.00     0.168 HD
BRANCH  25  28
HETATM   28  C27 UNL     1     -80.305 162.973 -12.517  1.00  0.00     0.439 C 
HETATM   29  F3  UNL     1     -80.358 163.248 -13.865  1.00  0.00    -0.164 F 
HETATM   30  F4  UNL     1     -80.561 164.156 -11.825  1.00  0.00    -0.164 F 
HETATM   31  F5  UNL     1     -79.084 162.514 -12.089  1.00  0.00    -0.164 F 
ENDBRANCH  25  28
ENDBRANCH   3  22
BRANCH   1  32
HETATM   32  C7  UNL     1     -83.305 157.476 -14.807  1.00  0.00     0.177 A 
HETATM   33  N2  UNL     1     -84.267 156.711 -14.365  1.00  0.00    -0.344 N 
HETATM   34  C6  UNL     1     -84.131 155.436 -14.727  1.00  0.00     0.145 A 
ATOM     35  H2  UNL     1     -85.043 157.055 -13.800  1.00  0.00     0.167 HD
HETATM   36  C5  UNL     1     -82.935 155.394 -15.488  1.00  0.00     0.159 A 
HETATM   37  N5  UNL     1     -82.486 156.640 -15.504  1.00  0.00    -0.317 N 
ATOM     38  H5  UNL     1     -81.634 156.937 -15.980  1.00  0.00     0.169 HD
BRANCH  36  39
HETATM   39  O1  UNL     1     -82.458 154.245 -16.034  1.00  0.00    -0.333 OA
BRANCH  39  40
HETATM   40  C4  UNL     1     -81.737 153.225 -15.458  1.00  0.00     0.197 C 
BRANCH  40  41
HETATM   41  C3  UNL     1     -82.289 151.908 -16.096  1.00  0.00     0.142 C 
BRANCH  41  42
HETATM   42  N1  UNL     1     -83.277 151.386 -15.232  1.00  0.00    -0.419 N 
HETATM   43  C1  UNL     1     -84.633 151.678 -15.463  1.00  0.00     0.142 C 
HETATM   44  C2  UNL     1     -82.876 151.350 -13.844  1.00  0.00     0.142 C 
ENDBRANCH  41  42
ENDBRANCH  40  41
ENDBRANCH  39  40
ENDBRANCH  36  39
ENDBRANCH   1  32
TORSDOF 11
ENDMDL
MODEL 5
REMARK VINA RESULT: -9.170194874      1.442      3.091
REMARK  11 active torsions:
REMARK  status: ('A' for Active; 'I' for Inactive)
REMARK    1  A    between atoms: N1_2  and  C3_4 
REMARK    2  A    between atoms: C3_4  and  C4_5 
REMARK    3  A    between atoms: C4_5  and  O1_6 
REMARK    4  A    between atoms: O1_6  and  C5_7 
REMARK    5  A    between atoms: C7_11  and  C8_12 
REMARK       I    between atoms: C8_12  and  N3_14 
REMARK    6  A    between atoms: N3_14  and  C9_15 
REMARK    7  A    between atoms: N3_14  and  C24_33 
REMARK    8  A    between atoms: C9_15  and  C10_16 
REMARK    9  A    between atoms: C13_20  and  C14_21 
REMARK   10  A    between atoms: C18_25  and  C19_26 
REMARK   11  A    between atoms: C26_36  and  C27_37 
ROOT
HETATM    1  C8  UNL     1     -83.125 158.569 -15.353  1.00  0.00     0.293 C 
HETATM    2  O2  UNL     1     -82.069 158.389 -15.997  1.00  0.00    -0.264 OA
HETATM    3  N3  UNL     1     -83.671 159.814 -15.027  1.00  0.00    -0.292 N 
ENDROOT
BRANCH   3   4
HETATM    4  C9  UNL     1     -85.015 160.288 -15.288  1.00  0.00     0.180 C 
BRANCH   4   5
HETATM    5  C10 UNL     1     -85.553 161.108 -14.138  1.00  0.00     0.009 A 
HETATM    6  S1  UNL     1     -85.449 160.713 -12.483  1.00  0.00    -0.096 SA
HETATM    7  C11 UNL     1     -86.407 161.944 -11.838  1.00  0.00    -0.010 A 
HETATM    8  C12 UNL     1     -86.806 162.667 -12.936  1.00  0.00    -0.028 A 
HETATM    9  C23 UNL     1     -86.628 161.990 -10.384  1.00  0.00     0.046 C 
HETATM   10  C13 UNL     1     -86.349 162.221 -14.166  1.00  0.00    -0.031 A 
HETATM   11  C18 UNL     1     -87.638 163.919 -12.709  1.00  0.00     0.085 C 
HETATM   12  C20 UNL     1     -88.473 163.828 -11.476  1.00  0.00     0.015 C 
HETATM   13  C21 UNL     1     -87.848 164.188 -10.184  1.00  0.00     0.001 C 
HETATM   14  C22 UNL     1     -86.767 163.298  -9.710  1.00  0.00     0.005 C 
BRANCH  10  15
HETATM   15  C14 UNL     1     -86.627 162.970 -15.382  1.00  0.00     0.020 C 
HETATM   16  C15 UNL     1     -85.730 164.156 -15.748  1.00  0.00     0.009 C 
HETATM   17  C16 UNL     1     -86.822 164.436 -16.804  1.00  0.00     0.001 C 
HETATM   18  C17 UNL     1     -87.779 163.780 -15.738  1.00  0.00     0.009 C 
ENDBRANCH  10  15
BRANCH  11  19
HETATM   19  C19 UNL     1     -86.867 165.180 -12.742  1.00  0.00     0.361 C 
HETATM   20  F1  UNL     1     -86.918 165.951 -13.849  1.00  0.00    -0.214 F 
HETATM   21  F2  UNL     1     -85.511 164.750 -12.671  1.00  0.00    -0.214 F 
ENDBRANCH  11  19
ENDBRANCH   4   5
ENDBRANCH   3   4
BRANCH   3  22
HETATM   22  C24 UNL     1     -82.685 160.782 -14.482  1.00  0.00     0.118 A 
HETATM   23  C25 UNL     1     -82.127 161.781 -15.222  1.00  0.00     0.100 A 
HETATM   24  S2  UNL     1     -81.056 162.513 -14.069  1.00  0.00    -0.076 SA
HETATM   25  C26 UNL     1     -81.393 161.493 -12.744  1.00  0.00     0.160 A 
HETATM   26  N4  UNL     1     -82.287 160.674 -13.248  1.00  0.00    -0.332 N 
ATOM     27  H4  UNL     1     -82.678 159.938 -12.660  1.00  0.00     0.168 HD
BRANCH  25  28
HETATM   28  C27 UNL     1     -80.773 161.518 -11.363  1.00  0.00     0.439 C 
HETATM   29  F3  UNL     1     -80.425 162.824 -11.098  1.00  0.00    -0.164 F 
HETATM   30  F4  UNL     1     -81.703 161.116 -10.405  1.00  0.00    -0.164 F 
HETATM   31  F5  UNL     1     -79.722 160.637 -11.298  1.00  0.00    -0.164 F 
ENDBRANCH  25  28
ENDBRANCH   3  22
BRANCH   1  32
HETATM   32  C7  UNL     1     -83.853 157.344 -14.876  1.00  0.00     0.177 A 
HETATM   33  N2  UNL     1     -84.745 157.192 -13.934  1.00  0.00    -0.344 N 
HETATM   34  C6  UNL     1     -85.081 155.919 -13.729  1.00  0.00     0.145 A 
ATOM     35  H2  UNL     1     -85.145 157.970 -13.409  1.00  0.00     0.167 HD
HETATM   36  C5  UNL     1     -84.301 155.179 -14.654  1.00  0.00     0.159 A 
HETATM   37  N5  UNL     1     -83.589 156.081 -15.314  1.00  0.00    -0.317 N 
ATOM     38  H5  UNL     1     -82.926 155.858 -16.056  1.00  0.00     0.169 HD
BRANCH  36  39
HETATM   39  O1  UNL     1     -84.367 153.825 -14.744  1.00  0.00    -0.333 OA
BRANCH  39  40
HETATM   40  C4  UNL     1     -84.003 152.859 -13.834  1.00  0.00     0.197 C 
BRANCH  40  41
HETATM   41  C3  UNL     1     -82.802 152.099 -14.486  1.00  0.00     0.142 C 
BRANCH  41  42
HETATM   42  N1  UNL     1     -82.945 152.178 -15.889  1.00  0.00    -0.419 N 
HETATM   43  C1  UNL     1     -83.693 151.204 -16.572  1.00  0.00     0.142 C 
HETATM   44  C2  UNL     1     -81.756 152.639 -16.569  1.00  0.00     0.142 C 
ENDBRANCH  41  42
ENDBRANCH  40  41
ENDBRANCH  39  40
ENDBRANCH  36  39
ENDBRANCH   1  32
TORSDOF 11
ENDMDL
