MODEL 1
REMARK VINA RESULT: -9.153239359      0.000      0.000
REMARK  15 active torsions:
REMARK  status: ('A' for Active; 'I' for Inactive)
REMARK    1  A    between atoms: O1_2  and  C2_3 
REMARK    2  A    between atoms: C2_3  and  C3_4 
REMARK    3  A    between atoms: C2_3  and  O3_10 
REMARK    4  A    between atoms: C2_3  and  C29_41 
REMARK    5  A    between atoms: C3_4  and  O2_5 
REMARK    6  A    between atoms: O2_5  and  C4_6 
REMARK    7  A    between atoms: O3_10  and  C8_11 
REMARK    8  A    between atoms: C10_13  and  N1_14 
REMARK    9  A    between atoms: N1_14  and  C11_15 
REMARK   10  A    between atoms: N1_14  and  C19_27 
REMARK   11  A    between atoms: C11_15  and  C12_16 
REMARK   12  A    between atoms: C12_16  and  N2_18 
REMARK       I    between atoms: N2_18  and  C14_20 
REMARK   13  A    between atoms: C14_20  and  O5_22 
REMARK   14  A    between atoms: O5_22  and  C15_23 
REMARK   15  A    between atoms: C25_34  and  C26_35 
ROOT
HETATM    1  C8  UNL     1     -85.415 162.388 -14.110  1.00  0.00     0.082 A 
HETATM    2  C9  UNL     1     -84.960 161.379 -13.250  1.00  0.00     0.066 A 
HETATM    3  C10 UNL     1     -83.785 160.700 -13.422  1.00  0.00     0.034 A 
HETATM    4  C24 UNL     1     -83.023 161.042 -14.506  1.00  0.00     0.046 A 
HETATM    5  C25 UNL     1     -83.445 162.034 -15.374  1.00  0.00     0.058 A 
HETATM    6  C27 UNL     1     -84.639 162.717 -15.192  1.00  0.00    -0.013 A 
HETATM    7  C28 UNL     1     -85.062 163.767 -16.174  1.00  0.00     0.052 C 
ENDROOT
BRANCH   3   8
HETATM    8  N1  UNL     1     -83.353 159.673 -12.506  1.00  0.00    -0.374 N 
BRANCH   8   9
HETATM    9  C11 UNL     1     -83.859 158.368 -12.748  1.00  0.00     0.148 C 
BRANCH   9  10
HETATM   10  C12 UNL     1     -83.710 157.807 -14.122  1.00  0.00     0.100 C 
HETATM   11  C13 UNL     1     -84.934 157.526 -14.911  1.00  0.00     0.034 C 
BRANCH  10  12
HETATM   12  N2  UNL     1     -82.972 156.531 -14.056  1.00  0.00    -0.331 N 
HETATM   13  C14 UNL     1     -82.463 155.934 -15.237  1.00  0.00     0.361 C 
HETATM   14  O4  UNL     1     -82.655 156.516 -16.351  1.00  0.00    -0.238 OA
ATOM     15  H2  UNL     1     -82.827 156.075 -13.155  1.00  0.00     0.165 HD
BRANCH  13  16
HETATM   16  O5  UNL     1     -81.765 154.745 -15.250  1.00  0.00    -0.294 OA
BRANCH  16  17
HETATM   17  C15 UNL     1     -82.353 153.475 -15.429  1.00  0.00     0.061 C 
HETATM   18  C16 UNL     1     -83.797 153.530 -14.973  1.00  0.00     0.046 C 
HETATM   19  C17 UNL     1     -81.656 152.490 -14.515  1.00  0.00     0.046 C 
HETATM   20  C18 UNL     1     -82.239 152.969 -16.842  1.00  0.00     0.046 C 
ENDBRANCH  16  17
ENDBRANCH  13  16
ENDBRANCH  10  12
ENDBRANCH   9  10
ENDBRANCH   8   9
BRANCH   8  21
HETATM   21  C19 UNL     1     -82.459 159.978 -11.411  1.00  0.00     0.088 C 
HETATM   22  C20 UNL     1     -81.025 159.917 -11.789  1.00  0.00     0.051 C 
HETATM   23  C21 UNL     1     -80.177 161.109 -11.574  1.00  0.00     0.169 C 
HETATM   24  O6  UNL     1     -80.602 161.937 -10.509  1.00  0.00    -0.391 OA
HETATM   25  C22 UNL     1     -81.854 162.409 -10.979  1.00  0.00     0.169 C 
HETATM   26  C23 UNL     1     -82.812 161.289 -10.755  1.00  0.00     0.051 C 
ENDBRANCH   8  21
ENDBRANCH   3   8
BRANCH   1  27
HETATM   27  O3  UNL     1     -86.586 162.948 -13.802  1.00  0.00    -0.303 OA
BRANCH  27  28
HETATM   28  C2  UNL     1     -87.065 163.967 -13.014  1.00  0.00     0.291 C 
BRANCH  28  29
HETATM   29  O1  UNL     1     -85.929 164.683 -12.581  1.00  0.00    -0.351 OA
HETATM   30  C1  UNL     1     -85.907 165.930 -13.165  1.00  0.00     0.206 C 
ENDBRANCH  28  29
BRANCH  28  31
HETATM   31  C3  UNL     1     -87.891 164.963 -13.852  1.00  0.00     0.247 C 
BRANCH  31  32
HETATM   32  O2  UNL     1     -88.514 164.250 -14.849  1.00  0.00    -0.376 OA
BRANCH  32  33
HETATM   33  C4  UNL     1     -89.059 164.972 -15.870  1.00  0.00     0.050 C 
HETATM   34  C5  UNL     1     -88.057 165.881 -16.487  1.00  0.00     0.045 C 
HETATM   35  C6  UNL     1     -90.181 165.833 -15.297  1.00  0.00     0.045 C 
HETATM   36  C7  UNL     1     -89.711 164.038 -16.865  1.00  0.00     0.045 C 
ENDBRANCH  32  33
ENDBRANCH  31  32
ENDBRANCH  28  31
BRANCH  28  37
HETATM   37  C29 UNL     1     -87.889 163.635 -11.819  1.00  0.00     0.447 C 
HETATM   38  F4  UNL     1     -87.155 163.986 -10.658  1.00  0.00    -0.165 F 
HETATM   39  F5  UNL     1     -89.068 164.294 -11.703  1.00  0.00    -0.165 F 
HETATM   40  F6  UNL     1     -88.011 162.238 -11.612  1.00  0.00    -0.165 F 
ENDBRANCH  28  37
ENDBRANCH  27  28
ENDBRANCH   1  27
BRANCH   5  41
HETATM   41  C26 UNL     1     -82.591 162.343 -16.557  1.00  0.00     0.418 C 
HETATM   42  F1  UNL     1     -81.529 161.415 -16.574  1.00  0.00    -0.166 F 
HETATM   43  F2  UNL     1     -83.293 162.044 -17.740  1.00  0.00    -0.166 F 
HETATM   44  F3  UNL     1     -82.047 163.586 -16.550  1.00  0.00    -0.166 F 
ENDBRANCH   5  41
TORSDOF 15
ENDMDL
MODEL 2
REMARK VINA RESULT: -9.056017462      6.303     12.735
REMARK  15 active torsions:
REMARK  status: ('A' for Active; 'I' for Inactive)
REMARK    1  A    between atoms: O1_2  and  C2_3 
REMARK    2  A    between atoms: C2_3  and  C3_4 
REMARK    3  A    between atoms: C2_3  and  O3_10 
REMARK    4  A    between atoms: C2_3  and  C29_41 
REMARK    5  A    between atoms: C3_4  and  O2_5 
REMARK    6  A    between atoms: O2_5  and  C4_6 
REMARK    7  A    between atoms: O3_10  and  C8_11 
REMARK    8  A    between atoms: C10_13  and  N1_14 
REMARK    9  A    between atoms: N1_14  and  C11_15 
REMARK   10  A    between atoms: N1_14  and  C19_27 
REMARK   11  A    between atoms: C11_15  and  C12_16 
REMARK   12  A    between atoms: C12_16  and  N2_18 
REMARK       I    between atoms: N2_18  and  C14_20 
REMARK   13  A    between atoms: C14_20  and  O5_22 
REMARK   14  A    between atoms: O5_22  and  C15_23 
REMARK   15  A    between atoms: C25_34  and  C26_35 
ROOT
HETATM    1  C8  UNL     1     -90.700 165.992 -15.465  1.00  0.00     0.082 A 
HETATM    2  C9  UNL     1     -91.214 167.154 -14.873  1.00  0.00     0.066 A 
HETATM    3  C10 UNL     1     -92.207 167.916 -15.424  1.00  0.00     0.034 A 
HETATM    4  C24 UNL     1     -92.715 167.502 -16.625  1.00  0.00     0.046 A 
HETATM    5  C25 UNL     1     -92.228 166.360 -17.235  1.00  0.00     0.058 A 
HETATM    6  C27 UNL     1     -91.219 165.592 -16.669  1.00  0.00    -0.013 A 
HETATM    7  C28 UNL     1     -90.711 164.376 -17.381  1.00  0.00     0.052 C 
ENDROOT
BRANCH   3   8
HETATM    8  N1  UNL     1     -92.712 169.102 -14.774  1.00  0.00    -0.374 N 
BRANCH   8   9
HETATM    9  C11 UNL     1     -93.693 168.893 -13.769  1.00  0.00     0.148 C 
BRANCH   9  10
HETATM   10  C12 UNL     1     -95.109 169.228 -14.098  1.00  0.00     0.100 C 
HETATM   11  C13 UNL     1     -96.066 169.440 -12.984  1.00  0.00     0.034 C 
BRANCH  10  12
HETATM   12  N2  UNL     1     -95.690 168.155 -14.929  1.00  0.00    -0.331 N 
HETATM   13  C14 UNL     1     -96.233 168.450 -16.205  1.00  0.00     0.361 C 
HETATM   14  O4  UNL     1     -96.212 169.652 -16.619  1.00  0.00    -0.238 OA
ATOM     15  H2  UNL     1     -95.701 167.196 -14.583  1.00  0.00     0.165 HD
BRANCH  13  16
HETATM   16  O5  UNL     1     -96.791 167.499 -17.034  1.00  0.00    -0.294 OA
BRANCH  16  17
HETATM   17  C15 UNL     1     -98.074 166.941 -16.858  1.00  0.00     0.061 C 
HETATM   18  C16 UNL     1     -97.939 165.592 -16.182  1.00  0.00     0.046 C 
HETATM   19  C17 UNL     1     -98.671 166.673 -18.223  1.00  0.00     0.046 C 
HETATM   20  C18 UNL     1     -99.010 167.846 -16.105  1.00  0.00     0.046 C 
ENDBRANCH  16  17
ENDBRANCH  13  16
ENDBRANCH  10  12
ENDBRANCH   9  10
ENDBRANCH   8   9
BRANCH   8  21
HETATM   21  C19 UNL     1     -92.234 170.416 -15.146  1.00  0.00     0.088 C 
HETATM   22  C20 UNL     1     -93.314 171.324 -15.604  1.00  0.00     0.051 C 
HETATM   23  C21 UNL     1     -93.499 172.620 -14.916  1.00  0.00     0.169 C 
HETATM   24  O6  UNL     1     -92.317 173.144 -14.342  1.00  0.00    -0.391 OA
HETATM   25  C22 UNL     1     -92.024 172.188 -13.337  1.00  0.00     0.169 C 
HETATM   26  C23 UNL     1     -91.404 171.035 -14.050  1.00  0.00     0.051 C 
ENDBRANCH   8  21
ENDBRANCH   3   8
BRANCH   1  27
HETATM   27  O3  UNL     1     -89.728 165.366 -14.798  1.00  0.00    -0.303 OA
BRANCH  27  28
HETATM   28  C2  UNL     1     -88.366 165.196 -14.881  1.00  0.00     0.291 C 
BRANCH  28  29
HETATM   29  O1  UNL     1     -87.901 165.183 -13.549  1.00  0.00    -0.351 OA
HETATM   30  C1  UNL     1     -88.595 164.246 -12.816  1.00  0.00     0.206 C 
ENDBRANCH  28  29
BRANCH  28  31
HETATM   31  C3  UNL     1     -88.024 163.807 -15.456  1.00  0.00     0.247 C 
BRANCH  31  32
HETATM   32  O2  UNL     1     -86.656 163.733 -15.574  1.00  0.00    -0.376 OA
BRANCH  32  33
HETATM   33  C4  UNL     1     -86.063 162.592 -15.120  1.00  0.00     0.050 C 
HETATM   34  C5  UNL     1     -87.072 161.566 -14.748  1.00  0.00     0.045 C 
HETATM   35  C6  UNL     1     -85.265 162.939 -13.867  1.00  0.00     0.045 C 
HETATM   36  C7  UNL     1     -85.057 162.099 -16.137  1.00  0.00     0.045 C 
ENDBRANCH  32  33
ENDBRANCH  31  32
ENDBRANCH  28  31
BRANCH  28  37
HETATM   37  C29 UNL     1     -87.556 166.182 -15.648  1.00  0.00     0.447 C 
HETATM   38  F4  UNL     1     -88.022 167.484 -15.335  1.00  0.00    -0.165 F 
HETATM   39  F5  UNL     1     -86.229 166.208 -15.375  1.00  0.00    -0.165 F 
HETATM   40  F6  UNL     1     -87.836 166.155 -17.037  1.00  0.00    -0.165 F 
ENDBRANCH  28  37
ENDBRANCH  27  28
ENDBRANCH   1  27
BRANCH   5  41
HETATM   41  C26 UNL     1     -92.795 165.973 -18.560  1.00  0.00     0.418 C 
HETATM   42  F1  UNL     1     -94.163 166.314 -18.557  1.00  0.00    -0.166 F 
HETATM   43  F2  UNL     1     -92.262 166.803 -19.564  1.00  0.00    -0.166 F 
HETATM   44  F3  UNL     1     -92.704 164.650 -18.846  1.00  0.00    -0.166 F 
ENDBRANCH   5  41
TORSDOF 15
ENDMDL
MODEL 3
REMARK VINA RESULT: -9.054988913      6.720     13.427
REMARK  15 active torsions:
REMARK  status: ('A' for Active; 'I' for Inactive)
REMARK    1  A    between atoms: O1_2  and  C2_3 
REMARK    2  A    between atoms: C2_3  and  C3_4 
REMARK    3  A    between atoms: C2_3  and  O3_10 
REMARK    4  A    between atoms: C2_3  and  C29_41 
REMARK    5  A    between atoms: C3_4  and  O2_5 
REMARK    6  A    between atoms: O2_5  and  C4_6 
REMARK    7  A    between atoms: O3_10  and  C8_11 
REMARK    8  A    between atoms: C10_13  and  N1_14 
REMARK    9  A    between atoms: N1_14  and  C11_15 
REMARK   10  A    between atoms: N1_14  and  C19_27 
REMARK   11  A    between atoms: C11_15  and  C12_16 
REMARK   12  A    between atoms: C12_16  and  N2_18 
REMARK       I    between atoms: N2_18  and  C14_20 
REMARK   13  A    between atoms: C14_20  and  O5_22 
REMARK   14  A    between atoms: O5_22  and  C15_23 
REMARK   15  A    between atoms: C25_34  and  C26_35 
ROOT
HETATM    1  C8  UNL     1     -91.196 165.879 -15.507  1.00  0.00     0.082 A 
HETATM    2  C9  UNL     1     -91.928 166.777 -14.717  1.00  0.00     0.066 A 
HETATM    3  C10 UNL     1     -93.008 167.486 -15.168  1.00  0.00     0.034 A 
HETATM    4  C24 UNL     1     -93.378 167.293 -16.471  1.00  0.00     0.046 A 
HETATM    5  C25 UNL     1     -92.674 166.414 -17.276  1.00  0.00     0.058 A 
HETATM    6  C27 UNL     1     -91.580 165.699 -16.810  1.00  0.00    -0.013 A 
HETATM    7  C28 UNL     1     -90.838 164.777 -17.729  1.00  0.00     0.052 C 
ENDROOT
BRANCH   3   8
HETATM    8  N1  UNL     1     -93.737 168.394 -14.317  1.00  0.00    -0.374 N 
BRANCH   8   9
HETATM    9  C11 UNL     1     -93.061 169.590 -13.957  1.00  0.00     0.148 C 
BRANCH   9  10
HETATM   10  C12 UNL     1     -93.374 170.827 -14.730  1.00  0.00     0.100 C 
HETATM   11  C13 UNL     1     -94.103 170.696 -16.015  1.00  0.00     0.034 C 
BRANCH  10  12
HETATM   12  N2  UNL     1     -92.122 171.540 -15.048  1.00  0.00    -0.331 N 
HETATM   13  C14 UNL     1     -91.604 172.513 -14.157  1.00  0.00     0.361 C 
HETATM   14  O4  UNL     1     -92.236 172.762 -13.083  1.00  0.00    -0.238 OA
ATOM     15  H2  UNL     1     -91.626 171.331 -15.915  1.00  0.00     0.165 HD
BRANCH  13  16
HETATM   16  O5  UNL     1     -90.440 173.217 -14.391  1.00  0.00    -0.294 OA
BRANCH  16  17
HETATM   17  C15 UNL     1     -90.390 174.529 -14.905  1.00  0.00     0.061 C 
HETATM   18  C16 UNL     1     -89.049 174.747 -15.575  1.00  0.00     0.046 C 
HETATM   19  C17 UNL     1     -90.449 175.501 -13.746  1.00  0.00     0.046 C 
HETATM   20  C18 UNL     1     -91.530 174.838 -15.837  1.00  0.00     0.046 C 
ENDBRANCH  16  17
ENDBRANCH  13  16
ENDBRANCH  10  12
ENDBRANCH   9  10
ENDBRANCH   8   9
BRANCH   8  21
HETATM   21  C19 UNL     1     -95.075 168.081 -13.866  1.00  0.00     0.088 C 
HETATM   22  C20 UNL     1     -95.658 169.127 -12.988  1.00  0.00     0.051 C 
HETATM   23  C21 UNL     1     -96.946 169.744 -13.370  1.00  0.00     0.169 C 
HETATM   24  O6  UNL     1     -97.785 168.904 -14.139  1.00  0.00    -0.391 OA
HETATM   25  C22 UNL     1     -97.039 168.749 -15.334  1.00  0.00     0.169 C 
HETATM   26  C23 UNL     1     -95.986 167.743 -15.019  1.00  0.00     0.051 C 
ENDBRANCH   8  21
ENDBRANCH   3   8
BRANCH   1  27
HETATM   27  O3  UNL     1     -90.166 165.272 -14.915  1.00  0.00    -0.303 OA
BRANCH  27  28
HETATM   28  C2  UNL     1     -88.803 165.176 -15.062  1.00  0.00     0.291 C 
BRANCH  28  29
HETATM   29  O1  UNL     1     -88.417 166.317 -15.797  1.00  0.00    -0.351 OA
HETATM   30  C1  UNL     1     -87.199 166.777 -15.348  1.00  0.00     0.206 C 
ENDBRANCH  28  29
BRANCH  28  31
HETATM   31  C3  UNL     1     -88.096 165.300 -13.698  1.00  0.00     0.247 C 
BRANCH  31  32
HETATM   32  O2  UNL     1     -88.592 164.311 -12.882  1.00  0.00    -0.376 OA
BRANCH  32  33
HETATM   33  C4  UNL     1     -87.726 163.775 -11.975  1.00  0.00     0.050 C 
HETATM   34  C5  UNL     1     -87.545 162.315 -12.193  1.00  0.00     0.045 C 
HETATM   35  C6  UNL     1     -88.318 163.970 -10.582  1.00  0.00     0.045 C 
HETATM   36  C7  UNL     1     -86.425 164.547 -11.992  1.00  0.00     0.045 C 
ENDBRANCH  32  33
ENDBRANCH  31  32
ENDBRANCH  28  31
BRANCH  28  37
HETATM   37  C29 UNL     1     -88.227 163.976 -15.728  1.00  0.00     0.447 C 
HETATM   38  F4  UNL     1     -86.934 163.746 -15.196  1.00  0.00    -0.165 F 
HETATM   39  F5  UNL     1     -88.895 162.811 -15.546  1.00  0.00    -0.165 F 
HETATM   40  F6  UNL     1     -87.889 164.214 -17.085  1.00  0.00    -0.165 F 
ENDBRANCH  28  37
ENDBRANCH  27  28
ENDBRANCH   1  27
BRANCH   5  41
HETATM   41  C26 UNL     1     -93.102 166.267 -18.698  1.00  0.00     0.418 C 
HETATM   42  F1  UNL     1     -94.384 166.839 -18.822  1.00  0.00    -0.166 F 
HETATM   43  F2  UNL     1     -92.306 167.088 -19.520  1.00  0.00    -0.166 F 
HETATM   44  F3  UNL     1     -93.183 164.984 -19.132  1.00  0.00    -0.166 F 
ENDBRANCH   5  41
TORSDOF 15
ENDMDL
MODEL 4
REMARK VINA RESULT: -8.876102922      6.540     13.422
REMARK  15 active torsions:
REMARK  status: ('A' for Active; 'I' for Inactive)
REMARK    1  A    between atoms: O1_2  and  C2_3 
REMARK    2  A    between atoms: C2_3  and  C3_4 
REMARK    3  A    between atoms: C2_3  and  O3_10 
REMARK    4  A    between atoms: C2_3  and  C29_41 
REMARK    5  A    between atoms: C3_4  and  O2_5 
REMARK    6  A    between atoms: O2_5  and  C4_6 
REMARK    7  A    between atoms: O3_10  and  C8_11 
REMARK    8  A    between atoms: C10_13  and  N1_14 
REMARK    9  A    between atoms: N1_14  and  C11_15 
REMARK   10  A    between atoms: N1_14  and  C19_27 
REMARK   11  A    between atoms: C11_15  and  C12_16 
REMARK   12  A    between atoms: C12_16  and  N2_18 
REMARK       I    between atoms: N2_18  and  C14_20 
REMARK   13  A    between atoms: C14_20  and  O5_22 
REMARK   14  A    between atoms: O5_22  and  C15_23 
REMARK   15  A    between atoms: C25_34  and  C26_35 
ROOT
HETATM    1  C8  UNL     1     -90.938 166.193 -15.450  1.00  0.00     0.082 A 
HETATM    2  C9  UNL     1     -91.501 167.344 -14.880  1.00  0.00     0.066 A 
HETATM    3  C10 UNL     1     -92.485 168.086 -15.473  1.00  0.00     0.034 A 
HETATM    4  C24 UNL     1     -92.932 167.663 -16.696  1.00  0.00     0.046 A 
HETATM    5  C25 UNL     1     -92.395 166.532 -17.284  1.00  0.00     0.058 A 
HETATM    6  C27 UNL     1     -91.396 165.785 -16.676  1.00  0.00    -0.013 A 
HETATM    7  C28 UNL     1     -90.832 164.581 -17.366  1.00  0.00     0.052 C 
ENDROOT
BRANCH   3   8
HETATM    8  N1  UNL     1     -93.042 169.261 -14.846  1.00  0.00    -0.374 N 
BRANCH   8   9
HETATM    9  C11 UNL     1     -92.360 170.481 -15.092  1.00  0.00     0.148 C 
BRANCH   9  10
HETATM   10  C12 UNL     1     -91.601 171.095 -13.964  1.00  0.00     0.100 C 
HETATM   11  C13 UNL     1     -92.036 170.808 -12.575  1.00  0.00     0.034 C 
BRANCH  10  12
HETATM   12  N2  UNL     1     -91.624 172.565 -14.096  1.00  0.00    -0.331 N 
HETATM   13  C14 UNL     1     -90.425 173.314 -13.984  1.00  0.00     0.361 C 
HETATM   14  O4  UNL     1     -89.334 172.700 -13.766  1.00  0.00    -0.238 OA
ATOM     15  H2  UNL     1     -92.507 173.045 -14.270  1.00  0.00     0.165 HD
BRANCH  13  16
HETATM   16  O5  UNL     1     -90.372 174.688 -14.097  1.00  0.00    -0.294 OA
BRANCH  16  17
HETATM   17  C15 UNL     1     -90.347 175.388 -15.321  1.00  0.00     0.061 C 
HETATM   18  C16 UNL     1     -89.097 175.003 -16.085  1.00  0.00     0.046 C 
HETATM   19  C17 UNL     1     -90.224 176.868 -15.025  1.00  0.00     0.046 C 
HETATM   20  C18 UNL     1     -91.588 175.174 -16.145  1.00  0.00     0.046 C 
ENDBRANCH  16  17
ENDBRANCH  13  16
ENDBRANCH  10  12
ENDBRANCH   9  10
ENDBRANCH   8   9
BRANCH   8  21
HETATM   21  C19 UNL     1     -94.223 169.173 -14.016  1.00  0.00     0.088 C 
HETATM   22  C20 UNL     1     -95.214 170.243 -14.292  1.00  0.00     0.051 C 
HETATM   23  C21 UNL     1     -96.595 169.861 -14.661  1.00  0.00     0.169 C 
HETATM   24  O6  UNL     1     -97.011 168.616 -14.132  1.00  0.00    -0.391 OA
HETATM   25  C22 UNL     1     -96.148 167.707 -14.793  1.00  0.00     0.169 C 
HETATM   26  C23 UNL     1     -94.845 167.801 -14.077  1.00  0.00     0.051 C 
ENDBRANCH   8  21
ENDBRANCH   3   8
BRANCH   1  27
HETATM   27  O3  UNL     1     -89.983 165.587 -14.742  1.00  0.00    -0.303 OA
BRANCH  27  28
HETATM   28  C2  UNL     1     -88.633 165.344 -14.830  1.00  0.00     0.291 C 
BRANCH  28  29
HETATM   29  O1  UNL     1     -88.157 165.346 -13.501  1.00  0.00    -0.351 OA
HETATM   30  C1  UNL     1     -88.814 164.385 -12.764  1.00  0.00     0.206 C 
ENDBRANCH  28  29
BRANCH  28  31
HETATM   31  C3  UNL     1     -88.367 163.923 -15.366  1.00  0.00     0.247 C 
BRANCH  31  32
HETATM   32  O2  UNL     1     -87.023 163.827 -15.638  1.00  0.00    -0.376 OA
BRANCH  32  33
HETATM   33  C4  UNL     1     -86.369 162.748 -15.122  1.00  0.00     0.050 C 
HETATM   34  C5  UNL     1     -87.322 161.718 -14.631  1.00  0.00     0.045 C 
HETATM   35  C6  UNL     1     -85.537 163.220 -13.934  1.00  0.00     0.045 C 
HETATM   36  C7  UNL     1     -85.385 162.213 -16.139  1.00  0.00     0.045 C 
ENDBRANCH  32  33
ENDBRANCH  31  32
ENDBRANCH  28  31
BRANCH  28  37
HETATM   37  C29 UNL     1     -87.780 166.264 -15.630  1.00  0.00     0.447 C 
HETATM   38  F4  UNL     1     -88.184 167.596 -15.364  1.00  0.00    -0.165 F 
HETATM   39  F5  UNL     1     -86.452 166.239 -15.358  1.00  0.00    -0.165 F 
HETATM   40  F6  UNL     1     -88.063 166.201 -17.018  1.00  0.00    -0.165 F 
ENDBRANCH  28  37
ENDBRANCH  27  28
ENDBRANCH   1  27
BRANCH   5  41
HETATM   41  C26 UNL     1     -92.895 166.136 -18.633  1.00  0.00     0.418 C 
HETATM   42  F1  UNL     1     -94.256 166.497 -18.708  1.00  0.00    -0.166 F 
HETATM   43  F2  UNL     1     -92.296 166.944 -19.618  1.00  0.00    -0.166 F 
HETATM   44  F3  UNL     1     -92.810 164.808 -18.897  1.00  0.00    -0.166 F 
ENDBRANCH   5  41
TORSDOF 15
ENDMDL
MODEL 5
REMARK VINA RESULT: -8.835197166      2.984      8.734
REMARK  15 active torsions:
REMARK  status: ('A' for Active; 'I' for Inactive)
REMARK    1  A    between atoms: O1_2  and  C2_3 
REMARK    2  A    between atoms: C2_3  and  C3_4 
REMARK    3  A    between atoms: C2_3  and  O3_10 
REMARK    4  A    between atoms: C2_3  and  C29_41 
REMARK    5  A    between atoms: C3_4  and  O2_5 
REMARK    6  A    between atoms: O2_5  and  C4_6 
REMARK    7  A    between atoms: O3_10  and  C8_11 
REMARK    8  A    between atoms: C10_13  and  N1_14 
REMARK    9  A    between atoms: N1_14  and  C11_15 
REMARK   10  A    between atoms: N1_14  and  C19_27 
REMARK   11  A    between atoms: C11_15  and  C12_16 
REMARK   12  A    between atoms: C12_16  and  N2_18 
REMARK       I    between atoms: N2_18  and  C14_20 
REMARK   13  A    between atoms: C14_20  and  O5_22 
REMARK   14  A    between atoms: O5_22  and  C15_23 
REMARK   15  A    between atoms: C25_34  and  C26_35 
ROOT
HETATM    1  C8  UNL     1     -84.691 161.286 -14.150  1.00  0.00     0.082 A 
HETATM    2  C9  UNL     1     -85.711 162.241 -14.272  1.00  0.00     0.066 A 
HETATM    3  C10 UNL     1     -85.640 163.332 -15.093  1.00  0.00     0.034 A 
HETATM    4  C24 UNL     1     -84.497 163.483 -15.831  1.00  0.00     0.046 A 
HETATM    5  C25 UNL     1     -83.473 162.558 -15.731  1.00  0.00     0.058 A 
HETATM    6  C27 UNL     1     -83.553 161.453 -14.894  1.00  0.00    -0.013 A 
HETATM    7  C28 UNL     1     -82.406 160.493 -14.806  1.00  0.00     0.052 C 
ENDROOT
BRANCH   3   8
HETATM    8  N1  UNL     1     -86.718 164.287 -15.194  1.00  0.00    -0.374 N 
BRANCH   8   9
HETATM    9  C11 UNL     1     -87.288 164.450 -16.484  1.00  0.00     0.148 C 
BRANCH   9  10
HETATM   10  C12 UNL     1     -87.797 165.803 -16.855  1.00  0.00     0.100 C 
HETATM   11  C13 UNL     1     -86.837 166.932 -16.909  1.00  0.00     0.034 C 
BRANCH  10  12
HETATM   12  N2  UNL     1     -88.848 166.212 -15.903  1.00  0.00    -0.331 N 
HETATM   13  C14 UNL     1     -90.164 165.699 -16.023  1.00  0.00     0.361 C 
HETATM   14  O4  UNL     1     -90.423 164.883 -16.963  1.00  0.00    -0.238 OA
ATOM     15  H2  UNL     1     -88.626 166.869 -15.155  1.00  0.00     0.165 HD
BRANCH  13  16
HETATM   16  O5  UNL     1     -91.194 166.038 -15.171  1.00  0.00    -0.294 OA
BRANCH  16  17
HETATM   17  C15 UNL     1     -92.043 167.151 -15.347  1.00  0.00     0.061 C 
HETATM   18  C16 UNL     1     -91.272 168.416 -15.033  1.00  0.00     0.046 C 
HETATM   19  C17 UNL     1     -93.158 167.069 -14.326  1.00  0.00     0.046 C 
HETATM   20  C18 UNL     1     -92.662 167.206 -16.717  1.00  0.00     0.046 C 
ENDBRANCH  16  17
ENDBRANCH  13  16
ENDBRANCH  10  12
ENDBRANCH   9  10
ENDBRANCH   8   9
BRANCH   8  21
HETATM   21  C19 UNL     1     -87.170 165.024 -14.035  1.00  0.00     0.088 C 
HETATM   22  C20 UNL     1     -88.117 164.259 -13.185  1.00  0.00     0.051 C 
HETATM   23  C21 UNL     1     -87.792 164.056 -11.757  1.00  0.00     0.169 C 
HETATM   24  O6  UNL     1     -86.988 165.076 -11.196  1.00  0.00    -0.391 OA
HETATM   25  C22 UNL     1     -85.774 164.929 -11.914  1.00  0.00     0.169 C 
HETATM   26  C23 UNL     1     -86.013 165.570 -13.237  1.00  0.00     0.051 C 
ENDBRANCH   8  21
ENDBRANCH   3   8
BRANCH   1  27
HETATM   27  O3  UNL     1     -84.917 160.283 -13.300  1.00  0.00    -0.303 OA
BRANCH  27  28
HETATM   28  C2  UNL     1     -84.366 159.759 -12.155  1.00  0.00     0.291 C 
BRANCH  28  29
HETATM   29  O1  UNL     1     -85.456 159.440 -11.317  1.00  0.00    -0.351 OA
HETATM   30  C1  UNL     1     -86.467 160.360 -11.488  1.00  0.00     0.206 C 
ENDBRANCH  28  29
BRANCH  28  31
HETATM   31  C3  UNL     1     -83.663 158.420 -12.450  1.00  0.00     0.247 C 
BRANCH  31  32
HETATM   32  O2  UNL     1     -84.563 157.613 -13.105  1.00  0.00    -0.376 OA
BRANCH  32  33
HETATM   33  C4  UNL     1     -84.098 156.934 -14.193  1.00  0.00     0.050 C 
HETATM   34  C5  UNL     1     -82.614 156.976 -14.267  1.00  0.00     0.045 C 
HETATM   35  C6  UNL     1     -84.649 157.609 -15.445  1.00  0.00     0.045 C 
HETATM   36  C7  UNL     1     -84.656 155.527 -14.192  1.00  0.00     0.045 C 
ENDBRANCH  32  33
ENDBRANCH  31  32
ENDBRANCH  28  31
BRANCH  28  37
HETATM   37  C29 UNL     1     -83.402 160.579 -11.372  1.00  0.00     0.447 C 
HETATM   38  F4  UNL     1     -83.964 160.835 -10.096  1.00  0.00    -0.165 F 
HETATM   39  F5  UNL     1     -82.198 160.009 -11.118  1.00  0.00    -0.165 F 
HETATM   40  F6  UNL     1     -83.295 161.907 -11.857  1.00  0.00    -0.165 F 
ENDBRANCH  28  37
ENDBRANCH  27  28
ENDBRANCH   1  27
BRANCH   5  41
HETATM   41  C26 UNL     1     -82.236 162.789 -16.533  1.00  0.00     0.418 C 
HETATM   42  F1  UNL     1     -82.301 164.097 -17.054  1.00  0.00    -0.166 F 
HETATM   43  F2  UNL     1     -81.119 162.842 -15.677  1.00  0.00    -0.166 F 
HETATM   44  F3  UNL     1     -82.076 161.940 -17.579  1.00  0.00    -0.166 F 
ENDBRANCH   5  41
TORSDOF 15
ENDMDL
