MODEL 1
REMARK VINA RESULT: -5.711483791      0.000      0.000
REMARK  1 active torsions:
REMARK  status: ('A' for Active; 'I' for Inactive)
REMARK    1  A    between atoms: C1_2  and  C2_3 
ROOT
HETATM    1  C2  UNL     1     -28.595  -4.122   8.649  1.00  0.00     0.046 A 
HETATM    2  C3  UNL     1     -28.705  -5.325   9.309  1.00  0.00     0.030 A 
HETATM    3  C4  UNL     1     -29.589  -5.422  10.369  1.00  0.00     0.005 A 
HETATM    4  C5  UNL     1     -30.335  -4.325  10.744  1.00  0.00     0.042 A 
HETATM    5  C6  UNL     1     -30.209  -3.130  10.068  1.00  0.00     0.101 A 
HETATM    6  S1  UNL     1     -31.098  -1.810  10.511  1.00  0.00    -0.060 SA
HETATM    7  N2  UNL     1     -29.336  -3.074   9.039  1.00  0.00    -0.346 N 
ATOM      8  H2  UNL     1     -29.235  -2.193   8.535  1.00  0.00     0.167 HD
ENDROOT
BRANCH   1   9
HETATM    9  C1  UNL     1     -27.651  -3.963   7.492  1.00  0.00     0.129 C 
HETATM   10  N1  UNL     1     -27.021  -2.703   7.458  1.00  0.00    -0.113 NA
ENDBRANCH   1   9
TORSDOF 1
ENDMDL
MODEL 2
REMARK VINA RESULT: -5.349126600      2.025      3.378
REMARK  1 active torsions:
REMARK  status: ('A' for Active; 'I' for Inactive)
REMARK    1  A    between atoms: C1_2  and  C2_3 
ROOT
HETATM    1  C2  UNL     1     -30.277  -3.108  10.221  1.00  0.00     0.046 A 
HETATM    2  C3  UNL     1     -30.373  -4.363  10.780  1.00  0.00     0.030 A 
HETATM    3  C4  UNL     1     -29.576  -5.376  10.276  1.00  0.00     0.005 A 
HETATM    4  C5  UNL     1     -28.709  -5.115   9.236  1.00  0.00     0.042 A 
HETATM    5  C6  UNL     1     -28.629  -3.850   8.693  1.00  0.00     0.101 A 
HETATM    6  S1  UNL     1     -27.593  -3.529   7.448  1.00  0.00    -0.060 SA
HETATM    7  N2  UNL     1     -29.424  -2.888   9.211  1.00  0.00    -0.346 N 
ATOM      8  H2  UNL     1     -29.371  -1.950   8.814  1.00  0.00     0.167 HD
ENDROOT
BRANCH   1   9
HETATM    9  C1  UNL     1     -31.121  -1.974  10.729  1.00  0.00     0.129 C 
HETATM   10  N1  UNL     1     -31.662  -1.179   9.700  1.00  0.00    -0.113 NA
ENDBRANCH   1   9
TORSDOF 1
ENDMDL
MODEL 3
REMARK VINA RESULT: -5.169126529      1.103      1.103
REMARK  1 active torsions:
REMARK  status: ('A' for Active; 'I' for Inactive)
REMARK    1  A    between atoms: C1_2  and  C2_3 
ROOT
HETATM    1  C2  UNL     1     -29.199  -3.922   8.468  1.00  0.00     0.046 A 
HETATM    2  C3  UNL     1     -28.657  -4.988   9.152  1.00  0.00     0.030 A 
HETATM    3  C4  UNL     1     -29.395  -5.567  10.169  1.00  0.00     0.005 A 
HETATM    4  C5  UNL     1     -30.645  -5.074  10.479  1.00  0.00     0.042 A 
HETATM    5  C6  UNL     1     -31.167  -4.006   9.781  1.00  0.00     0.101 A 
HETATM    6  S1  UNL     1     -32.663  -3.408  10.145  1.00  0.00    -0.060 SA
HETATM    7  N2  UNL     1     -30.417  -3.467   8.795  1.00  0.00    -0.346 N 
ATOM      8  H2  UNL     1     -30.796  -2.676   8.275  1.00  0.00     0.167 HD
ENDROOT
BRANCH   1   9
HETATM    9  C1  UNL     1     -28.440  -3.257   7.356  1.00  0.00     0.129 C 
HETATM   10  N1  UNL     1     -27.123  -2.908   7.713  1.00  0.00    -0.113 NA
ENDBRANCH   1   9
TORSDOF 1
ENDMDL
MODEL 4
REMARK VINA RESULT: -4.902689250      1.013      1.013
REMARK  1 active torsions:
REMARK  status: ('A' for Active; 'I' for Inactive)
REMARK    1  A    between atoms: C1_2  and  C2_3 
ROOT
HETATM    1  C2  UNL     1     -29.180  -3.638   9.107  1.00  0.00     0.046 A 
HETATM    2  C3  UNL     1     -29.034  -4.905   9.626  1.00  0.00     0.030 A 
HETATM    3  C4  UNL     1     -29.780  -5.258  10.736  1.00  0.00     0.005 A 
HETATM    4  C5  UNL     1     -30.648  -4.346  11.299  1.00  0.00     0.042 A 
HETATM    5  C6  UNL     1     -30.778  -3.083  10.763  1.00  0.00     0.101 A 
HETATM    6  S1  UNL     1     -31.815  -1.984  11.431  1.00  0.00    -0.060 SA
HETATM    7  N2  UNL     1     -30.033  -2.775   9.679  1.00  0.00    -0.346 N 
ATOM      8  H2  UNL     1     -30.123  -1.842   9.278  1.00  0.00     0.167 HD
ENDROOT
BRANCH   1   9
HETATM    9  C1  UNL     1     -28.393  -3.204   7.904  1.00  0.00     0.129 C 
HETATM   10  N1  UNL     1     -27.726  -4.266   7.264  1.00  0.00    -0.113 NA
ENDBRANCH   1   9
TORSDOF 1
ENDMDL
MODEL 5
REMARK VINA RESULT: -4.719517500      2.216      3.589
REMARK  1 active torsions:
REMARK  status: ('A' for Active; 'I' for Inactive)
REMARK    1  A    between atoms: C1_2  and  C2_3 
ROOT
HETATM    1  C2  UNL     1     -30.583  -3.572   9.670  1.00  0.00     0.046 A 
HETATM    2  C3  UNL     1     -30.404  -4.776  10.316  1.00  0.00     0.030 A 
HETATM    3  C4  UNL     1     -29.304  -5.548   9.987  1.00  0.00     0.005 A 
HETATM    4  C5  UNL     1     -28.415  -5.106   9.031  1.00  0.00     0.042 A 
HETATM    5  C6  UNL     1     -28.613  -3.897   8.398  1.00  0.00     0.101 A 
HETATM    6  S1  UNL     1     -27.553  -3.360   7.251  1.00  0.00    -0.060 SA
HETATM    7  N2  UNL     1     -29.699  -3.172   8.745  1.00  0.00    -0.346 N 
ATOM      8  H2  UNL     1     -29.853  -2.277   8.280  1.00  0.00     0.167 HD
ENDROOT
BRANCH   1   9
HETATM    9  C1  UNL     1     -31.760  -2.696   9.988  1.00  0.00     0.129 C 
HETATM   10  N1  UNL     1     -32.984  -3.393   9.999  1.00  0.00    -0.113 NA
ENDBRANCH   1   9
TORSDOF 1
ENDMDL
