MODEL 1
REMARK VINA RESULT: -3.975863961      0.000      0.000
REMARK  2 active torsions:
REMARK  status: ('A' for Active; 'I' for Inactive)
REMARK    1  A    between atoms: C2_2  and  C3_3 
REMARK    2  A    between atoms: N1_8  and  N2_9 
ROOT
HETATM    1  C3  UNL     1      31.098  -3.302  -9.354  1.00  0.00     0.105 C 
HETATM    2  C4  UNL     1      32.226  -4.260  -9.538  1.00  0.00     0.191 C 
HETATM    3  O1  UNL     1      33.077  -3.748 -10.504  1.00  0.00    -0.368 OA
HETATM    4  C5  UNL     1      32.423  -2.749 -11.176  1.00  0.00     0.210 C 
HETATM    5  C6  UNL     1      31.856  -3.297 -12.464  1.00  0.00     0.058 C 
HETATM    6  N1  UNL     1      31.405  -2.235 -10.307  1.00  0.00    -0.203 NA
ENDROOT
BRANCH   6   7
HETATM    7  N2  UNL     1      31.772  -1.057  -9.652  1.00  0.00    -0.361 NA
ATOM      8  H22 UNL     1      30.978  -0.515  -9.313  1.00  0.00     0.171 HD
ATOM      9  H21 UNL     1      32.301  -0.438 -10.268  1.00  0.00     0.171 HD
ENDBRANCH   6   7
BRANCH   1  10
HETATM   10  C2  UNL     1      29.762  -3.855  -9.735  1.00  0.00     0.019 C 
HETATM   11  C1  UNL     1      29.777  -5.279 -10.168  1.00  0.00     0.007 C 
ENDBRANCH   1  10
TORSDOF 2
ENDMDL
MODEL 2
REMARK VINA RESULT: -3.856500892      2.255      2.999
REMARK  2 active torsions:
REMARK  status: ('A' for Active; 'I' for Inactive)
REMARK    1  A    between atoms: C2_2  and  C3_3 
REMARK    2  A    between atoms: N1_8  and  N2_9 
ROOT
HETATM    1  C3  UNL     1      30.799  -4.803 -11.347  1.00  0.00     0.105 C 
HETATM    2  C4  UNL     1      31.258  -3.400 -11.133  1.00  0.00     0.191 C 
HETATM    3  O1  UNL     1      32.639  -3.406 -11.032  1.00  0.00    -0.368 OA
HETATM    4  C5  UNL     1      33.056  -4.694 -10.823  1.00  0.00     0.210 C 
HETATM    5  C6  UNL     1      33.297  -4.912  -9.347  1.00  0.00     0.058 C 
HETATM    6  N1  UNL     1      32.046  -5.568 -11.346  1.00  0.00    -0.203 NA
ENDROOT
BRANCH   6   7
HETATM    7  N2  UNL     1      32.342  -6.064 -12.617  1.00  0.00    -0.361 NA
ATOM      8  H22 UNL     1      31.710  -6.805 -12.922  1.00  0.00     0.171 HD
ATOM      9  H21 UNL     1      33.284  -6.456 -12.654  1.00  0.00     0.171 HD
ENDBRANCH   6   7
BRANCH   1  10
HETATM   10  C2  UNL     1      29.955  -5.344 -10.238  1.00  0.00     0.019 C 
HETATM   11  C1  UNL     1      29.409  -4.315  -9.312  1.00  0.00     0.007 C 
ENDBRANCH   1  10
TORSDOF 2
ENDMDL
MODEL 3
REMARK VINA RESULT: -3.814241322      1.951      2.509
REMARK  2 active torsions:
REMARK  status: ('A' for Active; 'I' for Inactive)
REMARK    1  A    between atoms: C2_2  and  C3_3 
REMARK    2  A    between atoms: N1_8  and  N2_9 
ROOT
HETATM    1  C3  UNL     1      30.602  -3.720 -10.635  1.00  0.00     0.105 C 
HETATM    2  C4  UNL     1      31.475  -2.523 -10.459  1.00  0.00     0.191 C 
HETATM    3  O1  UNL     1      32.787  -2.905 -10.685  1.00  0.00    -0.368 OA
HETATM    4  C5  UNL     1      32.855  -4.273 -10.649  1.00  0.00     0.210 C 
HETATM    5  C6  UNL     1      33.328  -4.717  -9.284  1.00  0.00     0.058 C 
HETATM    6  N1  UNL     1      31.552  -4.782 -10.967  1.00  0.00    -0.203 NA
ENDROOT
BRANCH   6   7
HETATM    7  N2  UNL     1      31.421  -5.187 -12.297  1.00  0.00    -0.361 NA
ATOM      8  H22 UNL     1      30.475  -5.085 -12.662  1.00  0.00     0.171 HD
ATOM      9  H21 UNL     1      31.671  -6.170 -12.413  1.00  0.00     0.171 HD
ENDBRANCH   6   7
BRANCH   1  10
HETATM   10  C2  UNL     1      29.891  -4.144  -9.390  1.00  0.00     0.019 C 
HETATM   11  C1  UNL     1      29.049  -5.362  -9.536  1.00  0.00     0.007 C 
ENDBRANCH   1  10
TORSDOF 2
ENDMDL
MODEL 4
REMARK VINA RESULT: -3.801663680      2.330      2.832
REMARK  2 active torsions:
REMARK  status: ('A' for Active; 'I' for Inactive)
REMARK    1  A    between atoms: C2_2  and  C3_3 
REMARK    2  A    between atoms: N1_8  and  N2_9 
ROOT
HETATM    1  C3  UNL     1      30.796  -4.543 -10.842  1.00  0.00     0.105 C 
HETATM    2  C4  UNL     1      31.832  -4.154  -9.841  1.00  0.00     0.191 C 
HETATM    3  O1  UNL     1      33.050  -4.666 -10.258  1.00  0.00    -0.368 OA
HETATM    4  C5  UNL     1      32.820  -5.611 -11.223  1.00  0.00     0.210 C 
HETATM    5  C6  UNL     1      32.851  -6.986 -10.599  1.00  0.00     0.058 C 
HETATM    6  N1  UNL     1      31.553  -5.314 -11.827  1.00  0.00    -0.203 NA
ENDROOT
BRANCH   6   7
HETATM    7  N2  UNL     1      31.660  -4.628 -13.039  1.00  0.00    -0.361 NA
ATOM      8  H22 UNL     1      31.942  -3.654 -12.932  1.00  0.00     0.171 HD
ATOM      9  H21 UNL     1      30.772  -4.617 -13.541  1.00  0.00     0.171 HD
ENDBRANCH   6   7
BRANCH   1  10
HETATM   10  C2  UNL     1      29.737  -5.449 -10.300  1.00  0.00     0.019 C 
HETATM   11  C1  UNL     1      28.907  -4.859  -9.214  1.00  0.00     0.007 C 
ENDBRANCH   1  10
TORSDOF 2
ENDMDL
MODEL 5
REMARK VINA RESULT: -3.793514295      0.882      1.030
REMARK  2 active torsions:
REMARK  status: ('A' for Active; 'I' for Inactive)
REMARK    1  A    between atoms: C2_2  and  C3_3 
REMARK    2  A    between atoms: N1_8  and  N2_9 
ROOT
HETATM    1  C3  UNL     1      31.044  -4.363  -9.848  1.00  0.00     0.105 C 
HETATM    2  C4  UNL     1      32.424  -4.901 -10.025  1.00  0.00     0.191 C 
HETATM    3  O1  UNL     1      33.118  -4.046 -10.864  1.00  0.00    -0.368 OA
HETATM    4  C5  UNL     1      32.219  -3.225 -11.493  1.00  0.00     0.210 C 
HETATM    5  C6  UNL     1      31.919  -3.769 -12.870  1.00  0.00     0.058 C 
HETATM    6  N1  UNL     1      31.048  -3.151 -10.668  1.00  0.00    -0.203 NA
ENDROOT
BRANCH   6   7
HETATM    7  N2  UNL     1      30.994  -2.000  -9.878  1.00  0.00    -0.361 NA
ATOM      8  H22 UNL     1      30.662  -2.173  -8.930  1.00  0.00     0.171 HD
ATOM      9  H21 UNL     1      30.368  -1.302 -10.280  1.00  0.00     0.171 HD
ENDBRANCH   6   7
BRANCH   1  10
HETATM   10  C2  UNL     1      29.970  -5.251 -10.390  1.00  0.00     0.019 C 
HETATM   11  C1  UNL     1      28.884  -5.576  -9.425  1.00  0.00     0.007 C 
ENDBRANCH   1  10
TORSDOF 2
ENDMDL
