MODEL 1
REMARK VINA RESULT: -7.166447352      0.000      0.000
REMARK  13 active torsions:
REMARK  status: ('A' for Active; 'I' for Inactive)
REMARK    1  A    between atoms: C2_2  and  N1_3 
REMARK    2  A    between atoms: C2_2  and  N2_7 
REMARK    3  A    between atoms: N2_7  and  S1_9 
REMARK    4  A    between atoms: S1_9  and  N3_10 
REMARK    5  A    between atoms: S1_9  and  C3_14 
REMARK    6  A    between atoms: C6_22  and  C7_23 
REMARK       I    between atoms: C7_23  and  N6_25 
REMARK    7  A    between atoms: N6_25  and  C8_27 
REMARK    8  A    between atoms: C8_27  and  C9_28 
REMARK    9  A    between atoms: C8_27  and  C10_33 
REMARK   10  A    between atoms: C9_28  and  O4_29 
REMARK   11  A    between atoms: C9_28  and  O5_31 
REMARK   12  A    between atoms: C10_33  and  O6_34 
REMARK   13  A    between atoms: C10_33  and  O7_36 
ROOT
HETATM    1  C3  UNL     1      -5.915 -41.581  19.526  1.00  0.00     0.205 A 
HETATM    2  N4  UNL     1      -5.387 -41.537  20.759  1.00  0.00    -0.316 N 
ATOM      3  H4  UNL     1      -5.514 -42.258  21.470  1.00  0.00     0.169 HD
HETATM    4  C4  UNL     1      -4.662 -40.404  20.931  1.00  0.00     0.155 A 
HETATM    5  N5  UNL     1      -3.952 -39.893  21.951  1.00  0.00    -0.304 N 
ATOM      6  H5  UNL     1      -3.901 -40.418  22.824  1.00  0.00     0.171 HD
HETATM    7  C5  UNL     1      -3.296 -38.697  21.863  1.00  0.00     0.279 A 
HETATM    8  O2  UNL     1      -2.649 -38.271  22.851  1.00  0.00    -0.265 OA
HETATM    9  C6  UNL     1      -3.385 -38.015  20.679  1.00  0.00     0.171 A 
HETATM   10  N7  UNL     1      -4.116 -38.557  19.649  1.00  0.00    -0.330 N 
ATOM     11  H7  UNL     1      -4.173 -38.040  18.771  1.00  0.00     0.168 HD
HETATM   12  C11 UNL     1      -4.754 -39.723  19.738  1.00  0.00     0.153 A 
HETATM   13  N8  UNL     1      -5.518 -40.461  18.907  1.00  0.00    -0.316 N 
ATOM     14  H8  UNL     1      -5.758 -40.205  17.950  1.00  0.00     0.169 HD
ENDROOT
BRANCH   9  15
HETATM   15  C7  UNL     1      -2.728 -36.734  20.473  1.00  0.00     0.274 C 
HETATM   16  O3  UNL     1      -3.546 -35.750  20.293  1.00  0.00    -0.266 OA
HETATM   17  N6  UNL     1      -1.368 -36.445  20.445  1.00  0.00    -0.341 N 
ATOM     18  H6  UNL     1      -0.697 -37.201  20.582  1.00  0.00     0.163 HD
BRANCH  17  19
HETATM   19  C8  UNL     1      -0.868 -35.074  20.221  1.00  0.00     0.194 C 
BRANCH  19  20
HETATM   20  C9  UNL     1      -0.492 -34.854  18.793  1.00  0.00     0.281 C 
BRANCH  20  21
HETATM   21  O4  UNL     1      -1.603 -35.171  18.013  1.00  0.00    -0.369 OA
ATOM     22  H4  UNL     1      -2.192 -34.426  18.037  1.00  0.00     0.212 HD
ENDBRANCH  20  21
BRANCH  20  23
HETATM   23  O5  UNL     1       0.501 -35.781  18.458  1.00  0.00    -0.369 OA
ATOM     24  H5  UNL     1       0.995 -35.432  17.726  1.00  0.00     0.212 HD
ENDBRANCH  20  23
ENDBRANCH  19  20
BRANCH  19  25
HETATM   25  C10 UNL     1       0.233 -34.838  21.199  1.00  0.00     0.281 C 
BRANCH  25  26
HETATM   26  O6  UNL     1       0.916 -36.003  21.451  1.00  0.00    -0.369 OA
ATOM     27  H6  UNL     1       1.572 -35.868  22.123  1.00  0.00     0.212 HD
ENDBRANCH  25  26
BRANCH  25  28
HETATM   28  O7  UNL     1       1.101 -33.838  20.768  1.00  0.00    -0.369 OA
ATOM     29  H7  UNL     1       1.718 -33.592  21.446  1.00  0.00     0.212 HD
ENDBRANCH  25  28
ENDBRANCH  19  25
ENDBRANCH  17  19
ENDBRANCH   9  15
BRANCH   1  30
HETATM   30  S1  UNL     1      -6.925 -42.858  18.856  1.00  0.00     0.167 S 
HETATM   31  O1  UNL     1      -6.210 -44.167  19.012  1.00  0.00    -0.221 OA
BRANCH  30  32
HETATM   32  N2  UNL     1      -7.118 -42.627  17.330  1.00  0.00    -0.301 N 
ATOM     33  H2  UNL     1      -7.315 -41.705  16.940  1.00  0.00     0.173 HD
BRANCH  32  34
HETATM   34  C2  UNL     1      -6.999 -43.814  16.494  1.00  0.00     0.285 C 
HETATM   35  C1  UNL     1      -6.835 -43.325  15.075  1.00  0.00     0.063 C 
BRANCH  34  36
HETATM   36  N1  UNL     1      -8.168 -44.653  16.619  1.00  0.00    -0.058 N 
ATOM     37  H13 UNL     1      -8.753 -44.608  15.785  1.00  0.00     0.276 HD
ATOM     38  H12 UNL     1      -7.925 -45.643  16.585  1.00  0.00     0.276 HD
ATOM     39  H11 UNL     1      -8.694 -44.423  17.462  1.00  0.00     0.276 HD
ENDBRANCH  34  36
ENDBRANCH  32  34
ENDBRANCH  30  32
BRANCH  30  40
HETATM   40  N3  UNL     1      -8.475 -42.850  19.588  1.00  0.00    -0.339 N 
ATOM     41  H32 UNL     1      -9.358 -42.708  19.097  1.00  0.00     0.167 HD
ATOM     42  H31 UNL     1      -8.348 -43.011  20.587  1.00  0.00     0.167 HD
ENDBRANCH  30  40
ENDBRANCH   1  30
TORSDOF 13
ENDMDL
MODEL 2
REMARK VINA RESULT: -7.095315894      1.820      2.441
REMARK  13 active torsions:
REMARK  status: ('A' for Active; 'I' for Inactive)
REMARK    1  A    between atoms: C2_2  and  N1_3 
REMARK    2  A    between atoms: C2_2  and  N2_7 
REMARK    3  A    between atoms: N2_7  and  S1_9 
REMARK    4  A    between atoms: S1_9  and  N3_10 
REMARK    5  A    between atoms: S1_9  and  C3_14 
REMARK    6  A    between atoms: C6_22  and  C7_23 
REMARK       I    between atoms: C7_23  and  N6_25 
REMARK    7  A    between atoms: N6_25  and  C8_27 
REMARK    8  A    between atoms: C8_27  and  C9_28 
REMARK    9  A    between atoms: C8_27  and  C10_33 
REMARK   10  A    between atoms: C9_28  and  O4_29 
REMARK   11  A    between atoms: C9_28  and  O5_31 
REMARK   12  A    between atoms: C10_33  and  O6_34 
REMARK   13  A    between atoms: C10_33  and  O7_36 
ROOT
HETATM    1  C3  UNL     1      -7.086 -41.048  19.906  1.00  0.00     0.205 A 
HETATM    2  N4  UNL     1      -7.774 -39.903  20.047  1.00  0.00    -0.316 N 
ATOM      3  H4  UNL     1      -8.791 -39.830  20.017  1.00  0.00     0.169 HD
HETATM    4  C4  UNL     1      -6.930 -38.857  20.234  1.00  0.00     0.155 A 
HETATM    5  N5  UNL     1      -7.102 -37.538  20.421  1.00  0.00    -0.304 N 
ATOM      6  H5  UNL     1      -8.051 -37.165  20.438  1.00  0.00     0.171 HD
HETATM    7  C5  UNL     1      -6.054 -36.677  20.591  1.00  0.00     0.279 A 
HETATM    8  O2  UNL     1      -6.279 -35.454  20.761  1.00  0.00    -0.265 OA
HETATM    9  C6  UNL     1      -4.792 -37.208  20.563  1.00  0.00     0.171 A 
HETATM   10  N7  UNL     1      -4.639 -38.560  20.371  1.00  0.00    -0.330 N 
ATOM     11  H7  UNL     1      -3.694 -38.943  20.353  1.00  0.00     0.168 HD
HETATM   12  C11 UNL     1      -5.663 -39.396  20.206  1.00  0.00     0.153 A 
HETATM   13  N8  UNL     1      -5.791 -40.724  20.006  1.00  0.00    -0.316 N 
ATOM     14  H8  UNL     1      -5.016 -41.383  19.941  1.00  0.00     0.169 HD
ENDROOT
BRANCH   9  15
HETATM   15  C7  UNL     1      -3.603 -36.386  20.732  1.00  0.00     0.274 C 
HETATM   16  O3  UNL     1      -3.231 -36.252  21.962  1.00  0.00    -0.266 OA
HETATM   17  N6  UNL     1      -2.841 -35.743  19.762  1.00  0.00    -0.341 N 
ATOM     18  H6  UNL     1      -3.111 -35.829  18.782  1.00  0.00     0.163 HD
BRANCH  17  19
HETATM   19  C8  UNL     1      -1.652 -34.941  20.111  1.00  0.00     0.194 C 
BRANCH  19  20
HETATM   20  C9  UNL     1      -1.988 -33.492  20.237  1.00  0.00     0.281 C 
BRANCH  20  21
HETATM   21  O4  UNL     1      -2.935 -33.193  19.258  1.00  0.00    -0.369 OA
ATOM     22  H4  UNL     1      -2.529 -32.597  18.640  1.00  0.00     0.212 HD
ENDBRANCH  20  21
BRANCH  20  23
HETATM   23  O5  UNL     1      -0.844 -32.752  19.916  1.00  0.00    -0.369 OA
ATOM     24  H5  UNL     1      -1.114 -31.863  19.718  1.00  0.00     0.212 HD
ENDBRANCH  20  23
ENDBRANCH  19  20
BRANCH  19  25
HETATM   25  C10 UNL     1      -0.595 -35.252  19.106  1.00  0.00     0.281 C 
BRANCH  25  26
HETATM   26  O6  UNL     1      -0.086 -36.510  19.313  1.00  0.00    -0.369 OA
ATOM     27  H6  UNL     1       0.432 -36.788  18.567  1.00  0.00     0.212 HD
ENDBRANCH  25  26
BRANCH  25  28
HETATM   28  O7  UNL     1      -1.067 -35.116  17.803  1.00  0.00    -0.369 OA
ATOM     29  H7  UNL     1      -0.592 -34.447  17.325  1.00  0.00     0.212 HD
ENDBRANCH  25  28
ENDBRANCH  19  25
ENDBRANCH  17  19
ENDBRANCH   9  15
BRANCH   1  30
HETATM   30  S1  UNL     1      -7.758 -42.654  19.643  1.00  0.00     0.167 S 
HETATM   31  O1  UNL     1      -6.942 -43.648  20.414  1.00  0.00    -0.221 OA
BRANCH  30  32
HETATM   32  N2  UNL     1      -7.633 -43.035  18.140  1.00  0.00    -0.301 N 
ATOM     33  H2  UNL     1      -8.445 -43.280  17.572  1.00  0.00     0.173 HD
BRANCH  32  34
HETATM   34  C2  UNL     1      -6.282 -43.018  17.597  1.00  0.00     0.285 C 
HETATM   35  C1  UNL     1      -6.424 -42.985  16.094  1.00  0.00     0.063 C 
BRANCH  34  36
HETATM   36  N1  UNL     1      -5.540 -44.182  18.021  1.00  0.00    -0.058 N 
ATOM     37  H13 UNL     1      -6.129 -45.015  18.042  1.00  0.00     0.276 HD
ATOM     38  H12 UNL     1      -4.873 -44.482  17.310  1.00  0.00     0.276 HD
ATOM     39  H11 UNL     1      -5.086 -44.018  18.919  1.00  0.00     0.276 HD
ENDBRANCH  34  36
ENDBRANCH  32  34
ENDBRANCH  30  32
BRANCH  30  40
HETATM   40  N3  UNL     1      -9.421 -42.690  20.056  1.00  0.00    -0.339 N 
ATOM     41  H32 UNL     1     -10.184 -42.906  19.414  1.00  0.00     0.167 HD
ATOM     42  H31 UNL     1      -9.501 -42.458  21.046  1.00  0.00     0.167 HD
ENDBRANCH  30  40
ENDBRANCH   1  30
TORSDOF 13
ENDMDL
MODEL 3
REMARK VINA RESULT: -7.000624469      1.748      2.467
REMARK  13 active torsions:
REMARK  status: ('A' for Active; 'I' for Inactive)
REMARK    1  A    between atoms: C2_2  and  N1_3 
REMARK    2  A    between atoms: C2_2  and  N2_7 
REMARK    3  A    between atoms: N2_7  and  S1_9 
REMARK    4  A    between atoms: S1_9  and  N3_10 
REMARK    5  A    between atoms: S1_9  and  C3_14 
REMARK    6  A    between atoms: C6_22  and  C7_23 
REMARK       I    between atoms: C7_23  and  N6_25 
REMARK    7  A    between atoms: N6_25  and  C8_27 
REMARK    8  A    between atoms: C8_27  and  C9_28 
REMARK    9  A    between atoms: C8_27  and  C10_33 
REMARK   10  A    between atoms: C9_28  and  O4_29 
REMARK   11  A    between atoms: C9_28  and  O5_31 
REMARK   12  A    between atoms: C10_33  and  O6_34 
REMARK   13  A    between atoms: C10_33  and  O7_36 
ROOT
HETATM    1  C3  UNL     1      -5.808 -41.102  19.897  1.00  0.00     0.205 A 
HETATM    2  N4  UNL     1      -6.611 -40.048  20.115  1.00  0.00    -0.316 N 
ATOM      3  H4  UNL     1      -7.628 -40.098  20.182  1.00  0.00     0.169 HD
HETATM    4  C4  UNL     1      -5.885 -38.908  20.232  1.00  0.00     0.155 A 
HETATM    5  N5  UNL     1      -6.195 -37.619  20.449  1.00  0.00    -0.304 N 
ATOM      6  H5  UNL     1      -7.176 -37.363  20.559  1.00  0.00     0.171 HD
HETATM    7  C5  UNL     1      -5.246 -36.638  20.527  1.00  0.00     0.279 A 
HETATM    8  O2  UNL     1      -5.598 -35.451  20.731  1.00  0.00    -0.265 OA
HETATM    9  C6  UNL     1      -3.938 -37.013  20.374  1.00  0.00     0.171 A 
HETATM   10  N7  UNL     1      -3.644 -38.338  20.154  1.00  0.00    -0.330 N 
ATOM     11  H7  UNL     1      -2.665 -38.604  20.043  1.00  0.00     0.168 HD
HETATM   12  C11 UNL     1      -4.571 -39.291  20.078  1.00  0.00     0.153 A 
HETATM   13  N8  UNL     1      -4.558 -40.625  19.878  1.00  0.00    -0.316 N 
ATOM     14  H8  UNL     1      -3.719 -41.186  19.732  1.00  0.00     0.169 HD
ENDROOT
BRANCH   9  15
HETATM   15  C7  UNL     1      -2.846 -36.054  20.438  1.00  0.00     0.274 C 
HETATM   16  O3  UNL     1      -2.385 -35.866  21.630  1.00  0.00    -0.266 OA
HETATM   17  N6  UNL     1      -2.254 -35.335  19.405  1.00  0.00    -0.341 N 
ATOM     18  H6  UNL     1      -2.597 -35.460  18.453  1.00  0.00     0.163 HD
BRANCH  17  19
HETATM   19  C8  UNL     1      -1.144 -34.393  19.649  1.00  0.00     0.194 C 
BRANCH  19  20
HETATM   20  C9  UNL     1      -1.633 -32.988  19.766  1.00  0.00     0.281 C 
BRANCH  20  21
HETATM   21  O4  UNL     1      -1.849 -32.729  21.119  1.00  0.00    -0.369 OA
ATOM     22  H4  UNL     1      -2.652 -33.170  21.370  1.00  0.00     0.212 HD
ENDBRANCH  20  21
BRANCH  20  23
HETATM   23  O5  UNL     1      -2.886 -32.912  19.147  1.00  0.00    -0.369 OA
ATOM     24  H5  UNL     1      -2.774 -32.484  18.307  1.00  0.00     0.212 HD
ENDBRANCH  20  23
ENDBRANCH  19  20
BRANCH  19  25
HETATM   25  C10 UNL     1      -0.131 -34.614  18.577  1.00  0.00     0.281 C 
BRANCH  25  26
HETATM   26  O6  UNL     1       0.910 -33.727  18.703  1.00  0.00    -0.369 OA
ATOM     27  H6  UNL     1       1.728 -34.132  18.442  1.00  0.00     0.212 HD
ENDBRANCH  25  26
BRANCH  25  28
HETATM   28  O7  UNL     1       0.334 -35.926  18.570  1.00  0.00    -0.369 OA
ATOM     29  H7  UNL     1       1.084 -36.036  19.142  1.00  0.00     0.212 HD
ENDBRANCH  25  28
ENDBRANCH  19  25
ENDBRANCH  17  19
ENDBRANCH   9  15
BRANCH   1  30
HETATM   30  S1  UNL     1      -6.305 -42.778  19.682  1.00  0.00     0.167 S 
HETATM   31  O1  UNL     1      -5.999 -43.535  20.940  1.00  0.00    -0.221 OA
BRANCH  30  32
HETATM   32  N2  UNL     1      -5.467 -43.431  18.546  1.00  0.00    -0.301 N 
ATOM     33  H2  UNL     1      -4.493 -43.705  18.677  1.00  0.00     0.173 HD
BRANCH  32  34
HETATM   34  C2  UNL     1      -6.164 -43.623  17.282  1.00  0.00     0.285 C 
HETATM   35  C1  UNL     1      -6.048 -45.091  16.948  1.00  0.00     0.063 C 
BRANCH  34  36
HETATM   36  N1  UNL     1      -5.583 -42.809  16.241  1.00  0.00    -0.058 N 
ATOM     37  H13 UNL     1      -4.591 -43.013  16.114  1.00  0.00     0.276 HD
ATOM     38  H12 UNL     1      -5.917 -43.083  15.317  1.00  0.00     0.276 HD
ATOM     39  H11 UNL     1      -5.744 -41.817  16.420  1.00  0.00     0.276 HD
ENDBRANCH  34  36
ENDBRANCH  32  34
ENDBRANCH  30  32
BRANCH  30  40
HETATM   40  N3  UNL     1      -7.957 -42.867  19.233  1.00  0.00    -0.339 N 
ATOM     41  H32 UNL     1      -8.602 -43.609  19.503  1.00  0.00     0.167 HD
ATOM     42  H31 UNL     1      -8.167 -42.053  18.656  1.00  0.00     0.167 HD
ENDBRANCH  30  40
ENDBRANCH   1  30
TORSDOF 13
ENDMDL
MODEL 4
REMARK VINA RESULT: -6.913642126      1.315      1.885
REMARK  13 active torsions:
REMARK  status: ('A' for Active; 'I' for Inactive)
REMARK    1  A    between atoms: C2_2  and  N1_3 
REMARK    2  A    between atoms: C2_2  and  N2_7 
REMARK    3  A    between atoms: N2_7  and  S1_9 
REMARK    4  A    between atoms: S1_9  and  N3_10 
REMARK    5  A    between atoms: S1_9  and  C3_14 
REMARK    6  A    between atoms: C6_22  and  C7_23 
REMARK       I    between atoms: C7_23  and  N6_25 
REMARK    7  A    between atoms: N6_25  and  C8_27 
REMARK    8  A    between atoms: C8_27  and  C9_28 
REMARK    9  A    between atoms: C8_27  and  C10_33 
REMARK   10  A    between atoms: C9_28  and  O4_29 
REMARK   11  A    between atoms: C9_28  and  O5_31 
REMARK   12  A    between atoms: C10_33  and  O6_34 
REMARK   13  A    between atoms: C10_33  and  O7_36 
ROOT
HETATM    1  C3  UNL     1      -5.747 -41.331  19.548  1.00  0.00     0.205 A 
HETATM    2  N4  UNL     1      -5.282 -41.177  20.797  1.00  0.00    -0.316 N 
ATOM      3  H4  UNL     1      -5.482 -41.809  21.573  1.00  0.00     0.169 HD
HETATM    4  C4  UNL     1      -4.507 -40.067  20.888  1.00  0.00     0.155 A 
HETATM    5  N5  UNL     1      -3.825 -39.481  21.886  1.00  0.00    -0.304 N 
ATOM      6  H5  UNL     1      -3.846 -39.909  22.812  1.00  0.00     0.171 HD
HETATM    7  C5  UNL     1      -3.103 -38.334  21.708  1.00  0.00     0.279 A 
HETATM    8  O2  UNL     1      -2.485 -37.834  22.680  1.00  0.00    -0.265 OA
HETATM    9  C6  UNL     1      -3.095 -37.783  20.454  1.00  0.00     0.171 A 
HETATM   10  N7  UNL     1      -3.800 -38.399  19.449  1.00  0.00    -0.330 N 
ATOM     11  H7  UNL     1      -3.785 -37.979  18.519  1.00  0.00     0.168 HD
HETATM   12  C11 UNL     1      -4.502 -39.517  19.626  1.00  0.00     0.153 A 
HETATM   13  N8  UNL     1      -5.261 -40.306  18.837  1.00  0.00    -0.316 N 
ATOM     14  H8  UNL     1      -5.438 -40.144  17.846  1.00  0.00     0.169 HD
ENDROOT
BRANCH   9  15
HETATM   15  C7  UNL     1      -2.361 -36.564  20.150  1.00  0.00     0.274 C 
HETATM   16  O3  UNL     1      -1.530 -36.685  19.168  1.00  0.00    -0.266 OA
HETATM   17  N6  UNL     1      -2.440 -35.320  20.768  1.00  0.00    -0.341 N 
ATOM     18  H6  UNL     1      -3.085 -35.194  21.548  1.00  0.00     0.163 HD
BRANCH  17  19
HETATM   19  C8  UNL     1      -1.614 -34.178  20.328  1.00  0.00     0.194 C 
BRANCH  19  20
HETATM   20  C9  UNL     1      -0.416 -34.000  21.201  1.00  0.00     0.281 C 
BRANCH  20  21
HETATM   21  O4  UNL     1       0.178 -32.788  20.855  1.00  0.00    -0.369 OA
ATOM     22  H4  UNL     1      -0.492 -32.117  20.901  1.00  0.00     0.212 HD
ENDBRANCH  20  21
BRANCH  20  23
HETATM   23  O5  UNL     1       0.509 -34.999  20.875  1.00  0.00    -0.369 OA
ATOM     24  H5  UNL     1       1.032 -34.689  20.146  1.00  0.00     0.212 HD
ENDBRANCH  20  23
ENDBRANCH  19  20
BRANCH  19  25
HETATM   25  C10 UNL     1      -2.510 -32.988  20.247  1.00  0.00     0.281 C 
BRANCH  25  26
HETATM   26  O6  UNL     1      -2.442 -32.251  21.403  1.00  0.00    -0.369 OA
ATOM     27  H6  UNL     1      -2.251 -31.342  21.210  1.00  0.00     0.212 HD
ENDBRANCH  25  26
BRANCH  25  28
HETATM   28  O7  UNL     1      -2.219 -32.199  19.138  1.00  0.00    -0.369 OA
ATOM     29  H7  UNL     1      -2.939 -31.620  18.920  1.00  0.00     0.212 HD
ENDBRANCH  25  28
ENDBRANCH  19  25
ENDBRANCH  17  19
ENDBRANCH   9  15
BRANCH   1  30
HETATM   30  S1  UNL     1      -6.787 -42.625  18.962  1.00  0.00     0.167 S 
HETATM   31  O1  UNL     1      -6.100 -43.937  19.197  1.00  0.00    -0.221 OA
BRANCH  30  32
HETATM   32  N2  UNL     1      -6.982 -42.485  17.425  1.00  0.00    -0.301 N 
ATOM     33  H2  UNL     1      -7.142 -41.583  16.978  1.00  0.00     0.173 HD
BRANCH  32  34
HETATM   34  C2  UNL     1      -6.923 -43.728  16.669  1.00  0.00     0.285 C 
HETATM   35  C1  UNL     1      -6.882 -43.340  15.210  1.00  0.00     0.063 C 
BRANCH  34  36
HETATM   36  N1  UNL     1      -8.069 -44.560  16.950  1.00  0.00    -0.058 N 
ATOM     37  H13 UNL     1      -7.794 -45.454  17.356  1.00  0.00     0.276 HD
ATOM     38  H12 UNL     1      -8.615 -44.196  17.731  1.00  0.00     0.276 HD
ATOM     39  H11 UNL     1      -8.642 -44.685  16.115  1.00  0.00     0.276 HD
ENDBRANCH  34  36
ENDBRANCH  32  34
ENDBRANCH  30  32
BRANCH  30  40
HETATM   40  N3  UNL     1      -8.333 -42.538  19.697  1.00  0.00    -0.339 N 
ATOM     41  H32 UNL     1      -9.010 -43.300  19.738  1.00  0.00     0.167 HD
ATOM     42  H31 UNL     1      -8.444 -41.599  20.078  1.00  0.00     0.167 HD
ENDBRANCH  30  40
ENDBRANCH   1  30
TORSDOF 13
ENDMDL
MODEL 5
REMARK VINA RESULT: -6.858049032      6.338      7.522
REMARK  13 active torsions:
REMARK  status: ('A' for Active; 'I' for Inactive)
REMARK    1  A    between atoms: C2_2  and  N1_3 
REMARK    2  A    between atoms: C2_2  and  N2_7 
REMARK    3  A    between atoms: N2_7  and  S1_9 
REMARK    4  A    between atoms: S1_9  and  N3_10 
REMARK    5  A    between atoms: S1_9  and  C3_14 
REMARK    6  A    between atoms: C6_22  and  C7_23 
REMARK       I    between atoms: C7_23  and  N6_25 
REMARK    7  A    between atoms: N6_25  and  C8_27 
REMARK    8  A    between atoms: C8_27  and  C9_28 
REMARK    9  A    between atoms: C8_27  and  C10_33 
REMARK   10  A    between atoms: C9_28  and  O4_29 
REMARK   11  A    between atoms: C9_28  and  O5_31 
REMARK   12  A    between atoms: C10_33  and  O6_34 
REMARK   13  A    between atoms: C10_33  and  O7_36 
ROOT
HETATM    1  C3  UNL     1      -9.595 -35.561  24.317  1.00  0.00     0.205 A 
HETATM    2  N4  UNL     1      -9.692 -36.093  23.089  1.00  0.00    -0.316 N 
ATOM      3  H4  UNL     1     -10.564 -36.398  22.656  1.00  0.00     0.169 HD
HETATM    4  C4  UNL     1      -8.471 -36.169  22.502  1.00  0.00     0.155 A 
HETATM    5  N5  UNL     1      -8.031 -36.610  21.311  1.00  0.00    -0.304 N 
ATOM      6  H5  UNL     1      -8.708 -36.986  20.647  1.00  0.00     0.171 HD
HETATM    7  C5  UNL     1      -6.711 -36.575  20.956  1.00  0.00     0.279 A 
HETATM    8  O2  UNL     1      -6.361 -37.002  19.829  1.00  0.00    -0.265 OA
HETATM    9  C6  UNL     1      -5.827 -36.066  21.870  1.00  0.00     0.171 A 
HETATM   10  N7  UNL     1      -6.299 -35.620  23.081  1.00  0.00    -0.330 N 
ATOM     11  H7  UNL     1      -5.630 -35.241  23.752  1.00  0.00     0.168 HD
HETATM   12  C11 UNL     1      -7.586 -35.656  23.424  1.00  0.00     0.153 A 
HETATM   13  N8  UNL     1      -8.297 -35.296  24.512  1.00  0.00    -0.316 N 
ATOM     14  H8  UNL     1      -7.904 -34.883  25.357  1.00  0.00     0.169 HD
ENDROOT
BRANCH   9  15
HETATM   15  C7  UNL     1      -4.400 -35.979  21.599  1.00  0.00     0.274 C 
HETATM   16  O3  UNL     1      -3.659 -36.142  22.645  1.00  0.00    -0.266 OA
HETATM   17  N6  UNL     1      -3.753 -35.747  20.390  1.00  0.00    -0.341 N 
ATOM     18  H6  UNL     1      -4.311 -35.613  19.547  1.00  0.00     0.163 HD
BRANCH  17  19
HETATM   19  C8  UNL     1      -2.281 -35.690  20.293  1.00  0.00     0.194 C 
BRANCH  19  20
HETATM   20  C9  UNL     1      -1.834 -34.589  19.390  1.00  0.00     0.281 C 
BRANCH  20  21
HETATM   21  O4  UNL     1      -2.880 -33.672  19.297  1.00  0.00    -0.369 OA
ATOM     22  H4  UNL     1      -3.009 -33.478  18.376  1.00  0.00     0.212 HD
ENDBRANCH  20  21
BRANCH  20  23
HETATM   23  O5  UNL     1      -1.664 -35.123  18.107  1.00  0.00    -0.369 OA
ATOM     24  H5  UNL     1      -0.852 -34.781  17.752  1.00  0.00     0.212 HD
ENDBRANCH  20  23
ENDBRANCH  19  20
BRANCH  19  25
HETATM   25  C10 UNL     1      -1.809 -37.050  19.901  1.00  0.00     0.281 C 
BRANCH  25  26
HETATM   26  O6  UNL     1      -2.569 -37.548  18.871  1.00  0.00    -0.369 OA
ATOM     27  H6  UNL     1      -2.282 -38.421  18.635  1.00  0.00     0.212 HD
ENDBRANCH  25  26
BRANCH  25  28
HETATM   28  O7  UNL     1      -0.458 -37.049  19.565  1.00  0.00    -0.369 OA
ATOM     29  H7  UNL     1      -0.259 -37.708  18.911  1.00  0.00     0.212 HD
ENDBRANCH  25  28
ENDBRANCH  19  25
ENDBRANCH  17  19
ENDBRANCH   9  15
BRANCH   1  30
HETATM   30  S1  UNL     1     -10.914 -35.269  25.446  1.00  0.00     0.167 S 
HETATM   31  O1  UNL     1     -11.118 -36.501  26.277  1.00  0.00    -0.221 OA
BRANCH  30  32
HETATM   32  N2  UNL     1     -12.235 -35.031  24.658  1.00  0.00    -0.301 N 
ATOM     33  H2  UNL     1     -12.365 -34.224  24.049  1.00  0.00     0.173 HD
BRANCH  32  34
HETATM   34  C2  UNL     1     -13.271 -36.037  24.850  1.00  0.00     0.285 C 
HETATM   35  C1  UNL     1     -14.303 -35.798  23.774  1.00  0.00     0.063 C 
BRANCH  34  36
HETATM   36  N1  UNL     1     -13.859 -35.929  26.163  1.00  0.00    -0.058 N 
ATOM     37  H13 UNL     1     -13.823 -34.971  26.514  1.00  0.00     0.276 HD
ATOM     38  H12 UNL     1     -14.872 -36.044  26.133  1.00  0.00     0.276 HD
ATOM     39  H11 UNL     1     -13.425 -36.585  26.813  1.00  0.00     0.276 HD
ENDBRANCH  34  36
ENDBRANCH  32  34
ENDBRANCH  30  32
BRANCH  30  40
HETATM   40  N3  UNL     1     -10.607 -33.871  26.388  1.00  0.00    -0.339 N 
ATOM     41  H32 UNL     1     -11.109 -32.987  26.313  1.00  0.00     0.167 HD
ATOM     42  H31 UNL     1      -9.841 -34.087  27.026  1.00  0.00     0.167 HD
ENDBRANCH  30  40
ENDBRANCH   1  30
TORSDOF 13
ENDMDL
