MODEL 1
REMARK VINA RESULT: -7.038629139      0.000      0.000
REMARK  5 active torsions:
REMARK  status: ('A' for Active; 'I' for Inactive)
REMARK    1  A    between atoms: C2_2  and  C3_3 
REMARK    2  A    between atoms: C3_3  and  N1_4 
REMARK    3  A    between atoms: N1_4  and  C4_6 
REMARK    4  A    between atoms: C8_19  and  S1_20 
REMARK    5  A    between atoms: S1_20  and  N7_21 
ROOT
HETATM    1  C4  UNL     1       9.652 -47.160  32.094  1.00  0.00     0.146 A 
HETATM    2  N2  UNL     1      10.821 -46.621  31.710  1.00  0.00    -0.171 N 
ATOM      3  H2  UNL     1      11.686 -47.110  31.942  1.00  0.00     0.186 HD
HETATM    4  C5  UNL     1      10.899 -45.448  31.023  1.00  0.00     0.722 A 
HETATM    5  N3  UNL     1      11.904 -44.719  30.539  1.00  0.00    -0.114 N 
ATOM      6  H3  UNL     1      12.897 -44.938  30.609  1.00  0.00     0.207 HD
HETATM    7  N4  UNL     1      11.379 -43.665  29.956  1.00  0.00    -0.213 N 
ATOM      8  H4  UNL     1      11.900 -42.921  29.492  1.00  0.00     0.210 HD
HETATM    9  N5  UNL     1      10.083 -43.727  30.069  1.00  0.00    -0.206 N 
ATOM     10  H5  UNL     1       9.424 -43.037  29.707  1.00  0.00     0.211 HD
HETATM   11  N6  UNL     1       9.761 -44.810  30.719  1.00  0.00    -0.067 N 
HETATM   12  C6  UNL     1       8.552 -45.324  31.090  1.00  0.00     0.109 A 
HETATM   13  C7  UNL     1       7.278 -44.858  30.893  1.00  0.00     0.078 A 
HETATM   14  C8  UNL     1       6.410 -45.760  31.470  1.00  0.00     0.151 A 
HETATM   15  N8  UNL     1       7.172 -46.735  31.993  1.00  0.00    -0.341 N 
ATOM     16  H8  UNL     1       6.803 -47.547  32.488  1.00  0.00     0.167 HD
HETATM   17  C9  UNL     1       8.468 -46.510  31.785  1.00  0.00     0.107 A 
ENDROOT
BRANCH  14  18
HETATM   18  S1  UNL     1       4.676 -45.561  31.458  1.00  0.00     0.272 S 
HETATM   19  O1  UNL     1       4.312 -44.473  32.437  1.00  0.00    -0.199 OA
HETATM   20  O2  UNL     1       4.047 -46.855  31.840  1.00  0.00    -0.199 OA
BRANCH  18  21
HETATM   21  N7  UNL     1       4.101 -45.077  29.906  1.00  0.00    -0.323 N 
ATOM     22  H72 UNL     1       4.578 -45.308  29.035  1.00  0.00     0.169 HD
ATOM     23  H71 UNL     1       3.236 -44.540  29.975  1.00  0.00     0.169 HD
ENDBRANCH  18  21
ENDBRANCH  14  18
BRANCH   1  24
HETATM   24  N1  UNL     1       9.567 -48.271  32.746  1.00  0.00    -0.374 N 
ATOM     25  H1  UNL     1       9.202 -48.285  33.698  1.00  0.00     0.161 HD
BRANCH  24  26
HETATM   26  C3  UNL     1       9.993 -49.489  32.113  1.00  0.00     0.121 C 
BRANCH  26  27
HETATM   27  C2  UNL     1       8.767 -50.268  31.691  1.00  0.00     0.015 C 
HETATM   28  C1  UNL     1       9.115 -51.681  31.315  1.00  0.00     0.006 C 
ENDBRANCH  26  27
ENDBRANCH  24  26
ENDBRANCH   1  24
TORSDOF 5
ENDMDL
MODEL 2
REMARK VINA RESULT: -6.897497099      1.372      1.899
REMARK  5 active torsions:
REMARK  status: ('A' for Active; 'I' for Inactive)
REMARK    1  A    between atoms: C2_2  and  C3_3 
REMARK    2  A    between atoms: C3_3  and  N1_4 
REMARK    3  A    between atoms: N1_4  and  C4_6 
REMARK    4  A    between atoms: C8_19  and  S1_20 
REMARK    5  A    between atoms: S1_20  and  N7_21 
ROOT
HETATM    1  C4  UNL     1       9.719 -47.030  32.145  1.00  0.00     0.146 A 
HETATM    2  N2  UNL     1      10.874 -46.484  31.731  1.00  0.00    -0.171 N 
ATOM      3  H2  UNL     1      11.750 -46.946  31.977  1.00  0.00     0.186 HD
HETATM    4  C5  UNL     1      10.922 -45.340  30.994  1.00  0.00     0.722 A 
HETATM    5  N3  UNL     1      11.909 -44.611  30.473  1.00  0.00    -0.114 N 
ATOM      6  H3  UNL     1      12.907 -44.807  30.544  1.00  0.00     0.207 HD
HETATM    7  N4  UNL     1      11.358 -43.594  29.849  1.00  0.00    -0.213 N 
ATOM      8  H4  UNL     1      11.861 -42.861  29.350  1.00  0.00     0.210 HD
HETATM    9  N5  UNL     1      10.065 -43.678  29.975  1.00  0.00    -0.206 N 
ATOM     10  H5  UNL     1       9.389 -43.018  29.588  1.00  0.00     0.211 HD
HETATM   11  N6  UNL     1       9.769 -44.739  30.672  1.00  0.00    -0.067 N 
HETATM   12  C6  UNL     1       8.574 -45.262  31.073  1.00  0.00     0.109 A 
HETATM   13  C7  UNL     1       7.289 -44.831  30.867  1.00  0.00     0.078 A 
HETATM   14  C8  UNL     1       6.444 -45.725  31.487  1.00  0.00     0.151 A 
HETATM   15  N8  UNL     1       7.229 -46.661  32.045  1.00  0.00    -0.341 N 
ATOM     16  H8  UNL     1       6.881 -47.459  32.577  1.00  0.00     0.167 HD
HETATM   17  C9  UNL     1       8.519 -46.418  31.819  1.00  0.00     0.107 A 
ENDROOT
BRANCH  14  18
HETATM   18  S1  UNL     1       4.706 -45.563  31.479  1.00  0.00     0.272 S 
HETATM   19  O1  UNL     1       4.323 -44.471  32.448  1.00  0.00    -0.199 OA
HETATM   20  O2  UNL     1       4.105 -46.865  31.878  1.00  0.00    -0.199 OA
BRANCH  18  21
HETATM   21  N7  UNL     1       4.115 -45.108  29.925  1.00  0.00    -0.323 N 
ATOM     22  H72 UNL     1       4.565 -44.405  29.339  1.00  0.00     0.169 HD
ATOM     23  H71 UNL     1       3.273 -45.626  29.675  1.00  0.00     0.169 HD
ENDBRANCH  18  21
ENDBRANCH  14  18
BRANCH   1  24
HETATM   24  N1  UNL     1       9.661 -48.114  32.844  1.00  0.00    -0.374 N 
ATOM     25  H1  UNL     1       8.992 -48.847  32.607  1.00  0.00     0.161 HD
BRANCH  24  26
HETATM   26  C3  UNL     1      10.551 -48.276  33.961  1.00  0.00     0.121 C 
BRANCH  26  27
HETATM   27  C2  UNL     1      10.006 -47.488  35.131  1.00  0.00     0.015 C 
HETATM   28  C1  UNL     1      10.956 -47.505  36.295  1.00  0.00     0.006 C 
ENDBRANCH  26  27
ENDBRANCH  24  26
ENDBRANCH   1  24
TORSDOF 5
ENDMDL
MODEL 3
REMARK VINA RESULT: -6.716281312      4.473      6.042
REMARK  5 active torsions:
REMARK  status: ('A' for Active; 'I' for Inactive)
REMARK    1  A    between atoms: C2_2  and  C3_3 
REMARK    2  A    between atoms: C3_3  and  N1_4 
REMARK    3  A    between atoms: N1_4  and  C4_6 
REMARK    4  A    between atoms: C8_19  and  S1_20 
REMARK    5  A    between atoms: S1_20  and  N7_21 
ROOT
HETATM    1  C4  UNL     1       8.875 -44.769  30.933  1.00  0.00     0.146 A 
HETATM    2  N2  UNL     1       8.939 -45.463  32.081  1.00  0.00    -0.171 N 
ATOM      3  H2  UNL     1       8.069 -45.740  32.535  1.00  0.00     0.186 HD
HETATM    4  C5  UNL     1      10.120 -45.812  32.662  1.00  0.00     0.722 A 
HETATM    5  N3  UNL     1      10.450 -46.480  33.768  1.00  0.00    -0.114 N 
ATOM      6  H3  UNL     1       9.803 -46.888  34.443  1.00  0.00     0.207 HD
HETATM    7  N4  UNL     1      11.762 -46.515  33.827  1.00  0.00    -0.213 N 
ATOM      8  H4  UNL     1      12.311 -46.959  34.563  1.00  0.00     0.210 HD
HETATM    9  N5  UNL     1      12.245 -45.889  32.793  1.00  0.00    -0.206 N 
ATOM     10  H5  UNL     1      13.236 -45.764  32.587  1.00  0.00     0.211 HD
HETATM   11  N6  UNL     1      11.260 -45.448  32.061  1.00  0.00    -0.067 N 
HETATM   12  C6  UNL     1      11.238 -44.742  30.893  1.00  0.00     0.109 A 
HETATM   13  C7  UNL     1      12.258 -44.268  30.109  1.00  0.00     0.078 A 
HETATM   14  C8  UNL     1      11.691 -43.619  29.034  1.00  0.00     0.151 A 
HETATM   15  N8  UNL     1      10.362 -43.716  29.193  1.00  0.00    -0.341 N 
ATOM     16  H8  UNL     1       9.677 -43.325  28.545  1.00  0.00     0.167 HD
HETATM   17  C9  UNL     1      10.047 -44.386  30.301  1.00  0.00     0.107 A 
ENDROOT
BRANCH  14  18
HETATM   18  S1  UNL     1      12.629 -42.857  27.774  1.00  0.00     0.272 S 
HETATM   19  O1  UNL     1      13.882 -42.285  28.389  1.00  0.00    -0.199 OA
HETATM   20  O2  UNL     1      11.805 -41.786  27.150  1.00  0.00    -0.199 OA
BRANCH  18  21
HETATM   21  N7  UNL     1      13.113 -43.987  26.566  1.00  0.00    -0.323 N 
ATOM     22  H72 UNL     1      14.073 -44.078  26.237  1.00  0.00     0.169 HD
ATOM     23  H71 UNL     1      12.325 -44.543  26.232  1.00  0.00     0.169 HD
ENDBRANCH  18  21
ENDBRANCH  14  18
BRANCH   1  24
HETATM   24  N1  UNL     1       7.762 -44.432  30.373  1.00  0.00    -0.374 N 
ATOM     25  H1  UNL     1       7.747 -43.731  29.631  1.00  0.00     0.161 HD
BRANCH  24  26
HETATM   26  C3  UNL     1       6.542 -45.056  30.807  1.00  0.00     0.121 C 
BRANCH  26  27
HETATM   27  C2  UNL     1       6.000 -45.897  29.672  1.00  0.00     0.015 C 
HETATM   28  C1  UNL     1       4.511 -45.745  29.538  1.00  0.00     0.006 C 
ENDBRANCH  26  27
ENDBRANCH  24  26
ENDBRANCH   1  24
TORSDOF 5
ENDMDL
MODEL 4
REMARK VINA RESULT: -6.622663233      1.900      4.097
REMARK  5 active torsions:
REMARK  status: ('A' for Active; 'I' for Inactive)
REMARK    1  A    between atoms: C2_2  and  C3_3 
REMARK    2  A    between atoms: C3_3  and  N1_4 
REMARK    3  A    between atoms: N1_4  and  C4_6 
REMARK    4  A    between atoms: C8_19  and  S1_20 
REMARK    5  A    between atoms: S1_20  and  N7_21 
ROOT
HETATM    1  C4  UNL     1      10.053 -44.820  30.602  1.00  0.00     0.146 A 
HETATM    2  N2  UNL     1      11.107 -45.513  31.063  1.00  0.00    -0.171 N 
ATOM      3  H2  UNL     1      12.043 -45.131  30.925  1.00  0.00     0.186 HD
HETATM    4  C5  UNL     1      10.977 -46.705  31.709  1.00  0.00     0.722 A 
HETATM    5  N3  UNL     1      11.837 -47.568  32.249  1.00  0.00    -0.114 N 
ATOM      6  H3  UNL     1      12.852 -47.474  32.273  1.00  0.00     0.207 HD
HETATM    7  N4  UNL     1      11.136 -48.563  32.744  1.00  0.00    -0.213 N 
ATOM      8  H4  UNL     1      11.517 -49.378  33.223  1.00  0.00     0.210 HD
HETATM    9  N5  UNL     1       9.873 -48.335  32.523  1.00  0.00    -0.206 N 
ATOM     10  H5  UNL     1       9.104 -48.945  32.801  1.00  0.00     0.211 HD
HETATM   11  N6  UNL     1       9.746 -47.202  31.890  1.00  0.00    -0.067 N 
HETATM   12  C6  UNL     1       8.649 -46.529  31.437  1.00  0.00     0.109 A 
HETATM   13  C7  UNL     1       7.314 -46.835  31.506  1.00  0.00     0.078 A 
HETATM   14  C8  UNL     1       6.620 -45.815  30.892  1.00  0.00     0.151 A 
HETATM   15  N8  UNL     1       7.540 -44.931  30.474  1.00  0.00    -0.341 N 
ATOM     16  H8  UNL     1       7.320 -44.065  29.980  1.00  0.00     0.167 HD
HETATM   17  C9  UNL     1       8.775 -45.324  30.783  1.00  0.00     0.107 A 
ENDROOT
BRANCH  14  18
HETATM   18  S1  UNL     1       4.880 -45.793  30.748  1.00  0.00     0.272 S 
HETATM   19  O1  UNL     1       4.402 -44.375  30.934  1.00  0.00    -0.199 OA
HETATM   20  O2  UNL     1       4.306 -46.690  31.789  1.00  0.00    -0.199 OA
BRANCH  18  21
HETATM   21  N7  UNL     1       4.362 -46.315  29.189  1.00  0.00    -0.323 N 
ATOM     22  H72 UNL     1       4.953 -46.850  28.553  1.00  0.00     0.169 HD
ATOM     23  H71 UNL     1       3.405 -46.023  28.993  1.00  0.00     0.169 HD
ENDBRANCH  18  21
ENDBRANCH  14  18
BRANCH   1  24
HETATM   24  N1  UNL     1      10.164 -43.690  29.988  1.00  0.00    -0.374 N 
ATOM     25  H1  UNL     1       9.370 -43.052  29.931  1.00  0.00     0.161 HD
BRANCH  24  26
HETATM   26  C3  UNL     1      11.422 -43.341  29.387  1.00  0.00     0.121 C 
BRANCH  26  27
HETATM   27  C2  UNL     1      11.366 -43.689  27.916  1.00  0.00     0.015 C 
HETATM   28  C1  UNL     1      12.725 -44.049  27.384  1.00  0.00     0.006 C 
ENDBRANCH  26  27
ENDBRANCH  24  26
ENDBRANCH   1  24
TORSDOF 5
ENDMDL
MODEL 5
REMARK VINA RESULT: -6.604736976      3.911      5.750
REMARK  5 active torsions:
REMARK  status: ('A' for Active; 'I' for Inactive)
REMARK    1  A    between atoms: C2_2  and  C3_3 
REMARK    2  A    between atoms: C3_3  and  N1_4 
REMARK    3  A    between atoms: N1_4  and  C4_6 
REMARK    4  A    between atoms: C8_19  and  S1_20 
REMARK    5  A    between atoms: S1_20  and  N7_21 
ROOT
HETATM    1  C4  UNL     1       7.944 -45.467  31.088  1.00  0.00     0.146 A 
HETATM    2  N2  UNL     1       7.916 -46.641  31.740  1.00  0.00    -0.171 N 
ATOM      3  H2  UNL     1       7.013 -47.031  32.010  1.00  0.00     0.186 HD
HETATM    4  C5  UNL     1       9.046 -47.334  32.054  1.00  0.00     0.722 A 
HETATM    5  N3  UNL     1       9.287 -48.487  32.677  1.00  0.00    -0.114 N 
ATOM      6  H3  UNL     1       8.589 -49.118  33.070  1.00  0.00     0.207 HD
HETATM    7  N4  UNL     1      10.589 -48.661  32.691  1.00  0.00    -0.213 N 
ATOM      8  H4  UNL     1      11.078 -49.457  33.101  1.00  0.00     0.210 HD
HETATM    9  N5  UNL     1      11.153 -47.649  32.096  1.00  0.00    -0.206 N 
ATOM     10  H5  UNL     1      12.157 -47.524  31.965  1.00  0.00     0.211 HD
HETATM   11  N6  UNL     1      10.230 -46.819  31.695  1.00  0.00    -0.067 N 
HETATM   12  C6  UNL     1      10.302 -45.629  31.031  1.00  0.00     0.109 A 
HETATM   13  C7  UNL     1      11.380 -44.919  30.570  1.00  0.00     0.078 A 
HETATM   14  C8  UNL     1      10.901 -43.777  29.968  1.00  0.00     0.151 A 
HETATM   15  N8  UNL     1       9.564 -43.824  30.078  1.00  0.00    -0.341 N 
ATOM     16  H8  UNL     1       8.934 -43.106  29.720  1.00  0.00     0.167 HD
HETATM   17  C9  UNL     1       9.162 -44.925  30.712  1.00  0.00     0.107 A 
ENDROOT
BRANCH  14  18
HETATM   18  S1  UNL     1      11.936 -42.574  29.239  1.00  0.00     0.272 S 
HETATM   19  O1  UNL     1      12.999 -43.281  28.435  1.00  0.00    -0.199 OA
HETATM   20  O2  UNL     1      12.544 -41.751  30.319  1.00  0.00    -0.199 OA
BRANCH  18  21
HETATM   21  N7  UNL     1      11.063 -41.552  28.159  1.00  0.00    -0.323 N 
ATOM     22  H72 UNL     1      11.359 -41.368  27.200  1.00  0.00     0.169 HD
ATOM     23  H71 UNL     1      10.228 -41.165  28.598  1.00  0.00     0.169 HD
ENDBRANCH  18  21
ENDBRANCH  14  18
BRANCH   1  24
HETATM   24  N1  UNL     1       6.879 -44.802  30.786  1.00  0.00    -0.374 N 
ATOM     25  H1  UNL     1       6.925 -44.025  30.127  1.00  0.00     0.161 HD
BRANCH  24  26
HETATM   26  C3  UNL     1       5.629 -45.170  31.391  1.00  0.00     0.121 C 
BRANCH  26  27
HETATM   27  C2  UNL     1       4.549 -45.123  30.332  1.00  0.00     0.015 C 
HETATM   28  C1  UNL     1       4.787 -46.147  29.258  1.00  0.00     0.006 C 
ENDBRANCH  26  27
ENDBRANCH  24  26
ENDBRANCH   1  24
TORSDOF 5
ENDMDL
