MODEL 1
REMARK VINA RESULT: -7.250659443      0.000      0.000
REMARK  4 active torsions:
REMARK  status: ('A' for Active; 'I' for Inactive)
REMARK    1  A    between atoms: N2_5  and  C4_6 
REMARK    2  A    between atoms: N4_16  and  C10_17 
REMARK    3  A    between atoms: C10_17  and  C11_18 
REMARK    4  A    between atoms: C12_21  and  N6_22 
ROOT
HETATM    1  N1  UNL     1      10.901 -49.876  32.552  1.00  0.00    -0.191 NA
HETATM    2  C1  UNL     1      10.525 -48.822  32.218  1.00  0.00     0.104 C 
HETATM    3  C2  UNL     1      10.056 -47.524  31.821  1.00  0.00     0.104 A 
HETATM    4  C3  UNL     1       8.719 -47.260  31.558  1.00  0.00     0.128 A 
HETATM    5  N2  UNL     1       8.308 -46.032  31.186  1.00  0.00    -0.273 N 
HETATM    6  C9  UNL     1       9.179 -45.032  31.059  1.00  0.00     0.335 A 
HETATM    7  O2  UNL     1       8.811 -43.878  30.712  1.00  0.00    -0.246 OA
HETATM    8  N4  UNL     1      10.489 -45.222  31.299  1.00  0.00    -0.278 N 
HETATM    9  C12 UNL     1      10.918 -46.445  31.672  1.00  0.00     0.128 A 
ENDROOT
BRANCH   9  10
HETATM   10  N6  UNL     1      12.190 -46.639  31.907  1.00  0.00    -0.384 N 
ATOM     11  H62 UNL     1      12.796 -45.839  32.088  1.00  0.00     0.157 HD
ATOM     12  H61 UNL     1      12.537 -47.598  31.901  1.00  0.00     0.157 HD
ENDBRANCH   9  10
BRANCH   5  13
HETATM   13  C4  UNL     1       6.928 -45.818  30.931  1.00  0.00     0.050 A 
HETATM   14  C5  UNL     1       6.456 -46.161  29.686  1.00  0.00     0.047 A 
HETATM   15  C6  UNL     1       5.129 -45.956  29.436  1.00  0.00     0.093 A 
HETATM   16  N3  UNL     1       4.334 -45.438  30.391  1.00  0.00    -0.334 N 
HETATM   17  C7  UNL     1       4.782 -45.101  31.607  1.00  0.00     0.247 A 
ATOM     18  H3  UNL     1       3.346 -45.295  30.178  1.00  0.00     0.168 HD
HETATM   19  O1  UNL     1       4.001 -44.619  32.469  1.00  0.00    -0.268 OA
HETATM   20  C8  UNL     1       6.114 -45.292  31.896  1.00  0.00     0.104 A 
ENDBRANCH   5  13
BRANCH   8  21
HETATM   21  C10 UNL     1      11.446 -44.136  31.162  1.00  0.00     0.202 C 
BRANCH  21  22
HETATM   22  C11 UNL     1      12.136 -44.233  29.836  1.00  0.00     0.109 C 
HETATM   23  N5  UNL     1      13.393 -44.868  29.758  1.00  0.00    -0.093 NA
HETATM   24  S1  UNL     1      11.427 -43.604  28.510  1.00  0.00    -0.067 SA
ENDBRANCH  21  22
ENDBRANCH   8  21
TORSDOF 4
ENDMDL
MODEL 2
REMARK VINA RESULT: -7.173442887      2.170      3.511
REMARK  4 active torsions:
REMARK  status: ('A' for Active; 'I' for Inactive)
REMARK    1  A    between atoms: N2_5  and  C4_6 
REMARK    2  A    between atoms: N4_16  and  C10_17 
REMARK    3  A    between atoms: C10_17  and  C11_18 
REMARK    4  A    between atoms: C12_21  and  N6_22 
ROOT
HETATM    1  N1  UNL     1      11.821 -42.476  29.541  1.00  0.00    -0.191 NA
HETATM    2  C1  UNL     1      11.196 -43.369  29.959  1.00  0.00     0.104 C 
HETATM    3  C2  UNL     1      10.425 -44.471  30.462  1.00  0.00     0.104 A 
HETATM    4  C3  UNL     1       9.040 -44.513  30.382  1.00  0.00     0.128 A 
HETATM    5  N2  UNL     1       8.341 -45.559  30.863  1.00  0.00    -0.273 N 
HETATM    6  C9  UNL     1       8.965 -46.590  31.432  1.00  0.00     0.335 A 
HETATM    7  O2  UNL     1       8.328 -47.577  31.887  1.00  0.00    -0.246 OA
HETATM    8  N4  UNL     1      10.306 -46.611  31.540  1.00  0.00    -0.278 N 
HETATM    9  C12 UNL     1      11.021 -45.571  31.064  1.00  0.00     0.128 A 
ENDROOT
BRANCH   9  10
HETATM   10  N6  UNL     1      12.325 -45.583  31.166  1.00  0.00    -0.384 N 
ATOM     11  H62 UNL     1      12.786 -44.939  31.809  1.00  0.00     0.157 HD
ATOM     12  H61 UNL     1      12.843 -46.247  30.591  1.00  0.00     0.157 HD
ENDBRANCH   9  10
BRANCH   5  13
HETATM   13  C4  UNL     1       6.926 -45.550  30.754  1.00  0.00     0.050 A 
HETATM   14  C5  UNL     1       6.379 -46.043  29.594  1.00  0.00     0.047 A 
HETATM   15  C6  UNL     1       5.018 -46.036  29.485  1.00  0.00     0.093 A 
HETATM   16  N3  UNL     1       4.262 -45.559  30.492  1.00  0.00    -0.334 N 
HETATM   17  C7  UNL     1       4.784 -45.077  31.628  1.00  0.00     0.247 A 
ATOM     18  H3  UNL     1       3.247 -45.565  30.386  1.00  0.00     0.168 HD
HETATM   19  O1  UNL     1       4.038 -44.641  32.543  1.00  0.00    -0.268 OA
HETATM   20  C8  UNL     1       6.152 -45.067  31.774  1.00  0.00     0.104 A 
ENDBRANCH   5  13
BRANCH   8  21
HETATM   21  C10 UNL     1      10.994 -47.732  32.160  1.00  0.00     0.202 C 
BRANCH  21  22
HETATM   22  C11 UNL     1      11.387 -47.373  33.561  1.00  0.00     0.109 C 
HETATM   23  N5  UNL     1      12.703 -46.937  33.818  1.00  0.00    -0.093 NA
HETATM   24  S1  UNL     1      10.291 -47.495  34.762  1.00  0.00    -0.067 SA
ENDBRANCH  21  22
ENDBRANCH   8  21
TORSDOF 4
ENDMDL
MODEL 3
REMARK VINA RESULT: -6.237456599      2.999      5.984
REMARK  4 active torsions:
REMARK  status: ('A' for Active; 'I' for Inactive)
REMARK    1  A    between atoms: N2_5  and  C4_6 
REMARK    2  A    between atoms: N4_16  and  C10_17 
REMARK    3  A    between atoms: C10_17  and  C11_18 
REMARK    4  A    between atoms: C12_21  and  N6_22 
ROOT
HETATM    1  N1  UNL     1       5.654 -44.748  31.096  1.00  0.00    -0.191 NA
HETATM    2  C1  UNL     1       6.802 -44.961  31.083  1.00  0.00     0.104 C 
HETATM    3  C2  UNL     1       8.215 -45.213  31.076  1.00  0.00     0.104 A 
HETATM    4  C3  UNL     1       9.126 -44.351  30.482  1.00  0.00     0.128 A 
HETATM    5  N2  UNL     1      10.447 -44.614  30.489  1.00  0.00    -0.273 N 
HETATM    6  C9  UNL     1      10.919 -45.716  31.071  1.00  0.00     0.335 A 
HETATM    7  O2  UNL     1      12.152 -45.977  31.087  1.00  0.00    -0.246 OA
HETATM    8  N4  UNL     1      10.089 -46.592  31.665  1.00  0.00    -0.278 N 
HETATM    9  C12 UNL     1       8.763 -46.345  31.666  1.00  0.00     0.128 A 
ENDROOT
BRANCH   9  10
HETATM   10  N6  UNL     1       7.949 -47.192  32.241  1.00  0.00    -0.384 N 
ATOM     11  H62 UNL     1       6.953 -46.980  32.288  1.00  0.00     0.157 HD
ATOM     12  H61 UNL     1       8.346 -48.048  32.629  1.00  0.00     0.157 HD
ENDBRANCH   9  10
BRANCH   5  13
HETATM   13  C4  UNL     1      11.334 -43.697  29.867  1.00  0.00     0.050 A 
HETATM   14  C5  UNL     1      12.039 -42.846  30.684  1.00  0.00     0.047 A 
HETATM   15  C6  UNL     1      12.893 -41.962  30.090  1.00  0.00     0.093 A 
HETATM   16  N3  UNL     1      13.023 -41.946  28.750  1.00  0.00    -0.334 N 
HETATM   17  C7  UNL     1      12.343 -42.771  27.943  1.00  0.00     0.247 A 
ATOM     18  H3  UNL     1      13.669 -41.276  28.330  1.00  0.00     0.168 HD
HETATM   19  O1  UNL     1      12.497 -42.720  26.694  1.00  0.00    -0.268 OA
HETATM   20  C8  UNL     1      11.473 -43.675  28.505  1.00  0.00     0.104 A 
ENDBRANCH   5  13
BRANCH   8  21
HETATM   21  C10 UNL     1      10.596 -47.797  32.302  1.00  0.00     0.202 C 
BRANCH  21  22
HETATM   22  C11 UNL     1      10.964 -47.502  33.725  1.00  0.00     0.109 C 
HETATM   23  N5  UNL     1       9.940 -47.310  34.676  1.00  0.00    -0.093 NA
HETATM   24  S1  UNL     1      12.535 -47.406  34.147  1.00  0.00    -0.067 SA
ENDBRANCH  21  22
ENDBRANCH   8  21
TORSDOF 4
ENDMDL
MODEL 4
REMARK VINA RESULT: -6.151962796      2.999      5.895
REMARK  4 active torsions:
REMARK  status: ('A' for Active; 'I' for Inactive)
REMARK    1  A    between atoms: N2_5  and  C4_6 
REMARK    2  A    between atoms: N4_16  and  C10_17 
REMARK    3  A    between atoms: C10_17  and  C11_18 
REMARK    4  A    between atoms: C12_21  and  N6_22 
ROOT
HETATM    1  N1  UNL     1       5.680 -44.751  31.085  1.00  0.00    -0.191 NA
HETATM    2  C1  UNL     1       6.829 -44.958  31.074  1.00  0.00     0.104 C 
HETATM    3  C2  UNL     1       8.244 -45.201  31.069  1.00  0.00     0.104 A 
HETATM    4  C3  UNL     1       9.152 -44.326  30.490  1.00  0.00     0.128 A 
HETATM    5  N2  UNL     1      10.475 -44.580  30.500  1.00  0.00    -0.273 N 
HETATM    6  C9  UNL     1      10.951 -45.687  31.068  1.00  0.00     0.335 A 
HETATM    7  O2  UNL     1      12.185 -45.941  31.086  1.00  0.00    -0.246 OA
HETATM    8  N4  UNL     1      10.124 -46.576  31.647  1.00  0.00    -0.278 N 
HETATM    9  C12 UNL     1       8.797 -46.337  31.646  1.00  0.00     0.128 A 
ENDROOT
BRANCH   9  10
HETATM   10  N6  UNL     1       7.985 -47.197  32.207  1.00  0.00    -0.384 N 
ATOM     11  H62 UNL     1       8.043 -48.183  31.951  1.00  0.00     0.157 HD
ATOM     12  H61 UNL     1       7.314 -46.846  32.890  1.00  0.00     0.157 HD
ENDBRANCH   9  10
BRANCH   5  13
HETATM   13  C4  UNL     1      11.358 -43.650  29.893  1.00  0.00     0.050 A 
HETATM   14  C5  UNL     1      11.440 -43.659  28.521  1.00  0.00     0.047 A 
HETATM   15  C6  UNL     1      12.289 -42.765  27.933  1.00  0.00     0.093 A 
HETATM   16  N3  UNL     1      13.007 -41.916  28.692  1.00  0.00    -0.334 N 
HETATM   17  C7  UNL     1      12.935 -41.897  30.029  1.00  0.00     0.247 A 
ATOM     18  H3  UNL     1      13.634 -41.258  28.228  1.00  0.00     0.168 HD
HETATM   19  O1  UNL     1      13.626 -41.085  30.699  1.00  0.00    -0.268 OA
HETATM   20  C8  UNL     1      12.091 -42.783  30.658  1.00  0.00     0.104 A 
ENDBRANCH   5  13
BRANCH   8  21
HETATM   21  C10 UNL     1      10.635 -47.787  32.270  1.00  0.00     0.202 C 
BRANCH  21  22
HETATM   22  C11 UNL     1      11.016 -47.503  33.692  1.00  0.00     0.109 C 
HETATM   23  N5  UNL     1      10.000 -47.320  34.653  1.00  0.00    -0.093 NA
HETATM   24  S1  UNL     1      12.590 -47.410  34.102  1.00  0.00    -0.067 SA
ENDBRANCH  21  22
ENDBRANCH   8  21
TORSDOF 4
ENDMDL
MODEL 5
REMARK VINA RESULT: -5.980632866      3.254      4.350
REMARK  4 active torsions:
REMARK  status: ('A' for Active; 'I' for Inactive)
REMARK    1  A    between atoms: N2_5  and  C4_6 
REMARK    2  A    between atoms: N4_16  and  C10_17 
REMARK    3  A    between atoms: C10_17  and  C11_18 
REMARK    4  A    between atoms: C12_21  and  N6_22 
ROOT
HETATM    1  N1  UNL     1       8.862 -52.785  30.937  1.00  0.00    -0.191 NA
HETATM    2  C1  UNL     1       9.079 -51.720  31.360  1.00  0.00     0.104 C 
HETATM    3  C2  UNL     1       9.335 -50.409  31.890  1.00  0.00     0.104 A 
HETATM    4  C3  UNL     1       8.551 -49.308  31.574  1.00  0.00     0.128 A 
HETATM    5  N2  UNL     1       8.814 -48.090  32.085  1.00  0.00    -0.273 N 
HETATM    6  C9  UNL     1       9.842 -47.908  32.913  1.00  0.00     0.335 A 
HETATM    7  O2  UNL     1      10.103 -46.775  33.400  1.00  0.00    -0.246 OA
HETATM    8  N4  UNL     1      10.641 -48.933  33.259  1.00  0.00    -0.278 N 
HETATM    9  C12 UNL     1      10.391 -50.160  32.756  1.00  0.00     0.128 A 
ENDROOT
BRANCH   9  10
HETATM   10  N6  UNL     1      11.163 -51.163  33.087  1.00  0.00    -0.384 N 
ATOM     11  H62 UNL     1      11.945 -51.007  33.724  1.00  0.00     0.157 HD
ATOM     12  H61 UNL     1      10.953 -52.079  32.691  1.00  0.00     0.157 HD
ENDBRANCH   9  10
BRANCH   5  13
HETATM   13  C4  UNL     1       7.979 -47.000  31.728  1.00  0.00     0.050 A 
HETATM   14  C5  UNL     1       8.495 -46.068  30.860  1.00  0.00     0.047 A 
HETATM   15  C6  UNL     1       7.695 -45.016  30.514  1.00  0.00     0.093 A 
HETATM   16  N3  UNL     1       6.450 -44.921  31.018  1.00  0.00    -0.334 N 
HETATM   17  C7  UNL     1       5.936 -45.823  31.864  1.00  0.00     0.247 A 
ATOM     18  H3  UNL     1       5.872 -44.126  30.743  1.00  0.00     0.168 HD
HETATM   19  O1  UNL     1       4.766 -45.693  32.310  1.00  0.00    -0.268 OA
HETATM   20  C8  UNL     1       6.712 -46.896  32.236  1.00  0.00     0.104 A 
ENDBRANCH   5  13
BRANCH   8  21
HETATM   21  C10 UNL     1      11.764 -48.743  34.162  1.00  0.00     0.202 C 
BRANCH  21  22
HETATM   22  C11 UNL     1      11.288 -48.795  35.582  1.00  0.00     0.109 C 
HETATM   23  N5  UNL     1      10.618 -49.947  36.042  1.00  0.00    -0.093 NA
HETATM   24  S1  UNL     1      11.551 -47.523  36.568  1.00  0.00    -0.067 SA
ENDBRANCH  21  22
ENDBRANCH   8  21
TORSDOF 4
ENDMDL
