MODEL 1
REMARK VINA RESULT: -5.850054867      0.000      0.000
REMARK  5 active torsions:
REMARK  status: ('A' for Active; 'I' for Inactive)
REMARK    1  A    between atoms: N1_1  and  C1_4 
REMARK    2  A    between atoms: C2_7  and  S1_8 
REMARK    3  A    between atoms: S1_8  and  N3_9 
REMARK    4  A    between atoms: C4_17  and  S2_18 
REMARK    5  A    between atoms: S2_18  and  N5_21 
ROOT
HETATM    1  C1  UNL     1       9.146 -45.829  31.846  1.00  0.00     0.126 A 
HETATM    2  N2  UNL     1       7.810 -46.070  31.986  1.00  0.00    -0.317 N 
ATOM      3  H2  UNL     1       7.503 -46.864  32.548  1.00  0.00     0.169 HD
HETATM    4  C2  UNL     1       6.890 -45.286  31.400  1.00  0.00     0.225 A 
HETATM    5  N4  UNL     1       7.316 -44.254  30.668  1.00  0.00    -0.340 N 
ATOM      6  H4  UNL     1       6.625 -43.654  30.220  1.00  0.00     0.167 HD
HETATM    7  C3  UNL     1       8.629 -43.972  30.498  1.00  0.00     0.119 A 
HETATM    8  C4  UNL     1       9.584 -44.768  31.094  1.00  0.00     0.139 A 
ENDROOT
BRANCH   8   9
HETATM    9  S2  UNL     1      11.295 -44.512  30.952  1.00  0.00     0.273 S 
HETATM   10  O3  UNL     1      12.020 -45.788  30.695  1.00  0.00    -0.200 OA
HETATM   11  O4  UNL     1      11.808 -43.960  32.265  1.00  0.00    -0.200 OA
BRANCH   9  12
HETATM   12  N5  UNL     1      11.666 -43.431  29.645  1.00  0.00    -0.258 N 
HETATM   13  C5  UNL     1      12.191 -42.204  29.767  1.00  0.00     0.108 A 
HETATM   14  C6  UNL     1      12.352 -41.633  28.522  1.00  0.00     0.020 A 
HETATM   15  C7  UNL     1      11.900 -42.571  27.622  1.00  0.00     0.020 A 
HETATM   16  C8  UNL     1      11.488 -43.657  28.337  1.00  0.00     0.108 A 
ENDBRANCH   9  12
ENDBRANCH   8   9
BRANCH   1  17
HETATM   17  N1  UNL     1       9.976 -46.599  32.420  1.00  0.00    -0.384 N 
ATOM     18  H12 UNL     1       9.700 -47.539  32.707  1.00  0.00     0.157 HD
ATOM     19  H11 UNL     1      10.925 -46.267  32.592  1.00  0.00     0.157 HD
ENDBRANCH   1  17
BRANCH   4  20
HETATM   20  S1  UNL     1       5.176 -45.649  31.617  1.00  0.00     0.289 S 
HETATM   21  O1  UNL     1       4.507 -44.505  32.284  1.00  0.00    -0.198 OA
HETATM   22  O2  UNL     1       5.067 -46.931  32.415  1.00  0.00    -0.198 OA
BRANCH  20  23
HETATM   23  N3  UNL     1       4.422 -45.950  30.093  1.00  0.00    -0.322 N 
ATOM     24  H32 UNL     1       3.775 -45.304  29.641  1.00  0.00     0.169 HD
ATOM     25  H31 UNL     1       4.715 -46.852  29.720  1.00  0.00     0.169 HD
ENDBRANCH  20  23
ENDBRANCH   4  20
TORSDOF 5
ENDMDL
MODEL 2
REMARK VINA RESULT: -5.803011201      1.633      1.864
REMARK  5 active torsions:
REMARK  status: ('A' for Active; 'I' for Inactive)
REMARK    1  A    between atoms: N1_1  and  C1_4 
REMARK    2  A    between atoms: C2_7  and  S1_8 
REMARK    3  A    between atoms: S1_8  and  N3_9 
REMARK    4  A    between atoms: C4_17  and  S2_18 
REMARK    5  A    between atoms: S2_18  and  N5_21 
ROOT
HETATM    1  C1  UNL     1       8.380 -46.920  32.263  1.00  0.00     0.126 A 
HETATM    2  N2  UNL     1       7.029 -46.780  32.132  1.00  0.00    -0.317 N 
ATOM      3  H2  UNL     1       6.421 -47.563  32.375  1.00  0.00     0.169 HD
HETATM    4  C2  UNL     1       6.481 -45.636  31.690  1.00  0.00     0.225 A 
HETATM    5  N4  UNL     1       7.298 -44.626  31.378  1.00  0.00    -0.340 N 
ATOM      6  H4  UNL     1       6.891 -43.754  31.042  1.00  0.00     0.167 HD
HETATM    7  C3  UNL     1       8.644 -44.714  31.490  1.00  0.00     0.119 A 
HETATM    8  C4  UNL     1       9.219 -45.882  31.942  1.00  0.00     0.139 A 
ENDROOT
BRANCH   8   9
HETATM    9  S2  UNL     1      10.928 -46.119  32.129  1.00  0.00     0.273 S 
HETATM   10  O3  UNL     1      11.398 -47.326  31.392  1.00  0.00    -0.200 OA
HETATM   11  O4  UNL     1      11.224 -46.345  33.596  1.00  0.00    -0.200 OA
BRANCH   9  12
HETATM   12  N5  UNL     1      11.825 -44.761  31.524  1.00  0.00    -0.258 N 
HETATM   13  C5  UNL     1      12.570 -43.924  32.258  1.00  0.00     0.108 A 
HETATM   14  C6  UNL     1      13.139 -42.963  31.449  1.00  0.00     0.020 A 
HETATM   15  C7  UNL     1      12.706 -43.249  30.174  1.00  0.00     0.020 A 
HETATM   16  C8  UNL     1      11.907 -44.351  30.252  1.00  0.00     0.108 A 
ENDBRANCH   9  12
ENDBRANCH   8   9
BRANCH   1  17
HETATM   17  N1  UNL     1       8.850 -48.022  32.685  1.00  0.00    -0.384 N 
ATOM     18  H12 UNL     1       8.228 -48.744  33.051  1.00  0.00     0.157 HD
ATOM     19  H11 UNL     1       9.857 -48.176  32.655  1.00  0.00     0.157 HD
ENDBRANCH   1  17
BRANCH   4  20
HETATM   20  S1  UNL     1       4.726 -45.515  31.542  1.00  0.00     0.289 S 
HETATM   21  O1  UNL     1       4.222 -44.460  32.455  1.00  0.00    -0.198 OA
HETATM   22  O2  UNL     1       4.137 -46.877  31.846  1.00  0.00    -0.198 OA
BRANCH  20  23
HETATM   23  N3  UNL     1       4.280 -45.135  29.918  1.00  0.00    -0.322 N 
ATOM     24  H32 UNL     1       4.950 -44.993  29.162  1.00  0.00     0.169 HD
ATOM     25  H31 UNL     1       3.266 -45.075  29.829  1.00  0.00     0.169 HD
ENDBRANCH  20  23
ENDBRANCH   4  20
TORSDOF 5
ENDMDL
MODEL 3
REMARK VINA RESULT: -5.762478969      3.625      6.063
REMARK  5 active torsions:
REMARK  status: ('A' for Active; 'I' for Inactive)
REMARK    1  A    between atoms: N1_1  and  C1_4 
REMARK    2  A    between atoms: C2_7  and  S1_8 
REMARK    3  A    between atoms: S1_8  and  N3_9 
REMARK    4  A    between atoms: C4_17  and  S2_18 
REMARK    5  A    between atoms: S2_18  and  N5_21 
ROOT
HETATM    1  C1  UNL     1      10.134 -46.848  31.596  1.00  0.00     0.126 A 
HETATM    2  N2  UNL     1      10.729 -47.976  32.081  1.00  0.00    -0.317 N 
ATOM      3  H2  UNL     1      11.741 -47.987  32.215  1.00  0.00     0.169 HD
HETATM    4  C2  UNL     1      10.015 -49.072  32.386  1.00  0.00     0.225 A 
HETATM    5  N4  UNL     1       8.693 -49.032  32.202  1.00  0.00    -0.340 N 
ATOM      6  H4  UNL     1       8.142 -49.859  32.431  1.00  0.00     0.167 HD
HETATM    7  C3  UNL     1       8.054 -47.939  31.723  1.00  0.00     0.119 A 
HETATM    8  C4  UNL     1       8.775 -46.808  31.407  1.00  0.00     0.139 A 
ENDROOT
BRANCH   8   9
HETATM    9  S2  UNL     1       8.075 -45.346  30.787  1.00  0.00     0.273 S 
HETATM   10  O3  UNL     1       8.729 -44.920  29.518  1.00  0.00    -0.200 OA
HETATM   11  O4  UNL     1       8.294 -44.242  31.799  1.00  0.00    -0.200 OA
BRANCH   9  12
HETATM   12  N5  UNL     1       6.383 -45.547  30.455  1.00  0.00    -0.258 N 
HETATM   13  C5  UNL     1       5.378 -45.229  31.282  1.00  0.00     0.108 A 
HETATM   14  C6  UNL     1       4.166 -45.523  30.692  1.00  0.00     0.020 A 
HETATM   15  C7  UNL     1       4.474 -46.040  29.453  1.00  0.00     0.020 A 
HETATM   16  C8  UNL     1       5.833 -46.042  29.338  1.00  0.00     0.108 A 
ENDBRANCH   9  12
ENDBRANCH   8   9
BRANCH   1  17
HETATM   17  N1  UNL     1      10.853 -45.838  31.323  1.00  0.00    -0.384 N 
ATOM     18  H12 UNL     1      11.455 -45.423  32.034  1.00  0.00     0.157 HD
ATOM     19  H11 UNL     1      10.821 -45.445  30.382  1.00  0.00     0.157 HD
ENDBRANCH   1  17
BRANCH   4  20
HETATM   20  S1  UNL     1      10.842 -50.501  33.010  1.00  0.00     0.289 S 
HETATM   21  O1  UNL     1      12.309 -50.312  32.902  1.00  0.00    -0.198 OA
HETATM   22  O2  UNL     1      10.352 -51.703  32.229  1.00  0.00    -0.198 OA
BRANCH  20  23
HETATM   23  N3  UNL     1      10.415 -50.776  34.661  1.00  0.00    -0.322 N 
ATOM     24  H32 UNL     1       9.891 -50.113  35.231  1.00  0.00     0.169 HD
ATOM     25  H31 UNL     1      10.758 -51.684  34.973  1.00  0.00     0.169 HD
ENDBRANCH  20  23
ENDBRANCH   4  20
TORSDOF 5
ENDMDL
MODEL 4
REMARK VINA RESULT: -5.733626590      3.467      5.247
REMARK  5 active torsions:
REMARK  status: ('A' for Active; 'I' for Inactive)
REMARK    1  A    between atoms: N1_1  and  C1_4 
REMARK    2  A    between atoms: C2_7  and  S1_8 
REMARK    3  A    between atoms: S1_8  and  N3_9 
REMARK    4  A    between atoms: C4_17  and  S2_18 
REMARK    5  A    between atoms: S2_18  and  N5_21 
ROOT
HETATM    1  C1  UNL     1      10.392 -45.990  32.263  1.00  0.00     0.126 A 
HETATM    2  N2  UNL     1       9.228 -45.443  31.810  1.00  0.00    -0.317 N 
ATOM      3  H2  UNL     1       9.143 -44.427  31.753  1.00  0.00     0.169 HD
HETATM    4  C2  UNL     1       8.190 -46.210  31.436  1.00  0.00     0.225 A 
HETATM    5  N4  UNL     1       8.325 -47.535  31.519  1.00  0.00    -0.340 N 
ATOM      6  H4  UNL     1       7.543 -48.125  31.237  1.00  0.00     0.167 HD
HETATM    7  C3  UNL     1       9.459 -48.128  31.963  1.00  0.00     0.119 A 
HETATM    8  C4  UNL     1      10.531 -47.352  32.349  1.00  0.00     0.139 A 
ENDROOT
BRANCH   8   9
HETATM    9  S2  UNL     1      12.035 -47.990  32.934  1.00  0.00     0.273 S 
HETATM   10  O3  UNL     1      13.200 -47.368  32.244  1.00  0.00    -0.200 OA
HETATM   11  O4  UNL     1      12.076 -49.473  32.635  1.00  0.00    -0.200 OA
BRANCH   9  12
HETATM   12  N5  UNL     1      12.226 -47.701  34.635  1.00  0.00    -0.258 N 
HETATM   13  C5  UNL     1      11.238 -47.670  35.541  1.00  0.00     0.108 A 
HETATM   14  C6  UNL     1      11.753 -47.415  36.795  1.00  0.00     0.020 A 
HETATM   15  C7  UNL     1      13.113 -47.291  36.618  1.00  0.00     0.020 A 
HETATM   16  C8  UNL     1      13.370 -47.471  35.291  1.00  0.00     0.108 A 
ENDBRANCH   9  12
ENDBRANCH   8   9
BRANCH   1  17
HETATM   17  N1  UNL     1      11.344 -45.222  32.605  1.00  0.00    -0.384 N 
ATOM     18  H12 UNL     1      12.069 -44.966  31.935  1.00  0.00     0.157 HD
ATOM     19  H11 UNL     1      11.376 -44.865  33.560  1.00  0.00     0.157 HD
ENDBRANCH   1  17
BRANCH   4  20
HETATM   20  S1  UNL     1       6.709 -45.443  30.857  1.00  0.00     0.289 S 
HETATM   21  O1  UNL     1       6.256 -46.114  29.614  1.00  0.00    -0.198 OA
HETATM   22  O2  UNL     1       6.994 -43.970  30.651  1.00  0.00    -0.198 OA
BRANCH  20  23
HETATM   23  N3  UNL     1       5.467 -45.544  32.053  1.00  0.00    -0.322 N 
ATOM     24  H32 UNL     1       4.559 -45.980  31.894  1.00  0.00     0.169 HD
ATOM     25  H31 UNL     1       5.772 -45.111  32.924  1.00  0.00     0.169 HD
ENDBRANCH  20  23
ENDBRANCH   4  20
TORSDOF 5
ENDMDL
MODEL 5
REMARK VINA RESULT: -5.616711164      2.260      3.794
REMARK  5 active torsions:
REMARK  status: ('A' for Active; 'I' for Inactive)
REMARK    1  A    between atoms: N1_1  and  C1_4 
REMARK    2  A    between atoms: C2_7  and  S1_8 
REMARK    3  A    between atoms: S1_8  and  N3_9 
REMARK    4  A    between atoms: C4_17  and  S2_18 
REMARK    5  A    between atoms: S2_18  and  N5_21 
ROOT
HETATM    1  C1  UNL     1       8.978 -44.593  30.610  1.00  0.00     0.126 A 
HETATM    2  N2  UNL     1       7.622 -44.651  30.470  1.00  0.00    -0.317 N 
ATOM      3  H2  UNL     1       7.141 -43.904  29.969  1.00  0.00     0.169 HD
HETATM    4  C2  UNL     1       6.907 -45.670  30.975  1.00  0.00     0.225 A 
HETATM    5  N4  UNL     1       7.559 -46.635  31.626  1.00  0.00    -0.340 N 
ATOM      6  H4  UNL     1       7.024 -47.412  32.013  1.00  0.00     0.167 HD
HETATM    7  C3  UNL     1       8.903 -46.625  31.794  1.00  0.00     0.119 A 
HETATM    8  C4  UNL     1       9.649 -45.586  31.280  1.00  0.00     0.139 A 
ENDROOT
BRANCH   8   9
HETATM    9  S2  UNL     1      11.374 -45.458  31.427  1.00  0.00     0.273 S 
HETATM   10  O3  UNL     1      11.764 -44.380  32.380  1.00  0.00    -0.200 OA
HETATM   11  O4  UNL     1      11.945 -45.091  30.075  1.00  0.00    -0.200 OA
BRANCH   9  12
HETATM   12  N5  UNL     1      12.070 -46.939  32.006  1.00  0.00    -0.258 N 
HETATM   13  C5  UNL     1      13.376 -47.169  32.197  1.00  0.00     0.108 A 
HETATM   14  C6  UNL     1      13.568 -48.453  32.665  1.00  0.00     0.020 A 
HETATM   15  C7  UNL     1      12.310 -49.005  32.754  1.00  0.00     0.020 A 
HETATM   16  C8  UNL     1      11.418 -48.058  32.346  1.00  0.00     0.108 A 
ENDBRANCH   9  12
ENDBRANCH   8   9
BRANCH   1  17
HETATM   17  N1  UNL     1       9.610 -43.610  30.115  1.00  0.00    -0.384 N 
ATOM     18  H12 UNL     1       9.777 -43.554  29.110  1.00  0.00     0.157 HD
ATOM     19  H11 UNL     1       9.951 -42.875  30.735  1.00  0.00     0.157 HD
ENDBRANCH   1  17
BRANCH   4  20
HETATM   20  S1  UNL     1       5.155 -45.689  30.761  1.00  0.00     0.289 S 
HETATM   21  O1  UNL     1       4.625 -44.308  30.875  1.00  0.00    -0.198 OA
HETATM   22  O2  UNL     1       4.567 -46.624  31.798  1.00  0.00    -0.198 OA
BRANCH  20  23
HETATM   23  N3  UNL     1       4.740 -46.340  29.216  1.00  0.00    -0.322 N 
ATOM     24  H32 UNL     1       5.306 -47.027  28.718  1.00  0.00     0.169 HD
ATOM     25  H31 UNL     1       3.861 -45.943  28.884  1.00  0.00     0.169 HD
ENDBRANCH  20  23
ENDBRANCH   4  20
TORSDOF 5
ENDMDL
