MODEL 1
REMARK VINA RESULT: -7.409069558      0.000      0.000
REMARK  6 active torsions:
REMARK  status: ('A' for Active; 'I' for Inactive)
REMARK    1  A    between atoms: N1_1  and  C1_4 
REMARK    2  A    between atoms: C4_14  and  N6_15 
REMARK    3  A    between atoms: N6_15  and  C5_17 
REMARK    4  A    between atoms: C5_17  and  C6_18 
REMARK    5  A    between atoms: C9_21  and  S1_22 
REMARK    6  A    between atoms: S1_22  and  N7_23 
ROOT
HETATM    1  C1  UNL     1     -14.457 -17.144  10.435  1.00  0.00     0.705 A 
HETATM    2  N2  UNL     1     -13.625 -16.245   9.882  1.00  0.00    -0.020 N 
ATOM      3  H2  UNL     1     -13.310 -16.378   8.921  1.00  0.00     0.203 HD
HETATM    4  C2  UNL     1     -13.197 -15.161  10.583  1.00  0.00     0.734 A 
HETATM    5  N3  UNL     1     -12.385 -14.126  10.293  1.00  0.00    -0.184 N 
ATOM      6  H3  UNL     1     -11.918 -13.990   9.397  1.00  0.00     0.185 HD
HETATM    7  C3  UNL     1     -12.273 -13.298  11.347  1.00  0.00     0.216 A 
HETATM    8  N4  UNL     1     -13.040 -13.838  12.313  1.00  0.00    -0.260 N 
ATOM      9  H4  UNL     1     -13.173 -13.452  13.248  1.00  0.00     0.189 HD
HETATM   10  N5  UNL     1     -13.595 -14.960  11.853  1.00  0.00     0.092 N 
HETATM   11  C4  UNL     1     -14.432 -15.864  12.409  1.00  0.00     0.729 A 
HETATM   12  N8  UNL     1     -14.850 -16.931  11.706  1.00  0.00    -0.020 N 
ATOM     13  H8  UNL     1     -15.482 -17.598  12.148  1.00  0.00     0.203 HD
ENDROOT
BRANCH  11  14
HETATM   14  N6  UNL     1     -14.830 -15.699  13.618  1.00  0.00    -0.219 N 
ATOM     15  H6  UNL     1     -14.149 -15.707  14.378  1.00  0.00     0.178 HD
BRANCH  14  16
HETATM   16  C5  UNL     1     -16.214 -15.505  13.916  1.00  0.00     0.176 C 
BRANCH  16  17
HETATM   17  C6  UNL     1     -16.587 -14.100  14.117  1.00  0.00    -0.040 A 
HETATM   18  C7  UNL     1     -15.643 -13.130  14.374  1.00  0.00     0.010 A 
HETATM   19  C8  UNL     1     -15.970 -11.823  14.564  1.00  0.00     0.026 A 
HETATM   20  C9  UNL     1     -17.289 -11.403  14.505  1.00  0.00     0.079 A 
HETATM   21  C10 UNL     1     -18.235 -12.374  14.248  1.00  0.00     0.026 A 
HETATM   22  C11 UNL     1     -17.925 -13.703  14.053  1.00  0.00     0.010 A 
BRANCH  20  23
HETATM   23  S1  UNL     1     -17.725  -9.730  14.745  1.00  0.00     0.256 S 
HETATM   24  O1  UNL     1     -16.960  -8.859  13.761  1.00  0.00    -0.201 OA
HETATM   25  O2  UNL     1     -19.215  -9.607  14.491  1.00  0.00    -0.201 OA
BRANCH  23  26
HETATM   26  N7  UNL     1     -17.445  -9.220  16.371  1.00  0.00    -0.324 N 
ATOM     27  H72 UNL     1     -18.165  -9.238  17.095  1.00  0.00     0.169 HD
ATOM     28  H71 UNL     1     -16.486  -8.903  16.511  1.00  0.00     0.169 HD
ENDBRANCH  23  26
ENDBRANCH  20  23
ENDBRANCH  16  17
ENDBRANCH  14  16
ENDBRANCH  11  14
BRANCH   1  29
HETATM   29  N1  UNL     1     -14.869 -18.186   9.758  1.00  0.00    -0.234 N 
ATOM     30  H12 UNL     1     -14.745 -18.247   8.748  1.00  0.00     0.174 HD
ATOM     31  H11 UNL     1     -15.327 -18.967  10.227  1.00  0.00     0.174 HD
ENDBRANCH   1  29
TORSDOF 6
ENDMDL
MODEL 2
REMARK VINA RESULT: -7.349320981      0.029      1.008
REMARK  6 active torsions:
REMARK  status: ('A' for Active; 'I' for Inactive)
REMARK    1  A    between atoms: N1_1  and  C1_4 
REMARK    2  A    between atoms: C4_14  and  N6_15 
REMARK    3  A    between atoms: N6_15  and  C5_17 
REMARK    4  A    between atoms: C5_17  and  C6_18 
REMARK    5  A    between atoms: C9_21  and  S1_22 
REMARK    6  A    between atoms: S1_22  and  N7_23 
ROOT
HETATM    1  C1  UNL     1     -14.479 -17.123  10.408  1.00  0.00     0.705 A 
HETATM    2  N2  UNL     1     -13.638 -16.226   9.867  1.00  0.00    -0.020 N 
ATOM      3  H2  UNL     1     -13.321 -16.351   8.905  1.00  0.00     0.203 HD
HETATM    4  C2  UNL     1     -13.202 -15.153  10.580  1.00  0.00     0.734 A 
HETATM    5  N3  UNL     1     -12.381 -14.122  10.303  1.00  0.00    -0.184 N 
ATOM      6  H3  UNL     1     -11.911 -13.980   9.409  1.00  0.00     0.185 HD
HETATM    7  C3  UNL     1     -12.265 -13.306  11.365  1.00  0.00     0.216 A 
HETATM    8  N4  UNL     1     -13.038 -13.850  12.324  1.00  0.00    -0.260 N 
ATOM      9  H4  UNL     1     -13.171 -13.472  13.263  1.00  0.00     0.189 HD
HETATM   10  N5  UNL     1     -13.602 -14.962  11.851  1.00  0.00     0.092 N 
HETATM   11  C4  UNL     1     -14.447 -15.864  12.396  1.00  0.00     0.729 A 
HETATM   12  N8  UNL     1     -14.873 -16.920  11.681  1.00  0.00    -0.020 N 
ATOM     13  H8  UNL     1     -15.512 -17.587  12.114  1.00  0.00     0.203 HD
ENDROOT
BRANCH  11  14
HETATM   14  N6  UNL     1     -14.848 -15.709  13.606  1.00  0.00    -0.219 N 
ATOM     15  H6  UNL     1     -14.168 -15.731  14.367  1.00  0.00     0.178 HD
BRANCH  14  16
HETATM   16  C5  UNL     1     -16.230 -15.504  13.902  1.00  0.00     0.176 C 
BRANCH  16  17
HETATM   17  C6  UNL     1     -16.592 -14.097  14.107  1.00  0.00    -0.040 A 
HETATM   18  C7  UNL     1     -17.899 -13.667  14.032  1.00  0.00     0.010 A 
HETATM   19  C8  UNL     1     -18.254 -12.367  14.219  1.00  0.00     0.026 A 
HETATM   20  C9  UNL     1     -17.300 -11.403  14.500  1.00  0.00     0.079 A 
HETATM   21  C10 UNL     1     -15.991 -11.832  14.577  1.00  0.00     0.026 A 
HETATM   22  C11 UNL     1     -15.611 -13.144  14.389  1.00  0.00     0.010 A 
BRANCH  20  23
HETATM   23  S1  UNL     1     -17.739  -9.731  14.744  1.00  0.00     0.256 S 
HETATM   24  O1  UNL     1     -16.958  -8.854  13.778  1.00  0.00    -0.201 OA
HETATM   25  O2  UNL     1     -19.224  -9.604  14.467  1.00  0.00    -0.201 OA
BRANCH  23  26
HETATM   26  N7  UNL     1     -17.485  -9.231  16.378  1.00  0.00    -0.324 N 
ATOM     27  H72 UNL     1     -16.772  -9.638  16.983  1.00  0.00     0.169 HD
ATOM     28  H71 UNL     1     -18.129  -8.490  16.653  1.00  0.00     0.169 HD
ENDBRANCH  23  26
ENDBRANCH  20  23
ENDBRANCH  16  17
ENDBRANCH  14  16
ENDBRANCH  11  14
BRANCH   1  29
HETATM   29  N1  UNL     1     -14.898 -18.155   9.720  1.00  0.00    -0.234 N 
ATOM     30  H12 UNL     1     -14.244 -18.800   9.279  1.00  0.00     0.174 HD
ATOM     31  H11 UNL     1     -15.895 -18.340   9.608  1.00  0.00     0.174 HD
ENDBRANCH   1  29
TORSDOF 6
ENDMDL
MODEL 3
REMARK VINA RESULT: -7.302582712      0.673      2.388
REMARK  6 active torsions:
REMARK  status: ('A' for Active; 'I' for Inactive)
REMARK    1  A    between atoms: N1_1  and  C1_4 
REMARK    2  A    between atoms: C4_14  and  N6_15 
REMARK    3  A    between atoms: N6_15  and  C5_17 
REMARK    4  A    between atoms: C5_17  and  C6_18 
REMARK    5  A    between atoms: C9_21  and  S1_22 
REMARK    6  A    between atoms: S1_22  and  N7_23 
ROOT
HETATM    1  C1  UNL     1     -12.712 -14.282  10.709  1.00  0.00     0.705 A 
HETATM    2  N2  UNL     1     -13.035 -15.276   9.864  1.00  0.00    -0.020 N 
ATOM      3  H2  UNL     1     -12.697 -15.247   8.902  1.00  0.00     0.203 HD
HETATM    4  C2  UNL     1     -13.806 -16.320  10.271  1.00  0.00     0.734 A 
HETATM    5  N3  UNL     1     -14.275 -17.425   9.660  1.00  0.00    -0.184 N 
ATOM      6  H3  UNL     1     -14.097 -17.668   8.685  1.00  0.00     0.185 HD
HETATM    7  C3  UNL     1     -15.010 -18.165  10.509  1.00  0.00     0.216 A 
HETATM    8  N4  UNL     1     -14.993 -17.495  11.678  1.00  0.00    -0.260 N 
ATOM      9  H4  UNL     1     -15.459 -17.791  12.535  1.00  0.00     0.189 HD
HETATM   10  N5  UNL     1     -14.268 -16.385  11.533  1.00  0.00     0.092 N 
HETATM   11  C4  UNL     1     -13.943 -15.386  12.383  1.00  0.00     0.729 A 
HETATM   12  N8  UNL     1     -13.179 -14.359  11.970  1.00  0.00    -0.020 N 
ATOM     13  H8  UNL     1     -12.947 -13.618  12.631  1.00  0.00     0.203 HD
ENDROOT
BRANCH  11  14
HETATM   14  N6  UNL     1     -14.367 -15.420  13.594  1.00  0.00    -0.219 N 
ATOM     15  H6  UNL     1     -13.699 -15.528  14.358  1.00  0.00     0.178 HD
BRANCH  14  16
HETATM   16  C5  UNL     1     -15.761 -15.308  13.888  1.00  0.00     0.176 C 
BRANCH  16  17
HETATM   17  C6  UNL     1     -16.213 -13.930  14.110  1.00  0.00    -0.040 A 
HETATM   18  C7  UNL     1     -15.322 -12.900  14.315  1.00  0.00     0.010 A 
HETATM   19  C8  UNL     1     -15.722 -11.616  14.523  1.00  0.00     0.026 A 
HETATM   20  C9  UNL     1     -17.067 -11.283  14.536  1.00  0.00     0.079 A 
HETATM   21  C10 UNL     1     -17.960 -12.314  14.329  1.00  0.00     0.026 A 
HETATM   22  C11 UNL     1     -17.576 -13.621  14.118  1.00  0.00     0.010 A 
BRANCH  20  23
HETATM   23  S1  UNL     1     -17.597  -9.641  14.800  1.00  0.00     0.256 S 
HETATM   24  O1  UNL     1     -16.916  -8.720  13.799  1.00  0.00    -0.201 OA
HETATM   25  O2  UNL     1     -19.098  -9.608  14.589  1.00  0.00    -0.201 OA
BRANCH  23  26
HETATM   26  N7  UNL     1     -17.302  -9.122  16.420  1.00  0.00    -0.324 N 
ATOM     27  H72 UNL     1     -17.299  -9.757  17.219  1.00  0.00     0.169 HD
ATOM     28  H71 UNL     1     -17.133  -8.118  16.473  1.00  0.00     0.169 HD
ENDBRANCH  23  26
ENDBRANCH  20  23
ENDBRANCH  16  17
ENDBRANCH  14  16
ENDBRANCH  11  14
BRANCH   1  29
HETATM   29  N1  UNL     1     -11.969 -13.279  10.316  1.00  0.00    -0.234 N 
ATOM     30  H12 UNL     1     -11.212 -13.409   9.645  1.00  0.00     0.174 HD
ATOM     31  H11 UNL     1     -12.130 -12.337  10.672  1.00  0.00     0.174 HD
ENDBRANCH   1  29
TORSDOF 6
ENDMDL
MODEL 4
REMARK VINA RESULT: -7.281656807      1.872      3.205
REMARK  6 active torsions:
REMARK  status: ('A' for Active; 'I' for Inactive)
REMARK    1  A    between atoms: N1_1  and  C1_4 
REMARK    2  A    between atoms: C4_14  and  N6_15 
REMARK    3  A    between atoms: N6_15  and  C5_17 
REMARK    4  A    between atoms: C5_17  and  C6_18 
REMARK    5  A    between atoms: C9_21  and  S1_22 
REMARK    6  A    between atoms: S1_22  and  N7_23 
ROOT
HETATM    1  C1  UNL     1     -12.834 -14.147  11.994  1.00  0.00     0.705 A 
HETATM    2  N2  UNL     1     -12.946 -15.307  11.324  1.00  0.00    -0.020 N 
ATOM      3  H2  UNL     1     -12.278 -15.525  10.584  1.00  0.00     0.203 HD
HETATM    4  C2  UNL     1     -13.935 -16.193  11.616  1.00  0.00     0.734 A 
HETATM    5  N3  UNL     1     -14.281 -17.398  11.123  1.00  0.00    -0.184 N 
ATOM      6  H3  UNL     1     -13.789 -17.878  10.369  1.00  0.00     0.185 HD
HETATM    7  C3  UNL     1     -15.361 -17.883  11.761  1.00  0.00     0.216 A 
HETATM    8  N4  UNL     1     -15.690 -16.949  12.674  1.00  0.00    -0.260 N 
ATOM      9  H4  UNL     1     -16.471 -17.010  13.327  1.00  0.00     0.189 HD
HETATM   10  N5  UNL     1     -14.831 -15.932  12.586  1.00  0.00     0.092 N 
HETATM   11  C4  UNL     1     -14.719 -14.767  13.260  1.00  0.00     0.729 A 
HETATM   12  N8  UNL     1     -13.737 -13.898  12.964  1.00  0.00    -0.020 N 
ATOM     13  H8  UNL     1     -13.673 -13.025  13.488  1.00  0.00     0.203 HD
ENDROOT
BRANCH  11  14
HETATM   14  N6  UNL     1     -15.558 -14.489  14.191  1.00  0.00    -0.219 N 
ATOM     15  H6  UNL     1     -15.427 -14.889  15.121  1.00  0.00     0.178 HD
BRANCH  14  16
HETATM   16  C5  UNL     1     -16.672 -13.630  13.945  1.00  0.00     0.176 C 
BRANCH  16  17
HETATM   17  C6  UNL     1     -16.540 -12.298  14.546  1.00  0.00    -0.040 A 
HETATM   18  C7  UNL     1     -15.405 -11.922  15.230  1.00  0.00     0.010 A 
HETATM   19  C8  UNL     1     -15.264 -10.692  15.795  1.00  0.00     0.026 A 
HETATM   20  C9  UNL     1     -16.272  -9.747  15.703  1.00  0.00     0.079 A 
HETATM   21  C10 UNL     1     -17.409 -10.122  15.016  1.00  0.00     0.026 A 
HETATM   22  C11 UNL     1     -17.572 -11.363  14.438  1.00  0.00     0.010 A 
BRANCH  20  23
HETATM   23  S1  UNL     1     -16.107  -8.164  16.420  1.00  0.00     0.256 S 
HETATM   24  O1  UNL     1     -17.465  -7.682  16.904  1.00  0.00    -0.201 OA
HETATM   25  O2  UNL     1     -15.159  -8.294  17.596  1.00  0.00    -0.201 OA
BRANCH  23  26
HETATM   26  N7  UNL     1     -15.401  -7.031  15.324  1.00  0.00    -0.324 N 
ATOM     27  H72 UNL     1     -15.919  -6.596  14.560  1.00  0.00     0.169 HD
ATOM     28  H71 UNL     1     -14.419  -6.859  15.536  1.00  0.00     0.169 HD
ENDBRANCH  23  26
ENDBRANCH  20  23
ENDBRANCH  16  17
ENDBRANCH  14  16
ENDBRANCH  11  14
BRANCH   1  29
HETATM   29  N1  UNL     1     -11.882 -13.296  11.713  1.00  0.00    -0.234 N 
ATOM     30  H12 UNL     1     -10.898 -13.556  11.784  1.00  0.00     0.174 HD
ATOM     31  H11 UNL     1     -12.099 -12.345  11.414  1.00  0.00     0.174 HD
ENDBRANCH   1  29
TORSDOF 6
ENDMDL
MODEL 5
REMARK VINA RESULT: -7.277379460      1.767      2.101
REMARK  6 active torsions:
REMARK  status: ('A' for Active; 'I' for Inactive)
REMARK    1  A    between atoms: N1_1  and  C1_4 
REMARK    2  A    between atoms: C4_14  and  N6_15 
REMARK    3  A    between atoms: N6_15  and  C5_17 
REMARK    4  A    between atoms: C5_17  and  C6_18 
REMARK    5  A    between atoms: C9_21  and  S1_22 
REMARK    6  A    between atoms: S1_22  and  N7_23 
ROOT
HETATM    1  C1  UNL     1     -15.010 -17.213  11.832  1.00  0.00     0.705 A 
HETATM    2  N2  UNL     1     -13.980 -16.746  11.106  1.00  0.00    -0.020 N 
ATOM      3  H2  UNL     1     -13.612 -17.308  10.338  1.00  0.00     0.203 HD
HETATM    4  C2  UNL     1     -13.421 -15.537  11.378  1.00  0.00     0.734 A 
HETATM    5  N3  UNL     1     -12.409 -14.835  10.833  1.00  0.00    -0.184 N 
ATOM      6  H3  UNL     1     -11.848 -15.148  10.040  1.00  0.00     0.185 HD
HETATM    7  C3  UNL     1     -12.238 -13.666  11.475  1.00  0.00     0.216 A 
HETATM    8  N4  UNL     1     -13.173 -13.647  12.444  1.00  0.00    -0.260 N 
ATOM      9  H4  UNL     1     -13.314 -12.892  13.116  1.00  0.00     0.189 HD
HETATM   10  N5  UNL     1     -13.885 -14.774  12.385  1.00  0.00     0.092 N 
HETATM   11  C4  UNL     1     -14.920 -15.243  13.116  1.00  0.00     0.729 A 
HETATM   12  N8  UNL     1     -15.466 -16.440  12.837  1.00  0.00    -0.020 N 
ATOM     13  H8  UNL     1     -16.247 -16.771  13.403  1.00  0.00     0.203 HD
ENDROOT
BRANCH  11  14
HETATM   14  N6  UNL     1     -15.385 -14.538  14.082  1.00  0.00    -0.219 N 
ATOM     15  H6  UNL     1     -14.907 -14.543  14.984  1.00  0.00     0.178 HD
BRANCH  14  16
HETATM   16  C5  UNL     1     -16.563 -13.747  13.914  1.00  0.00     0.176 C 
BRANCH  16  17
HETATM   17  C6  UNL     1     -16.462 -12.402  14.493  1.00  0.00    -0.040 A 
HETATM   18  C7  UNL     1     -15.313 -11.965  15.114  1.00  0.00     0.010 A 
HETATM   19  C8  UNL     1     -15.201 -10.722  15.657  1.00  0.00     0.026 A 
HETATM   20  C9  UNL     1     -16.257  -9.827  15.607  1.00  0.00     0.079 A 
HETATM   21  C10 UNL     1     -17.409 -10.263  14.984  1.00  0.00     0.026 A 
HETATM   22  C11 UNL     1     -17.542 -11.518  14.429  1.00  0.00     0.010 A 
BRANCH  20  23
HETATM   23  S1  UNL     1     -16.130  -8.229  16.297  1.00  0.00     0.256 S 
HETATM   24  O1  UNL     1     -17.462  -7.836  16.917  1.00  0.00    -0.201 OA
HETATM   25  O2  UNL     1     -15.060  -8.279  17.371  1.00  0.00    -0.201 OA
BRANCH  23  26
HETATM   26  N7  UNL     1     -15.622  -7.062  15.130  1.00  0.00    -0.324 N 
ATOM     27  H72 UNL     1     -15.858  -6.071  15.190  1.00  0.00     0.169 HD
ATOM     28  H71 UNL     1     -15.064  -7.484  14.388  1.00  0.00     0.169 HD
ENDBRANCH  23  26
ENDBRANCH  20  23
ENDBRANCH  16  17
ENDBRANCH  14  16
ENDBRANCH  11  14
BRANCH   1  29
HETATM   29  N1  UNL     1     -15.547 -18.377  11.569  1.00  0.00    -0.234 N 
ATOM     30  H12 UNL     1     -15.453 -18.811  10.650  1.00  0.00     0.174 HD
ATOM     31  H11 UNL     1     -16.076 -18.883  12.279  1.00  0.00     0.174 HD
ENDBRANCH   1  29
TORSDOF 6
ENDMDL
