MODEL 1
REMARK VINA RESULT: -6.998190438      0.000      0.000
REMARK  3 active torsions:
REMARK  status: ('A' for Active; 'I' for Inactive)
REMARK    1  A    between atoms: C2_2  and  N1_3 
REMARK    2  A    between atoms: C4_5  and  C5_6 
REMARK    3  A    between atoms: C5_6  and  C7_9 
ROOT
HETATM    1  C5  UNL     1     -19.452 -11.278  13.824  1.00  0.00     0.186 C 
HETATM    2  C6  UNL     1     -20.070 -10.002  13.433  1.00  0.00     0.075 C 
HETATM    3  N2  UNL     1     -20.540  -8.991  13.135  1.00  0.00    -0.196 NA
ENDROOT
BRANCH   1   4
HETATM    4  C4  UNL     1     -18.146 -11.016  14.434  1.00  0.00     0.050 A 
HETATM    5  C3  UNL     1     -17.773  -9.856  15.068  1.00  0.00     0.115 A 
HETATM    6  N1  UNL     1     -16.516  -9.693  15.596  1.00  0.00    -0.285 N 
HETATM    7  C10 UNL     1     -15.631 -10.683  15.493  1.00  0.00     0.333 A 
HETATM    8  N6  UNL     1     -15.954 -11.865  14.868  1.00  0.00    -0.275 N 
HETATM    9  O4  UNL     1     -14.463 -10.589  15.960  1.00  0.00    -0.246 OA
HETATM   10  C9  UNL     1     -17.175 -12.004  14.363  1.00  0.00     0.258 A 
ATOM     11  H6  UNL     1     -15.271 -12.619  14.793  1.00  0.00     0.173 HD
HETATM   12  O3  UNL     1     -17.487 -13.094  13.781  1.00  0.00    -0.267 OA
BRANCH   6  13
HETATM   13  C2  UNL     1     -16.241  -8.468  16.236  1.00  0.00     0.091 C 
HETATM   14  C1  UNL     1     -15.635  -7.424  15.761  1.00  0.00     0.030 C 
ENDBRANCH   6  13
ENDBRANCH   1   4
BRANCH   1  15
HETATM   15  C7  UNL     1     -20.385 -12.044  14.721  1.00  0.00     0.087 A 
HETATM   16  N3  UNL     1     -20.842 -11.523  15.786  1.00  0.00    -0.266 N 
HETATM   17  S1  UNL     1     -21.861 -12.677  16.543  1.00  0.00     0.324 S 
ATOM     18  H3  UNL     1     -20.640 -10.584  16.129  1.00  0.00     0.180 HD
HETATM   19  O1  UNL     1     -23.272 -12.212  16.673  1.00  0.00    -0.182 OA
HETATM   20  O2  UNL     1     -21.298 -13.172  17.840  1.00  0.00    -0.182 OA
HETATM   21  N4  UNL     1     -21.680 -13.935  15.383  1.00  0.00    -0.251 N 
HETATM   22  C8  UNL     1     -20.795 -13.384  14.416  1.00  0.00     0.135 A 
ATOM     23  H4  UNL     1     -22.107 -14.861  15.388  1.00  0.00     0.182 HD
HETATM   24  N5  UNL     1     -20.426 -14.114  13.372  1.00  0.00    -0.383 N 
ATOM     25  H52 UNL     1     -19.791 -13.718  12.677  1.00  0.00     0.157 HD
ATOM     26  H51 UNL     1     -20.717 -15.066  13.154  1.00  0.00     0.157 HD
ENDBRANCH   1  15
TORSDOF 3
ENDMDL
MODEL 2
REMARK VINA RESULT: -6.938903704      2.607      6.032
REMARK  3 active torsions:
REMARK  status: ('A' for Active; 'I' for Inactive)
REMARK    1  A    between atoms: C2_2  and  N1_3 
REMARK    2  A    between atoms: C4_5  and  C5_6 
REMARK    3  A    between atoms: C5_6  and  C7_9 
ROOT
HETATM    1  C5  UNL     1     -17.902 -10.822  14.048  1.00  0.00     0.186 C 
HETATM    2  C6  UNL     1     -17.217 -12.121  14.142  1.00  0.00     0.075 C 
HETATM    3  N2  UNL     1     -16.696 -13.148  14.224  1.00  0.00    -0.196 NA
ENDROOT
BRANCH   1   4
HETATM    4  C4  UNL     1     -19.304 -10.986  14.438  1.00  0.00     0.050 A 
HETATM    5  C3  UNL     1     -19.807 -11.992  15.226  1.00  0.00     0.115 A 
HETATM    6  N1  UNL     1     -21.144 -12.076  15.525  1.00  0.00    -0.285 N 
HETATM    7  C10 UNL     1     -21.981 -11.159  15.041  1.00  0.00     0.333 A 
HETATM    8  N6  UNL     1     -21.528 -10.130  14.247  1.00  0.00    -0.275 N 
HETATM    9  O4  UNL     1     -23.218 -11.185  15.285  1.00  0.00    -0.246 OA
HETATM   10  C9  UNL     1     -20.231 -10.067  13.967  1.00  0.00     0.258 A 
ATOM     11  H6  UNL     1     -22.175  -9.431  13.880  1.00  0.00     0.173 HD
HETATM   12  O3  UNL     1     -19.799  -9.120  13.233  1.00  0.00    -0.267 OA
BRANCH   6  13
HETATM   13  C2  UNL     1     -21.554 -13.141  16.352  1.00  0.00     0.091 C 
HETATM   14  C1  UNL     1     -21.598 -13.190  17.647  1.00  0.00     0.030 C 
ENDBRANCH   6  13
ENDBRANCH   1   4
BRANCH   1  15
HETATM   15  C7  UNL     1     -17.170  -9.798  14.871  1.00  0.00     0.087 A 
HETATM   16  N3  UNL     1     -17.303  -9.759  16.133  1.00  0.00    -0.266 N 
HETATM   17  S1  UNL     1     -16.330  -8.476  16.727  1.00  0.00     0.324 S 
ATOM     18  H3  UNL     1     -17.885 -10.380  16.695  1.00  0.00     0.180 HD
HETATM   19  O1  UNL     1     -15.267  -8.939  17.666  1.00  0.00    -0.182 OA
HETATM   20  O2  UNL     1     -17.146  -7.354  17.291  1.00  0.00    -0.182 OA
HETATM   21  N4  UNL     1     -15.699  -7.952  15.214  1.00  0.00    -0.251 N 
HETATM   22  C8  UNL     1     -16.299  -8.830  14.270  1.00  0.00     0.135 A 
ATOM     23  H4  UNL     1     -15.047  -7.188  15.036  1.00  0.00     0.182 HD
HETATM   24  N5  UNL     1     -16.033  -8.687  12.979  1.00  0.00    -0.383 N 
ATOM     25  H52 UNL     1     -16.464  -9.318  12.301  1.00  0.00     0.157 HD
ATOM     26  H51 UNL     1     -15.414  -7.999  12.552  1.00  0.00     0.157 HD
ENDBRANCH   1  15
TORSDOF 3
ENDMDL
MODEL 3
REMARK VINA RESULT: -6.621831136      1.446      1.541
REMARK  3 active torsions:
REMARK  status: ('A' for Active; 'I' for Inactive)
REMARK    1  A    between atoms: C2_2  and  N1_3 
REMARK    2  A    between atoms: C4_5  and  C5_6 
REMARK    3  A    between atoms: C5_6  and  C7_9 
ROOT
HETATM    1  C5  UNL     1     -20.581 -11.863  13.593  1.00  0.00     0.186 C 
HETATM    2  C6  UNL     1     -21.014 -10.650  12.884  1.00  0.00     0.075 C 
HETATM    3  N2  UNL     1     -21.335  -9.689  12.329  1.00  0.00    -0.196 NA
ENDROOT
BRANCH   1   4
HETATM    4  C4  UNL     1     -19.156 -11.755  13.911  1.00  0.00     0.050 A 
HETATM    5  C3  UNL     1     -18.480 -10.592  14.191  1.00  0.00     0.115 A 
HETATM    6  N1  UNL     1     -17.134 -10.585  14.461  1.00  0.00    -0.285 N 
HETATM    7  C10 UNL     1     -16.460 -11.734  14.451  1.00  0.00     0.333 A 
HETATM    8  N6  UNL     1     -17.089 -12.927  14.176  1.00  0.00    -0.275 N 
HETATM    9  O4  UNL     1     -15.223 -11.787  14.693  1.00  0.00    -0.246 OA
HETATM   10  C9  UNL     1     -18.391 -12.913  13.917  1.00  0.00     0.258 A 
ATOM     11  H6  UNL     1     -16.566 -13.803  14.171  1.00  0.00     0.173 HD
HETATM   12  O3  UNL     1     -18.986 -14.011  13.661  1.00  0.00    -0.267 OA
BRANCH   6  13
HETATM   13  C2  UNL     1     -16.541  -9.339  14.748  1.00  0.00     0.091 C 
HETATM   14  C1  UNL     1     -16.021  -8.481  13.927  1.00  0.00     0.030 C 
ENDBRANCH   6  13
ENDBRANCH   1   4
BRANCH   1  15
HETATM   15  C7  UNL     1     -21.446 -12.083  14.803  1.00  0.00     0.087 A 
HETATM   16  N3  UNL     1     -21.744 -11.120  15.577  1.00  0.00    -0.266 N 
HETATM   17  S1  UNL     1     -22.733 -11.740  16.835  1.00  0.00     0.324 S 
ATOM     18  H3  UNL     1     -21.448 -10.150  15.469  1.00  0.00     0.180 HD
HETATM   19  O1  UNL     1     -24.089 -11.120  16.868  1.00  0.00    -0.182 OA
HETATM   20  O2  UNL     1     -22.051 -11.702  18.168  1.00  0.00    -0.182 OA
HETATM   21  N4  UNL     1     -22.763 -13.379  16.312  1.00  0.00    -0.251 N 
HETATM   22  C8  UNL     1     -21.967 -13.378  15.134  1.00  0.00     0.135 A 
ATOM     23  H4  UNL     1     -23.240 -14.169  16.747  1.00  0.00     0.182 HD
HETATM   24  N5  UNL     1     -21.766 -14.511  14.474  1.00  0.00    -0.383 N 
ATOM     25  H52 UNL     1     -21.195 -14.510  13.629  1.00  0.00     0.157 HD
ATOM     26  H51 UNL     1     -22.137 -15.431  14.709  1.00  0.00     0.157 HD
ENDBRANCH   1  15
TORSDOF 3
ENDMDL
MODEL 4
REMARK VINA RESULT: -6.547585101      2.586      5.904
REMARK  3 active torsions:
REMARK  status: ('A' for Active; 'I' for Inactive)
REMARK    1  A    between atoms: C2_2  and  N1_3 
REMARK    2  A    between atoms: C4_5  and  C5_6 
REMARK    3  A    between atoms: C5_6  and  C7_9 
ROOT
HETATM    1  C5  UNL     1     -17.993 -11.583  14.006  1.00  0.00     0.186 C 
HETATM    2  C6  UNL     1     -17.616 -13.005  13.987  1.00  0.00     0.075 C 
HETATM    3  N2  UNL     1     -17.338 -14.125  13.981  1.00  0.00    -0.196 NA
ENDROOT
BRANCH   1   4
HETATM    4  C4  UNL     1     -19.341 -11.447  14.563  1.00  0.00     0.050 A 
HETATM    5  C3  UNL     1     -19.929 -12.302  15.463  1.00  0.00     0.115 A 
HETATM    6  N1  UNL     1     -21.209 -12.105  15.918  1.00  0.00    -0.285 N 
HETATM    7  C10 UNL     1     -21.904 -11.058  15.477  1.00  0.00     0.333 A 
HETATM    8  N6  UNL     1     -21.362 -10.171  14.575  1.00  0.00    -0.275 N 
HETATM    9  O4  UNL     1     -23.083 -10.826  15.861  1.00  0.00    -0.246 OA
HETATM   10  C9  UNL     1     -20.123 -10.379  14.146  1.00  0.00     0.258 A 
ATOM     11  H6  UNL     1     -21.901  -9.371  14.242  1.00  0.00     0.173 HD
HETATM   12  O3  UNL     1     -19.609  -9.566  13.310  1.00  0.00    -0.267 OA
BRANCH   6  13
HETATM   13  C2  UNL     1     -21.712 -13.035  16.850  1.00  0.00     0.091 C 
HETATM   14  C1  UNL     1     -21.556 -13.057  18.137  1.00  0.00     0.030 C 
ENDBRANCH   6  13
ENDBRANCH   1   4
BRANCH   1  15
HETATM   15  C7  UNL     1     -16.957 -10.791  14.755  1.00  0.00     0.087 A 
HETATM   16  N3  UNL     1     -17.270  -9.726  15.373  1.00  0.00    -0.266 N 
HETATM   17  S1  UNL     1     -15.848  -9.101  16.101  1.00  0.00     0.324 S 
ATOM     18  H3  UNL     1     -18.202  -9.316  15.427  1.00  0.00     0.180 HD
HETATM   19  O1  UNL     1     -15.940  -9.028  17.589  1.00  0.00    -0.182 OA
HETATM   20  O2  UNL     1     -15.414  -7.805  15.488  1.00  0.00    -0.182 OA
HETATM   21  N4  UNL     1     -14.761 -10.322  15.562  1.00  0.00    -0.251 N 
HETATM   22  C8  UNL     1     -15.583 -11.200  14.803  1.00  0.00     0.135 A 
ATOM     23  H4  UNL     1     -13.761 -10.398  15.743  1.00  0.00     0.182 HD
HETATM   24  N5  UNL     1     -15.046 -12.262  14.218  1.00  0.00    -0.383 N 
ATOM     25  H52 UNL     1     -15.636 -12.893  13.674  1.00  0.00     0.157 HD
ATOM     26  H51 UNL     1     -14.069 -12.553  14.253  1.00  0.00     0.157 HD
ENDBRANCH   1  15
TORSDOF 3
ENDMDL
MODEL 5
REMARK VINA RESULT: -6.351336300      1.931      2.351
REMARK  3 active torsions:
REMARK  status: ('A' for Active; 'I' for Inactive)
REMARK    1  A    between atoms: C2_2  and  N1_3 
REMARK    2  A    between atoms: C4_5  and  C5_6 
REMARK    3  A    between atoms: C5_6  and  C7_9 
ROOT
HETATM    1  C5  UNL     1     -20.271 -11.975  13.929  1.00  0.00     0.186 C 
HETATM    2  C6  UNL     1     -20.182 -10.526  13.699  1.00  0.00     0.075 C 
HETATM    3  N2  UNL     1     -20.092  -9.389  13.520  1.00  0.00    -0.196 NA
ENDROOT
BRANCH   1   4
HETATM    4  C4  UNL     1     -18.921 -12.533  14.029  1.00  0.00     0.050 A 
HETATM    5  C3  UNL     1     -17.779 -11.828  14.320  1.00  0.00     0.115 A 
HETATM    6  N1  UNL     1     -16.548 -12.434  14.374  1.00  0.00    -0.285 N 
HETATM    7  C10 UNL     1     -16.453 -13.741  14.137  1.00  0.00     0.333 A 
HETATM    8  N6  UNL     1     -17.566 -14.494  13.840  1.00  0.00    -0.275 N 
HETATM    9  O4  UNL     1     -15.349 -14.351  14.174  1.00  0.00    -0.246 OA
HETATM   10  C9  UNL     1     -18.748 -13.890  13.792  1.00  0.00     0.258 A 
ATOM     11  H6  UNL     1     -17.486 -15.495  13.660  1.00  0.00     0.173 HD
HETATM   12  O3  UNL     1     -19.787 -14.575  13.518  1.00  0.00    -0.267 OA
BRANCH   6  13
HETATM   13  C2  UNL     1     -15.442 -11.621  14.694  1.00  0.00     0.091 C 
HETATM   14  C1  UNL     1     -15.259 -10.879  15.741  1.00  0.00     0.030 C 
ENDBRANCH   6  13
ENDBRANCH   1   4
BRANCH   1  15
HETATM   15  C7  UNL     1     -21.118 -12.249  15.141  1.00  0.00     0.087 A 
HETATM   16  N3  UNL     1     -20.797 -11.788  16.281  1.00  0.00    -0.266 N 
HETATM   17  S1  UNL     1     -21.983 -12.298  17.410  1.00  0.00     0.324 S 
ATOM     18  H3  UNL     1     -19.978 -11.216  16.487  1.00  0.00     0.180 HD
HETATM   19  O1  UNL     1     -22.701 -11.159  18.054  1.00  0.00    -0.182 OA
HETATM   20  O2  UNL     1     -21.439 -13.272  18.410  1.00  0.00    -0.182 OA
HETATM   21  N4  UNL     1     -22.977 -13.177  16.314  1.00  0.00    -0.251 N 
HETATM   22  C8  UNL     1     -22.316 -13.035  15.063  1.00  0.00     0.135 A 
ATOM     23  H4  UNL     1     -23.839 -13.683  16.516  1.00  0.00     0.182 HD
HETATM   24  N5  UNL     1     -22.819 -13.618  13.984  1.00  0.00    -0.383 N 
ATOM     25  H52 UNL     1     -22.345 -13.516  13.086  1.00  0.00     0.157 HD
ATOM     26  H51 UNL     1     -23.670 -14.176  13.928  1.00  0.00     0.157 HD
ENDBRANCH   1  15
TORSDOF 3
ENDMDL
