MODEL 1
REMARK VINA RESULT: -6.692464229      0.000      0.000
REMARK  4 active torsions:
REMARK  status: ('A' for Active; 'I' for Inactive)
REMARK    1  A    between atoms: N1_1  and  C1_4 
REMARK    2  A    between atoms: C3_9  and  C4_10 
REMARK    3  A    between atoms: N5_23  and  C10_24 
REMARK    4  A    between atoms: C10_24  and  C11_25 
ROOT
HETATM    1  C1  UNL     1     -16.138 -11.404  14.800  1.00  0.00     0.681 A 
HETATM    2  N2  UNL     1     -16.662 -12.575  14.436  1.00  0.00    -0.155 N 
ATOM      3  H2  UNL     1     -16.076 -13.407  14.509  1.00  0.00     0.187 HD
HETATM    4  C2  UNL     1     -17.899 -12.720  13.985  1.00  0.00     0.271 A 
HETATM    5  O1  UNL     1     -18.334 -13.865  13.655  1.00  0.00    -0.267 OA
HETATM    6  C3  UNL     1     -18.713 -11.583  13.882  1.00  0.00     0.050 A 
HETATM    7  C9  UNL     1     -18.190 -10.370  14.253  1.00  0.00     0.126 A 
HETATM    8  N5  UNL     1     -16.930 -10.315  14.697  1.00  0.00    -0.186 N 
ENDROOT
BRANCH   6   9
HETATM    9  C4  UNL     1     -20.075 -11.814  13.448  1.00  0.00     0.041 C 
HETATM   10  C5  UNL     1     -21.124 -12.088  14.174  1.00  0.00     0.101 A 
HETATM   11  C6  UNL     1     -21.195 -12.225  15.607  1.00  0.00     0.263 A 
HETATM   12  C8  UNL     1     -22.399 -12.328  13.451  1.00  0.00     0.263 A 
HETATM   13  O2  UNL     1     -20.194 -12.044  16.321  1.00  0.00    -0.267 OA
HETATM   14  N3  UNL     1     -22.418 -12.568  16.248  1.00  0.00    -0.299 N 
HETATM   15  C7  UNL     1     -23.621 -12.794  15.555  1.00  0.00     0.181 A 
ATOM     16  H3  UNL     1     -22.423 -12.656  17.264  1.00  0.00     0.171 HD
HETATM   17  S1  UNL     1     -25.001 -13.185  16.324  1.00  0.00    -0.040 SA
HETATM   18  N4  UNL     1     -23.603 -12.670  14.139  1.00  0.00    -0.299 N 
ATOM     19  H4  UNL     1     -24.459 -12.828  13.608  1.00  0.00     0.171 HD
HETATM   20  O3  UNL     1     -22.404 -12.223  12.198  1.00  0.00    -0.267 OA
ENDBRANCH   6   9
BRANCH   8  21
HETATM   21  C10 UNL     1     -16.401  -9.025  15.082  1.00  0.00     0.216 C 
BRANCH  21  22
HETATM   22  C11 UNL     1     -16.633  -8.847  16.545  1.00  0.00     0.251 C 
HETATM   23  O4  UNL     1     -17.529  -8.112  16.937  1.00  0.00    -0.305 OA
ENDBRANCH  21  22
ENDBRANCH   8  21
BRANCH   1  24
HETATM   24  N1  UNL     1     -14.935 -11.251  15.239  1.00  0.00    -0.234 N 
ATOM     25  H12 UNL     1     -14.624 -11.830  16.018  1.00  0.00     0.174 HD
ATOM     26  H11 UNL     1     -14.264 -10.584  14.858  1.00  0.00     0.174 HD
ENDBRANCH   1  24
TORSDOF 4
ENDMDL
MODEL 2
REMARK VINA RESULT: -6.413771058      1.939      2.375
REMARK  4 active torsions:
REMARK  status: ('A' for Active; 'I' for Inactive)
REMARK    1  A    between atoms: N1_1  and  C1_4 
REMARK    2  A    between atoms: C3_9  and  C4_10 
REMARK    3  A    between atoms: N5_23  and  C10_24 
REMARK    4  A    between atoms: C10_24  and  C11_25 
ROOT
HETATM    1  C1  UNL     1     -17.372  -9.752  14.146  1.00  0.00     0.681 A 
HETATM    2  N2  UNL     1     -18.652  -9.584  13.816  1.00  0.00    -0.155 N 
ATOM      3  H2  UNL     1     -18.983  -8.635  13.641  1.00  0.00     0.187 HD
HETATM    4  C2  UNL     1     -19.520 -10.579  13.701  1.00  0.00     0.271 A 
HETATM    5  O1  UNL     1     -20.726 -10.347  13.384  1.00  0.00    -0.267 OA
HETATM    6  C3  UNL     1     -19.075 -11.888  13.936  1.00  0.00     0.050 A 
HETATM    7  C9  UNL     1     -17.760 -12.078  14.276  1.00  0.00     0.126 A 
HETATM    8  N5  UNL     1     -16.952 -11.016  14.370  1.00  0.00    -0.186 N 
ENDROOT
BRANCH   6   9
HETATM    9  C4  UNL     1     -20.051 -12.937  13.730  1.00  0.00     0.041 C 
HETATM   10  C5  UNL     1     -20.930 -13.407  14.572  1.00  0.00     0.101 A 
HETATM   11  C6  UNL     1     -21.161 -12.990  15.933  1.00  0.00     0.263 A 
HETATM   12  C8  UNL     1     -21.779 -14.531  14.102  1.00  0.00     0.263 A 
HETATM   13  O2  UNL     1     -20.515 -12.056  16.437  1.00  0.00    -0.267 OA
HETATM   14  N3  UNL     1     -22.140 -13.635  16.738  1.00  0.00    -0.299 N 
HETATM   15  C7  UNL     1     -22.940 -14.699  16.283  1.00  0.00     0.181 A 
ATOM     16  H3  UNL     1     -22.270 -13.310  17.695  1.00  0.00     0.171 HD
HETATM   17  S1  UNL     1     -24.051 -15.413  17.235  1.00  0.00    -0.040 SA
HETATM   18  N4  UNL     1     -22.751 -15.148  14.947  1.00  0.00    -0.299 N 
ATOM     19  H4  UNL     1     -23.315 -15.918  14.589  1.00  0.00     0.171 HD
HETATM   20  O3  UNL     1     -21.627 -14.941  12.923  1.00  0.00    -0.267 OA
ENDBRANCH   6   9
BRANCH   8  21
HETATM   21  C10 UNL     1     -15.571 -11.243  14.730  1.00  0.00     0.216 C 
BRANCH  21  22
HETATM   22  C11 UNL     1     -15.437 -11.044  16.203  1.00  0.00     0.251 C 
HETATM   23  O4  UNL     1     -14.869 -10.052  16.637  1.00  0.00    -0.305 OA
ENDBRANCH  21  22
ENDBRANCH   8  21
BRANCH   1  24
HETATM   24  N1  UNL     1     -16.518  -8.792  14.261  1.00  0.00    -0.234 N 
ATOM     25  H12 UNL     1     -16.784  -7.968  14.801  1.00  0.00     0.174 HD
ATOM     26  H11 UNL     1     -15.586  -8.797  13.848  1.00  0.00     0.174 HD
ENDBRANCH   1  24
TORSDOF 4
ENDMDL
MODEL 3
REMARK VINA RESULT: -6.161052250      1.394      3.015
REMARK  4 active torsions:
REMARK  status: ('A' for Active; 'I' for Inactive)
REMARK    1  A    between atoms: N1_1  and  C1_4 
REMARK    2  A    between atoms: C3_9  and  C4_10 
REMARK    3  A    between atoms: N5_23  and  C10_24 
REMARK    4  A    between atoms: C10_24  and  C11_25 
ROOT
HETATM    1  C1  UNL     1     -16.444 -11.444  14.585  1.00  0.00     0.681 A 
HETATM    2  N2  UNL     1     -17.250 -10.383  14.556  1.00  0.00    -0.155 N 
ATOM      3  H2  UNL     1     -16.856  -9.474  14.799  1.00  0.00     0.187 HD
HETATM    4  C2  UNL     1     -18.533 -10.440  14.231  1.00  0.00     0.271 A 
HETATM    5  O1  UNL     1     -19.243  -9.389  14.225  1.00  0.00    -0.267 OA
HETATM    6  C3  UNL     1     -19.085 -11.684  13.894  1.00  0.00     0.050 A 
HETATM    7  C9  UNL     1     -18.269 -12.787  13.917  1.00  0.00     0.126 A 
HETATM    8  N5  UNL     1     -16.985 -12.639  14.258  1.00  0.00    -0.186 N 
ENDROOT
BRANCH   6   9
HETATM    9  C4  UNL     1     -20.473 -11.674  13.482  1.00  0.00     0.041 C 
HETATM   10  C5  UNL     1     -21.540 -11.838  14.216  1.00  0.00     0.101 A 
HETATM   11  C6  UNL     1     -21.607 -12.067  15.638  1.00  0.00     0.263 A 
HETATM   12  C8  UNL     1     -22.848 -11.828  13.513  1.00  0.00     0.263 A 
HETATM   13  O2  UNL     1     -20.579 -12.092  16.335  1.00  0.00    -0.267 OA
HETATM   14  N3  UNL     1     -22.858 -12.267  16.286  1.00  0.00    -0.299 N 
HETATM   15  C7  UNL     1     -24.092 -12.256  15.612  1.00  0.00     0.181 A 
ATOM     16  H3  UNL     1     -22.860 -12.426  17.293  1.00  0.00     0.171 HD
HETATM   17  S1  UNL     1     -25.503 -12.488  16.389  1.00  0.00    -0.040 SA
HETATM   18  N4  UNL     1     -24.079 -12.034  14.208  1.00  0.00    -0.299 N 
ATOM     19  H4  UNL     1     -24.958 -12.021  13.691  1.00  0.00     0.171 HD
HETATM   20  O3  UNL     1     -22.857 -11.633  12.271  1.00  0.00    -0.267 OA
ENDBRANCH   6   9
BRANCH   8  21
HETATM   21  C10 UNL     1     -16.146 -13.816  14.276  1.00  0.00     0.216 C 
BRANCH  21  22
HETATM   22  C11 UNL     1     -17.010 -15.004  14.011  1.00  0.00     0.251 C 
HETATM   23  O4  UNL     1     -16.624 -15.885  13.256  1.00  0.00    -0.305 OA
ENDBRANCH  21  22
ENDBRANCH   8  21
BRANCH   1  24
HETATM   24  N1  UNL     1     -15.194 -11.401  14.901  1.00  0.00    -0.234 N 
ATOM     25  H12 UNL     1     -14.871 -11.970  15.683  1.00  0.00     0.174 HD
ATOM     26  H11 UNL     1     -14.498 -10.833  14.418  1.00  0.00     0.174 HD
ENDBRANCH   1  24
TORSDOF 4
ENDMDL
MODEL 4
REMARK VINA RESULT: -6.105137749      3.090      6.740
REMARK  4 active torsions:
REMARK  status: ('A' for Active; 'I' for Inactive)
REMARK    1  A    between atoms: N1_1  and  C1_4 
REMARK    2  A    between atoms: C3_9  and  C4_10 
REMARK    3  A    between atoms: N5_23  and  C10_24 
REMARK    4  A    between atoms: C10_24  and  C11_25 
ROOT
HETATM    1  C1  UNL     1     -24.148 -11.029  12.923  1.00  0.00     0.681 A 
HETATM    2  N2  UNL     1     -23.704 -11.572  14.056  1.00  0.00    -0.155 N 
ATOM      3  H2  UNL     1     -24.360 -11.669  14.832  1.00  0.00     0.187 HD
HETATM    4  C2  UNL     1     -22.461 -11.994  14.234  1.00  0.00     0.271 A 
HETATM    5  O1  UNL     1     -22.105 -12.501  15.340  1.00  0.00    -0.267 OA
HETATM    6  C3  UNL     1     -21.552 -11.868  13.173  1.00  0.00     0.050 A 
HETATM    7  C9  UNL     1     -21.993 -11.311  11.999  1.00  0.00     0.126 A 
HETATM    8  N5  UNL     1     -23.266 -10.911  11.907  1.00  0.00    -0.186 N 
ENDROOT
BRANCH   6   9
HETATM    9  C4  UNL     1     -20.228 -12.407  13.403  1.00  0.00     0.041 C 
HETATM   10  C5  UNL     1     -19.180 -11.807  13.898  1.00  0.00     0.101 A 
HETATM   11  C6  UNL     1     -19.076 -10.443  14.352  1.00  0.00     0.263 A 
HETATM   12  C8  UNL     1     -17.926 -12.598  13.975  1.00  0.00     0.263 A 
HETATM   13  O2  UNL     1     -20.060  -9.684  14.341  1.00  0.00    -0.267 OA
HETATM   14  N3  UNL     1     -17.841  -9.926  14.833  1.00  0.00    -0.299 N 
HETATM   15  C7  UNL     1     -16.657 -10.683  14.902  1.00  0.00     0.181 A 
ATOM     16  H3  UNL     1     -17.811  -8.955  15.144  1.00  0.00     0.171 HD
HETATM   17  S1  UNL     1     -15.262 -10.056  15.458  1.00  0.00    -0.040 SA
HETATM   18  N4  UNL     1     -16.708 -12.035  14.465  1.00  0.00    -0.299 N 
ATOM     19  H4  UNL     1     -15.866 -12.609  14.503  1.00  0.00     0.171 HD
HETATM   20  O3  UNL     1     -17.951 -13.796  13.594  1.00  0.00    -0.267 OA
ENDBRANCH   6   9
BRANCH   8  21
HETATM   21  C10 UNL     1     -23.705 -10.327  10.660  1.00  0.00     0.216 C 
BRANCH  21  22
HETATM   22  C11 UNL     1     -23.512 -11.340   9.581  1.00  0.00     0.251 C 
HETATM   23  O4  UNL     1     -23.888 -11.100   8.442  1.00  0.00    -0.305 OA
ENDBRANCH  21  22
ENDBRANCH   8  21
BRANCH   1  24
HETATM   24  N1  UNL     1     -25.356 -10.613  12.739  1.00  0.00    -0.234 N 
ATOM     25  H12 UNL     1     -25.574 -10.124  11.871  1.00  0.00     0.174 HD
ATOM     26  H11 UNL     1     -26.116 -10.742  13.406  1.00  0.00     0.174 HD
ENDBRANCH   1  24
TORSDOF 4
ENDMDL
MODEL 5
REMARK VINA RESULT: -6.104229081      1.496      2.832
REMARK  4 active torsions:
REMARK  status: ('A' for Active; 'I' for Inactive)
REMARK    1  A    between atoms: N1_1  and  C1_4 
REMARK    2  A    between atoms: C3_9  and  C4_10 
REMARK    3  A    between atoms: N5_23  and  C10_24 
REMARK    4  A    between atoms: C10_24  and  C11_25 
ROOT
HETATM    1  C1  UNL     1     -16.659 -10.589  14.702  1.00  0.00     0.681 A 
HETATM    2  N2  UNL     1     -17.749  -9.824  14.645  1.00  0.00    -0.155 N 
ATOM      3  H2  UNL     1     -17.662  -8.842  14.909  1.00  0.00     0.187 HD
HETATM    4  C2  UNL     1     -18.939 -10.264  14.264  1.00  0.00     0.271 A 
HETATM    5  O1  UNL     1     -19.936  -9.481  14.233  1.00  0.00    -0.267 OA
HETATM    6  C3  UNL     1     -19.070 -11.612  13.896  1.00  0.00     0.050 A 
HETATM    7  C9  UNL     1     -17.957 -12.412  13.949  1.00  0.00     0.126 A 
HETATM    8  N5  UNL     1     -16.794 -11.885  14.346  1.00  0.00    -0.186 N 
ENDROOT
BRANCH   6   9
HETATM    9  C4  UNL     1     -20.377 -12.018  13.425  1.00  0.00     0.041 C 
HETATM   10  C5  UNL     1     -21.333 -12.608  14.089  1.00  0.00     0.101 A 
HETATM   11  C6  UNL     1     -21.332 -13.001  15.476  1.00  0.00     0.263 A 
HETATM   12  C8  UNL     1     -22.562 -12.957  13.332  1.00  0.00     0.263 A 
HETATM   13  O2  UNL     1     -20.362 -12.760  16.213  1.00  0.00    -0.267 OA
HETATM   14  N3  UNL     1     -22.449 -13.676  16.044  1.00  0.00    -0.299 N 
HETATM   15  C7  UNL     1     -23.609 -14.002  15.318  1.00  0.00     0.181 A 
ATOM     16  H3  UNL     1     -22.407 -13.937  17.028  1.00  0.00     0.171 HD
HETATM   17  S1  UNL     1     -24.868 -14.775  16.003  1.00  0.00    -0.040 SA
HETATM   18  N4  UNL     1     -23.659 -13.635  13.946  1.00  0.00    -0.299 N 
ATOM     19  H4  UNL     1     -24.486 -13.859  13.393  1.00  0.00     0.171 HD
HETATM   20  O3  UNL     1     -22.625 -12.640  12.117  1.00  0.00    -0.267 OA
ENDBRANCH   6   9
BRANCH   8  21
HETATM   21  C10 UNL     1     -15.637 -12.750  14.393  1.00  0.00     0.216 C 
BRANCH  21  22
HETATM   22  C11 UNL     1     -16.082 -14.137  14.073  1.00  0.00     0.251 C 
HETATM   23  O4  UNL     1     -15.416 -14.835  13.321  1.00  0.00    -0.305 OA
ENDBRANCH  21  22
ENDBRANCH   8  21
BRANCH   1  24
HETATM   24  N1  UNL     1     -15.495 -10.171  15.072  1.00  0.00    -0.234 N 
ATOM     25  H12 UNL     1     -15.331  -9.166  15.115  1.00  0.00     0.174 HD
ATOM     26  H11 UNL     1     -14.720 -10.782  15.329  1.00  0.00     0.174 HD
ENDBRANCH   1  24
TORSDOF 4
ENDMDL
