MODEL 1
REMARK VINA RESULT: -8.667685527      0.000      0.000
REMARK  12 active torsions:
REMARK  status: ('A' for Active; 'I' for Inactive)
REMARK    1  A    between atoms: N1_1  and  C1_5 
REMARK    2  A    between atoms: C1_5  and  C2_6 
REMARK    3  A    between atoms: C2_6  and  C3_7 
REMARK    4  A    between atoms: C3_7  and  N2_8 
REMARK    5  A    between atoms: N2_8  and  C4_10 
REMARK    6  A    between atoms: C4_10  and  O1_11 
REMARK    7  A    between atoms: C4_10  and  C5_13 
REMARK    8  A    between atoms: C5_13  and  O2_14 
REMARK    9  A    between atoms: C5_13  and  C6_16 
REMARK   10  A    between atoms: C6_16  and  O3_17 
REMARK   11  A    between atoms: O3_17  and  C7_18 
REMARK   12  A    between atoms: C13_24  and  O4_25 
ROOT
HETATM    1  C7  UNL     1      -3.125 -36.094  20.571  1.00  0.00     0.309 C 
HETATM    2  C8  UNL     1      -3.633 -35.121  21.684  1.00  0.00     0.125 C 
HETATM    3  C9  UNL     1      -4.964 -35.592  22.182  1.00  0.00     0.016 A 
HETATM    4  C10 UNL     1      -5.341 -36.603  22.967  1.00  0.00     0.026 A 
HETATM    5  C11 UNL     1      -6.717 -36.948  23.128  1.00  0.00     0.021 A 
HETATM    6  C12 UNL     1      -7.720 -36.240  22.471  1.00  0.00     0.057 A 
HETATM    7  C13 UNL     1      -7.239 -35.208  21.696  1.00  0.00     0.154 A 
HETATM    8  N3  UNL     1      -5.936 -34.912  21.568  1.00  0.00    -0.340 N 
ATOM      9  H3  UNL     1      -5.674 -34.127  20.971  1.00  0.00     0.167 HD
HETATM   10  C14 UNL     1      -9.152 -36.703  22.464  1.00  0.00     0.145 C 
HETATM   11  N4  UNL     1     -10.329 -36.302  23.252  1.00  0.00    -0.080 NA
HETATM   12  N5  UNL     1      -9.538 -37.676  21.667  1.00  0.00    -0.282 N 
ATOM     13  H5  UNL     1     -10.534 -37.839  21.808  1.00  0.00     0.188 HD
HETATM   14  N6  UNL     1      -9.092 -38.522  20.742  1.00  0.00    -0.257 N 
HETATM   15  C15 UNL     1     -10.227 -39.576  20.628  1.00  0.00     0.267 C 
HETATM   16  N7  UNL     1      -9.812 -40.791  21.255  1.00  0.00    -0.403 N 
ATOM     17  H7  UNL     1     -10.301 -41.673  21.102  1.00  0.00     0.154 HD
HETATM   18  C16 UNL     1      -8.666 -40.696  22.112  1.00  0.00     0.135 C 
HETATM   19  C17 UNL     1      -7.433 -40.726  21.257  1.00  0.00     0.140 C 
HETATM   20  N8  UNL     1      -7.725 -40.310  19.926  1.00  0.00    -0.372 N 
ATOM     21  H8  UNL     1      -7.723 -40.929  19.115  1.00  0.00     0.161 HD
HETATM   22  C18 UNL     1      -8.039 -38.835  19.871  1.00  0.00     0.135 C 
HETATM   23  C19 UNL     1      -6.820 -38.211  19.492  1.00  0.00     0.141 C 
HETATM   24  N9  UNL     1      -5.551 -38.830  19.784  1.00  0.00    -0.326 N 
ATOM     25  H9  UNL     1      -5.483 -39.806  19.494  1.00  0.00     0.169 HD
HETATM   26  C20 UNL     1      -4.386 -38.324  20.400  1.00  0.00     0.264 C 
HETATM   27  N10 UNL     1      -3.732 -39.455  21.142  1.00  0.00    -0.049 NA
HETATM   28  N11 UNL     1      -3.786 -37.283  20.487  1.00  0.00    -0.384 NA
ENDROOT
BRANCH   1  29
HETATM   29  O3  UNL     1      -1.803 -36.245  20.851  1.00  0.00    -0.352 OA
BRANCH  29  30
HETATM   30  C6  UNL     1      -0.834 -36.503  19.994  1.00  0.00     0.207 C 
BRANCH  30  31
HETATM   31  C5  UNL     1      -0.503 -35.497  18.948  1.00  0.00     0.190 C 
BRANCH  31  32
HETATM   32  C4  UNL     1      -0.349 -34.085  19.306  1.00  0.00     0.244 C 
BRANCH  32  33
HETATM   33  N2  UNL     1       0.184 -33.813  20.612  1.00  0.00    -0.395 N 
ATOM     34  H2  UNL     1      -0.341 -34.056  21.452  1.00  0.00     0.155 HD
BRANCH  33  35
HETATM   35  C3  UNL     1       1.451 -33.203  20.703  1.00  0.00     0.118 C 
BRANCH  35  36
HETATM   36  C2  UNL     1       2.114 -33.534  22.053  1.00  0.00     0.046 C 
BRANCH  36  37
HETATM   37  C1  UNL     1       1.689 -34.937  22.425  1.00  0.00     0.231 C 
BRANCH  37  38
HETATM   38  N1  UNL     1       2.655 -35.886  21.931  1.00  0.00    -0.079 N 
ATOM     39  H13 UNL     1       2.946 -35.675  20.977  1.00  0.00     0.274 HD
ATOM     40  H12 UNL     1       3.562 -35.783  22.387  1.00  0.00     0.274 HD
ATOM     41  H11 UNL     1       2.284 -36.832  22.020  1.00  0.00     0.274 HD
ENDBRANCH  37  38
ENDBRANCH  36  37
ENDBRANCH  35  36
ENDBRANCH  33  35
ENDBRANCH  32  33
BRANCH  32  42
HETATM   42  O1  UNL     1      -1.565 -33.373  19.259  1.00  0.00    -0.374 OA
ATOM     43  H1  UNL     1      -2.216 -33.983  19.584  1.00  0.00     0.212 HD
ENDBRANCH  32  42
ENDBRANCH  31  32
BRANCH  31  44
HETATM   44  O2  UNL     1      -1.318 -35.703  17.851  1.00  0.00    -0.389 OA
ATOM     45  H2  UNL     1      -2.239 -35.777  18.071  1.00  0.00     0.210 HD
ENDBRANCH  31  44
ENDBRANCH  30  31
ENDBRANCH  29  30
ENDBRANCH   1  29
BRANCH   7  46
HETATM   46  O4  UNL     1      -7.841 -34.189  20.838  1.00  0.00    -0.345 OA
ATOM     47  H4  UNL     1      -7.653 -33.280  20.638  1.00  0.00     0.219 HD
ENDBRANCH   7  46
TORSDOF 12
ENDMDL
MODEL 2
REMARK VINA RESULT: -8.315715787      1.158      2.051
REMARK  12 active torsions:
REMARK  status: ('A' for Active; 'I' for Inactive)
REMARK    1  A    between atoms: N1_1  and  C1_5 
REMARK    2  A    between atoms: C1_5  and  C2_6 
REMARK    3  A    between atoms: C2_6  and  C3_7 
REMARK    4  A    between atoms: C3_7  and  N2_8 
REMARK    5  A    between atoms: N2_8  and  C4_10 
REMARK    6  A    between atoms: C4_10  and  O1_11 
REMARK    7  A    between atoms: C4_10  and  C5_13 
REMARK    8  A    between atoms: C5_13  and  O2_14 
REMARK    9  A    between atoms: C5_13  and  C6_16 
REMARK   10  A    between atoms: C6_16  and  O3_17 
REMARK   11  A    between atoms: O3_17  and  C7_18 
REMARK   12  A    between atoms: C13_24  and  O4_25 
ROOT
HETATM    1  C7  UNL     1      -2.842 -36.203  20.743  1.00  0.00     0.309 C 
HETATM    2  C8  UNL     1      -3.339 -35.210  21.844  1.00  0.00     0.125 C 
HETATM    3  C9  UNL     1      -4.722 -35.596  22.269  1.00  0.00     0.016 A 
HETATM    4  C10 UNL     1      -5.204 -36.588  23.019  1.00  0.00     0.026 A 
HETATM    5  C11 UNL     1      -6.607 -36.841  23.107  1.00  0.00     0.021 A 
HETATM    6  C12 UNL     1      -7.526 -36.060  22.413  1.00  0.00     0.057 A 
HETATM    7  C13 UNL     1      -6.939 -35.054  21.678  1.00  0.00     0.154 A 
HETATM    8  N3  UNL     1      -5.614 -34.845  21.618  1.00  0.00    -0.340 N 
ATOM      9  H3  UNL     1      -5.271 -34.073  21.046  1.00  0.00     0.167 HD
HETATM   10  C14 UNL     1      -8.983 -36.425  22.329  1.00  0.00     0.145 C 
HETATM   11  N4  UNL     1     -10.169 -35.954  23.064  1.00  0.00    -0.080 NA
HETATM   12  N5  UNL     1      -9.393 -37.361  21.499  1.00  0.00    -0.282 N 
ATOM     13  H5  UNL     1     -10.404 -37.458  21.589  1.00  0.00     0.188 HD
HETATM   14  N6  UNL     1      -8.959 -38.225  20.586  1.00  0.00    -0.257 N 
HETATM   15  C15 UNL     1     -10.154 -39.199  20.401  1.00  0.00     0.267 C 
HETATM   16  N7  UNL     1      -9.853 -40.445  21.030  1.00  0.00    -0.403 N 
ATOM     17  H7  UNL     1     -10.392 -41.291  20.840  1.00  0.00     0.154 HD
HETATM   18  C16 UNL     1      -8.748 -40.438  21.943  1.00  0.00     0.135 C 
HETATM   19  C17 UNL     1      -7.478 -40.541  21.149  1.00  0.00     0.140 C 
HETATM   20  N8  UNL     1      -7.675 -40.091  19.811  1.00  0.00    -0.372 N 
ATOM     21  H8  UNL     1      -7.674 -40.700  18.993  1.00  0.00     0.161 HD
HETATM   22  C18 UNL     1      -7.887 -38.598  19.762  1.00  0.00     0.135 C 
HETATM   23  C19 UNL     1      -6.612 -38.053  19.453  1.00  0.00     0.141 C 
HETATM   24  N9  UNL     1      -5.403 -38.760  19.798  1.00  0.00    -0.326 N 
ATOM     25  H9  UNL     1      -5.386 -39.735  19.497  1.00  0.00     0.169 HD
HETATM   26  C20 UNL     1      -4.239 -38.340  20.478  1.00  0.00     0.264 C 
HETATM   27  N10 UNL     1      -3.700 -39.521  21.234  1.00  0.00    -0.049 NA
HETATM   28  N11 UNL     1      -3.576 -37.343  20.609  1.00  0.00    -0.384 NA
ENDROOT
BRANCH   1  29
HETATM   29  O3  UNL     1      -1.549 -36.445  21.086  1.00  0.00    -0.352 OA
BRANCH  29  30
HETATM   30  C6  UNL     1      -1.118 -37.103  22.145  1.00  0.00     0.207 C 
BRANCH  30  31
HETATM   31  C5  UNL     1       0.207 -36.754  22.727  1.00  0.00     0.190 C 
BRANCH  31  32
HETATM   32  C4  UNL     1       1.435 -37.011  21.971  1.00  0.00     0.244 C 
BRANCH  32  33
HETATM   33  N2  UNL     1       2.357 -35.915  21.862  1.00  0.00    -0.395 N 
ATOM     34  H2  UNL     1       3.280 -36.047  21.447  1.00  0.00     0.155 HD
BRANCH  33  35
HETATM   35  C3  UNL     1       1.955 -34.653  22.343  1.00  0.00     0.118 C 
BRANCH  35  36
HETATM   36  C2  UNL     1       1.888 -33.633  21.190  1.00  0.00     0.046 C 
BRANCH  36  37
HETATM   37  C1  UNL     1       0.458 -33.616  20.696  1.00  0.00     0.231 C 
BRANCH  37  38
HETATM   38  N1  UNL     1       0.323 -34.506  19.569  1.00  0.00    -0.079 N 
ATOM     39  H13 UNL     1      -0.195 -34.078  18.802  1.00  0.00     0.274 HD
ATOM     40  H12 UNL     1       1.210 -34.649  19.085  1.00  0.00     0.274 HD
ATOM     41  H11 UNL     1      -0.096 -35.384  19.873  1.00  0.00     0.274 HD
ENDBRANCH  37  38
ENDBRANCH  36  37
ENDBRANCH  35  36
ENDBRANCH  33  35
ENDBRANCH  32  33
BRANCH  32  42
HETATM   42  O1  UNL     1       1.186 -37.404  20.640  1.00  0.00    -0.374 OA
ATOM     43  H1  UNL     1       1.903 -37.988  20.421  1.00  0.00     0.212 HD
ENDBRANCH  32  42
ENDBRANCH  31  32
BRANCH  31  44
HETATM   44  O2  UNL     1       0.258 -37.204  24.033  1.00  0.00    -0.389 OA
ATOM     45  H2  UNL     1       1.120 -37.504  24.296  1.00  0.00     0.210 HD
ENDBRANCH  31  44
ENDBRANCH  30  31
ENDBRANCH  29  30
ENDBRANCH   1  29
BRANCH   7  46
HETATM   46  O4  UNL     1      -7.428 -33.987  20.806  1.00  0.00    -0.345 OA
ATOM     47  H4  UNL     1      -7.742 -33.940  19.911  1.00  0.00     0.219 HD
ENDBRANCH   7  46
TORSDOF 12
ENDMDL
MODEL 3
REMARK VINA RESULT: -8.303641325      1.241      1.721
REMARK  12 active torsions:
REMARK  status: ('A' for Active; 'I' for Inactive)
REMARK    1  A    between atoms: N1_1  and  C1_5 
REMARK    2  A    between atoms: C1_5  and  C2_6 
REMARK    3  A    between atoms: C2_6  and  C3_7 
REMARK    4  A    between atoms: C3_7  and  N2_8 
REMARK    5  A    between atoms: N2_8  and  C4_10 
REMARK    6  A    between atoms: C4_10  and  O1_11 
REMARK    7  A    between atoms: C4_10  and  C5_13 
REMARK    8  A    between atoms: C5_13  and  O2_14 
REMARK    9  A    between atoms: C5_13  and  C6_16 
REMARK   10  A    between atoms: C6_16  and  O3_17 
REMARK   11  A    between atoms: O3_17  and  C7_18 
REMARK   12  A    between atoms: C13_24  and  O4_25 
ROOT
HETATM    1  C7  UNL     1      -3.610 -35.560  20.476  1.00  0.00     0.309 C 
HETATM    2  C8  UNL     1      -4.302 -34.664  21.555  1.00  0.00     0.125 C 
HETATM    3  C9  UNL     1      -5.448 -35.414  22.159  1.00  0.00     0.016 A 
HETATM    4  C10 UNL     1      -5.524 -36.425  23.026  1.00  0.00     0.026 A 
HETATM    5  C11 UNL     1      -6.760 -37.089  23.289  1.00  0.00     0.021 A 
HETATM    6  C12 UNL     1      -7.936 -36.706  22.650  1.00  0.00     0.057 A 
HETATM    7  C13 UNL     1      -7.765 -35.648  21.786  1.00  0.00     0.154 A 
HETATM    8  N3  UNL     1      -6.585 -35.046  21.562  1.00  0.00    -0.340 N 
ATOM      9  H3  UNL     1      -6.556 -34.268  20.903  1.00  0.00     0.167 HD
HETATM   10  C14 UNL     1      -9.202 -37.511  22.757  1.00  0.00     0.145 C 
HETATM   11  N4  UNL     1     -10.409 -37.359  23.587  1.00  0.00    -0.080 NA
HETATM   12  N5  UNL     1      -9.362 -38.607  22.046  1.00  0.00    -0.282 N 
ATOM     13  H5  UNL     1     -10.278 -39.003  22.256  1.00  0.00     0.188 HD
HETATM   14  N6  UNL     1      -8.755 -39.382  21.151  1.00  0.00    -0.257 N 
HETATM   15  C15 UNL     1      -9.590 -40.691  21.170  1.00  0.00     0.267 C 
HETATM   16  N7  UNL     1      -8.855 -41.713  21.846  1.00  0.00    -0.403 N 
ATOM     17  H7  UNL     1      -9.111 -42.698  21.777  1.00  0.00     0.154 HD
HETATM   18  C16 UNL     1      -7.736 -41.271  22.625  1.00  0.00     0.135 C 
HETATM   19  C17 UNL     1      -6.572 -41.057  21.703  1.00  0.00     0.140 C 
HETATM   20  N8  UNL     1      -7.015 -40.828  20.368  1.00  0.00    -0.372 N 
ATOM     21  H8  UNL     1      -6.890 -41.486  19.598  1.00  0.00     0.161 HD
HETATM   22  C18 UNL     1      -7.695 -39.486  20.240  1.00  0.00     0.135 C 
HETATM   23  C19 UNL     1      -6.691 -38.607  19.752  1.00  0.00     0.141 C 
HETATM   24  N9  UNL     1      -5.295 -38.867  20.006  1.00  0.00    -0.326 N 
ATOM     25  H9  UNL     1      -4.994 -39.814  19.773  1.00  0.00     0.169 HD
HETATM   26  C20 UNL     1      -4.272 -38.041  20.519  1.00  0.00     0.264 C 
HETATM   27  N10 UNL     1      -3.323 -38.913  21.290  1.00  0.00    -0.049 NA
HETATM   28  N11 UNL     1      -3.952 -36.879  20.505  1.00  0.00    -0.384 NA
ENDROOT
BRANCH   1  29
HETATM   29  O3  UNL     1      -2.283 -35.355  20.687  1.00  0.00    -0.352 OA
BRANCH  29  30
HETATM   30  C6  UNL     1      -1.322 -35.382  19.783  1.00  0.00     0.207 C 
BRANCH  30  31
HETATM   31  C5  UNL     1      -0.556 -36.640  19.574  1.00  0.00     0.190 C 
BRANCH  31  32
HETATM   32  C4  UNL     1       0.069 -37.320  20.711  1.00  0.00     0.244 C 
BRANCH  32  33
HETATM   33  N2  UNL     1       0.449 -36.488  21.820  1.00  0.00    -0.395 N 
ATOM     34  H2  UNL     1      -0.142 -35.711  22.118  1.00  0.00     0.155 HD
BRANCH  33  35
HETATM   35  C3  UNL     1       1.659 -36.772  22.485  1.00  0.00     0.118 C 
BRANCH  35  36
HETATM   36  C2  UNL     1       2.492 -35.488  22.663  1.00  0.00     0.046 C 
BRANCH  36  37
HETATM   37  C1  UNL     1       1.769 -34.384  21.924  1.00  0.00     0.231 C 
BRANCH  37  38
HETATM   38  N1  UNL     1       2.702 -33.659  21.098  1.00  0.00    -0.079 N 
ATOM     39  H13 UNL     1       2.259 -32.882  20.609  1.00  0.00     0.274 HD
ATOM     40  H12 UNL     1       3.369 -33.122  21.653  1.00  0.00     0.274 HD
ATOM     41  H11 UNL     1       3.165 -34.303  20.456  1.00  0.00     0.274 HD
ENDBRANCH  37  38
ENDBRANCH  36  37
ENDBRANCH  35  36
ENDBRANCH  33  35
ENDBRANCH  32  33
BRANCH  32  42
HETATM   42  O1  UNL     1       1.248 -38.008  20.358  1.00  0.00    -0.374 OA
ATOM     43  H1  UNL     1       1.822 -37.339  20.004  1.00  0.00     0.212 HD
ENDBRANCH  32  42
ENDBRANCH  31  32
BRANCH  31  44
HETATM   44  O2  UNL     1       0.290 -36.480  18.493  1.00  0.00    -0.389 OA
ATOM     45  H2  UNL     1       1.123 -36.925  18.595  1.00  0.00     0.210 HD
ENDBRANCH  31  44
ENDBRANCH  30  31
ENDBRANCH  29  30
ENDBRANCH   1  29
BRANCH   7  46
HETATM   46  O4  UNL     1      -8.640 -34.879  20.903  1.00  0.00    -0.345 OA
ATOM     47  H4  UNL     1      -9.420 -34.350  21.022  1.00  0.00     0.219 HD
ENDBRANCH   7  46
TORSDOF 12
ENDMDL
MODEL 4
REMARK VINA RESULT: -8.239282543      1.392      1.820
REMARK  12 active torsions:
REMARK  status: ('A' for Active; 'I' for Inactive)
REMARK    1  A    between atoms: N1_1  and  C1_5 
REMARK    2  A    between atoms: C1_5  and  C2_6 
REMARK    3  A    between atoms: C2_6  and  C3_7 
REMARK    4  A    between atoms: C3_7  and  N2_8 
REMARK    5  A    between atoms: N2_8  and  C4_10 
REMARK    6  A    between atoms: C4_10  and  O1_11 
REMARK    7  A    between atoms: C4_10  and  C5_13 
REMARK    8  A    between atoms: C5_13  and  O2_14 
REMARK    9  A    between atoms: C5_13  and  C6_16 
REMARK   10  A    between atoms: C6_16  and  O3_17 
REMARK   11  A    between atoms: O3_17  and  C7_18 
REMARK   12  A    between atoms: C13_24  and  O4_25 
ROOT
HETATM    1  C7  UNL     1      -2.852 -36.170  20.351  1.00  0.00     0.309 C 
HETATM    2  C8  UNL     1      -3.209 -35.115  21.448  1.00  0.00     0.125 C 
HETATM    3  C9  UNL     1      -4.511 -35.487  22.088  1.00  0.00     0.016 A 
HETATM    4  C10 UNL     1      -4.864 -36.434  22.958  1.00  0.00     0.026 A 
HETATM    5  C11 UNL     1      -6.235 -36.695  23.259  1.00  0.00     0.021 A 
HETATM    6  C12 UNL     1      -7.257 -35.969  22.655  1.00  0.00     0.057 A 
HETATM    7  C13 UNL     1      -6.798 -35.006  21.784  1.00  0.00     0.154 A 
HETATM    8  N3  UNL     1      -5.499 -34.787  21.524  1.00  0.00    -0.340 N 
ATOM      9  H3  UNL     1      -5.255 -34.050  20.863  1.00  0.00     0.167 HD
HETATM   10  C14 UNL     1      -8.704 -36.353  22.801  1.00  0.00     0.145 C 
HETATM   11  N4  UNL     1      -9.783 -35.849  23.666  1.00  0.00    -0.080 NA
HETATM   12  N5  UNL     1      -9.209 -37.344  22.097  1.00  0.00    -0.282 N 
ATOM     13  H5  UNL     1     -10.195 -37.446  22.334  1.00  0.00     0.188 HD
HETATM   14  N6  UNL     1      -8.891 -38.260  21.185  1.00  0.00    -0.257 N 
HETATM   15  C15 UNL     1     -10.083 -39.255  21.231  1.00  0.00     0.267 C 
HETATM   16  N7  UNL     1      -9.672 -40.457  21.886  1.00  0.00    -0.403 N 
ATOM     17  H7  UNL     1     -10.216 -41.318  21.827  1.00  0.00     0.154 HD
HETATM   18  C16 UNL     1      -8.450 -40.380  22.632  1.00  0.00     0.135 C 
HETATM   19  C17 UNL     1      -7.303 -40.521  21.674  1.00  0.00     0.140 C 
HETATM   20  N8  UNL     1      -7.695 -40.159  20.353  1.00  0.00    -0.372 N 
ATOM     21  H8  UNL     1      -7.797 -40.818  19.581  1.00  0.00     0.161 HD
HETATM   22  C18 UNL     1      -7.939 -38.674  20.243  1.00  0.00     0.135 C 
HETATM   23  C19 UNL     1      -6.731 -38.136  19.724  1.00  0.00     0.141 C 
HETATM   24  N9  UNL     1      -5.472 -38.808  19.936  1.00  0.00    -0.326 N 
ATOM     25  H9  UNL     1      -5.479 -39.800  19.697  1.00  0.00     0.169 HD
HETATM   26  C20 UNL     1      -4.233 -38.334  20.418  1.00  0.00     0.264 C 
HETATM   27  N10 UNL     1      -3.570 -39.459  21.161  1.00  0.00    -0.049 NA
HETATM   28  N11 UNL     1      -3.577 -37.324  20.392  1.00  0.00    -0.384 NA
ENDROOT
BRANCH   1  29
HETATM   29  O3  UNL     1      -1.520 -36.378  20.521  1.00  0.00    -0.352 OA
BRANCH  29  30
HETATM   30  C6  UNL     1      -0.932 -36.964  21.546  1.00  0.00     0.207 C 
BRANCH  30  31
HETATM   31  C5  UNL     1       0.554 -36.975  21.623  1.00  0.00     0.190 C 
BRANCH  31  32
HETATM   32  C4  UNL     1       1.291 -35.723  21.818  1.00  0.00     0.244 C 
BRANCH  32  33
HETATM   33  N2  UNL     1       1.090 -34.705  20.824  1.00  0.00    -0.395 N 
ATOM     34  H2  UNL     1       0.979 -34.949  19.840  1.00  0.00     0.155 HD
BRANCH  33  35
HETATM   35  C3  UNL     1       1.050 -33.360  21.243  1.00  0.00     0.118 C 
BRANCH  35  36
HETATM   36  C2  UNL     1       2.319 -32.615  20.788  1.00  0.00     0.046 C 
BRANCH  36  37
HETATM   37  C1  UNL     1       2.529 -31.467  21.751  1.00  0.00     0.231 C 
BRANCH  37  38
HETATM   38  N1  UNL     1       2.004 -31.816  23.047  1.00  0.00    -0.079 N 
ATOM     39  H13 UNL     1       2.084 -31.049  23.714  1.00  0.00     0.274 HD
ATOM     40  H12 UNL     1       0.987 -31.898  23.040  1.00  0.00     0.274 HD
ATOM     41  H11 UNL     1       2.456 -32.666  23.383  1.00  0.00     0.274 HD
ENDBRANCH  37  38
ENDBRANCH  36  37
ENDBRANCH  35  36
ENDBRANCH  33  35
ENDBRANCH  32  33
BRANCH  32  42
HETATM   42  O1  UNL     1       2.687 -35.911  21.863  1.00  0.00    -0.374 OA
ATOM     43  H1  UNL     1       2.866 -36.182  22.756  1.00  0.00     0.212 HD
ENDBRANCH  32  42
ENDBRANCH  31  32
BRANCH  31  44
HETATM   44  O2  UNL     1       1.054 -37.755  20.598  1.00  0.00    -0.389 OA
ATOM     45  H2  UNL     1       1.617 -38.459  20.898  1.00  0.00     0.210 HD
ENDBRANCH  31  44
ENDBRANCH  30  31
ENDBRANCH  29  30
ENDBRANCH   1  29
BRANCH   7  46
HETATM   46  O4  UNL     1      -7.425 -34.001  20.926  1.00  0.00    -0.345 OA
ATOM     47  H4  UNL     1      -7.448 -33.833  19.992  1.00  0.00     0.219 HD
ENDBRANCH   7  46
TORSDOF 12
ENDMDL
MODEL 5
REMARK VINA RESULT: -7.920855030      1.486      1.878
REMARK  12 active torsions:
REMARK  status: ('A' for Active; 'I' for Inactive)
REMARK    1  A    between atoms: N1_1  and  C1_5 
REMARK    2  A    between atoms: C1_5  and  C2_6 
REMARK    3  A    between atoms: C2_6  and  C3_7 
REMARK    4  A    between atoms: C3_7  and  N2_8 
REMARK    5  A    between atoms: N2_8  and  C4_10 
REMARK    6  A    between atoms: C4_10  and  O1_11 
REMARK    7  A    between atoms: C4_10  and  C5_13 
REMARK    8  A    between atoms: C5_13  and  O2_14 
REMARK    9  A    between atoms: C5_13  and  C6_16 
REMARK   10  A    between atoms: C6_16  and  O3_17 
REMARK   11  A    between atoms: O3_17  and  C7_18 
REMARK   12  A    between atoms: C13_24  and  O4_25 
ROOT
HETATM    1  C7  UNL     1      -4.015 -35.383  20.658  1.00  0.00     0.309 C 
HETATM    2  C8  UNL     1      -4.898 -34.607  21.688  1.00  0.00     0.125 C 
HETATM    3  C9  UNL     1      -5.968 -35.517  22.208  1.00  0.00     0.016 A 
HETATM    4  C10 UNL     1      -5.961 -36.540  23.064  1.00  0.00     0.026 A 
HETATM    5  C11 UNL     1      -7.107 -37.373  23.237  1.00  0.00     0.021 A 
HETATM    6  C12 UNL     1      -8.278 -37.150  22.519  1.00  0.00     0.057 A 
HETATM    7  C13 UNL     1      -8.197 -36.066  21.672  1.00  0.00     0.154 A 
HETATM    8  N3  UNL     1      -7.101 -35.303  21.534  1.00  0.00    -0.340 N 
ATOM      9  H3  UNL     1      -7.135 -34.519  20.881  1.00  0.00     0.167 HD
HETATM   10  C14 UNL     1      -9.423 -38.124  22.533  1.00  0.00     0.145 C 
HETATM   11  N4  UNL     1     -10.694 -38.152  23.277  1.00  0.00    -0.080 NA
HETATM   12  N5  UNL     1      -9.379 -39.222  21.809  1.00  0.00    -0.282 N 
ATOM     13  H5  UNL     1     -10.243 -39.744  21.952  1.00  0.00     0.188 HD
HETATM   14  N6  UNL     1      -8.609 -39.893  20.956  1.00  0.00    -0.257 N 
HETATM   15  C15 UNL     1      -9.252 -41.306  20.912  1.00  0.00     0.267 C 
HETATM   16  N7  UNL     1      -8.429 -42.224  21.634  1.00  0.00    -0.403 N 
ATOM     17  H7  UNL     1      -8.540 -43.235  21.544  1.00  0.00     0.154 HD
HETATM   18  C16 UNL     1      -7.440 -41.641  22.492  1.00  0.00     0.135 C 
HETATM   19  C17 UNL     1      -6.257 -41.254  21.654  1.00  0.00     0.140 C 
HETATM   20  N8  UNL     1      -6.634 -41.072  20.292  1.00  0.00    -0.372 N 
ATOM     21  H8  UNL     1      -6.365 -41.696  19.531  1.00  0.00     0.161 HD
HETATM   22  C18 UNL     1      -7.484 -39.836  20.121  1.00  0.00     0.135 C 
HETATM   23  C19 UNL     1      -6.582 -38.820  19.708  1.00  0.00     0.141 C 
HETATM   24  N9  UNL     1      -5.184 -38.885  20.058  1.00  0.00    -0.326 N 
ATOM     25  H9  UNL     1      -4.739 -39.778  19.844  1.00  0.00     0.169 HD
HETATM   26  C20 UNL     1      -4.325 -37.932  20.645  1.00  0.00     0.264 C 
HETATM   27  N10 UNL     1      -3.318 -38.674  21.478  1.00  0.00    -0.049 NA
HETATM   28  N11 UNL     1      -4.171 -36.737  20.658  1.00  0.00    -0.384 NA
ENDROOT
BRANCH   1  29
HETATM   29  O3  UNL     1      -2.747 -34.998  20.962  1.00  0.00    -0.352 OA
BRANCH  29  30
HETATM   30  C6  UNL     1      -1.976 -34.186  20.265  1.00  0.00     0.207 C 
BRANCH  30  31
HETATM   31  C5  UNL     1      -0.914 -34.761  19.395  1.00  0.00     0.190 C 
BRANCH  31  32
HETATM   32  C4  UNL     1      -0.842 -36.209  19.181  1.00  0.00     0.244 C 
BRANCH  32  33
HETATM   33  N2  UNL     1      -0.857 -37.029  20.361  1.00  0.00    -0.395 N 
ATOM     34  H2  UNL     1      -1.737 -37.370  20.749  1.00  0.00     0.155 HD
BRANCH  33  35
HETATM   35  C3  UNL     1       0.374 -37.351  20.967  1.00  0.00     0.118 C 
BRANCH  35  36
HETATM   36  C2  UNL     1       0.509 -36.638  22.326  1.00  0.00     0.046 C 
BRANCH  36  37
HETATM   37  C1  UNL     1       1.977 -36.332  22.523  1.00  0.00     0.231 C 
BRANCH  37  38
HETATM   38  N1  UNL     1       2.346 -35.188  21.727  1.00  0.00    -0.079 N 
ATOM     39  H13 UNL     1       2.353 -35.400  20.730  1.00  0.00     0.274 HD
ATOM     40  H12 UNL     1       1.617 -34.473  21.720  1.00  0.00     0.274 HD
ATOM     41  H11 UNL     1       3.242 -34.820  22.048  1.00  0.00     0.274 HD
ENDBRANCH  37  38
ENDBRANCH  36  37
ENDBRANCH  35  36
ENDBRANCH  33  35
ENDBRANCH  32  33
BRANCH  32  42
HETATM   42  O1  UNL     1       0.320 -36.602  18.485  1.00  0.00    -0.374 OA
ATOM     43  H1  UNL     1       0.211 -36.247  17.611  1.00  0.00     0.212 HD
ENDBRANCH  32  42
ENDBRANCH  31  32
BRANCH  31  44
HETATM   44  O2  UNL     1       0.300 -34.190  19.726  1.00  0.00    -0.389 OA
ATOM     45  H2  UNL     1       0.731 -33.765  18.995  1.00  0.00     0.210 HD
ENDBRANCH  31  44
ENDBRANCH  30  31
ENDBRANCH  29  30
ENDBRANCH   1  29
BRANCH   7  46
HETATM   46  O4  UNL     1      -9.108 -35.415  20.732  1.00  0.00    -0.345 OA
ATOM     47  H4  UNL     1     -10.038 -35.221  20.721  1.00  0.00     0.219 HD
ENDBRANCH   7  46
TORSDOF 12
ENDMDL
