MODEL 1
REMARK VINA RESULT: -9.281145948      0.000      0.000
REMARK  11 active torsions:
REMARK  status: ('A' for Active; 'I' for Inactive)
REMARK    1  A    between atoms: C1_4  and  C2_6 
REMARK    2  A    between atoms: C3_8  and  N3_9 
REMARK    3  A    between atoms: N3_9  and  C4_11 
REMARK    4  A    between atoms: C4_11  and  O1_12 
REMARK    5  A    between atoms: C4_11  and  C5_14 
REMARK    6  A    between atoms: C9_18  and  C10_19 
REMARK    7  A    between atoms: C10_19  and  N4_20 
REMARK    8  A    between atoms: N4_20  and  N5_22 
REMARK    9  A    between atoms: N10_34  and  C15_35 
REMARK   10  A    between atoms: C15_35  and  C16_36 
REMARK   11  A    between atoms: N13_43  and  N14_44 
ROOT
HETATM    1  C5  UNL     1      -4.088 -37.827  20.649  1.00  0.00     0.088 A 
HETATM    2  C6  UNL     1      -5.243 -38.551  20.304  1.00  0.00     0.049 A 
HETATM    3  C7  UNL     1      -6.351 -37.911  20.805  1.00  0.00     0.011 A 
HETATM    4  C8  UNL     1      -7.709 -38.149  20.783  1.00  0.00     0.025 A 
HETATM    5  C9  UNL     1      -8.621 -37.300  21.398  1.00  0.00    -0.023 A 
HETATM    6  C13 UNL     1      -8.069 -36.205  22.032  1.00  0.00     0.098 A 
HETATM    7  N9  UNL     1      -6.747 -35.982  22.048  1.00  0.00    -0.351 N 
ATOM      8  H9  UNL     1      -6.394 -35.155  22.532  1.00  0.00     0.166 HD
HETATM    9  C14 UNL     1      -5.872 -36.806  21.451  1.00  0.00     0.118 A 
HETATM   10  N10 UNL     1      -4.487 -36.775  21.344  1.00  0.00    -0.319 N 
ENDROOT
BRANCH   1  11
HETATM   11  C4  UNL     1      -2.783 -38.276  20.242  1.00  0.00     0.165 C 
BRANCH  11  12
HETATM   12  N3  UNL     1      -1.531 -38.028  20.824  1.00  0.00    -0.338 N 
ATOM     13  H3  UNL     1      -1.262 -38.485  21.696  1.00  0.00     0.164 HD
BRANCH  12  14
HETATM   14  C3  UNL     1      -0.625 -37.111  20.163  1.00  0.00     0.266 C 
HETATM   15  S1  UNL     1       0.115 -35.935  21.373  1.00  0.00    -0.090 SA
HETATM   16  C2  UNL     1       0.494 -34.472  20.312  1.00  0.00     0.232 C 
HETATM   17  N13 UNL     1       0.755 -35.084  18.998  1.00  0.00    -0.111 NA
HETATM   18  N12 UNL     1      -0.433 -35.480  18.439  1.00  0.00    -0.245 N 
HETATM   19  N11 UNL     1      -1.256 -36.283  19.177  1.00  0.00    -0.292 N 
ATOM     20  H12 UNL     1      -0.695 -35.183  17.499  1.00  0.00     0.203 HD
ATOM     21  H11 UNL     1      -2.266 -36.292  19.034  1.00  0.00     0.184 HD
BRANCH  16  22
HETATM   22  C1  UNL     1       1.730 -33.847  20.870  1.00  0.00     0.118 C 
HETATM   23  N1  UNL     1       2.733 -34.545  21.266  1.00  0.00    -0.389 N 
ATOM     24  H12 UNL     1       3.577 -34.117  21.647  1.00  0.00     0.157 HD
ATOM     25  H11 UNL     1       2.664 -35.559  21.186  1.00  0.00     0.157 HD
HETATM   26  N2  UNL     1       1.825 -32.421  20.982  1.00  0.00    -0.085 NA
ENDBRANCH  16  22
BRANCH  17  27
HETATM   27  N14 UNL     1       1.497 -34.262  18.178  1.00  0.00    -0.343 NA
ATOM     28 2H14 UNL     1       2.482 -34.522  18.128  1.00  0.00     0.172 HD
ATOM     29 1H14 UNL     1       1.114 -34.211  17.234  1.00  0.00     0.172 HD
ENDBRANCH  17  27
ENDBRANCH  12  14
ENDBRANCH  11  12
BRANCH  11  30
HETATM   30  O1  UNL     1      -2.772 -39.031  19.163  1.00  0.00    -0.345 OA
ATOM     31  H1  UNL     1      -3.538 -38.964  18.605  1.00  0.00     0.219 HD
ENDBRANCH  11  30
ENDBRANCH   1  11
BRANCH  10  32
HETATM   32  C15 UNL     1      -3.716 -35.718  21.954  1.00  0.00     0.244 C 
BRANCH  32  33
HETATM   33  C16 UNL     1      -3.804 -34.471  21.172  1.00  0.00     0.191 C 
HETATM   34  O2  UNL     1      -3.030 -34.218  20.206  1.00  0.00    -0.647 OA
HETATM   35  O3  UNL     1      -4.743 -33.511  21.460  1.00  0.00    -0.647 OA
ENDBRANCH  32  33
ENDBRANCH  10  32
BRANCH   5  36
HETATM   36  C10 UNL     1     -10.069 -37.538  21.380  1.00  0.00     0.181 C 
BRANCH  36  37
HETATM   37  N4  UNL     1     -10.510 -38.102  22.642  1.00  0.00    -0.310 N 
ATOM     38  H4  UNL     1     -10.041 -38.923  23.022  1.00  0.00     0.182 HD
BRANCH  37  39
HETATM   39  N5  UNL     1     -11.580 -37.521  23.343  1.00  0.00    -0.194 N 
HETATM   40  C11 UNL     1     -11.509 -36.424  24.105  1.00  0.00     0.229 A 
HETATM   41  N6  UNL     1     -12.736 -36.205  24.593  1.00  0.00    -0.323 N 
HETATM   42  C12 UNL     1     -13.589 -37.150  24.151  1.00  0.00     0.209 A 
ATOM     43  H6  UNL     1     -12.989 -35.434  25.210  1.00  0.00     0.169 HD
HETATM   44  N7  UNL     1     -14.957 -37.205  24.484  1.00  0.00    -0.062 NA
HETATM   45  N8  UNL     1     -12.844 -37.953  23.376  1.00  0.00    -0.251 N 
ATOM     46  H8  UNL     1     -13.192 -38.775  22.884  1.00  0.00     0.192 HD
ENDBRANCH  37  39
ENDBRANCH  36  37
ENDBRANCH   5  36
TORSDOF 11
ENDMDL
MODEL 2
REMARK VINA RESULT: -9.008661492      4.185     10.407
REMARK  11 active torsions:
REMARK  status: ('A' for Active; 'I' for Inactive)
REMARK    1  A    between atoms: C1_4  and  C2_6 
REMARK    2  A    between atoms: C3_8  and  N3_9 
REMARK    3  A    between atoms: N3_9  and  C4_11 
REMARK    4  A    between atoms: C4_11  and  O1_12 
REMARK    5  A    between atoms: C4_11  and  C5_14 
REMARK    6  A    between atoms: C9_18  and  C10_19 
REMARK    7  A    between atoms: C10_19  and  N4_20 
REMARK    8  A    between atoms: N4_20  and  N5_22 
REMARK    9  A    between atoms: N10_34  and  C15_35 
REMARK   10  A    between atoms: C15_35  and  C16_36 
REMARK   11  A    between atoms: N13_43  and  N14_44 
ROOT
HETATM    1  C5  UNL     1       0.939 -35.747  20.944  1.00  0.00     0.088 A 
HETATM    2  C6  UNL     1       1.710 -35.677  22.118  1.00  0.00     0.049 A 
HETATM    3  C7  UNL     1       2.136 -34.385  22.310  1.00  0.00     0.011 A 
HETATM    4  C8  UNL     1       2.899 -33.740  23.259  1.00  0.00     0.025 A 
HETATM    5  C9  UNL     1       3.176 -32.380  23.189  1.00  0.00    -0.023 A 
HETATM    6  C13 UNL     1       2.634 -31.725  22.102  1.00  0.00     0.098 A 
HETATM    7  N9  UNL     1       1.893 -32.361  21.183  1.00  0.00    -0.351 N 
ATOM      8  H9  UNL     1       1.516 -31.826  20.400  1.00  0.00     0.166 HD
HETATM    9  C14 UNL     1       1.629 -33.674  21.258  1.00  0.00     0.118 A 
HETATM   10  N10 UNL     1       0.901 -34.526  20.436  1.00  0.00    -0.319 N 
ENDROOT
BRANCH   1  11
HETATM   11  C4  UNL     1       0.360 -36.991  20.511  1.00  0.00     0.165 C 
BRANCH  11  12
HETATM   12  N3  UNL     1      -0.728 -37.702  21.038  1.00  0.00    -0.338 N 
ATOM     13  H3  UNL     1      -0.583 -38.434  21.734  1.00  0.00     0.164 HD
BRANCH  12  14
HETATM   14  C3  UNL     1      -2.062 -37.378  20.575  1.00  0.00     0.266 C 
HETATM   15  S1  UNL     1      -2.801 -36.036  21.598  1.00  0.00    -0.090 SA
HETATM   16  C2  UNL     1      -4.610 -36.365  21.422  1.00  0.00     0.232 C 
HETATM   17  N13 UNL     1      -4.700 -36.972  20.083  1.00  0.00    -0.111 NA
HETATM   18  N12 UNL     1      -4.230 -38.258  20.136  1.00  0.00    -0.245 N 
HETATM   19  N11 UNL     1      -2.988 -38.469  20.665  1.00  0.00    -0.292 N 
ATOM     20  H12 UNL     1      -4.791 -39.036  19.790  1.00  0.00     0.203 HD
ATOM     21  H11 UNL     1      -2.734 -39.355  21.101  1.00  0.00     0.184 HD
BRANCH  16  22
HETATM   22  C1  UNL     1      -5.293 -35.038  21.460  1.00  0.00     0.118 C 
HETATM   23  N1  UNL     1      -6.433 -34.869  22.029  1.00  0.00    -0.389 N 
ATOM     24  H12 UNL     1      -6.899 -33.963  22.055  1.00  0.00     0.157 HD
ATOM     25  H11 UNL     1      -6.868 -35.681  22.467  1.00  0.00     0.157 HD
HETATM   26  N2  UNL     1      -4.681 -33.897  20.845  1.00  0.00    -0.085 NA
ENDBRANCH  16  22
BRANCH  17  27
HETATM   27  N14 UNL     1      -5.968 -36.875  19.551  1.00  0.00    -0.343 NA
ATOM     28 2H14 UNL     1      -6.699 -37.193  20.187  1.00  0.00     0.172 HD
ATOM     29 1H14 UNL     1      -6.183 -35.928  19.238  1.00  0.00     0.172 HD
ENDBRANCH  17  27
ENDBRANCH  12  14
ENDBRANCH  11  12
BRANCH  11  30
HETATM   30  O1  UNL     1       0.945 -37.535  19.464  1.00  0.00    -0.345 OA
ATOM     31  H1  UNL     1       1.894 -37.569  19.493  1.00  0.00     0.219 HD
ENDBRANCH  11  30
ENDBRANCH   1  11
BRANCH  10  32
HETATM   32  C15 UNL     1       0.266 -34.040  19.234  1.00  0.00     0.244 C 
BRANCH  32  33
HETATM   33  C16 UNL     1       1.036 -34.414  18.033  1.00  0.00     0.191 C 
HETATM   34  O2  UNL     1       2.142 -33.876  17.741  1.00  0.00    -0.647 OA
HETATM   35  O3  UNL     1       0.585 -35.376  17.163  1.00  0.00    -0.647 OA
ENDBRANCH  32  33
ENDBRANCH  10  32
BRANCH   5  36
HETATM   36  C10 UNL     1       3.984 -31.678  24.195  1.00  0.00     0.181 C 
BRANCH  36  37
HETATM   37  N4  UNL     1       4.139 -30.280  23.840  1.00  0.00    -0.310 N 
ATOM     38  H4  UNL     1       4.844 -30.005  23.156  1.00  0.00     0.182 HD
BRANCH  37  39
HETATM   39  N5  UNL     1       3.324 -29.303  24.434  1.00  0.00    -0.194 N 
HETATM   40  C11 UNL     1       3.755 -28.217  25.085  1.00  0.00     0.229 A 
HETATM   41  N6  UNL     1       2.670 -27.550  25.497  1.00  0.00    -0.323 N 
HETATM   42  C12 UNL     1       1.552 -28.198  25.117  1.00  0.00     0.209 A 
ATOM     43  H6  UNL     1       2.687 -26.676  26.023  1.00  0.00     0.169 HD
HETATM   44  N7  UNL     1       0.243 -27.757  25.397  1.00  0.00    -0.062 NA
HETATM   45  N8  UNL     1       1.988 -29.283  24.458  1.00  0.00    -0.251 N 
ATOM     46  H8  UNL     1       1.386 -29.990  24.037  1.00  0.00     0.192 HD
ENDBRANCH  37  39
ENDBRANCH  36  37
ENDBRANCH   5  36
TORSDOF 11
ENDMDL
MODEL 3
REMARK VINA RESULT: -8.987112115      2.067      2.508
REMARK  11 active torsions:
REMARK  status: ('A' for Active; 'I' for Inactive)
REMARK    1  A    between atoms: C1_4  and  C2_6 
REMARK    2  A    between atoms: C3_8  and  N3_9 
REMARK    3  A    between atoms: N3_9  and  C4_11 
REMARK    4  A    between atoms: C4_11  and  O1_12 
REMARK    5  A    between atoms: C4_11  and  C5_14 
REMARK    6  A    between atoms: C9_18  and  C10_19 
REMARK    7  A    between atoms: C10_19  and  N4_20 
REMARK    8  A    between atoms: N4_20  and  N5_22 
REMARK    9  A    between atoms: N10_34  and  C15_35 
REMARK   10  A    between atoms: C15_35  and  C16_36 
REMARK   11  A    between atoms: N13_43  and  N14_44 
ROOT
HETATM    1  C5  UNL     1      -5.424 -37.158  21.447  1.00  0.00     0.088 A 
HETATM    2  C6  UNL     1      -5.575 -38.154  22.428  1.00  0.00     0.049 A 
HETATM    3  C7  UNL     1      -6.600 -37.811  23.276  1.00  0.00     0.011 A 
HETATM    4  C8  UNL     1      -7.181 -38.384  24.387  1.00  0.00     0.025 A 
HETATM    5  C9  UNL     1      -8.237 -37.786  25.064  1.00  0.00    -0.023 A 
HETATM    6  C13 UNL     1      -8.659 -36.579  24.544  1.00  0.00     0.098 A 
HETATM    7  N9  UNL     1      -8.088 -36.029  23.463  1.00  0.00    -0.351 N 
ATOM      8  H9  UNL     1      -8.441 -35.134  23.122  1.00  0.00     0.166 HD
HETATM    9  C14 UNL     1      -7.069 -36.613  22.814  1.00  0.00     0.118 A 
HETATM   10  N10 UNL     1      -6.336 -36.233  21.696  1.00  0.00    -0.319 N 
ENDROOT
BRANCH   1  11
HETATM   11  C4  UNL     1      -4.420 -37.272  20.423  1.00  0.00     0.165 C 
BRANCH  11  12
HETATM   12  N3  UNL     1      -3.566 -36.292  19.896  1.00  0.00    -0.338 N 
ATOM     13  H3  UNL     1      -3.896 -35.645  19.179  1.00  0.00     0.164 HD
BRANCH  12  14
HETATM   14  C3  UNL     1      -2.206 -36.215  20.388  1.00  0.00     0.266 C 
HETATM   15  S1  UNL     1      -1.393 -34.659  19.828  1.00  0.00    -0.090 SA
HETATM   16  C2  UNL     1       0.391 -35.135  19.820  1.00  0.00     0.232 C 
HETATM   17  N13 UNL     1       0.462 -36.148  20.887  1.00  0.00    -0.111 NA
HETATM   18  N12 UNL     1      -0.096 -37.317  20.438  1.00  0.00    -0.245 N 
HETATM   19  N11 UNL     1      -1.357 -37.270  19.916  1.00  0.00    -0.292 N 
ATOM     20  H12 UNL     1       0.417 -38.197  20.492  1.00  0.00     0.203 HD
ATOM     21  H11 UNL     1      -1.679 -37.950  19.226  1.00  0.00     0.184 HD
BRANCH  16  22
HETATM   22  C1  UNL     1       1.163 -33.910  20.188  1.00  0.00     0.118 C 
HETATM   23  N1  UNL     1       2.292 -33.622  19.646  1.00  0.00    -0.389 N 
ATOM     24  H12 UNL     1       2.818 -32.785  19.897  1.00  0.00     0.157 HD
ATOM     25  H11 UNL     1       2.655 -34.263  18.940  1.00  0.00     0.157 HD
HETATM   26  N2  UNL     1       0.652 -33.010  21.179  1.00  0.00    -0.085 NA
ENDBRANCH  16  22
BRANCH  17  27
HETATM   27  N14 UNL     1       1.742 -36.304  21.373  1.00  0.00    -0.343 NA
ATOM     28 2H14 UNL     1       1.919 -35.772  22.224  1.00  0.00     0.172 HD
ATOM     29 1H14 UNL     1       1.976 -37.284  21.534  1.00  0.00     0.172 HD
ENDBRANCH  17  27
ENDBRANCH  12  14
ENDBRANCH  11  12
BRANCH  11  30
HETATM   30  O1  UNL     1      -4.290 -38.478  19.911  1.00  0.00    -0.345 OA
ATOM     31  H1  UNL     1      -5.064 -39.028  19.949  1.00  0.00     0.219 HD
ENDBRANCH  11  30
ENDBRANCH   1  11
BRANCH  10  32
HETATM   32  C15 UNL     1      -6.609 -34.990  21.013  1.00  0.00     0.244 C 
BRANCH  32  33
HETATM   33  C16 UNL     1      -5.849 -33.875  21.608  1.00  0.00     0.191 C 
HETATM   34  O2  UNL     1      -6.412 -32.901  22.185  1.00  0.00    -0.647 OA
HETATM   35  O3  UNL     1      -4.478 -33.838  21.563  1.00  0.00    -0.647 OA
ENDBRANCH  32  33
ENDBRANCH  10  32
BRANCH   5  36
HETATM   36  C10 UNL     1      -8.868 -38.386  26.245  1.00  0.00     0.181 C 
BRANCH  36  37
HETATM   37  N4  UNL     1      -9.948 -39.273  25.853  1.00  0.00    -0.310 N 
ATOM     38  H4  UNL     1      -9.773 -40.273  25.755  1.00  0.00     0.182 HD
BRANCH  37  39
HETATM   39  N5  UNL     1     -11.232 -38.761  25.607  1.00  0.00    -0.194 N 
HETATM   40  C11 UNL     1     -11.935 -37.984  26.440  1.00  0.00     0.229 A 
HETATM   41  N6  UNL     1     -13.100 -37.717  25.838  1.00  0.00    -0.323 N 
HETATM   42  C12 UNL     1     -13.149 -38.315  24.631  1.00  0.00     0.209 A 
ATOM     43  H6  UNL     1     -13.844 -37.144  26.235  1.00  0.00     0.169 HD
HETATM   44  N7  UNL     1     -14.243 -38.231  23.746  1.00  0.00    -0.062 NA
HETATM   45  N8  UNL     1     -11.976 -38.955  24.514  1.00  0.00    -0.251 N 
ATOM     46  H8  UNL     1     -11.693 -39.511  23.707  1.00  0.00     0.192 HD
ENDBRANCH  37  39
ENDBRANCH  36  37
ENDBRANCH   5  36
TORSDOF 11
ENDMDL
MODEL 4
REMARK VINA RESULT: -8.922101751      1.519      1.872
REMARK  11 active torsions:
REMARK  status: ('A' for Active; 'I' for Inactive)
REMARK    1  A    between atoms: C1_4  and  C2_6 
REMARK    2  A    between atoms: C3_8  and  N3_9 
REMARK    3  A    between atoms: N3_9  and  C4_11 
REMARK    4  A    between atoms: C4_11  and  O1_12 
REMARK    5  A    between atoms: C4_11  and  C5_14 
REMARK    6  A    between atoms: C9_18  and  C10_19 
REMARK    7  A    between atoms: C10_19  and  N4_20 
REMARK    8  A    between atoms: N4_20  and  N5_22 
REMARK    9  A    between atoms: N10_34  and  C15_35 
REMARK   10  A    between atoms: C15_35  and  C16_36 
REMARK   11  A    between atoms: N13_43  and  N14_44 
ROOT
HETATM    1  C5  UNL     1      -4.551 -37.105  20.688  1.00  0.00     0.088 A 
HETATM    2  C6  UNL     1      -5.368 -38.249  20.672  1.00  0.00     0.049 A 
HETATM    3  C7  UNL     1      -6.533 -37.990  21.353  1.00  0.00     0.011 A 
HETATM    4  C8  UNL     1      -7.668 -38.711  21.656  1.00  0.00     0.025 A 
HETATM    5  C9  UNL     1      -8.718 -38.170  22.387  1.00  0.00    -0.023 A 
HETATM    6  C13 UNL     1      -8.541 -36.861  22.788  1.00  0.00     0.098 A 
HETATM    7  N9  UNL     1      -7.434 -36.167  22.489  1.00  0.00    -0.351 N 
ATOM      8  H9  UNL     1      -7.356 -35.202  22.811  1.00  0.00     0.166 HD
HETATM    9  C14 UNL     1      -6.424 -36.696  21.782  1.00  0.00     0.118 A 
HETATM   10  N10 UNL     1      -5.205 -36.175  21.364  1.00  0.00    -0.319 N 
ENDROOT
BRANCH   1  11
HETATM   11  C4  UNL     1      -3.268 -37.102  20.037  1.00  0.00     0.165 C 
BRANCH  11  12
HETATM   12  N3  UNL     1      -2.412 -36.027  19.755  1.00  0.00    -0.338 N 
ATOM     13  H3  UNL     1      -2.464 -35.542  18.859  1.00  0.00     0.164 HD
BRANCH  12  14
HETATM   14  C3  UNL     1      -1.451 -35.619  20.760  1.00  0.00     0.266 C 
HETATM   15  S1  UNL     1      -0.139 -34.559  20.018  1.00  0.00    -0.090 SA
HETATM   16  C2  UNL     1       1.288 -34.859  21.152  1.00  0.00     0.232 C 
HETATM   17  N13 UNL     1       0.627 -35.138  22.438  1.00  0.00    -0.111 NA
HETATM   18  N12 UNL     1       0.084 -36.396  22.404  1.00  0.00    -0.245 N 
HETATM   19  N11 UNL     1      -0.749 -36.710  21.369  1.00  0.00    -0.292 N 
ATOM     20  H12 UNL     1       0.297 -37.078  23.132  1.00  0.00     0.203 HD
ATOM     21  H11 UNL     1      -0.866 -37.671  21.046  1.00  0.00     0.184 HD
BRANCH  16  22
HETATM   22  C1  UNL     1       2.064 -33.584  21.210  1.00  0.00     0.118 C 
HETATM   23  N1  UNL     1       3.295 -33.513  20.848  1.00  0.00    -0.389 N 
ATOM     24  H12 UNL     1       3.825 -32.643  20.887  1.00  0.00     0.157 HD
ATOM     25  H11 UNL     1       3.738 -34.367  20.509  1.00  0.00     0.157 HD
HETATM   26  N2  UNL     1       1.441 -32.384  21.687  1.00  0.00    -0.085 NA
ENDBRANCH  16  22
BRANCH  17  27
HETATM   27  N14 UNL     1       1.468 -34.934  23.512  1.00  0.00    -0.343 NA
ATOM     28 2H14 UNL     1       0.975 -34.691  24.371  1.00  0.00     0.172 HD
ATOM     29 1H14 UNL     1       2.073 -35.736  23.685  1.00  0.00     0.172 HD
ENDBRANCH  17  27
ENDBRANCH  12  14
ENDBRANCH  11  12
BRANCH  11  30
HETATM   30  O1  UNL     1      -2.842 -38.287  19.653  1.00  0.00    -0.345 OA
ATOM     31  H1  UNL     1      -1.942 -38.494  19.877  1.00  0.00     0.219 HD
ENDBRANCH  11  30
ENDBRANCH   1  11
BRANCH  10  32
HETATM   32  C15 UNL     1      -4.819 -34.824  21.697  1.00  0.00     0.244 C 
BRANCH  32  33
HETATM   33  C16 UNL     1      -5.869 -33.860  21.319  1.00  0.00     0.191 C 
HETATM   34  O2  UNL     1      -6.479 -33.918  20.214  1.00  0.00    -0.647 OA
HETATM   35  O3  UNL     1      -6.240 -32.840  22.160  1.00  0.00    -0.647 OA
ENDBRANCH  32  33
ENDBRANCH  10  32
BRANCH   5  36
HETATM   36  C10 UNL     1      -9.934 -38.924  22.714  1.00  0.00     0.181 C 
BRANCH  36  37
HETATM   37  N4  UNL     1     -10.406 -38.583  24.043  1.00  0.00    -0.310 N 
ATOM     38  H4  UNL     1      -9.892 -38.905  24.862  1.00  0.00     0.182 HD
BRANCH  37  39
HETATM   39  N5  UNL     1     -11.567 -37.809  24.205  1.00  0.00    -0.194 N 
HETATM   40  C11 UNL     1     -11.601 -36.499  24.474  1.00  0.00     0.229 A 
HETATM   41  N6  UNL     1     -12.890 -36.148  24.553  1.00  0.00    -0.323 N 
HETATM   42  C12 UNL     1     -13.679 -37.219  24.339  1.00  0.00     0.209 A 
ATOM     43  H6  UNL     1     -13.226 -35.205  24.747  1.00  0.00     0.169 HD
HETATM   44  N7  UNL     1     -15.088 -37.184  24.355  1.00  0.00    -0.062 NA
HETATM   45  N8  UNL     1     -12.831 -38.236  24.125  1.00  0.00    -0.251 N 
ATOM     46  H8  UNL     1     -13.111 -39.197  23.930  1.00  0.00     0.192 HD
ENDBRANCH  37  39
ENDBRANCH  36  37
ENDBRANCH   5  36
TORSDOF 11
ENDMDL
MODEL 5
REMARK VINA RESULT: -8.915129135      3.682      5.591
REMARK  11 active torsions:
REMARK  status: ('A' for Active; 'I' for Inactive)
REMARK    1  A    between atoms: C1_4  and  C2_6 
REMARK    2  A    between atoms: C3_8  and  N3_9 
REMARK    3  A    between atoms: N3_9  and  C4_11 
REMARK    4  A    between atoms: C4_11  and  O1_12 
REMARK    5  A    between atoms: C4_11  and  C5_14 
REMARK    6  A    between atoms: C9_18  and  C10_19 
REMARK    7  A    between atoms: C10_19  and  N4_20 
REMARK    8  A    between atoms: N4_20  and  N5_22 
REMARK    9  A    between atoms: N10_34  and  C15_35 
REMARK   10  A    between atoms: C15_35  and  C16_36 
REMARK   11  A    between atoms: N13_43  and  N14_44 
ROOT
HETATM    1  C5  UNL     1      -4.171 -36.163  20.950  1.00  0.00     0.088 A 
HETATM    2  C6  UNL     1      -3.849 -37.422  20.413  1.00  0.00     0.049 A 
HETATM    3  C7  UNL     1      -4.857 -38.312  20.696  1.00  0.00     0.011 A 
HETATM    4  C8  UNL     1      -5.083 -39.646  20.434  1.00  0.00     0.025 A 
HETATM    5  C9  UNL     1      -6.231 -40.302  20.862  1.00  0.00    -0.023 A 
HETATM    6  C13 UNL     1      -7.124 -39.523  21.568  1.00  0.00     0.098 A 
HETATM    7  N9  UNL     1      -6.896 -38.226  21.820  1.00  0.00    -0.351 N 
ATOM      8  H9  UNL     1      -7.591 -37.697  22.347  1.00  0.00     0.166 HD
HETATM    9  C14 UNL     1      -5.785 -37.598  21.402  1.00  0.00     0.118 A 
HETATM   10  N10 UNL     1      -5.346 -36.288  21.546  1.00  0.00    -0.319 N 
ENDROOT
BRANCH   1  11
HETATM   11  C4  UNL     1      -3.284 -35.041  20.792  1.00  0.00     0.165 C 
BRANCH  11  12
HETATM   12  N3  UNL     1      -2.415 -34.731  19.735  1.00  0.00    -0.338 N 
ATOM     13  H3  UNL     1      -2.779 -34.525  18.805  1.00  0.00     0.164 HD
BRANCH  12  14
HETATM   14  C3  UNL     1      -0.989 -34.711  19.990  1.00  0.00     0.266 C 
HETATM   15  S1  UNL     1      -0.479 -36.183  20.973  1.00  0.00    -0.090 SA
HETATM   16  C2  UNL     1       1.032 -35.568  21.838  1.00  0.00     0.232 C 
HETATM   17  N13 UNL     1       1.569 -34.578  20.889  1.00  0.00    -0.111 NA
HETATM   18  N12 UNL     1       0.796 -33.447  20.930  1.00  0.00    -0.245 N 
HETATM   19  N11 UNL     1      -0.553 -33.581  20.757  1.00  0.00    -0.292 N 
ATOM     20  H12 UNL     1       1.216 -32.530  21.085  1.00  0.00     0.203 HD
ATOM     21  H11 UNL     1      -1.214 -32.913  21.153  1.00  0.00     0.184 HD
BRANCH  16  22
HETATM   22  C1  UNL     1       1.952 -36.735  21.977  1.00  0.00     0.118 C 
HETATM   23  N1  UNL     1       2.055 -37.640  21.070  1.00  0.00    -0.389 N 
ATOM     24  H12 UNL     1       2.684 -38.437  21.165  1.00  0.00     0.157 HD
ATOM     25  H11 UNL     1       1.482 -37.536  20.233  1.00  0.00     0.157 HD
HETATM   26  N2  UNL     1       2.757 -36.880  23.154  1.00  0.00    -0.085 NA
ENDBRANCH  16  22
BRANCH  17  27
HETATM   27  N14 UNL     1       2.909 -34.332  21.095  1.00  0.00    -0.343 NA
ATOM     28 2H14 UNL     1       3.322 -34.920  21.818  1.00  0.00     0.172 HD
ATOM     29 1H14 UNL     1       3.454 -34.421  20.237  1.00  0.00     0.172 HD
ENDBRANCH  17  27
ENDBRANCH  12  14
ENDBRANCH  11  12
BRANCH  11  30
HETATM   30  O1  UNL     1      -3.297 -34.183  21.791  1.00  0.00    -0.345 OA
ATOM     31  H1  UNL     1      -4.138 -33.784  21.981  1.00  0.00     0.219 HD
ENDBRANCH  11  30
ENDBRANCH   1  11
BRANCH  10  32
HETATM   32  C15 UNL     1      -6.128 -35.314  22.270  1.00  0.00     0.244 C 
BRANCH  32  33
HETATM   33  C16 UNL     1      -6.289 -34.072  21.492  1.00  0.00     0.191 C 
HETATM   34  O2  UNL     1      -6.555 -34.073  20.256  1.00  0.00    -0.647 OA
HETATM   35  O3  UNL     1      -6.155 -32.837  22.078  1.00  0.00    -0.647 OA
ENDBRANCH  32  33
ENDBRANCH  10  32
BRANCH   5  36
HETATM   36  C10 UNL     1      -6.487 -41.721  20.586  1.00  0.00     0.181 C 
BRANCH  36  37
HETATM   37  N4  UNL     1      -5.558 -42.224  19.592  1.00  0.00    -0.310 N 
ATOM     38  H4  UNL     1      -4.559 -42.245  19.796  1.00  0.00     0.182 HD
BRANCH  37  39
HETATM   39  N5  UNL     1      -6.027 -42.683  18.350  1.00  0.00    -0.194 N 
HETATM   40  C11 UNL     1      -5.405 -42.531  17.176  1.00  0.00     0.229 A 
HETATM   41  N6  UNL     1      -6.177 -43.104  16.245  1.00  0.00    -0.323 N 
HETATM   42  C12 UNL     1      -7.286 -43.619  16.812  1.00  0.00     0.209 A 
ATOM     43  H6  UNL     1      -5.959 -43.144  15.250  1.00  0.00     0.169 HD
HETATM   44  N7  UNL     1      -8.304 -44.289  16.103  1.00  0.00    -0.062 NA
HETATM   45  N8  UNL     1      -7.166 -43.344  18.120  1.00  0.00    -0.251 N 
ATOM     46  H8  UNL     1      -7.845 -43.602  18.834  1.00  0.00     0.192 HD
ENDBRANCH  37  39
ENDBRANCH  36  37
ENDBRANCH   5  36
TORSDOF 11
ENDMDL
