MODEL 1
REMARK VINA RESULT: -5.764375556      0.000      0.000
REMARK  1 active torsions:
REMARK  status: ('A' for Active; 'I' for Inactive)
REMARK    1  A    between atoms: C2_2  and  C3_3 
ROOT
HETATM    1  C3  UNL     1      -2.195  16.983  -5.433  1.00  0.00     0.109 C 
HETATM    2  C4  UNL     1      -0.981  17.375  -4.668  1.00  0.00     0.154 C 
HETATM    3  N1  UNL     1       0.234  17.130  -5.361  1.00  0.00    -0.418 N 
ATOM      4  H1  UNL     1       0.756  16.261  -5.241  1.00  0.00     0.153 HD
HETATM    5  C5  UNL     1       0.683  18.157  -6.232  1.00  0.00     0.115 C 
HETATM    6  C6  UNL     1       0.085  18.124  -7.614  1.00  0.00     0.041 C 
HETATM    7  C7  UNL     1      -1.452  18.220  -7.559  1.00  0.00     0.111 C 
HETATM    8 CL1  UNL     1      -1.785  19.844  -7.091  1.00  0.00    -0.123 Cl
HETATM    9  C8  UNL     1      -1.987  17.084  -6.874  1.00  0.00     0.096 C 
HETATM   10 CL2  UNL     1      -0.870  15.705  -7.332  1.00  0.00    -0.114 Cl
HETATM   11  C9  UNL     1      -3.287  16.486  -7.390  1.00  0.00     0.141 C 
HETATM   12  C10 UNL     1      -3.338  15.342  -6.404  1.00  0.00     0.261 C 
HETATM   13  O1  UNL     1      -4.111  14.354  -6.428  1.00  0.00    -0.265 OA
HETATM   14  O2  UNL     1      -2.374  15.531  -5.415  1.00  0.00    -0.306 OA
ENDROOT
BRANCH   1  15
HETATM   15  C2  UNL     1      -3.463  17.400  -4.791  1.00  0.00     0.038 C 
HETATM   16  C1  UNL     1      -3.457  18.190  -3.554  1.00  0.00     0.008 C 
ENDBRANCH   1  15
TORSDOF 1
ENDMDL
MODEL 2
REMARK VINA RESULT: -5.290487521      1.068      1.079
REMARK  1 active torsions:
REMARK  status: ('A' for Active; 'I' for Inactive)
REMARK    1  A    between atoms: C2_2  and  C3_3 
ROOT
HETATM    1  C3  UNL     1      -2.012  17.204  -5.522  1.00  0.00     0.109 C 
HETATM    2  C4  UNL     1      -0.788  16.908  -4.728  1.00  0.00     0.154 C 
HETATM    3  N1  UNL     1       0.120  16.035  -5.384  1.00  0.00    -0.418 N 
ATOM      4  H1  UNL     1       0.097  15.026  -5.239  1.00  0.00     0.153 HD
HETATM    5  C5  UNL     1       1.063  16.644  -6.255  1.00  0.00     0.115 C 
HETATM    6  C6  UNL     1       0.563  16.899  -7.652  1.00  0.00     0.041 C 
HETATM    7  C7  UNL     1      -0.688  17.801  -7.641  1.00  0.00     0.111 C 
HETATM    8 CL1  UNL     1      -0.111  19.364  -7.202  1.00  0.00    -0.123 Cl
HETATM    9  C8  UNL     1      -1.756  17.142  -6.957  1.00  0.00     0.096 C 
HETATM   10 CL2  UNL     1      -1.539  15.369  -7.368  1.00  0.00    -0.114 Cl
HETATM   11  C9  UNL     1      -3.167  17.315  -7.502  1.00  0.00     0.141 C 
HETATM   12  C10 UNL     1      -3.837  16.400  -6.504  1.00  0.00     0.261 C 
HETATM   13  O1  UNL     1      -5.016  15.975  -6.537  1.00  0.00    -0.265 OA
HETATM   14  O2  UNL     1      -2.937  16.071  -5.490  1.00  0.00    -0.306 OA
ENDROOT
BRANCH   1  15
HETATM   15  C2  UNL     1      -2.873  18.248  -4.920  1.00  0.00     0.038 C 
HETATM   16  C1  UNL     1      -3.253  18.187  -3.503  1.00  0.00     0.008 C 
ENDBRANCH   1  15
TORSDOF 1
ENDMDL
MODEL 3
REMARK VINA RESULT: -5.217115218      2.023      3.317
REMARK  1 active torsions:
REMARK  status: ('A' for Active; 'I' for Inactive)
REMARK    1  A    between atoms: C2_2  and  C3_3 
ROOT
HETATM    1  C3  UNL     1      -2.336  16.503  -7.154  1.00  0.00     0.109 C 
HETATM    2  C4  UNL     1      -1.791  17.850  -7.475  1.00  0.00     0.154 C 
HETATM    3  N1  UNL     1      -2.232  18.869  -6.589  1.00  0.00    -0.418 N 
ATOM      4  H1  UNL     1      -3.053  19.439  -6.792  1.00  0.00     0.153 HD
HETATM    5  C5  UNL     1      -1.469  19.052  -5.406  1.00  0.00     0.115 C 
HETATM    6  C6  UNL     1      -1.837  18.138  -4.266  1.00  0.00     0.041 C 
HETATM    7  C7  UNL     1      -1.695  16.658  -4.671  1.00  0.00     0.111 C 
HETATM    8 CL1  UNL     1       0.002  16.383  -4.783  1.00  0.00    -0.123 Cl
HETATM    9  C8  UNL     1      -2.607  16.352  -5.728  1.00  0.00     0.096 C 
HETATM   10 CL2  UNL     1      -4.083  17.378  -5.371  1.00  0.00    -0.114 Cl
HETATM   11  C9  UNL     1      -3.287  14.990  -5.713  1.00  0.00     0.141 C 
HETATM   12  C10 UNL     1      -4.142  15.226  -6.936  1.00  0.00     0.261 C 
HETATM   13  O1  UNL     1      -5.086  14.511  -7.351  1.00  0.00    -0.265 OA
HETATM   14  O2  UNL     1      -3.731  16.393  -7.579  1.00  0.00    -0.306 OA
ENDROOT
BRANCH   1  15
HETATM   15  C2  UNL     1      -1.741  15.413  -7.960  1.00  0.00     0.038 C 
HETATM   16  C1  UNL     1      -0.285  15.244  -8.042  1.00  0.00     0.008 C 
ENDBRANCH   1  15
TORSDOF 1
ENDMDL
MODEL 4
REMARK VINA RESULT: -5.186203219      2.366      3.983
REMARK  1 active torsions:
REMARK  status: ('A' for Active; 'I' for Inactive)
REMARK    1  A    between atoms: C2_2  and  C3_3 
ROOT
HETATM    1  C3  UNL     1      -1.261  17.651  -6.923  1.00  0.00     0.109 C 
HETATM    2  C4  UNL     1      -2.521  18.037  -7.617  1.00  0.00     0.154 C 
HETATM    3  N1  UNL     1      -3.485  16.995  -7.667  1.00  0.00    -0.418 N 
ATOM      4  H1  UNL     1      -3.548  16.359  -8.462  1.00  0.00     0.153 HD
HETATM    5  C5  UNL     1      -4.356  16.886  -6.552  1.00  0.00     0.115 C 
HETATM    6  C6  UNL     1      -3.809  16.092  -5.395  1.00  0.00     0.041 C 
HETATM    7  C7  UNL     1      -2.488  16.698  -4.878  1.00  0.00     0.111 C 
HETATM    8 CL1  UNL     1      -2.942  18.162  -4.092  1.00  0.00    -0.123 Cl
HETATM    9  C8  UNL     1      -1.492  16.636  -5.901  1.00  0.00     0.096 C 
HETATM   10 CL2  UNL     1      -1.847  15.075  -6.794  1.00  0.00    -0.114 Cl
HETATM   11  C9  UNL     1      -0.061  16.323  -5.487  1.00  0.00     0.141 C 
HETATM   12  C10 UNL     1       0.510  16.309  -6.885  1.00  0.00     0.261 C 
HETATM   13  O1  UNL     1       1.651  15.922  -7.234  1.00  0.00    -0.265 OA
HETATM   14  O2  UNL     1      -0.434  16.805  -7.784  1.00  0.00    -0.306 OA
ENDROOT
BRANCH   1  15
HETATM   15  C2  UNL     1      -0.329  18.782  -6.712  1.00  0.00     0.038 C 
HETATM   16  C1  UNL     1       0.084  19.638  -7.831  1.00  0.00     0.008 C 
ENDBRANCH   1  15
TORSDOF 1
ENDMDL
MODEL 5
REMARK VINA RESULT: -4.995317841      2.571      3.925
REMARK  1 active torsions:
REMARK  status: ('A' for Active; 'I' for Inactive)
REMARK    1  A    between atoms: C2_2  and  C3_3 
ROOT
HETATM    1  C3  UNL     1      -1.769  17.819  -6.969  1.00  0.00     0.109 C 
HETATM    2  C4  UNL     1      -3.076  17.825  -7.682  1.00  0.00     0.154 C 
HETATM    3  N1  UNL     1      -3.525  16.532  -8.061  1.00  0.00    -0.418 N 
ATOM      4  H1  UNL     1      -3.320  16.140  -8.980  1.00  0.00     0.153 HD
HETATM    5  C5  UNL     1      -4.273  15.813  -7.092  1.00  0.00     0.115 C 
HETATM    6  C6  UNL     1      -3.446  15.048  -6.092  1.00  0.00     0.041 C 
HETATM    7  C7  UNL     1      -2.493  15.984  -5.323  1.00  0.00     0.111 C 
HETATM    8 CL1  UNL     1      -3.509  16.903  -4.280  1.00  0.00    -0.123 Cl
HETATM    9  C8  UNL     1      -1.560  16.580  -6.229  1.00  0.00     0.096 C 
HETATM   10 CL2  UNL     1      -1.240  15.278  -7.479  1.00  0.00    -0.114 Cl
HETATM   11  C9  UNL     1      -0.127  16.774  -5.753  1.00  0.00     0.141 C 
HETATM   12  C10 UNL     1       0.398  17.334  -7.054  1.00  0.00     0.261 C 
HETATM   13  O1  UNL     1       1.597  17.534  -7.364  1.00  0.00    -0.265 OA
HETATM   14  O2  UNL     1      -0.667  17.614  -7.909  1.00  0.00    -0.306 OA
ENDROOT
BRANCH   1  15
HETATM   15  C2  UNL     1      -1.387  19.139  -6.418  1.00  0.00     0.038 C 
HETATM   16  C1  UNL     1      -2.188  19.778  -5.367  1.00  0.00     0.008 C 
ENDBRANCH   1  15
TORSDOF 1
ENDMDL
