MODEL 1
REMARK VINA RESULT: -3.073015430      0.000      0.000
REMARK  0 active torsions:
REMARK  status: ('A' for Active; 'I' for Inactive)
ROOT
HETATM    1  C1  UNL     1     -33.664   5.802  -7.830  1.00  0.00     0.005 C 
HETATM    2  C2  UNL     1     -34.267   4.433  -7.946  1.00  0.00     0.005 C 
HETATM    3  C3  UNL     1     -33.574   4.323  -9.304  1.00  0.00    -0.010 A 
HETATM    4  C4  UNL     1     -33.992   5.280 -10.356  1.00  0.00     0.010 A 
HETATM    5  C5  UNL     1     -33.184   5.764  -9.237  1.00  0.00    -0.010 A 
ENDROOT
TORSDOF 0
ENDMDL
MODEL 2
REMARK VINA RESULT: -3.053261985      0.653      1.495
REMARK  0 active torsions:
REMARK  status: ('A' for Active; 'I' for Inactive)
ROOT
HETATM    1  C1  UNL     1     -34.123   4.564  -7.852  1.00  0.00     0.005 C 
HETATM    2  C2  UNL     1     -33.774   4.240  -9.275  1.00  0.00     0.005 C 
HETATM    3  C3  UNL     1     -33.097   5.609  -9.343  1.00  0.00    -0.010 A 
HETATM    4  C4  UNL     1     -33.961   6.801  -9.169  1.00  0.00     0.010 A 
HETATM    5  C5  UNL     1     -33.657   5.969  -8.005  1.00  0.00    -0.010 A 
ENDROOT
TORSDOF 0
ENDMDL
MODEL 3
REMARK VINA RESULT: -2.929884237      0.739      1.125
REMARK  0 active torsions:
REMARK  status: ('A' for Active; 'I' for Inactive)
ROOT
HETATM    1  C1  UNL     1     -33.004   6.539  -8.854  1.00  0.00     0.005 C 
HETATM    2  C2  UNL     1     -33.896   5.936  -7.810  1.00  0.00     0.005 C 
HETATM    3  C3  UNL     1     -33.755   4.612  -8.559  1.00  0.00    -0.010 A 
HETATM    4  C4  UNL     1     -34.287   4.556  -9.942  1.00  0.00     0.010 A 
HETATM    5  C5  UNL     1     -33.058   5.306  -9.684  1.00  0.00    -0.010 A 
ENDROOT
TORSDOF 0
ENDMDL
MODEL 4
REMARK VINA RESULT: -2.884864490      0.670      1.794
REMARK  0 active torsions:
REMARK  status: ('A' for Active; 'I' for Inactive)
ROOT
HETATM    1  C1  UNL     1     -33.632   5.894  -7.966  1.00  0.00     0.005 C 
HETATM    2  C2  UNL     1     -33.096   5.670  -9.349  1.00  0.00     0.005 C 
HETATM    3  C3  UNL     1     -34.191   4.619  -9.524  1.00  0.00    -0.010 A 
HETATM    4  C4  UNL     1     -34.139   3.433  -8.636  1.00  0.00     0.010 A 
HETATM    5  C5  UNL     1     -34.542   4.722  -8.076  1.00  0.00    -0.010 A 
ENDROOT
TORSDOF 0
ENDMDL
MODEL 5
REMARK VINA RESULT: -2.884315603      0.795      2.038
REMARK  0 active torsions:
REMARK  status: ('A' for Active; 'I' for Inactive)
ROOT
HETATM    1  C1  UNL     1     -33.016   5.305  -9.684  1.00  0.00     0.005 C 
HETATM    2  C2  UNL     1     -33.379   6.339  -8.659  1.00  0.00     0.005 C 
HETATM    3  C3  UNL     1     -33.933   5.196  -7.809  1.00  0.00    -0.010 A 
HETATM    4  C4  UNL     1     -35.080   4.436  -8.361  1.00  0.00     0.010 A 
HETATM    5  C5  UNL     1     -33.753   4.243  -8.946  1.00  0.00    -0.010 A 
ENDROOT
TORSDOF 0
ENDMDL
