MODEL 1
REMARK VINA RESULT: -6.035195176      0.000      0.000
REMARK  5 active torsions:
REMARK  status: ('A' for Active; 'I' for Inactive)
REMARK    1  A    between atoms: N1_1  and  N2_4 
REMARK    2  A    between atoms: N2_4  and  C1_6 
REMARK    3  A    between atoms: C1_6  and  N3_8 
REMARK    4  A    between atoms: N3_8  and  N4_10 
REMARK    5  A    between atoms: N4_10  and  C2_12 
ROOT
HETATM    1  N3  UNL     1     -23.516  63.133  42.271  1.00  0.00    -0.274 N 
ATOM      2  H3  UNL     1     -22.552  62.836  42.119  1.00  0.00     0.189 HD
ENDROOT
BRANCH   1   3
HETATM    3  C1  UNL     1     -24.291  63.547  41.163  1.00  0.00     0.204 C 
HETATM    4  S1  UNL     1     -23.556  64.324  39.892  1.00  0.00    -0.038 SA
BRANCH   3   5
HETATM    5  N2  UNL     1     -25.673  63.297  41.145  1.00  0.00    -0.282 N 
ATOM      6  H2  UNL     1     -26.267  63.707  41.865  1.00  0.00     0.189 HD
BRANCH   5   7
HETATM    7  N1  UNL     1     -26.240  62.505  40.164  1.00  0.00    -0.343 N 
ATOM      8  H12 UNL     1     -26.692  62.961  39.371  1.00  0.00     0.176 HD
ATOM      9  H11 UNL     1     -26.209  61.488  40.228  1.00  0.00     0.176 HD
ENDBRANCH   5   7
ENDBRANCH   3   5
ENDBRANCH   1   3
BRANCH   1  10
HETATM   10  N4  UNL     1     -24.024  63.121  43.542  1.00  0.00    -0.283 N 
ATOM     11  H4  UNL     1     -24.928  63.571  43.690  1.00  0.00     0.188 HD
BRANCH  10  12
HETATM   12  C2  UNL     1     -23.452  62.588  44.566  1.00  0.00     0.119 A 
HETATM   13  C3  UNL     1     -23.196  63.413  45.639  1.00  0.00     0.050 A 
HETATM   14  C4  UNL     1     -22.587  62.874  46.747  1.00  0.00     0.005 A 
HETATM   15  C5  UNL     1     -22.259  61.539  46.739  1.00  0.00     0.017 A 
HETATM   16  C6  UNL     1     -22.526  60.744  45.658  1.00  0.00     0.089 A 
HETATM   17  N5  UNL     1     -23.120  61.288  44.591  1.00  0.00    -0.351 N 
ATOM     18  H5  UNL     1     -23.324  60.704  43.780  1.00  0.00     0.166 HD
ENDBRANCH  10  12
ENDBRANCH   1  10
TORSDOF 5
ENDMDL
MODEL 2
REMARK VINA RESULT: -5.952255387      0.896      1.156
REMARK  5 active torsions:
REMARK  status: ('A' for Active; 'I' for Inactive)
REMARK    1  A    between atoms: N1_1  and  N2_4 
REMARK    2  A    between atoms: N2_4  and  C1_6 
REMARK    3  A    between atoms: C1_6  and  N3_8 
REMARK    4  A    between atoms: N3_8  and  N4_10 
REMARK    5  A    between atoms: N4_10  and  C2_12 
ROOT
HETATM    1  N3  UNL     1     -23.516  63.178  42.133  1.00  0.00    -0.274 N 
ATOM      2  H3  UNL     1     -22.547  62.901  41.977  1.00  0.00     0.189 HD
ENDROOT
BRANCH   1   3
HETATM    3  C1  UNL     1     -24.302  63.582  41.030  1.00  0.00     0.204 C 
HETATM    4  S1  UNL     1     -23.594  64.413  39.778  1.00  0.00    -0.038 SA
BRANCH   3   5
HETATM    5  N2  UNL     1     -25.672  63.277  40.998  1.00  0.00    -0.282 N 
ATOM      6  H2  UNL     1     -26.291  63.673  41.705  1.00  0.00     0.189 HD
BRANCH   5   7
HETATM    7  N1  UNL     1     -26.195  62.447  40.024  1.00  0.00    -0.343 N 
ATOM      8  H12 UNL     1     -27.009  61.877  40.255  1.00  0.00     0.176 HD
ATOM      9  H11 UNL     1     -25.779  62.403  39.093  1.00  0.00     0.176 HD
ENDBRANCH   5   7
ENDBRANCH   3   5
ENDBRANCH   1   3
BRANCH   1  10
HETATM   10  N4  UNL     1     -24.021  63.151  43.405  1.00  0.00    -0.283 N 
ATOM     11  H4  UNL     1     -24.973  63.490  43.540  1.00  0.00     0.188 HD
BRANCH  10  12
HETATM   12  C2  UNL     1     -23.388  62.731  44.447  1.00  0.00     0.119 A 
HETATM   13  C3  UNL     1     -24.048  61.836  45.260  1.00  0.00     0.050 A 
HETATM   14  C4  UNL     1     -23.400  61.370  46.379  1.00  0.00     0.005 A 
HETATM   15  C5  UNL     1     -22.126  61.815  46.640  1.00  0.00     0.017 A 
HETATM   16  C6  UNL     1     -21.496  62.705  45.814  1.00  0.00     0.089 A 
HETATM   17  N5  UNL     1     -22.143  63.145  44.730  1.00  0.00    -0.351 N 
ATOM     18  H5  UNL     1     -21.683  63.809  44.107  1.00  0.00     0.166 HD
ENDBRANCH  10  12
ENDBRANCH   1  10
TORSDOF 5
ENDMDL
MODEL 3
REMARK VINA RESULT: -5.612918242      2.616      5.320
REMARK  5 active torsions:
REMARK  status: ('A' for Active; 'I' for Inactive)
REMARK    1  A    between atoms: N1_1  and  N2_4 
REMARK    2  A    between atoms: N2_4  and  C1_6 
REMARK    3  A    between atoms: C1_6  and  N3_8 
REMARK    4  A    between atoms: N3_8  and  N4_10 
REMARK    5  A    between atoms: N4_10  and  C2_12 
ROOT
HETATM    1  N3  UNL     1     -23.476  63.136  43.604  1.00  0.00    -0.274 N 
ATOM      2  H3  UNL     1     -22.479  63.161  43.390  1.00  0.00     0.189 HD
ENDROOT
BRANCH   1   3
HETATM    3  C1  UNL     1     -23.893  62.722  44.889  1.00  0.00     0.204 C 
HETATM    4  S1  UNL     1     -23.021  63.187  46.224  1.00  0.00    -0.038 SA
BRANCH   3   5
HETATM    5  N2  UNL     1     -25.040  61.924  45.029  1.00  0.00    -0.282 N 
ATOM      6  H2  UNL     1     -25.927  62.246  44.642  1.00  0.00     0.189 HD
BRANCH   5   7
HETATM    7  N1  UNL     1     -24.986  60.708  45.684  1.00  0.00    -0.343 N 
ATOM      8  H12 UNL     1     -24.694  59.884  45.157  1.00  0.00     0.176 HD
ATOM      9  H11 UNL     1     -25.231  60.631  46.671  1.00  0.00     0.176 HD
ENDBRANCH   5   7
ENDBRANCH   3   5
ENDBRANCH   1   3
BRANCH   1  10
HETATM   10  N4  UNL     1     -24.374  63.504  42.638  1.00  0.00    -0.283 N 
ATOM     11  H4  UNL     1     -25.140  64.116  42.919  1.00  0.00     0.188 HD
BRANCH  10  12
HETATM   12  C2  UNL     1     -24.330  63.137  41.403  1.00  0.00     0.119 A 
HETATM   13  C3  UNL     1     -25.502  63.216  40.685  1.00  0.00     0.050 A 
HETATM   14  C4  UNL     1     -25.487  62.833  39.366  1.00  0.00     0.005 A 
HETATM   15  C5  UNL     1     -24.308  62.388  38.819  1.00  0.00     0.017 A 
HETATM   16  C6  UNL     1     -23.158  62.320  39.557  1.00  0.00     0.089 A 
HETATM   17  N5  UNL     1     -23.194  62.699  40.838  1.00  0.00    -0.351 N 
ATOM     18  H5  UNL     1     -22.342  62.653  41.398  1.00  0.00     0.166 HD
ENDBRANCH  10  12
ENDBRANCH   1  10
TORSDOF 5
ENDMDL
MODEL 4
REMARK VINA RESULT: -5.573838114      2.238      5.429
REMARK  5 active torsions:
REMARK  status: ('A' for Active; 'I' for Inactive)
REMARK    1  A    between atoms: N1_1  and  N2_4 
REMARK    2  A    between atoms: N2_4  and  C1_6 
REMARK    3  A    between atoms: C1_6  and  N3_8 
REMARK    4  A    between atoms: N3_8  and  N4_10 
REMARK    5  A    between atoms: N4_10  and  C2_12 
ROOT
HETATM    1  N3  UNL     1     -24.044  63.107  43.776  1.00  0.00    -0.274 N 
ATOM      2  H3  UNL     1     -24.954  63.503  44.010  1.00  0.00     0.189 HD
ENDROOT
BRANCH   1   3
HETATM    3  C1  UNL     1     -23.337  62.379  44.760  1.00  0.00     0.204 C 
HETATM    4  S1  UNL     1     -22.073  63.098  45.562  1.00  0.00    -0.038 SA
BRANCH   3   5
HETATM    5  N2  UNL     1     -23.708  61.056  45.053  1.00  0.00    -0.282 N 
ATOM      6  H2  UNL     1     -23.080  60.292  44.805  1.00  0.00     0.189 HD
BRANCH   5   7
HETATM    7  N1  UNL     1     -24.911  60.775  45.673  1.00  0.00    -0.343 N 
ATOM      8  H12 UNL     1     -24.909  60.583  46.675  1.00  0.00     0.176 HD
ATOM      9  H11 UNL     1     -25.783  60.758  45.144  1.00  0.00     0.176 HD
ENDBRANCH   5   7
ENDBRANCH   3   5
ENDBRANCH   1   3
BRANCH   1  10
HETATM   10  N4  UNL     1     -23.540  63.294  42.517  1.00  0.00    -0.283 N 
ATOM     11  H4  UNL     1     -22.570  63.601  42.441  1.00  0.00     0.188 HD
BRANCH  10  12
HETATM   12  C2  UNL     1     -24.192  63.113  41.420  1.00  0.00     0.119 A 
HETATM   13  C3  UNL     1     -23.473  62.677  40.330  1.00  0.00     0.050 A 
HETATM   14  C4  UNL     1     -24.140  62.474  39.146  1.00  0.00     0.005 A 
HETATM   15  C5  UNL     1     -25.493  62.714  39.098  1.00  0.00     0.017 A 
HETATM   16  C6  UNL     1     -26.181  63.147  40.198  1.00  0.00     0.089 A 
HETATM   17  N5  UNL     1     -25.513  63.338  41.340  1.00  0.00    -0.351 N 
ATOM     18  H5  UNL     1     -26.017  63.660  42.167  1.00  0.00     0.166 HD
ENDBRANCH  10  12
ENDBRANCH   1  10
TORSDOF 5
ENDMDL
MODEL 5
REMARK VINA RESULT: -5.561363198      1.521      1.775
REMARK  5 active torsions:
REMARK  status: ('A' for Active; 'I' for Inactive)
REMARK    1  A    between atoms: N1_1  and  N2_4 
REMARK    2  A    between atoms: N2_4  and  C1_6 
REMARK    3  A    between atoms: C1_6  and  N3_8 
REMARK    4  A    between atoms: N3_8  and  N4_10 
REMARK    5  A    between atoms: N4_10  and  C2_12 
ROOT
HETATM    1  N3  UNL     1     -24.532  63.433  42.631  1.00  0.00    -0.274 N 
ATOM      2  H3  UNL     1     -25.471  63.493  43.022  1.00  0.00     0.189 HD
ENDROOT
BRANCH   1   3
HETATM    3  C1  UNL     1     -24.371  63.419  41.226  1.00  0.00     0.204 C 
HETATM    4  S1  UNL     1     -25.707  63.281  40.249  1.00  0.00    -0.038 SA
BRANCH   3   5
HETATM    5  N2  UNL     1     -23.086  63.524  40.668  1.00  0.00    -0.282 N 
ATOM      6  H2  UNL     1     -22.584  64.409  40.727  1.00  0.00     0.189 HD
BRANCH   5   7
HETATM    7  N1  UNL     1     -22.493  62.444  40.041  1.00  0.00    -0.343 N 
ATOM      8  H12 UNL     1     -21.663  62.030  40.467  1.00  0.00     0.176 HD
ATOM      9  H11 UNL     1     -22.873  62.068  39.172  1.00  0.00     0.176 HD
ENDBRANCH   5   7
ENDBRANCH   3   5
ENDBRANCH   1   3
BRANCH   1  10
HETATM   10  N4  UNL     1     -23.459  63.368  43.479  1.00  0.00    -0.283 N 
ATOM     11  H4  UNL     1     -22.653  63.954  43.262  1.00  0.00     0.188 HD
BRANCH  10  12
HETATM   12  C2  UNL     1     -23.387  62.625  44.530  1.00  0.00     0.119 A 
HETATM   13  C3  UNL     1     -22.225  62.694  45.266  1.00  0.00     0.050 A 
HETATM   14  C4  UNL     1     -22.117  61.914  46.392  1.00  0.00     0.005 A 
HETATM   15  C5  UNL     1     -23.170  61.100  46.737  1.00  0.00     0.017 A 
HETATM   16  C6  UNL     1     -24.312  61.053  45.986  1.00  0.00     0.089 A 
HETATM   17  N5  UNL     1     -24.397  61.820  44.895  1.00  0.00    -0.351 N 
ATOM     18  H5  UNL     1     -25.245  61.792  44.329  1.00  0.00     0.166 HD
ENDBRANCH  10  12
ENDBRANCH   1  10
TORSDOF 5
ENDMDL
