MODEL 1
REMARK VINA RESULT: -7.383532292      0.000      0.000
REMARK  7 active torsions:
REMARK  status: ('A' for Active; 'I' for Inactive)
REMARK    1  A    between atoms: C1_2  and  C2_4 
REMARK    2  A    between atoms: C2_4  and  C3_5 
REMARK    3  A    between atoms: C2_4  and  N2_14 
REMARK    4  A    between atoms: C3_5  and  C4_6 
REMARK    5  A    between atoms: N1_11  and  O3_12 
REMARK    6  A    between atoms: N2_14  and  S1_16 
REMARK    7  A    between atoms: S1_16  and  C9_19 
ROOT
HETATM    1  C2  UNL     1      34.538  30.186  26.243  1.00  0.00     0.199 C 
ENDROOT
BRANCH   1   2
HETATM    2  C1  UNL     1      33.179  30.303  26.810  1.00  0.00     0.197 C 
HETATM    3  O1  UNL     1      32.913  30.885  27.893  1.00  0.00    -0.646 OA
HETATM    4  O2  UNL     1      32.113  29.749  26.125  1.00  0.00    -0.646 OA
ENDBRANCH   1   2
BRANCH   1   5
HETATM    5  C3  UNL     1      35.570  30.895  27.042  1.00  0.00     0.096 C 
BRANCH   5   6
HETATM    6  C4  UNL     1      36.927  30.381  27.037  1.00  0.00     0.042 A 
HETATM    7  C5  UNL     1      37.373  29.456  27.957  1.00  0.00     0.027 A 
HETATM    8  C6  UNL     1      38.674  28.970  27.945  1.00  0.00     0.003 A 
HETATM    9  C7  UNL     1      39.557  29.418  26.986  1.00  0.00     0.020 A 
HETATM   10  C8  UNL     1      39.087  30.341  26.078  1.00  0.00     0.123 A 
HETATM   11  N1  UNL     1      37.825  30.795  26.113  1.00  0.00    -0.240 N 
BRANCH  11  12
HETATM   12  O3  UNL     1      37.445  31.703  25.183  1.00  0.00    -0.283 OA
ATOM     13  H3  UNL     1      36.750  32.317  25.391  1.00  0.00     0.245 HD
ENDBRANCH  11  12
ENDBRANCH   5   6
ENDBRANCH   1   5
BRANCH   1  14
HETATM   14  N2  UNL     1      34.507  30.889  24.944  1.00  0.00    -0.300 N 
ATOM     15  H2  UNL     1      34.358  31.892  24.838  1.00  0.00     0.173 HD
BRANCH  14  16
HETATM   16  S1  UNL     1      34.752  29.810  23.640  1.00  0.00     0.259 S 
HETATM   17  O4  UNL     1      36.225  29.871  23.280  1.00  0.00    -0.201 OA
HETATM   18  O5  UNL     1      34.489  28.377  24.038  1.00  0.00    -0.201 OA
BRANCH  16  19
HETATM   19  C9  UNL     1      33.751  30.149  22.259  1.00  0.00     0.080 A 
HETATM   20  C10 UNL     1      33.029  29.169  21.634  1.00  0.00     0.027 A 
HETATM   21  C11 UNL     1      32.242  29.469  20.542  1.00  0.00     0.022 A 
HETATM   22  C12 UNL     1      32.168  30.742  20.068  1.00  0.00     0.028 A 
HETATM   23 BR1  UNL     1      31.069  31.147  18.548  1.00  0.00    -0.050 Br
HETATM   24  C13 UNL     1      32.888  31.727  20.689  1.00  0.00     0.029 A 
HETATM   25 BR2  UNL     1      32.834  33.535  20.082  1.00  0.00    -0.050 Br
HETATM   26  C14 UNL     1      33.670  31.439  21.769  1.00  0.00     0.045 A 
ENDBRANCH  16  19
ENDBRANCH  14  16
ENDBRANCH   1  14
TORSDOF 7
ENDMDL
MODEL 2
REMARK VINA RESULT: -7.379298767      1.526      1.925
REMARK  7 active torsions:
REMARK  status: ('A' for Active; 'I' for Inactive)
REMARK    1  A    between atoms: C1_2  and  C2_4 
REMARK    2  A    between atoms: C2_4  and  C3_5 
REMARK    3  A    between atoms: C2_4  and  N2_14 
REMARK    4  A    between atoms: C3_5  and  C4_6 
REMARK    5  A    between atoms: N1_11  and  O3_12 
REMARK    6  A    between atoms: N2_14  and  S1_16 
REMARK    7  A    between atoms: S1_16  and  C9_19 
ROOT
HETATM    1  C2  UNL     1      35.645  29.798  25.820  1.00  0.00     0.199 C 
ENDROOT
BRANCH   1   2
HETATM    2  C1  UNL     1      34.677  29.253  26.794  1.00  0.00     0.197 C 
HETATM    3  O1  UNL     1      33.550  29.759  27.027  1.00  0.00    -0.646 OA
HETATM    4  O2  UNL     1      35.006  28.113  27.503  1.00  0.00    -0.646 OA
ENDBRANCH   1   2
BRANCH   1   5
HETATM    5  C3  UNL     1      36.514  30.861  26.387  1.00  0.00     0.096 C 
BRANCH   5   6
HETATM    6  C4  UNL     1      37.680  31.282  25.633  1.00  0.00     0.042 A 
HETATM    7  C5  UNL     1      38.842  30.542  25.590  1.00  0.00     0.027 A 
HETATM    8  C6  UNL     1      39.953  30.954  24.865  1.00  0.00     0.003 A 
HETATM    9  C7  UNL     1      39.904  32.139  24.161  1.00  0.00     0.020 A 
HETATM   10  C8  UNL     1      38.732  32.859  24.220  1.00  0.00     0.123 A 
HETATM   11  N1  UNL     1      37.673  32.438  24.929  1.00  0.00    -0.240 N 
BRANCH  11  12
HETATM   12  O3  UNL     1      36.558  33.207  24.934  1.00  0.00    -0.283 OA
ATOM     13  H3  UNL     1      35.888  33.057  24.277  1.00  0.00     0.245 HD
ENDBRANCH  11  12
ENDBRANCH   5   6
ENDBRANCH   1   5
BRANCH   1  14
HETATM   14  N2  UNL     1      34.848  30.470  24.774  1.00  0.00    -0.300 N 
ATOM     15  H2  UNL     1      34.222  31.257  24.946  1.00  0.00     0.173 HD
BRANCH  14  16
HETATM   16  S1  UNL     1      35.106  29.765  23.237  1.00  0.00     0.259 S 
HETATM   17  O4  UNL     1      36.576  29.946  22.903  1.00  0.00    -0.201 OA
HETATM   18  O5  UNL     1      34.873  28.274  23.255  1.00  0.00    -0.201 OA
BRANCH  16  19
HETATM   19  C9  UNL     1      34.091  30.426  21.990  1.00  0.00     0.080 A 
HETATM   20  C10 UNL     1      33.438  29.625  21.092  1.00  0.00     0.027 A 
HETATM   21  C11 UNL     1      32.637  30.179  20.115  1.00  0.00     0.022 A 
HETATM   22  C12 UNL     1      32.481  31.528  20.026  1.00  0.00     0.028 A 
HETATM   23 BR1  UNL     1      31.364  32.285  18.663  1.00  0.00    -0.050 Br
HETATM   24  C13 UNL     1      33.132  32.334  20.921  1.00  0.00     0.029 A 
HETATM   25 BR2  UNL     1      32.960  34.233  20.859  1.00  0.00    -0.050 Br
HETATM   26  C14 UNL     1      33.926  31.795  21.890  1.00  0.00     0.045 A 
ENDBRANCH  16  19
ENDBRANCH  14  16
ENDBRANCH   1  14
TORSDOF 7
ENDMDL
MODEL 3
REMARK VINA RESULT: -7.036438651      2.148      4.506
REMARK  7 active torsions:
REMARK  status: ('A' for Active; 'I' for Inactive)
REMARK    1  A    between atoms: C1_2  and  C2_4 
REMARK    2  A    between atoms: C2_4  and  C3_5 
REMARK    3  A    between atoms: C2_4  and  N2_14 
REMARK    4  A    between atoms: C3_5  and  C4_6 
REMARK    5  A    between atoms: N1_11  and  O3_12 
REMARK    6  A    between atoms: N2_14  and  S1_16 
REMARK    7  A    between atoms: S1_16  and  C9_19 
ROOT
HETATM    1  C2  UNL     1      37.453  30.285  25.692  1.00  0.00     0.199 C 
ENDROOT
BRANCH   1   2
HETATM    2  C1  UNL     1      38.873  29.885  25.745  1.00  0.00     0.197 C 
HETATM    3  O1  UNL     1      39.829  30.626  25.399  1.00  0.00    -0.646 OA
HETATM    4  O2  UNL     1      39.200  28.622  26.204  1.00  0.00    -0.646 OA
ENDBRANCH   1   2
BRANCH   1   5
HETATM    5  C3  UNL     1      36.517  29.174  26.006  1.00  0.00     0.096 C 
BRANCH   5   6
HETATM    6  C4  UNL     1      35.096  29.459  26.071  1.00  0.00     0.042 A 
HETATM    7  C5  UNL     1      34.510  30.063  27.163  1.00  0.00     0.027 A 
HETATM    8  C6  UNL     1      33.148  30.332  27.216  1.00  0.00     0.003 A 
HETATM    9  C7  UNL     1      32.347  29.990  26.148  1.00  0.00     0.020 A 
HETATM   10  C8  UNL     1      32.956  29.389  25.069  1.00  0.00     0.123 A 
HETATM   11  N1  UNL     1      34.275  29.140  25.044  1.00  0.00    -0.240 N 
BRANCH  11  12
HETATM   12  O3  UNL     1      34.793  28.545  23.943  1.00  0.00    -0.283 OA
ATOM     13  H3  UNL     1      34.595  28.903  23.086  1.00  0.00     0.245 HD
ENDBRANCH  11  12
ENDBRANCH   5   6
ENDBRANCH   1   5
BRANCH   1  14
HETATM   14  N2  UNL     1      37.173  30.637  24.285  1.00  0.00    -0.300 N 
ATOM     15  H2  UNL     1      37.218  29.977  23.508  1.00  0.00     0.173 HD
BRANCH  14  16
HETATM   16  S1  UNL     1      36.763  32.289  24.120  1.00  0.00     0.259 S 
HETATM   17  O4  UNL     1      36.335  32.783  25.490  1.00  0.00    -0.201 OA
HETATM   18  O5  UNL     1      37.958  33.130  23.739  1.00  0.00    -0.201 OA
BRANCH  16  19
HETATM   19  C9  UNL     1      35.530  32.585  22.931  1.00  0.00     0.080 A 
HETATM   20  C10 UNL     1      35.372  33.812  22.345  1.00  0.00     0.027 A 
HETATM   21  C11 UNL     1      34.386  34.015  21.403  1.00  0.00     0.022 A 
HETATM   22  C12 UNL     1      33.554  33.002  21.037  1.00  0.00     0.028 A 
HETATM   23 BR1  UNL     1      32.187  33.297  19.724  1.00  0.00    -0.050 Br
HETATM   24  C13 UNL     1      33.708  31.772  21.619  1.00  0.00     0.029 A 
HETATM   25 BR2  UNL     1      32.581  30.304  21.156  1.00  0.00    -0.050 Br
HETATM   26  C14 UNL     1      34.680  31.562  22.553  1.00  0.00     0.045 A 
ENDBRANCH  16  19
ENDBRANCH  14  16
ENDBRANCH   1  14
TORSDOF 7
ENDMDL
MODEL 4
REMARK VINA RESULT: -7.016773108      4.140      6.327
REMARK  7 active torsions:
REMARK  status: ('A' for Active; 'I' for Inactive)
REMARK    1  A    between atoms: C1_2  and  C2_4 
REMARK    2  A    between atoms: C2_4  and  C3_5 
REMARK    3  A    between atoms: C2_4  and  N2_14 
REMARK    4  A    between atoms: C3_5  and  C4_6 
REMARK    5  A    between atoms: N1_11  and  O3_12 
REMARK    6  A    between atoms: N2_14  and  S1_16 
REMARK    7  A    between atoms: S1_16  and  C9_19 
ROOT
HETATM    1  C2  UNL     1      33.814  30.011  21.703  1.00  0.00     0.199 C 
ENDROOT
BRANCH   1   2
HETATM    2  C1  UNL     1      33.002  30.728  20.698  1.00  0.00     0.197 C 
HETATM    3  O1  UNL     1      32.733  31.955  20.752  1.00  0.00    -0.646 OA
HETATM    4  O2  UNL     1      32.497  30.028  19.618  1.00  0.00    -0.646 OA
ENDBRANCH   1   2
BRANCH   1   5
HETATM    5  C3  UNL     1      34.107  28.605  21.327  1.00  0.00     0.096 C 
BRANCH   5   6
HETATM    6  C4  UNL     1      35.412  28.289  20.776  1.00  0.00     0.042 A 
HETATM    7  C5  UNL     1      36.564  28.327  21.532  1.00  0.00     0.027 A 
HETATM    8  C6  UNL     1      37.809  28.024  20.995  1.00  0.00     0.003 A 
HETATM    9  C7  UNL     1      37.908  27.672  19.666  1.00  0.00     0.020 A 
HETATM   10  C8  UNL     1      36.743  27.640  18.933  1.00  0.00     0.123 A 
HETATM   11  N1  UNL     1      35.552  27.939  19.476  1.00  0.00    -0.240 N 
BRANCH  11  12
HETATM   12  O3  UNL     1      34.455  27.884  18.685  1.00  0.00    -0.283 OA
ATOM     13  H3  UNL     1      34.531  27.517  17.812  1.00  0.00     0.245 HD
ENDBRANCH  11  12
ENDBRANCH   5   6
ENDBRANCH   1   5
BRANCH   1  14
HETATM   14  N2  UNL     1      32.982  29.919  22.919  1.00  0.00    -0.300 N 
ATOM     15  H2  UNL     1      31.962  29.898  22.917  1.00  0.00     0.173 HD
BRANCH  14  16
HETATM   16  S1  UNL     1      33.941  29.852  24.333  1.00  0.00     0.259 S 
HETATM   17  O4  UNL     1      33.089  30.372  25.477  1.00  0.00    -0.201 OA
HETATM   18  O5  UNL     1      34.297  28.432  24.705  1.00  0.00    -0.201 OA
BRANCH  16  19
HETATM   19  C9  UNL     1      35.432  30.736  24.206  1.00  0.00     0.080 A 
HETATM   20  C10 UNL     1      35.498  31.953  23.583  1.00  0.00     0.027 A 
HETATM   21  C11 UNL     1      36.696  32.633  23.500  1.00  0.00     0.022 A 
HETATM   22  C12 UNL     1      37.831  32.107  24.035  1.00  0.00     0.028 A 
HETATM   23 BR1  UNL     1      39.490  33.063  23.913  1.00  0.00    -0.050 Br
HETATM   24  C13 UNL     1      37.772  30.890  24.659  1.00  0.00     0.029 A 
HETATM   25 BR2  UNL     1      39.322  30.091  25.432  1.00  0.00    -0.050 Br
HETATM   26  C14 UNL     1      36.592  30.211  24.745  1.00  0.00     0.045 A 
ENDBRANCH  16  19
ENDBRANCH  14  16
ENDBRANCH   1  14
TORSDOF 7
ENDMDL
MODEL 5
REMARK VINA RESULT: -7.002836075      1.569      2.322
REMARK  7 active torsions:
REMARK  status: ('A' for Active; 'I' for Inactive)
REMARK    1  A    between atoms: C1_2  and  C2_4 
REMARK    2  A    between atoms: C2_4  and  C3_5 
REMARK    3  A    between atoms: C2_4  and  N2_14 
REMARK    4  A    between atoms: C3_5  and  C4_6 
REMARK    5  A    between atoms: N1_11  and  O3_12 
REMARK    6  A    between atoms: N2_14  and  S1_16 
REMARK    7  A    between atoms: S1_16  and  C9_19 
ROOT
HETATM    1  C2  UNL     1      35.536  29.909  25.843  1.00  0.00     0.199 C 
ENDROOT
BRANCH   1   2
HETATM    2  C1  UNL     1      34.574  29.364  26.823  1.00  0.00     0.197 C 
HETATM    3  O1  UNL     1      33.460  29.886  27.084  1.00  0.00    -0.646 OA
HETATM    4  O2  UNL     1      34.893  28.206  27.507  1.00  0.00    -0.646 OA
ENDBRANCH   1   2
BRANCH   1   5
HETATM    5  C3  UNL     1      36.459  30.917  26.424  1.00  0.00     0.096 C 
BRANCH   5   6
HETATM    6  C4  UNL     1      37.633  31.304  25.664  1.00  0.00     0.042 A 
HETATM    7  C5  UNL     1      38.780  30.540  25.632  1.00  0.00     0.027 A 
HETATM    8  C6  UNL     1      39.900  30.918  24.902  1.00  0.00     0.003 A 
HETATM    9  C7  UNL     1      39.875  32.093  24.182  1.00  0.00     0.020 A 
HETATM   10  C8  UNL     1      38.718  32.838  24.229  1.00  0.00     0.123 A 
HETATM   11  N1  UNL     1      37.650  32.450  24.944  1.00  0.00    -0.240 N 
BRANCH  11  12
HETATM   12  O3  UNL     1      36.552  33.242  24.936  1.00  0.00    -0.283 OA
ATOM     13  H3  UNL     1      36.411  33.832  24.206  1.00  0.00     0.245 HD
ENDBRANCH  11  12
ENDBRANCH   5   6
ENDBRANCH   1   5
BRANCH   1  14
HETATM   14  N2  UNL     1      34.737  30.648  24.844  1.00  0.00    -0.300 N 
ATOM     15  H2  UNL     1      34.154  31.457  25.060  1.00  0.00     0.173 HD
BRANCH  14  16
HETATM   16  S1  UNL     1      34.912  29.979  23.280  1.00  0.00     0.259 S 
HETATM   17  O4  UNL     1      36.396  29.961  22.964  1.00  0.00    -0.201 OA
HETATM   18  O5  UNL     1      34.468  28.536  23.232  1.00  0.00    -0.201 OA
BRANCH  16  19
HETATM   19  C9  UNL     1      34.017  30.830  22.056  1.00  0.00     0.080 A 
HETATM   20  C10 UNL     1      33.939  32.196  22.038  1.00  0.00     0.027 A 
HETATM   21  C11 UNL     1      33.224  32.843  21.052  1.00  0.00     0.022 A 
HETATM   22  C12 UNL     1      32.585  32.136  20.081  1.00  0.00     0.028 A 
HETATM   23 BR1  UNL     1      31.594  33.048  18.714  1.00  0.00    -0.050 Br
HETATM   24  C13 UNL     1      32.659  30.769  20.093  1.00  0.00     0.029 A 
HETATM   25 BR2  UNL     1      31.789  29.712  18.764  1.00  0.00    -0.050 Br
HETATM   26  C14 UNL     1      33.363  30.121  21.065  1.00  0.00     0.045 A 
ENDBRANCH  16  19
ENDBRANCH  14  16
ENDBRANCH   1  14
TORSDOF 7
ENDMDL
