MODEL 1
REMARK VINA RESULT: -9.187508684      0.000      0.000
REMARK  5 active torsions:
REMARK  status: ('A' for Active; 'I' for Inactive)
REMARK       I    between atoms: N1_2  and  C2_4 
REMARK    1  A    between atoms: C2_4  and  C3_6 
REMARK    2  A    between atoms: C20_24  and  C21_25 
REMARK    3  A    between atoms: C21_25  and  C22_26 
REMARK    4  A    between atoms: C21_25  and  C27_32 
REMARK    5  A    between atoms: C22_26  and  N2_27 
ROOT
HETATM    1  C3  UNL     1      37.434  28.121  26.166  1.00  0.00     0.086 C 
HETATM    2  C4  UNL     1      38.516  28.405  27.183  1.00  0.00     0.049 C 
HETATM    3  C5  UNL     1      39.697  29.057  26.569  1.00  0.00    -0.067 C 
HETATM    4  C6  UNL     1      40.905  28.657  26.874  1.00  0.00     0.053 C 
HETATM    5  C7  UNL     1      42.056  29.304  26.267  1.00  0.00     0.149 C 
HETATM    6  O2  UNL     1      43.156  28.724  26.102  1.00  0.00    -0.293 OA
HETATM    7  C8  UNL     1      41.853  30.732  25.838  1.00  0.00     0.084 C 
HETATM    8  C9  UNL     1      40.659  30.659  24.892  1.00  0.00     0.022 C 
HETATM    9  C10 UNL     1      39.445  30.153  25.628  1.00  0.00    -0.016 C 
HETATM   10  C11 UNL     1      38.868  31.327  26.378  1.00  0.00     0.020 C 
HETATM   11  C12 UNL     1      38.462  29.611  24.601  1.00  0.00     0.003 C 
HETATM   12  C13 UNL     1      38.381  30.474  23.390  1.00  0.00     0.007 C 
HETATM   13  C14 UNL     1      37.458  29.786  22.409  1.00  0.00     0.010 C 
HETATM   14  C15 UNL     1      36.104  29.837  23.008  1.00  0.00    -0.036 C 
HETATM   15  C16 UNL     1      35.753  31.242  23.389  1.00  0.00     0.016 C 
HETATM   16  C17 UNL     1      36.084  28.945  24.284  1.00  0.00    -0.001 C 
HETATM   17  C18 UNL     1      34.666  29.209  24.675  1.00  0.00     0.006 C 
HETATM   18  C19 UNL     1      33.937  29.185  23.314  1.00  0.00     0.006 C 
HETATM   19  C20 UNL     1      35.051  29.067  22.291  1.00  0.00     0.008 C 
HETATM   20  C28 UNL     1      37.140  29.303  25.263  1.00  0.00     0.009 C 
ENDROOT
BRANCH  19  21
HETATM   21  C21 UNL     1      34.723  29.408  20.905  1.00  0.00     0.126 C 
BRANCH  21  22
HETATM   22  C22 UNL     1      33.327  29.783  20.655  1.00  0.00     0.286 C 
BRANCH  22  23
HETATM   23  N2  UNL     1      33.148  30.894  19.732  1.00  0.00     0.089 N 
HETATM   24  C23 UNL     1      31.785  30.695  19.189  1.00  0.00     0.272 C 
HETATM   25  C24 UNL     1      31.509  32.028  18.549  1.00  0.00     0.032 C 
HETATM   26  C25 UNL     1      32.368  33.014  19.314  1.00  0.00     0.032 C 
HETATM   27  C26 UNL     1      32.923  32.142  20.439  1.00  0.00     0.272 C 
ENDBRANCH  22  23
ENDBRANCH  21  22
BRANCH  21  28
HETATM   28  C27 UNL     1      35.280  28.364  19.962  1.00  0.00     0.393 C 
HETATM   29  F1  UNL     1      36.605  28.595  19.648  1.00  0.00    -0.171 F 
HETATM   30  F2  UNL     1      35.192  27.086  20.474  1.00  0.00    -0.171 F 
HETATM   31  F3  UNL     1      34.639  28.328  18.738  1.00  0.00    -0.171 F 
ENDBRANCH  21  28
ENDBRANCH  19  21
BRANCH   1  32
HETATM   32  C2  UNL     1      36.246  27.581  26.858  1.00  0.00     0.222 C 
HETATM   33  N1  UNL     1      36.037  26.183  26.874  1.00  0.00    -0.365 N 
HETATM   34  C1  UNL     1      34.882  25.622  27.545  1.00  0.00     0.149 C 
ATOM     35  H1  UNL     1      36.704  25.565  26.411  1.00  0.00     0.161 HD
HETATM   36  O1  UNL     1      35.451  28.387  27.413  1.00  0.00    -0.273 OA
ENDBRANCH   1  32
TORSDOF 5
ENDMDL
MODEL 2
REMARK VINA RESULT: -8.917819527      3.785      7.662
REMARK  5 active torsions:
REMARK  status: ('A' for Active; 'I' for Inactive)
REMARK       I    between atoms: N1_2  and  C2_4 
REMARK    1  A    between atoms: C2_4  and  C3_6 
REMARK    2  A    between atoms: C20_24  and  C21_25 
REMARK    3  A    between atoms: C21_25  and  C22_26 
REMARK    4  A    between atoms: C21_25  and  C27_32 
REMARK    5  A    between atoms: C22_26  and  N2_27 
ROOT
HETATM    1  C3  UNL     1      34.976  31.058  22.209  1.00  0.00     0.086 C 
HETATM    2  C4  UNL     1      33.654  31.791  22.171  1.00  0.00     0.049 C 
HETATM    3  C5  UNL     1      32.991  31.673  20.850  1.00  0.00    -0.067 C 
HETATM    4  C6  UNL     1      32.453  32.723  20.286  1.00  0.00     0.053 C 
HETATM    5  C7  UNL     1      31.805  32.596  18.991  1.00  0.00     0.149 C 
HETATM    6  O2  UNL     1      31.707  33.549  18.181  1.00  0.00    -0.293 OA
HETATM    7  C8  UNL     1      31.249  31.236  18.669  1.00  0.00     0.084 C 
HETATM    8  C9  UNL     1      32.452  30.310  18.811  1.00  0.00     0.022 C 
HETATM    9  C10 UNL     1      32.968  30.345  20.227  1.00  0.00    -0.016 C 
HETATM   10  C11 UNL     1      32.082  29.434  21.038  1.00  0.00     0.020 C 
HETATM   11  C12 UNL     1      34.409  29.858  20.217  1.00  0.00     0.003 C 
HETATM   12  C13 UNL     1      34.602  28.695  19.308  1.00  0.00     0.007 C 
HETATM   13  C14 UNL     1      36.079  28.366  19.306  1.00  0.00     0.010 C 
HETATM   14  C15 UNL     1      36.391  27.851  20.659  1.00  0.00    -0.036 C 
HETATM   15  C16 UNL     1      35.457  26.740  21.024  1.00  0.00     0.016 C 
HETATM   16  C17 UNL     1      36.230  29.008  21.688  1.00  0.00    -0.001 C 
HETATM   17  C18 UNL     1      36.560  28.218  22.912  1.00  0.00     0.006 C 
HETATM   18  C19 UNL     1      37.735  27.339  22.432  1.00  0.00     0.006 C 
HETATM   19  C20 UNL     1      37.833  27.619  20.944  1.00  0.00     0.008 C 
HETATM   20  C28 UNL     1      34.897  29.657  21.633  1.00  0.00     0.009 C 
ENDROOT
BRANCH  19  21
HETATM   21  C21 UNL     1      38.586  26.660  20.134  1.00  0.00     0.126 C 
BRANCH  21  22
HETATM   22  C22 UNL     1      38.974  25.418  20.812  1.00  0.00     0.286 C 
BRANCH  22  23
HETATM   23  N2  UNL     1      38.599  24.197  20.114  1.00  0.00     0.089 N 
HETATM   24  C23 UNL     1      37.707  23.497  21.067  1.00  0.00     0.272 C 
HETATM   25  C24 UNL     1      37.067  22.460  20.186  1.00  0.00     0.032 C 
HETATM   26  C25 UNL     1      37.114  23.049  18.791  1.00  0.00     0.032 C 
HETATM   27  C26 UNL     1      37.635  24.459  19.062  1.00  0.00     0.272 C 
ENDBRANCH  22  23
ENDBRANCH  21  22
BRANCH  21  28
HETATM   28  C27 UNL     1      39.709  27.360  19.400  1.00  0.00     0.393 C 
HETATM   29  F1  UNL     1      40.132  28.501  20.055  1.00  0.00    -0.171 F 
HETATM   30  F2  UNL     1      40.812  26.552  19.223  1.00  0.00    -0.171 F 
HETATM   31  F3  UNL     1      39.354  27.801  18.139  1.00  0.00    -0.171 F 
ENDBRANCH  21  28
ENDBRANCH  19  21
BRANCH   1  32
HETATM   32  C2  UNL     1      35.525  31.116  23.579  1.00  0.00     0.222 C 
HETATM   33  N1  UNL     1      34.753  30.612  24.650  1.00  0.00    -0.365 N 
HETATM   34  C1  UNL     1      35.264  30.653  26.005  1.00  0.00     0.149 C 
ATOM     35  H1  UNL     1      33.830  30.216  24.468  1.00  0.00     0.161 HD
HETATM   36  O1  UNL     1      36.669  31.616  23.751  1.00  0.00    -0.273 OA
ENDBRANCH   1  32
TORSDOF 5
ENDMDL
MODEL 3
REMARK VINA RESULT: -8.802572727      3.744      7.757
REMARK  5 active torsions:
REMARK  status: ('A' for Active; 'I' for Inactive)
REMARK       I    between atoms: N1_2  and  C2_4 
REMARK    1  A    between atoms: C2_4  and  C3_6 
REMARK    2  A    between atoms: C20_24  and  C21_25 
REMARK    3  A    between atoms: C21_25  and  C22_26 
REMARK    4  A    between atoms: C21_25  and  C27_32 
REMARK    5  A    between atoms: C22_26  and  N2_27 
ROOT
HETATM    1  C3  UNL     1      34.954  31.142  22.279  1.00  0.00     0.086 C 
HETATM    2  C4  UNL     1      33.630  31.868  22.215  1.00  0.00     0.049 C 
HETATM    3  C5  UNL     1      32.979  31.723  20.891  1.00  0.00    -0.067 C 
HETATM    4  C6  UNL     1      32.442  32.760  20.303  1.00  0.00     0.053 C 
HETATM    5  C7  UNL     1      31.806  32.607  19.005  1.00  0.00     0.149 C 
HETATM    6  O2  UNL     1      31.712  33.544  18.177  1.00  0.00    -0.293 OA
HETATM    7  C8  UNL     1      31.259  31.238  18.703  1.00  0.00     0.084 C 
HETATM    8  C9  UNL     1      32.465  30.321  18.873  1.00  0.00     0.022 C 
HETATM    9  C10 UNL     1      32.967  30.384  20.293  1.00  0.00    -0.016 C 
HETATM   10  C11 UNL     1      32.078  29.483  21.112  1.00  0.00     0.020 C 
HETATM   11  C12 UNL     1      34.411  29.903  20.305  1.00  0.00     0.003 C 
HETATM   12  C13 UNL     1      34.617  28.724  19.419  1.00  0.00     0.007 C 
HETATM   13  C14 UNL     1      36.095  28.402  19.436  1.00  0.00     0.010 C 
HETATM   14  C15 UNL     1      36.397  27.914  20.801  1.00  0.00    -0.036 C 
HETATM   15  C16 UNL     1      35.465  26.805  21.178  1.00  0.00     0.016 C 
HETATM   16  C17 UNL     1      36.222  29.089  21.807  1.00  0.00    -0.001 C 
HETATM   17  C18 UNL     1      36.544  28.322  23.049  1.00  0.00     0.006 C 
HETATM   18  C19 UNL     1      37.727  27.440  22.596  1.00  0.00     0.006 C 
HETATM   19  C20 UNL     1      37.838  27.693  21.104  1.00  0.00     0.008 C 
HETATM   20  C28 UNL     1      34.886  29.730  21.728  1.00  0.00     0.009 C 
ENDROOT
BRANCH  19  21
HETATM   21  C21 UNL     1      38.602  26.723  20.318  1.00  0.00     0.126 C 
BRANCH  21  22
HETATM   22  C22 UNL     1      39.067  25.537  21.046  1.00  0.00     0.286 C 
BRANCH  22  23
HETATM   23  N2  UNL     1      38.083  24.472  21.174  1.00  0.00     0.089 N 
HETATM   24  C23 UNL     1      37.675  24.190  19.778  1.00  0.00     0.272 C 
HETATM   25  C24 UNL     1      36.963  22.872  19.925  1.00  0.00     0.032 C 
HETATM   26  C25 UNL     1      37.575  22.232  21.154  1.00  0.00     0.032 C 
HETATM   27  C26 UNL     1      38.710  23.200  21.482  1.00  0.00     0.272 C 
ENDBRANCH  22  23
ENDBRANCH  21  22
BRANCH  21  28
HETATM   28  C27 UNL     1      39.667  27.427  19.506  1.00  0.00     0.393 C 
HETATM   29  F1  UNL     1      39.257  27.681  18.211  1.00  0.00    -0.171 F 
HETATM   30  F2  UNL     1      40.048  28.631  20.062  1.00  0.00    -0.171 F 
HETATM   31  F3  UNL     1      40.828  26.692  19.360  1.00  0.00    -0.171 F 
ENDBRANCH  21  28
ENDBRANCH  19  21
BRANCH   1  32
HETATM   32  C2  UNL     1      35.491  31.227  23.653  1.00  0.00     0.222 C 
HETATM   33  N1  UNL     1      36.730  31.873  23.866  1.00  0.00    -0.365 N 
HETATM   34  C1  UNL     1      37.283  31.975  25.202  1.00  0.00     0.149 C 
ATOM     35  H1  UNL     1      37.238  32.271  23.075  1.00  0.00     0.161 HD
HETATM   36  O1  UNL     1      34.825  30.719  24.594  1.00  0.00    -0.273 OA
ENDBRANCH   1  32
TORSDOF 5
ENDMDL
MODEL 4
REMARK VINA RESULT: -8.661385844      3.860      7.709
REMARK  5 active torsions:
REMARK  status: ('A' for Active; 'I' for Inactive)
REMARK       I    between atoms: N1_2  and  C2_4 
REMARK    1  A    between atoms: C2_4  and  C3_6 
REMARK    2  A    between atoms: C20_24  and  C21_25 
REMARK    3  A    between atoms: C21_25  and  C22_26 
REMARK    4  A    between atoms: C21_25  and  C27_32 
REMARK    5  A    between atoms: C22_26  and  N2_27 
ROOT
HETATM    1  C3  UNL     1      35.251  31.108  22.373  1.00  0.00     0.086 C 
HETATM    2  C4  UNL     1      33.836  31.632  22.282  1.00  0.00     0.049 C 
HETATM    3  C5  UNL     1      33.206  31.308  20.980  1.00  0.00    -0.067 C 
HETATM    4  C6  UNL     1      32.522  32.217  20.333  1.00  0.00     0.053 C 
HETATM    5  C7  UNL     1      31.909  31.888  19.058  1.00  0.00     0.149 C 
HETATM    6  O2  UNL     1      31.676  32.745  18.171  1.00  0.00    -0.293 OA
HETATM    7  C8  UNL     1      31.561  30.438  18.853  1.00  0.00     0.084 C 
HETATM    8  C9  UNL     1      32.887  29.716  19.065  1.00  0.00     0.022 C 
HETATM    9  C10 UNL     1      33.383  29.944  20.471  1.00  0.00    -0.016 C 
HETATM   10  C11 UNL     1      32.636  28.983  21.359  1.00  0.00     0.020 C 
HETATM   11  C12 UNL     1      34.880  29.675  20.492  1.00  0.00     0.003 C 
HETATM   12  C13 UNL     1      35.249  28.482  19.682  1.00  0.00     0.007 C 
HETATM   13  C14 UNL     1      36.758  28.376  19.699  1.00  0.00     0.010 C 
HETATM   14  C15 UNL     1      37.133  28.027  21.088  1.00  0.00    -0.036 C 
HETATM   15  C16 UNL     1      36.372  26.824  21.550  1.00  0.00     0.016 C 
HETATM   16  C17 UNL     1      36.797  29.230  22.018  1.00  0.00    -0.001 C 
HETATM   17  C18 UNL     1      37.232  28.601  23.302  1.00  0.00     0.006 C 
HETATM   18  C19 UNL     1      38.527  27.869  22.890  1.00  0.00     0.006 C 
HETATM   19  C20 UNL     1      38.593  28.035  21.384  1.00  0.00     0.008 C 
HETATM   20  C28 UNL     1      35.383  29.668  21.917  1.00  0.00     0.009 C 
ENDROOT
BRANCH  19  21
HETATM   21  C21 UNL     1      39.484  27.133  20.652  1.00  0.00     0.126 C 
BRANCH  21  22
HETATM   22  C22 UNL     1      40.130  26.087  21.451  1.00  0.00     0.286 C 
BRANCH  22  23
HETATM   23  N2  UNL     1      39.856  24.726  21.015  1.00  0.00     0.089 N 
HETATM   24  C23 UNL     1      38.968  24.182  22.067  1.00  0.00     0.272 C 
HETATM   25  C24 UNL     1      38.426  22.944  21.405  1.00  0.00     0.032 C 
HETATM   26  C25 UNL     1      38.497  23.233  19.920  1.00  0.00     0.032 C 
HETATM   27  C26 UNL     1      38.922  24.700  19.904  1.00  0.00     0.272 C 
ENDBRANCH  22  23
ENDBRANCH  21  22
BRANCH  21  28
HETATM   28  C27 UNL     1      40.421  27.926  19.767  1.00  0.00     0.393 C 
HETATM   29  F1  UNL     1      41.648  27.310  19.618  1.00  0.00    -0.171 F 
HETATM   30  F2  UNL     1      39.908  28.134  18.503  1.00  0.00    -0.171 F 
HETATM   31  F3  UNL     1      40.725  29.179  20.265  1.00  0.00    -0.171 F 
ENDBRANCH  21  28
ENDBRANCH  19  21
BRANCH   1  32
HETATM   32  C2  UNL     1      35.777  31.360  23.731  1.00  0.00     0.222 C 
HETATM   33  N1  UNL     1      35.068  30.858  24.846  1.00  0.00    -0.365 N 
HETATM   34  C1  UNL     1      35.559  31.088  26.190  1.00  0.00     0.149 C 
ATOM     35  H1  UNL     1      34.206  30.331  24.703  1.00  0.00     0.161 HD
HETATM   36  O1  UNL     1      36.844  32.019  23.852  1.00  0.00    -0.273 OA
ENDBRANCH   1  32
TORSDOF 5
ENDMDL
MODEL 5
REMARK VINA RESULT: -8.521642204      1.647      1.967
REMARK  5 active torsions:
REMARK  status: ('A' for Active; 'I' for Inactive)
REMARK       I    between atoms: N1_2  and  C2_4 
REMARK    1  A    between atoms: C2_4  and  C3_6 
REMARK    2  A    between atoms: C20_24  and  C21_25 
REMARK    3  A    between atoms: C21_25  and  C22_26 
REMARK    4  A    between atoms: C21_25  and  C27_32 
REMARK    5  A    between atoms: C22_26  and  N2_27 
ROOT
HETATM    1  C3  UNL     1      36.176  29.891  26.271  1.00  0.00     0.086 C 
HETATM    2  C4  UNL     1      37.231  30.337  27.257  1.00  0.00     0.049 C 
HETATM    3  C5  UNL     1      38.550  30.529  26.611  1.00  0.00    -0.067 C 
HETATM    4  C6  UNL     1      39.636  30.072  27.179  1.00  0.00     0.053 C 
HETATM    5  C7  UNL     1      40.925  30.266  26.537  1.00  0.00     0.149 C 
HETATM    6  O2  UNL     1      41.899  29.496  26.715  1.00  0.00    -0.293 OA
HETATM    7  C8  UNL     1      41.031  31.463  25.630  1.00  0.00     0.084 C 
HETATM    8  C9  UNL     1      39.904  31.254  24.624  1.00  0.00     0.022 C 
HETATM    9  C10 UNL     1      38.573  31.246  25.332  1.00  0.00    -0.016 C 
HETATM   10  C11 UNL     1      38.193  32.686  25.564  1.00  0.00     0.020 C 
HETATM   11  C12 UNL     1      37.566  30.542  24.434  1.00  0.00     0.003 C 
HETATM   12  C13 UNL     1      37.726  30.922  23.004  1.00  0.00     0.007 C 
HETATM   13  C14 UNL     1      36.746  30.091  22.205  1.00  0.00     0.010 C 
HETATM   14  C15 UNL     1      35.396  30.569  22.580  1.00  0.00    -0.036 C 
HETATM   15  C16 UNL     1      35.303  32.055  22.418  1.00  0.00     0.016 C 
HETATM   16  C17 UNL     1      35.126  30.203  24.069  1.00  0.00    -0.001 C 
HETATM   17  C18 UNL     1      33.766  30.814  24.169  1.00  0.00     0.006 C 
HETATM   18  C19 UNL     1      33.129  30.428  22.817  1.00  0.00     0.006 C 
HETATM   19  C20 UNL     1      34.257  29.777  22.040  1.00  0.00     0.008 C 
HETATM   20  C28 UNL     1      36.172  30.708  24.993  1.00  0.00     0.009 C 
ENDROOT
BRANCH  19  21
HETATM   21  C21 UNL     1      34.084  29.653  20.591  1.00  0.00     0.126 C 
BRANCH  21  22
HETATM   22  C22 UNL     1      32.705  29.753  20.103  1.00  0.00     0.286 C 
BRANCH  22  23
HETATM   23  N2  UNL     1      32.460  30.850  19.178  1.00  0.00     0.089 N 
HETATM   24  C23 UNL     1      30.984  30.916  19.079  1.00  0.00     0.272 C 
HETATM   25  C24 UNL     1      30.778  32.258  18.431  1.00  0.00     0.032 C 
HETATM   26  C25 UNL     1      31.996  33.070  18.818  1.00  0.00     0.032 C 
HETATM   27  C26 UNL     1      32.697  32.138  19.804  1.00  0.00     0.272 C 
ENDBRANCH  22  23
ENDBRANCH  21  22
BRANCH  21  28
HETATM   28  C27 UNL     1      34.858  28.462  20.070  1.00  0.00     0.393 C 
HETATM   29  F1  UNL     1      34.827  27.393  20.945  1.00  0.00    -0.171 F 
HETATM   30  F2  UNL     1      34.386  28.014  18.854  1.00  0.00    -0.171 F 
HETATM   31  F3  UNL     1      36.204  28.714  19.885  1.00  0.00    -0.171 F 
ENDBRANCH  21  28
ENDBRANCH  19  21
BRANCH   1  32
HETATM   32  C2  UNL     1      34.866  29.832  26.951  1.00  0.00     0.222 C 
HETATM   33  N1  UNL     1      34.118  31.021  27.105  1.00  0.00    -0.365 N 
HETATM   34  C1  UNL     1      32.829  30.996  27.767  1.00  0.00     0.149 C 
ATOM     35  H1  UNL     1      34.488  31.902  26.747  1.00  0.00     0.161 HD
HETATM   36  O1  UNL     1      34.456  28.718  27.377  1.00  0.00    -0.273 OA
ENDBRANCH   1  32
TORSDOF 5
ENDMDL
