MODEL 1
REMARK VINA RESULT: -7.058538879      0.000      0.000
REMARK  5 active torsions:
REMARK  status: ('A' for Active; 'I' for Inactive)
REMARK    1  A    between atoms: C2_2  and  O2_4 
REMARK    2  A    between atoms: O2_4  and  C3_5 
REMARK    3  A    between atoms: C7_9  and  O3_10 
REMARK    4  A    between atoms: C10_14  and  C11_15 
REMARK    5  A    between atoms: C15_19  and  C16_21 
ROOT
HETATM    1  C3  UNL     1      34.662  30.364  23.117  1.00  0.00     0.143 C 
HETATM    2  C4  UNL     1      34.290  30.199  24.621  1.00  0.00     0.038 C 
HETATM    3  C5  UNL     1      34.756  28.802  24.936  1.00  0.00     0.027 C 
HETATM    4  C6  UNL     1      36.090  29.393  24.634  1.00  0.00     0.034 C 
HETATM    5  C7  UNL     1      37.296  28.760  24.971  1.00  0.00     0.050 C 
HETATM    6  C8  UNL     1      37.766  27.842  24.139  1.00  0.00     0.006 C 
HETATM    7  C9  UNL     1      36.966  27.573  22.924  1.00  0.00     0.035 C 
HETATM    8  C10 UNL     1      36.604  28.893  22.207  1.00  0.00     0.000 C 
HETATM    9  C14 UNL     1      35.984  29.796  23.125  1.00  0.00     0.037 C 
HETATM   10  C15 UNL     1      35.585  30.655  25.273  1.00  0.00     0.051 C 
HETATM   11 BR1  UNL     1      36.261  32.319  24.543  1.00  0.00    -0.083 Br
ENDROOT
BRANCH   1  12
HETATM   12  O2  UNL     1      33.577  29.811  22.479  1.00  0.00    -0.315 OA
BRANCH  12  13
HETATM   13  C2  UNL     1      32.894  30.373  21.406  1.00  0.00     0.255 C 
HETATM   14  C1  UNL     1      33.026  31.786  21.001  1.00  0.00     0.126 C 
HETATM   15  O1  UNL     1      32.138  29.588  20.783  1.00  0.00    -0.266 OA
ENDBRANCH  12  13
ENDBRANCH   1  12
BRANCH  10  16
HETATM   16  C16 UNL     1      35.363  30.706  26.746  1.00  0.00     0.137 C 
HETATM   17 CL1  UNL     1      33.607  30.871  27.103  1.00  0.00    -0.129 Cl
ENDBRANCH  10  16
BRANCH   8  18
HETATM   18  C11 UNL     1      36.083  28.506  20.890  1.00  0.00    -0.018 C 
HETATM   19  C12 UNL     1      37.146  28.143  19.875  1.00  0.00     0.010 C 
HETATM   20  C13 UNL     1      35.187  27.252  20.958  1.00  0.00     0.010 C 
ENDBRANCH   8  18
BRANCH   5  21
HETATM   21  O3  UNL     1      38.058  28.994  26.093  1.00  0.00    -0.364 OA
ATOM     22  H3  UNL     1      38.778  29.608  26.168  1.00  0.00     0.217 HD
ENDBRANCH   5  21
TORSDOF 5
ENDMDL
MODEL 2
REMARK VINA RESULT: -6.931209035      2.205      3.761
REMARK  5 active torsions:
REMARK  status: ('A' for Active; 'I' for Inactive)
REMARK    1  A    between atoms: C2_2  and  O2_4 
REMARK    2  A    between atoms: O2_4  and  C3_5 
REMARK    3  A    between atoms: C7_9  and  O3_10 
REMARK    4  A    between atoms: C10_14  and  C11_15 
REMARK    5  A    between atoms: C15_19  and  C16_21 
ROOT
HETATM    1  C3  UNL     1      33.996  30.304  22.434  1.00  0.00     0.143 C 
HETATM    2  C4  UNL     1      34.953  29.241  23.054  1.00  0.00     0.038 C 
HETATM    3  C5  UNL     1      36.282  29.949  23.076  1.00  0.00     0.027 C 
HETATM    4  C6  UNL     1      35.563  30.843  24.027  1.00  0.00     0.034 C 
HETATM    5  C7  UNL     1      36.225  31.766  24.851  1.00  0.00     0.050 C 
HETATM    6  C8  UNL     1      36.538  32.945  24.333  1.00  0.00     0.006 C 
HETATM    7  C9  UNL     1      36.153  33.175  22.922  1.00  0.00     0.035 C 
HETATM    8  C10 UNL     1      34.671  32.802  22.695  1.00  0.00     0.000 C 
HETATM    9  C14 UNL     1      34.423  31.472  23.157  1.00  0.00     0.037 C 
HETATM   10  C15 UNL     1      34.859  29.614  24.524  1.00  0.00     0.051 C 
HETATM   11 BR1  UNL     1      33.034  29.855  25.133  1.00  0.00    -0.083 Br
ENDROOT
BRANCH   1  12
HETATM   12  O2  UNL     1      34.171  30.112  21.084  1.00  0.00    -0.315 OA
BRANCH  12  13
HETATM   13  C2  UNL     1      33.195  29.678  20.194  1.00  0.00     0.255 C 
HETATM   14  C1  UNL     1      31.747  29.856  20.415  1.00  0.00     0.126 C 
HETATM   15  O1  UNL     1      33.628  29.110  19.162  1.00  0.00    -0.266 OA
ENDBRANCH  12  13
ENDBRANCH   1  12
BRANCH  10  16
HETATM   16  C16 UNL     1      35.610  28.590  25.305  1.00  0.00     0.137 C 
HETATM   17 CL1  UNL     1      35.104  28.631  27.031  1.00  0.00    -0.129 Cl
ENDBRANCH  10  16
BRANCH   8  18
HETATM   18  C11 UNL     1      34.320  33.337  21.374  1.00  0.00    -0.018 C 
HETATM   19  C12 UNL     1      32.836  33.344  21.071  1.00  0.00     0.010 C 
HETATM   20  C13 UNL     1      34.743  34.812  21.206  1.00  0.00     0.010 C 
ENDBRANCH   8  18
BRANCH   5  21
HETATM   21  O3  UNL     1      36.592  31.576  26.163  1.00  0.00    -0.364 OA
ATOM     22  H3  UNL     1      36.416  32.163  26.889  1.00  0.00     0.217 HD
ENDBRANCH   5  21
TORSDOF 5
ENDMDL
MODEL 3
REMARK VINA RESULT: -6.645702098      2.044      4.019
REMARK  5 active torsions:
REMARK  status: ('A' for Active; 'I' for Inactive)
REMARK    1  A    between atoms: C2_2  and  O2_4 
REMARK    2  A    between atoms: O2_4  and  C3_5 
REMARK    3  A    between atoms: C7_9  and  O3_10 
REMARK    4  A    between atoms: C10_14  and  C11_15 
REMARK    5  A    between atoms: C15_19  and  C16_21 
ROOT
HETATM    1  C3  UNL     1      37.014  29.052  23.341  1.00  0.00     0.143 C 
HETATM    2  C4  UNL     1      36.602  30.349  24.101  1.00  0.00     0.038 C 
HETATM    3  C5  UNL     1      35.535  30.939  23.217  1.00  0.00     0.027 C 
HETATM    4  C6  UNL     1      34.818  29.686  23.587  1.00  0.00     0.034 C 
HETATM    5  C7  UNL     1      33.444  29.504  23.368  1.00  0.00     0.050 C 
HETATM    6  C8  UNL     1      33.056  29.102  22.167  1.00  0.00     0.006 C 
HETATM    7  C9  UNL     1      34.122  28.882  21.163  1.00  0.00     0.035 C 
HETATM    8  C10 UNL     1      35.247  28.000  21.749  1.00  0.00     0.000 C 
HETATM    9  C14 UNL     1      35.713  28.553  22.982  1.00  0.00     0.037 C 
HETATM   10  C15 UNL     1      35.452  29.819  24.941  1.00  0.00     0.051 C 
HETATM   11 BR1  UNL     1      35.878  28.165  25.858  1.00  0.00    -0.083 Br
ENDROOT
BRANCH   1  12
HETATM   12  O2  UNL     1      37.949  29.515  22.445  1.00  0.00    -0.315 OA
BRANCH  12  13
HETATM   13  C2  UNL     1      39.219  28.984  22.254  1.00  0.00     0.255 C 
HETATM   14  C1  UNL     1      39.666  28.360  20.994  1.00  0.00     0.126 C 
HETATM   15  O1  UNL     1      39.988  29.070  23.242  1.00  0.00    -0.266 OA
ENDBRANCH  12  13
ENDBRANCH   1  12
BRANCH  10  16
HETATM   16  C16 UNL     1      35.020  30.908  25.863  1.00  0.00     0.137 C 
HETATM   17 CL1  UNL     1      33.897  30.258  27.109  1.00  0.00    -0.129 Cl
ENDBRANCH  10  16
BRANCH   8  18
HETATM   18  C11 UNL     1      36.082  27.604  20.608  1.00  0.00    -0.018 C 
HETATM   19  C12 UNL     1      36.180  26.109  20.389  1.00  0.00     0.010 C 
HETATM   20  C13 UNL     1      35.541  28.144  19.268  1.00  0.00     0.010 C 
ENDBRANCH   8  18
BRANCH   5  21
HETATM   21  O3  UNL     1      32.436  29.701  24.284  1.00  0.00    -0.364 OA
ATOM     22  H3  UNL     1      31.969  29.027  24.764  1.00  0.00     0.217 HD
ENDBRANCH   5  21
TORSDOF 5
ENDMDL
MODEL 4
REMARK VINA RESULT: -6.643139272      2.147      3.975
REMARK  5 active torsions:
REMARK  status: ('A' for Active; 'I' for Inactive)
REMARK    1  A    between atoms: C2_2  and  O2_4 
REMARK    2  A    between atoms: O2_4  and  C3_5 
REMARK    3  A    between atoms: C7_9  and  O3_10 
REMARK    4  A    between atoms: C10_14  and  C11_15 
REMARK    5  A    between atoms: C15_19  and  C16_21 
ROOT
HETATM    1  C3  UNL     1      37.263  29.617  23.724  1.00  0.00     0.143 C 
HETATM    2  C4  UNL     1      36.378  30.669  24.458  1.00  0.00     0.038 C 
HETATM    3  C5  UNL     1      35.381  31.071  23.404  1.00  0.00     0.027 C 
HETATM    4  C6  UNL     1      34.973  29.644  23.531  1.00  0.00     0.034 C 
HETATM    5  C7  UNL     1      33.768  29.148  23.009  1.00  0.00     0.050 C 
HETATM    6  C8  UNL     1      33.741  28.807  21.729  1.00  0.00     0.006 C 
HETATM    7  C9  UNL     1      34.997  28.984  20.967  1.00  0.00     0.035 C 
HETATM    8  C10 UNL     1      36.186  28.350  21.724  1.00  0.00     0.000 C 
HETATM    9  C14 UNL     1      36.240  28.853  23.061  1.00  0.00     0.037 C 
HETATM   10  C15 UNL     1      35.276  29.771  24.995  1.00  0.00     0.051 C 
HETATM   11 BR1  UNL     1      35.951  28.180  25.875  1.00  0.00    -0.083 Br
ENDROOT
BRANCH   1  12
HETATM   12  O2  UNL     1      38.191  30.403  23.083  1.00  0.00    -0.315 OA
BRANCH  12  13
HETATM   13  C2  UNL     1      39.101  31.252  23.703  1.00  0.00     0.255 C 
HETATM   14  C1  UNL     1      39.227  32.689  23.390  1.00  0.00     0.126 C 
HETATM   15  O1  UNL     1      39.831  30.711  24.569  1.00  0.00    -0.266 OA
ENDBRANCH  12  13
ENDBRANCH   1  12
BRANCH  10  16
HETATM   16  C16 UNL     1      34.396  30.598  25.869  1.00  0.00     0.137 C 
HETATM   17 CL1  UNL     1      35.392  31.567  27.013  1.00  0.00    -0.129 Cl
ENDBRANCH  10  16
BRANCH   8  18
HETATM   18  C11 UNL     1      37.299  28.316  20.768  1.00  0.00    -0.018 C 
HETATM   19  C12 UNL     1      38.395  27.329  21.113  1.00  0.00     0.010 C 
HETATM   20  C13 UNL     1      36.847  27.894  19.354  1.00  0.00     0.010 C 
ENDBRANCH   8  18
BRANCH   5  21
HETATM   21  O3  UNL     1      32.588  28.975  23.697  1.00  0.00    -0.364 OA
ATOM     22  H3  UNL     1      31.721  29.226  23.402  1.00  0.00     0.217 HD
ENDBRANCH   5  21
TORSDOF 5
ENDMDL
MODEL 5
REMARK VINA RESULT: -6.400833649      2.978      5.434
REMARK  5 active torsions:
REMARK  status: ('A' for Active; 'I' for Inactive)
REMARK    1  A    between atoms: C2_2  and  O2_4 
REMARK    2  A    between atoms: O2_4  and  C3_5 
REMARK    3  A    between atoms: C7_9  and  O3_10 
REMARK    4  A    between atoms: C10_14  and  C11_15 
REMARK    5  A    between atoms: C15_19  and  C16_21 
ROOT
HETATM    1  C3  UNL     1      34.779  29.302  23.347  1.00  0.00     0.143 C 
HETATM    2  C4  UNL     1      33.263  29.294  22.986  1.00  0.00     0.038 C 
HETATM    3  C5  UNL     1      32.841  30.715  23.253  1.00  0.00     0.027 C 
HETATM    4  C6  UNL     1      33.795  30.994  22.143  1.00  0.00     0.034 C 
HETATM    5  C7  UNL     1      33.841  32.227  21.473  1.00  0.00     0.050 C 
HETATM    6  C8  UNL     1      34.546  33.205  22.023  1.00  0.00     0.006 C 
HETATM    7  C9  UNL     1      35.222  32.898  23.303  1.00  0.00     0.035 C 
HETATM    8  C10 UNL     1      36.022  31.580  23.194  1.00  0.00     0.000 C 
HETATM    9  C14 UNL     1      35.176  30.532  22.717  1.00  0.00     0.037 C 
HETATM   10  C15 UNL     1      33.328  29.708  21.526  1.00  0.00     0.051 C 
HETATM   11 BR1  UNL     1      34.647  28.713  20.511  1.00  0.00    -0.083 Br
ENDROOT
BRANCH   1  12
HETATM   12  O2  UNL     1      34.763  29.089  24.706  1.00  0.00    -0.315 OA
BRANCH  12  13
HETATM   13  C2  UNL     1      35.662  28.299  25.413  1.00  0.00     0.255 C 
HETATM   14  C1  UNL     1      36.867  27.693  24.814  1.00  0.00     0.126 C 
HETATM   15  O1  UNL     1      35.384  28.127  26.625  1.00  0.00    -0.266 OA
ENDBRANCH  12  13
ENDBRANCH   1  12
BRANCH  10  16
HETATM   16  C16 UNL     1      31.953  29.610  20.960  1.00  0.00     0.137 C 
HETATM   17 CL1  UNL     1      32.012  29.705  19.164  1.00  0.00    -0.129 Cl
ENDBRANCH  10  16
BRANCH   8  18
HETATM   18  C11 UNL     1      36.875  31.528  24.387  1.00  0.00    -0.018 C 
HETATM   19  C12 UNL     1      38.127  32.375  24.304  1.00  0.00     0.010 C 
HETATM   20  C13 UNL     1      36.154  32.049  25.648  1.00  0.00     0.010 C 
ENDBRANCH   8  18
BRANCH   5  21
HETATM   21  O3  UNL     1      33.222  32.535  20.283  1.00  0.00    -0.364 OA
ATOM     22  H3  UNL     1      32.409  32.166  19.957  1.00  0.00     0.217 HD
ENDBRANCH   5  21
TORSDOF 5
ENDMDL
