MODEL 1
REMARK VINA RESULT: -7.431325215      0.000      0.000
REMARK  7 active torsions:
REMARK  status: ('A' for Active; 'I' for Inactive)
REMARK    1  A    between atoms: C2_2  and  C3_3 
REMARK    2  A    between atoms: C3_3  and  C4_4 
REMARK    3  A    between atoms: C4_4  and  S1_5 
REMARK    4  A    between atoms: C10_13  and  C12_15 
REMARK    5  A    between atoms: C12_15  and  C13_17 
REMARK    6  A    between atoms: C14_18  and  C15_19 
REMARK    7  A    between atoms: C17_21  and  C19_23 
ROOT
HETATM    1  C3  UNL     1      23.993  26.215   9.063  1.00  0.00     0.073 C 
HETATM    2  C6  UNL     1      24.991  26.036  10.108  1.00  0.00     0.054 C 
HETATM    3  C7  UNL     1      25.780  27.211  10.639  1.00  0.00     0.052 C 
HETATM    4  C8  UNL     1      25.183  28.368   9.899  1.00  0.00     0.048 C 
HETATM    5  C9  UNL     1      25.317  27.852   8.461  1.00  0.00     0.140 C 
HETATM    6  O2  UNL     1      24.138  27.355   8.201  1.00  0.00    -0.373 OA
HETATM    7  C10 UNL     1      26.175  28.833   7.829  1.00  0.00     0.055 C 
HETATM    8  C11 UNL     1      25.547  30.206   8.069  1.00  0.00     0.027 C 
HETATM    9  C21 UNL     1      27.448  28.766   8.685  1.00  0.00     0.094 C 
HETATM   10  S2  UNL     1      27.460  27.338   9.859  1.00  0.00    -0.163 SA
ENDROOT
BRANCH   7  11
HETATM   11  C12 UNL     1      26.435  28.704   6.405  1.00  0.00     0.160 C 
HETATM   12  O3  UNL     1      27.271  27.871   5.926  1.00  0.00    -0.292 OA
BRANCH  11  13
HETATM   13  C13 UNL     1      25.749  29.528   5.435  1.00  0.00     0.047 C 
HETATM   14  C14 UNL     1      24.614  29.298   4.836  1.00  0.00    -0.018 C 
BRANCH  14  15
HETATM   15  C15 UNL     1      24.018  30.246   3.845  1.00  0.00     0.017 A 
HETATM   16  C16 UNL     1      22.499  30.258   3.730  1.00  0.00     0.019 A 
HETATM   17  C17 UNL     1      23.382  29.758   2.618  1.00  0.00    -0.037 A 
HETATM   18  C18 UNL     1      23.392  30.665   1.394  1.00  0.00     0.016 C 
BRANCH  17  19
HETATM   19  C19 UNL     1      23.265  28.276   2.315  1.00  0.00     0.005 C 
HETATM   20  C20 UNL     1      24.084  27.894   1.129  1.00  0.00     0.006 C 
ENDBRANCH  17  19
ENDBRANCH  14  15
ENDBRANCH  11  13
ENDBRANCH   7  11
BRANCH   1  21
HETATM   21  C2  UNL     1      22.540  26.255   9.590  1.00  0.00     0.034 C 
HETATM   22  C1  UNL     1      21.799  27.497   9.247  1.00  0.00     0.008 C 
ENDBRANCH   1  21
BRANCH   1  23
HETATM   23  C4  UNL     1      23.975  24.993   8.181  1.00  0.00     0.146 C 
BRANCH  23  24
HETATM   24  S1  UNL     1      22.515  24.428   7.502  1.00  0.00     0.013 S 
HETATM   25  C5  UNL     1      22.905  22.910   6.590  1.00  0.00     0.127 C 
HETATM   26  O1  UNL     1      21.686  25.394   6.460  1.00  0.00    -0.258 OA
ENDBRANCH  23  24
ENDBRANCH   1  23
TORSDOF 7
ENDMDL
MODEL 2
REMARK VINA RESULT: -7.072812536      2.009      3.419
REMARK  7 active torsions:
REMARK  status: ('A' for Active; 'I' for Inactive)
REMARK    1  A    between atoms: C2_2  and  C3_3 
REMARK    2  A    between atoms: C3_3  and  C4_4 
REMARK    3  A    between atoms: C4_4  and  S1_5 
REMARK    4  A    between atoms: C10_13  and  C12_15 
REMARK    5  A    between atoms: C12_15  and  C13_17 
REMARK    6  A    between atoms: C14_18  and  C15_19 
REMARK    7  A    between atoms: C17_21  and  C19_23 
ROOT
HETATM    1  C3  UNL     1      23.636  25.925   8.828  1.00  0.00     0.073 C 
HETATM    2  C6  UNL     1      23.025  26.745   9.865  1.00  0.00     0.054 C 
HETATM    3  C7  UNL     1      21.909  27.710   9.535  1.00  0.00     0.052 C 
HETATM    4  C8  UNL     1      21.678  27.460   8.077  1.00  0.00     0.048 C 
HETATM    5  C9  UNL     1      23.111  27.629   7.556  1.00  0.00     0.140 C 
HETATM    6  O2  UNL     1      23.557  26.405   7.476  1.00  0.00    -0.373 OA
HETATM    7  C10 UNL     1      23.006  28.741   6.635  1.00  0.00     0.055 C 
HETATM    8  C11 UNL     1      21.891  28.404   5.644  1.00  0.00     0.027 C 
HETATM    9  C21 UNL     1      22.483  29.872   7.531  1.00  0.00     0.094 C 
HETATM   10  S2  UNL     1      22.523  29.450   9.331  1.00  0.00    -0.163 SA
ENDROOT
BRANCH   7  11
HETATM   11  C12 UNL     1      24.185  29.115   5.870  1.00  0.00     0.160 C 
HETATM   12  O3  UNL     1      25.368  29.024   6.332  1.00  0.00    -0.292 OA
BRANCH  11  13
HETATM   13  C13 UNL     1      24.078  29.622   4.521  1.00  0.00     0.047 C 
HETATM   14  C14 UNL     1      24.009  30.862   4.124  1.00  0.00    -0.018 C 
BRANCH  14  15
HETATM   15  C15 UNL     1      23.900  31.244   2.683  1.00  0.00     0.017 A 
HETATM   16  C16 UNL     1      22.499  31.291   2.086  1.00  0.00     0.019 A 
HETATM   17  C17 UNL     1      23.513  30.260   1.667  1.00  0.00    -0.037 A 
HETATM   18  C18 UNL     1      24.027  30.454   0.246  1.00  0.00     0.016 C 
BRANCH  17  19
HETATM   19  C19 UNL     1      23.169  28.829   2.033  1.00  0.00     0.005 C 
HETATM   20  C20 UNL     1      23.936  27.853   1.205  1.00  0.00     0.006 C 
ENDBRANCH  17  19
ENDBRANCH  14  15
ENDBRANCH  11  13
ENDBRANCH   7  11
BRANCH   1  21
HETATM   21  C2  UNL     1      23.119  24.469   8.800  1.00  0.00     0.034 C 
HETATM   22  C1  UNL     1      22.873  23.933   7.436  1.00  0.00     0.008 C 
ENDBRANCH   1  21
BRANCH   1  23
HETATM   23  C4  UNL     1      25.098  25.735   9.144  1.00  0.00     0.146 C 
BRANCH  23  24
HETATM   24  S1  UNL     1      25.784  26.423  10.546  1.00  0.00     0.013 S 
HETATM   25  C5  UNL     1      27.583  26.415  10.317  1.00  0.00     0.127 C 
HETATM   26  O1  UNL     1      25.502  25.721  12.007  1.00  0.00    -0.258 OA
ENDBRANCH  23  24
ENDBRANCH   1  23
TORSDOF 7
ENDMDL
MODEL 3
REMARK VINA RESULT: -7.067626443      2.105      4.562
REMARK  7 active torsions:
REMARK  status: ('A' for Active; 'I' for Inactive)
REMARK    1  A    between atoms: C2_2  and  C3_3 
REMARK    2  A    between atoms: C3_3  and  C4_4 
REMARK    3  A    between atoms: C4_4  and  S1_5 
REMARK    4  A    between atoms: C10_13  and  C12_15 
REMARK    5  A    between atoms: C12_15  and  C13_17 
REMARK    6  A    between atoms: C14_18  and  C15_19 
REMARK    7  A    between atoms: C17_21  and  C19_23 
ROOT
HETATM    1  C3  UNL     1      26.061  28.252   8.157  1.00  0.00     0.073 C 
HETATM    2  C6  UNL     1      25.936  28.364   9.603  1.00  0.00     0.054 C 
HETATM    3  C7  UNL     1      25.655  27.148  10.456  1.00  0.00     0.052 C 
HETATM    4  C8  UNL     1      25.660  26.036   9.453  1.00  0.00     0.048 C 
HETATM    5  C9  UNL     1      24.655  26.596   8.440  1.00  0.00     0.140 C 
HETATM    6  O2  UNL     1      25.410  27.138   7.523  1.00  0.00    -0.373 OA
HETATM    7  C10 UNL     1      23.592  25.613   8.439  1.00  0.00     0.055 C 
HETATM    8  C11 UNL     1      24.235  24.252   8.170  1.00  0.00     0.027 C 
HETATM    9  C21 UNL     1      23.134  25.611   9.904  1.00  0.00     0.094 C 
HETATM   10  S2  UNL     1      23.858  26.997  10.892  1.00  0.00    -0.163 SA
ENDROOT
BRANCH   7  11
HETATM   11  C12 UNL     1      22.497  25.783   7.498  1.00  0.00     0.160 C 
HETATM   12  O3  UNL     1      21.874  24.803   6.976  1.00  0.00    -0.292 OA
BRANCH  11  13
HETATM   13  C13 UNL     1      22.047  27.096   7.094  1.00  0.00     0.047 C 
HETATM   14  C14 UNL     1      21.690  27.500   5.906  1.00  0.00    -0.018 C 
BRANCH  14  15
HETATM   15  C15 UNL     1      21.243  28.900   5.631  1.00  0.00     0.017 A 
HETATM   16  C16 UNL     1      20.872  29.235   4.192  1.00  0.00     0.019 A 
HETATM   17  C17 UNL     1      22.083  29.825   4.864  1.00  0.00    -0.037 A 
HETATM   18  C18 UNL     1      21.954  31.316   5.149  1.00  0.00     0.016 C 
BRANCH  17  19
HETATM   19  C19 UNL     1      23.418  29.397   4.284  1.00  0.00     0.005 C 
HETATM   20  C20 UNL     1      23.280  28.943   2.870  1.00  0.00     0.006 C 
ENDBRANCH  17  19
ENDBRANCH  14  15
ENDBRANCH  11  13
ENDBRANCH   7  11
BRANCH   1  21
HETATM   21  C2  UNL     1      27.523  28.237   7.657  1.00  0.00     0.034 C 
HETATM   22  C1  UNL     1      27.681  28.555   6.214  1.00  0.00     0.008 C 
ENDBRANCH   1  21
BRANCH   1  23
HETATM   23  C4  UNL     1      25.520  29.504   7.514  1.00  0.00     0.146 C 
BRANCH  23  24
HETATM   24  S1  UNL     1      24.817  30.736   8.460  1.00  0.00     0.013 S 
HETATM   25  C5  UNL     1      23.048  30.359   8.597  1.00  0.00     0.127 C 
HETATM   26  O1  UNL     1      24.918  32.298   7.952  1.00  0.00    -0.258 OA
ENDBRANCH  23  24
ENDBRANCH   1  23
TORSDOF 7
ENDMDL
MODEL 4
REMARK VINA RESULT: -6.902773547      1.479      1.774
REMARK  7 active torsions:
REMARK  status: ('A' for Active; 'I' for Inactive)
REMARK    1  A    between atoms: C2_2  and  C3_3 
REMARK    2  A    between atoms: C3_3  and  C4_4 
REMARK    3  A    between atoms: C4_4  and  S1_5 
REMARK    4  A    between atoms: C10_13  and  C12_15 
REMARK    5  A    between atoms: C12_15  and  C13_17 
REMARK    6  A    between atoms: C14_18  and  C15_19 
REMARK    7  A    between atoms: C17_21  and  C19_23 
ROOT
HETATM    1  C3  UNL     1      23.215  28.559   9.779  1.00  0.00     0.073 C 
HETATM    2  C6  UNL     1      23.958  27.804  10.777  1.00  0.00     0.054 C 
HETATM    3  C7  UNL     1      25.375  28.183  11.143  1.00  0.00     0.052 C 
HETATM    4  C8  UNL     1      25.605  29.418  10.328  1.00  0.00     0.048 C 
HETATM    5  C9  UNL     1      25.212  28.890   8.942  1.00  0.00     0.140 C 
HETATM    6  O2  UNL     1      23.976  29.286   8.800  1.00  0.00    -0.373 OA
HETATM    7  C10 UNL     1      26.427  29.034   8.169  1.00  0.00     0.055 C 
HETATM    8  C11 UNL     1      26.882  30.488   8.307  1.00  0.00     0.027 C 
HETATM    9  C21 UNL     1      27.429  28.175   8.952  1.00  0.00     0.094 C 
HETATM   10  S2  UNL     1      26.631  27.140  10.260  1.00  0.00    -0.163 SA
ENDROOT
BRANCH   7  11
HETATM   11  C12 UNL     1      26.383  28.714   6.751  1.00  0.00     0.160 C 
HETATM   12  O3  UNL     1      26.916  27.666   6.262  1.00  0.00    -0.292 OA
BRANCH  11  13
HETATM   13  C13 UNL     1      25.723  29.581   5.802  1.00  0.00     0.047 C 
HETATM   14  C14 UNL     1      24.678  29.327   5.063  1.00  0.00    -0.018 C 
BRANCH  14  15
HETATM   15  C15 UNL     1      24.098  30.327   4.116  1.00  0.00     0.017 A 
HETATM   16  C16 UNL     1      22.581  30.463   4.100  1.00  0.00     0.019 A 
HETATM   17  C17 UNL     1      23.346  29.901   2.932  1.00  0.00    -0.037 A 
HETATM   18  C18 UNL     1      23.350  30.812   1.712  1.00  0.00     0.016 C 
BRANCH  17  19
HETATM   19  C19 UNL     1      23.089  28.435   2.635  1.00  0.00     0.005 C 
HETATM   20  C20 UNL     1      23.836  27.983   1.426  1.00  0.00     0.006 C 
ENDBRANCH  17  19
ENDBRANCH  14  15
ENDBRANCH  11  13
ENDBRANCH   7  11
BRANCH   1  21
HETATM   21  C2  UNL     1      22.212  29.569  10.380  1.00  0.00     0.034 C 
HETATM   22  C1  UNL     1      22.342  29.761  11.848  1.00  0.00     0.008 C 
ENDBRANCH   1  21
BRANCH   1  23
HETATM   23  C4  UNL     1      22.306  27.623   9.024  1.00  0.00     0.146 C 
BRANCH  23  24
HETATM   24  S1  UNL     1      22.935  26.257   8.218  1.00  0.00     0.013 S 
HETATM   25  C5  UNL     1      21.866  25.944   6.787  1.00  0.00     0.127 C 
HETATM   26  O1  UNL     1      23.053  24.829   9.027  1.00  0.00    -0.258 OA
ENDBRANCH  23  24
ENDBRANCH   1  23
TORSDOF 7
ENDMDL
MODEL 5
REMARK VINA RESULT: -6.841481548      3.405      6.854
REMARK  7 active torsions:
REMARK  status: ('A' for Active; 'I' for Inactive)
REMARK    1  A    between atoms: C2_2  and  C3_3 
REMARK    2  A    between atoms: C3_3  and  C4_4 
REMARK    3  A    between atoms: C4_4  and  S1_5 
REMARK    4  A    between atoms: C10_13  and  C12_15 
REMARK    5  A    between atoms: C12_15  and  C13_17 
REMARK    6  A    between atoms: C14_18  and  C15_19 
REMARK    7  A    between atoms: C17_21  and  C19_23 
ROOT
HETATM    1  C3  UNL     1      26.369  28.264   8.997  1.00  0.00     0.073 C 
HETATM    2  C6  UNL     1      26.546  27.637  10.299  1.00  0.00     0.054 C 
HETATM    3  C7  UNL     1      26.022  26.245  10.569  1.00  0.00     0.052 C 
HETATM    4  C8  UNL     1      25.472  25.837   9.237  1.00  0.00     0.048 C 
HETATM    5  C9  UNL     1      24.556  27.035   8.957  1.00  0.00     0.140 C 
HETATM    6  O2  UNL     1      25.278  27.801   8.185  1.00  0.00    -0.373 OA
HETATM    7  C10 UNL     1      23.240  26.439   8.866  1.00  0.00     0.055 C 
HETATM    8  C11 UNL     1      23.324  25.313   7.835  1.00  0.00     0.027 C 
HETATM    9  C21 UNL     1      23.073  25.777  10.241  1.00  0.00     0.094 C 
HETATM   10  S2  UNL     1      24.386  26.268  11.446  1.00  0.00    -0.163 SA
ENDROOT
BRANCH   7  11
HETATM   11  C12 UNL     1      22.121  27.294   8.503  1.00  0.00     0.160 C 
HETATM   12  O3  UNL     1      21.519  27.209   7.384  1.00  0.00    -0.292 OA
BRANCH  11  13
HETATM   13  C13 UNL     1      21.621  28.306   9.406  1.00  0.00     0.047 C 
HETATM   14  C14 UNL     1      22.218  29.390   9.818  1.00  0.00    -0.018 C 
BRANCH  14  15
HETATM   15  C15 UNL     1      21.576  30.355  10.762  1.00  0.00     0.017 A 
HETATM   16  C16 UNL     1      22.269  31.698  10.952  1.00  0.00     0.019 A 
HETATM   17  C17 UNL     1      22.192  30.675  12.053  1.00  0.00    -0.037 A 
HETATM   18  C18 UNL     1      21.281  31.084  13.202  1.00  0.00     0.016 C 
BRANCH  17  19
HETATM   19  C19 UNL     1      23.521  30.075  12.472  1.00  0.00     0.005 C 
HETATM   20  C20 UNL     1      24.180  30.893  13.532  1.00  0.00     0.006 C 
ENDBRANCH  17  19
ENDBRANCH  14  15
ENDBRANCH  11  13
ENDBRANCH   7  11
BRANCH   1  21
HETATM   21  C2  UNL     1      27.627  28.205   8.101  1.00  0.00     0.034 C 
HETATM   22  C1  UNL     1      27.395  28.613   6.691  1.00  0.00     0.008 C 
ENDBRANCH   1  21
BRANCH   1  23
HETATM   23  C4  UNL     1      26.183  29.748   9.182  1.00  0.00     0.146 C 
BRANCH  23  24
HETATM   24  S1  UNL     1      26.811  30.542  10.555  1.00  0.00     0.013 S 
HETATM   25  C5  UNL     1      26.120  32.218  10.563  1.00  0.00     0.127 C 
HETATM   26  O1  UNL     1      28.440  30.713  10.710  1.00  0.00    -0.258 OA
ENDBRANCH  23  24
ENDBRANCH   1  23
TORSDOF 7
ENDMDL
