MODEL 1
REMARK VINA RESULT: -8.342183222      0.000      0.000
REMARK  14 active torsions:
REMARK  status: ('A' for Active; 'I' for Inactive)
REMARK    1  A    between atoms: C2_2  and  C3_3 
REMARK    2  A    between atoms: C3_3  and  O1_4 
REMARK    3  A    between atoms: O1_4  and  C4_5 
REMARK    4  A    between atoms: C5_6  and  O2_7 
REMARK    5  A    between atoms: O2_7  and  C6_8 
REMARK    6  A    between atoms: C6_8  and  C7_9 
REMARK    7  A    between atoms: C7_9  and  C8_10 
REMARK    8  A    between atoms: C8_10  and  C9_11 
REMARK    9  A    between atoms: C9_11  and  N1_12 
REMARK       I    between atoms: N2_15  and  C12_16 
REMARK   10  A    between atoms: C12_16  and  C13_18 
REMARK   11  A    between atoms: C20_25  and  N3_26 
REMARK       I    between atoms: N3_26  and  C21_28 
REMARK       I    between atoms: C21_28  and  N4_30 
REMARK   12  A    between atoms: C28_38  and  C29_39 
REMARK   13  A    between atoms: C29_39  and  N6_40 
REMARK   14  A    between atoms: C29_39  and  N7_44 
ROOT
HETATM    1  C4  UNL     1     123.341  59.132  19.592  1.00  0.00     0.112 A 
HETATM    2  C5  UNL     1     122.382  58.198  19.298  1.00  0.00     0.104 A 
HETATM    3  C19 UNL     1     122.699  57.064  18.534  1.00  0.00     0.069 A 
HETATM    4  C20 UNL     1     123.958  56.844  18.057  1.00  0.00     0.039 A 
HETATM    5  C27 UNL     1     124.936  57.802  18.358  1.00  0.00     0.043 A 
HETATM    6  C28 UNL     1     124.617  58.914  19.110  1.00  0.00     0.037 A 
ENDROOT
BRANCH   2   7
HETATM    7  O2  UNL     1     121.101  58.424  19.781  1.00  0.00    -0.348 OA
BRANCH   7   8
HETATM    8  C6  UNL     1     120.075  57.556  19.262  1.00  0.00     0.176 C 
BRANCH   8   9
HETATM    9  C7  UNL     1     119.200  58.273  18.289  1.00  0.00     0.028 C 
BRANCH   9  10
HETATM   10  C8  UNL     1     119.674  57.995  16.888  1.00  0.00     0.032 C 
BRANCH  10  11
HETATM   11  C9  UNL     1     119.296  56.622  16.474  1.00  0.00     0.272 C 
BRANCH  11  12
HETATM   12  N1  UNL     1     120.497  55.867  16.065  1.00  0.00     0.091 N 
HETATM   13  C10 UNL     1     120.370  55.677  14.663  1.00  0.00     0.292 C 
HETATM   14  C11 UNL     1     120.688  54.357  14.089  1.00  0.00     0.156 C 
HETATM   15  N2  UNL     1     120.396  53.287  15.019  1.00  0.00    -0.348 N 
HETATM   16  C12 UNL     1     119.552  52.203  14.746  1.00  0.00     0.224 C 
HETATM   17  C17 UNL     1     121.063  53.453  16.295  1.00  0.00     0.156 C 
HETATM   18  O3  UNL     1     119.401  51.325  15.634  1.00  0.00    -0.273 OA
HETATM   19  C18 UNL     1     120.504  54.713  16.889  1.00  0.00     0.292 C 
BRANCH  16  20
HETATM   20  C13 UNL     1     118.816  52.015  13.479  1.00  0.00     0.078 C 
HETATM   21  C14 UNL     1     118.771  50.603  12.940  1.00  0.00     0.014 C 
HETATM   22  C15 UNL     1     117.335  50.900  12.510  1.00  0.00     0.002 C 
HETATM   23  C16 UNL     1     117.311  51.915  13.634  1.00  0.00     0.014 C 
ENDBRANCH  16  20
ENDBRANCH  11  12
ENDBRANCH  10  11
ENDBRANCH   9  10
ENDBRANCH   8   9
ENDBRANCH   7   8
ENDBRANCH   2   7
BRANCH   1  24
HETATM   24  O1  UNL     1     123.126  60.280  20.338  1.00  0.00    -0.348 OA
BRANCH  24  25
HETATM   25  C3  UNL     1     122.707  61.499  19.775  1.00  0.00     0.175 C 
BRANCH  25  26
HETATM   26  C2  UNL     1     121.228  61.681  20.035  1.00  0.00     0.022 C 
HETATM   27  C1  UNL     1     120.432  61.696  18.755  1.00  0.00     0.007 C 
ENDBRANCH  25  26
ENDBRANCH  24  25
ENDBRANCH   1  24
BRANCH   6  28
HETATM   28  C29 UNL     1     125.724  59.874  19.379  1.00  0.00     0.414 C 
BRANCH  28  29
HETATM   29  N6  UNL     1     125.974  59.820  20.816  1.00  0.00    -0.046 N 
ATOM     30  H63 UNL     1     126.048  58.869  21.179  1.00  0.00     0.277 HD
ATOM     31  H62 UNL     1     126.912  60.127  21.076  1.00  0.00     0.277 HD
ATOM     32  H61 UNL     1     125.233  60.365  21.256  1.00  0.00     0.277 HD
ENDBRANCH  28  29
BRANCH  28  33
HETATM   33  N7  UNL     1     126.893  59.402  18.666  1.00  0.00    -0.046 N 
ATOM     34  H73 UNL     1     127.724  59.962  18.852  1.00  0.00     0.277 HD
ATOM     35  H72 UNL     1     127.246  58.516  19.026  1.00  0.00     0.277 HD
ATOM     36  H71 UNL     1     126.653  59.363  17.675  1.00  0.00     0.277 HD
ENDBRANCH  28  33
ENDBRANCH   6  28
BRANCH   4  37
HETATM   37  N3  UNL     1     124.351  55.689  17.306  1.00  0.00    -0.309 N 
HETATM   38  C21 UNL     1     124.210  55.489  15.940  1.00  0.00     0.323 C 
HETATM   39  O4  UNL     1     123.682  56.372  15.215  1.00  0.00    -0.247 OA
HETATM   40  N4  UNL     1     124.638  54.306  15.292  1.00  0.00    -0.331 N 
HETATM   41  C22 UNL     1     125.261  53.182  15.920  1.00  0.00     0.147 C 
HETATM   42  C26 UNL     1     124.451  54.198  13.836  1.00  0.00     0.147 C 
HETATM   43  C23 UNL     1     124.516  51.920  15.526  1.00  0.00     0.136 C 
HETATM   44  N5  UNL     1     124.337  51.750  14.126  1.00  0.00    -0.414 N 
HETATM   45  C24 UNL     1     125.351  51.004  13.447  1.00  0.00     0.143 C 
HETATM   46  C25 UNL     1     123.841  52.897  13.443  1.00  0.00     0.136 C 
ATOM     47  H3  UNL     1     124.782  54.930  17.833  1.00  0.00     0.170 HD
ENDBRANCH   4  37
TORSDOF 14
ENDMDL
MODEL 2
REMARK VINA RESULT: -8.292889166      1.707      2.602
REMARK  14 active torsions:
REMARK  status: ('A' for Active; 'I' for Inactive)
REMARK    1  A    between atoms: C2_2  and  C3_3 
REMARK    2  A    between atoms: C3_3  and  O1_4 
REMARK    3  A    between atoms: O1_4  and  C4_5 
REMARK    4  A    between atoms: C5_6  and  O2_7 
REMARK    5  A    between atoms: O2_7  and  C6_8 
REMARK    6  A    between atoms: C6_8  and  C7_9 
REMARK    7  A    between atoms: C7_9  and  C8_10 
REMARK    8  A    between atoms: C8_10  and  C9_11 
REMARK    9  A    between atoms: C9_11  and  N1_12 
REMARK       I    between atoms: N2_15  and  C12_16 
REMARK   10  A    between atoms: C12_16  and  C13_18 
REMARK   11  A    between atoms: C20_25  and  N3_26 
REMARK       I    between atoms: N3_26  and  C21_28 
REMARK       I    between atoms: C21_28  and  N4_30 
REMARK   12  A    between atoms: C28_38  and  C29_39 
REMARK   13  A    between atoms: C29_39  and  N6_40 
REMARK   14  A    between atoms: C29_39  and  N7_44 
ROOT
HETATM    1  C4  UNL     1     125.127  59.735  19.770  1.00  0.00     0.112 A 
HETATM    2  C5  UNL     1     123.879  59.226  19.523  1.00  0.00     0.104 A 
HETATM    3  C19 UNL     1     123.671  58.322  18.468  1.00  0.00     0.069 A 
HETATM    4  C20 UNL     1     124.688  57.917  17.655  1.00  0.00     0.039 A 
HETATM    5  C27 UNL     1     125.963  58.441  17.910  1.00  0.00     0.043 A 
HETATM    6  C28 UNL     1     126.159  59.327  18.949  1.00  0.00     0.037 A 
ENDROOT
BRANCH   2   7
HETATM    7  O2  UNL     1     122.844  59.641  20.349  1.00  0.00    -0.348 OA
BRANCH   7   8
HETATM    8  C6  UNL     1     121.531  59.638  19.756  1.00  0.00     0.176 C 
BRANCH   8   9
HETATM    9  C7  UNL     1     120.637  58.647  20.423  1.00  0.00     0.028 C 
BRANCH   9  10
HETATM   10  C8  UNL     1     119.564  58.211  19.461  1.00  0.00     0.032 C 
BRANCH  10  11
HETATM   11  C9  UNL     1     120.035  57.070  18.641  1.00  0.00     0.272 C 
BRANCH  11  12
HETATM   12  N1  UNL     1     119.926  57.398  17.205  1.00  0.00     0.091 N 
HETATM   13  C10 UNL     1     118.671  56.880  16.788  1.00  0.00     0.292 C 
HETATM   14  C11 UNL     1     118.585  56.159  15.505  1.00  0.00     0.156 C 
HETATM   15  N2  UNL     1     119.819  55.467  15.200  1.00  0.00    -0.348 N 
HETATM   16  C12 UNL     1     119.919  54.095  14.937  1.00  0.00     0.224 C 
HETATM   17  C17 UNL     1     120.973  56.344  15.207  1.00  0.00     0.156 C 
HETATM   18  O3  UNL     1     121.050  53.620  14.660  1.00  0.00    -0.273 OA
HETATM   19  C18 UNL     1     121.094  56.853  16.613  1.00  0.00     0.292 C 
BRANCH  16  20
HETATM   20  C13 UNL     1     118.780  53.154  14.964  1.00  0.00     0.078 C 
HETATM   21  C14 UNL     1     117.956  53.073  13.699  1.00  0.00     0.014 C 
HETATM   22  C15 UNL     1     117.844  51.572  13.965  1.00  0.00     0.002 C 
HETATM   23  C16 UNL     1     119.154  51.706  14.713  1.00  0.00     0.014 C 
ENDBRANCH  16  20
ENDBRANCH  11  12
ENDBRANCH  10  11
ENDBRANCH   9  10
ENDBRANCH   8   9
ENDBRANCH   7   8
ENDBRANCH   2   7
BRANCH   1  24
HETATM   24  O1  UNL     1     125.430  60.628  20.785  1.00  0.00    -0.348 OA
BRANCH  24  25
HETATM   25  C3  UNL     1     124.900  61.930  20.852  1.00  0.00     0.175 C 
BRANCH  25  26
HETATM   26  C2  UNL     1     125.777  62.774  21.749  1.00  0.00     0.022 C 
HETATM   27  C1  UNL     1     125.711  62.320  23.185  1.00  0.00     0.007 C 
ENDBRANCH  25  26
ENDBRANCH  24  25
ENDBRANCH   1  24
BRANCH   6  28
HETATM   28  C29 UNL     1     127.549  59.828  19.141  1.00  0.00     0.414 C 
BRANCH  28  29
HETATM   29  N6  UNL     1     128.349  59.236  18.072  1.00  0.00    -0.046 N 
ATOM     30  H63 UNL     1     128.825  58.377  18.350  1.00  0.00     0.277 HD
ATOM     31  H62 UNL     1     127.788  58.832  17.323  1.00  0.00     0.277 HD
ATOM     32  H61 UNL     1     128.985  59.967  17.753  1.00  0.00     0.277 HD
ENDBRANCH  28  29
BRANCH  28  33
HETATM   33  N7  UNL     1     127.520  61.267  18.983  1.00  0.00    -0.046 N 
ATOM     34  H73 UNL     1     128.434  61.700  19.111  1.00  0.00     0.277 HD
ATOM     35  H72 UNL     1     127.370  61.557  18.017  1.00  0.00     0.277 HD
ATOM     36  H71 UNL     1     126.814  61.632  19.623  1.00  0.00     0.277 HD
ENDBRANCH  28  33
ENDBRANCH   6  28
BRANCH   4  37
HETATM   37  N3  UNL     1     124.547  56.970  16.589  1.00  0.00    -0.309 N 
HETATM   38  C21 UNL     1     124.480  55.588  16.698  1.00  0.00     0.323 C 
HETATM   39  O4  UNL     1     124.551  55.032  17.825  1.00  0.00    -0.247 OA
HETATM   40  N4  UNL     1     124.336  54.738  15.577  1.00  0.00    -0.331 N 
HETATM   41  C22 UNL     1     124.237  55.156  14.212  1.00  0.00     0.147 C 
HETATM   42  C26 UNL     1     124.266  53.286  15.803  1.00  0.00     0.147 C 
HETATM   43  C23 UNL     1     125.255  54.393  13.386  1.00  0.00     0.136 C 
HETATM   44  N5  UNL     1     125.207  52.981  13.542  1.00  0.00    -0.414 N 
HETATM   45  C24 UNL     1     124.374  52.272  12.621  1.00  0.00     0.143 C 
HETATM   46  C25 UNL     1     125.171  52.531  14.893  1.00  0.00     0.136 C 
ATOM     47  H3  UNL     1     124.489  57.353  15.646  1.00  0.00     0.170 HD
ENDBRANCH   4  37
TORSDOF 14
ENDMDL
MODEL 3
REMARK VINA RESULT: -8.199172918      2.662      8.842
REMARK  14 active torsions:
REMARK  status: ('A' for Active; 'I' for Inactive)
REMARK    1  A    between atoms: C2_2  and  C3_3 
REMARK    2  A    between atoms: C3_3  and  O1_4 
REMARK    3  A    between atoms: O1_4  and  C4_5 
REMARK    4  A    between atoms: C5_6  and  O2_7 
REMARK    5  A    between atoms: O2_7  and  C6_8 
REMARK    6  A    between atoms: C6_8  and  C7_9 
REMARK    7  A    between atoms: C7_9  and  C8_10 
REMARK    8  A    between atoms: C8_10  and  C9_11 
REMARK    9  A    between atoms: C9_11  and  N1_12 
REMARK       I    between atoms: N2_15  and  C12_16 
REMARK   10  A    between atoms: C12_16  and  C13_18 
REMARK   11  A    between atoms: C20_25  and  N3_26 
REMARK       I    between atoms: N3_26  and  C21_28 
REMARK       I    between atoms: C21_28  and  N4_30 
REMARK   12  A    between atoms: C28_38  and  C29_39 
REMARK   13  A    between atoms: C29_39  and  N6_40 
REMARK   14  A    between atoms: C29_39  and  N7_44 
ROOT
HETATM    1  C4  UNL     1     120.621  58.329  17.593  1.00  0.00     0.112 A 
HETATM    2  C5  UNL     1     121.476  57.721  16.711  1.00  0.00     0.104 A 
HETATM    3  C19 UNL     1     121.061  56.603  15.969  1.00  0.00     0.069 A 
HETATM    4  C20 UNL     1     119.808  56.081  16.091  1.00  0.00     0.039 A 
HETATM    5  C27 UNL     1     118.936  56.705  16.995  1.00  0.00     0.043 A 
HETATM    6  C28 UNL     1     119.351  57.803  17.720  1.00  0.00     0.037 A 
ENDROOT
BRANCH   2   7
HETATM    7  O2  UNL     1     122.752  58.251  16.589  1.00  0.00    -0.348 OA
BRANCH   7   8
HETATM    8  C6  UNL     1     123.808  57.296  16.368  1.00  0.00     0.176 C 
BRANCH   8   9
HETATM    9  C7  UNL     1     124.949  57.524  17.301  1.00  0.00     0.028 C 
BRANCH   9  10
HETATM   10  C8  UNL     1     124.421  57.816  18.680  1.00  0.00     0.032 C 
BRANCH  10  11
HETATM   11  C9  UNL     1     125.406  58.609  19.455  1.00  0.00     0.272 C 
BRANCH  11  12
HETATM   12  N1  UNL     1     125.435  60.002  18.964  1.00  0.00     0.091 N 
HETATM   13  C10 UNL     1     126.633  60.564  19.479  1.00  0.00     0.292 C 
HETATM   14  C11 UNL     1     126.598  61.924  20.048  1.00  0.00     0.156 C 
HETATM   15  N2  UNL     1     125.315  62.217  20.649  1.00  0.00    -0.348 N 
HETATM   16  C12 UNL     1     125.132  62.628  21.976  1.00  0.00     0.224 C 
HETATM   17  C17 UNL     1     124.207  62.027  19.733  1.00  0.00     0.156 C 
HETATM   18  O3  UNL     1     123.963  62.875  22.369  1.00  0.00    -0.273 OA
HETATM   19  C18 UNL     1     124.205  60.567  19.390  1.00  0.00     0.292 C 
BRANCH  16  20
HETATM   20  C13 UNL     1     126.224  62.791  22.958  1.00  0.00     0.078 C 
HETATM   21  C14 UNL     1     126.487  64.203  23.430  1.00  0.00     0.014 C 
HETATM   22  C15 UNL     1     126.750  63.605  24.811  1.00  0.00     0.002 C 
HETATM   23  C16 UNL     1     125.836  62.474  24.389  1.00  0.00     0.014 C 
ENDBRANCH  16  20
ENDBRANCH  11  12
ENDBRANCH  10  11
ENDBRANCH   9  10
ENDBRANCH   8   9
ENDBRANCH   7   8
ENDBRANCH   2   7
BRANCH   1  24
HETATM   24  O1  UNL     1     120.938  59.434  18.367  1.00  0.00    -0.348 OA
BRANCH  24  25
HETATM   25  C3  UNL     1     120.648  60.755  17.981  1.00  0.00     0.175 C 
BRANCH  25  26
HETATM   26  C2  UNL     1     120.442  61.598  19.220  1.00  0.00     0.022 C 
HETATM   27  C1  UNL     1     120.696  60.811  20.480  1.00  0.00     0.007 C 
ENDBRANCH  25  26
ENDBRANCH  24  25
ENDBRANCH   1  24
BRANCH   6  28
HETATM   28  C29 UNL     1     118.354  58.396  18.655  1.00  0.00     0.414 C 
BRANCH  28  29
HETATM   29  N6  UNL     1     117.050  57.886  18.241  1.00  0.00    -0.046 N 
ATOM     30  H63 UNL     1     117.110  57.083  17.613  1.00  0.00     0.277 HD
ATOM     31  H62 UNL     1     116.540  57.420  18.992  1.00  0.00     0.277 HD
ATOM     32  H61 UNL     1     116.547  58.677  17.840  1.00  0.00     0.277 HD
ENDBRANCH  28  29
BRANCH  28  33
HETATM   33  N7  UNL     1     118.662  57.915  19.985  1.00  0.00    -0.046 N 
ATOM     34  H73 UNL     1     117.917  57.345  20.384  1.00  0.00     0.277 HD
ATOM     35  H72 UNL     1     119.392  57.202  19.990  1.00  0.00     0.277 HD
ATOM     36  H71 UNL     1     118.893  58.725  20.559  1.00  0.00     0.277 HD
ENDBRANCH  28  33
ENDBRANCH   6  28
BRANCH   4  37
HETATM   37  N3  UNL     1     119.314  54.969  15.334  1.00  0.00    -0.309 N 
HETATM   38  C21 UNL     1     119.530  53.621  15.587  1.00  0.00     0.323 C 
HETATM   39  O4  UNL     1     120.231  53.258  16.567  1.00  0.00    -0.247 OA
HETATM   40  N4  UNL     1     118.990  52.595  14.775  1.00  0.00    -0.331 N 
HETATM   41  C22 UNL     1     118.169  52.782  13.619  1.00  0.00     0.147 C 
HETATM   42  C26 UNL     1     119.271  51.197  15.136  1.00  0.00     0.147 C 
HETATM   43  C23 UNL     1     118.757  51.995  12.462  1.00  0.00     0.136 C 
HETATM   44  N5  UNL     1     119.017  50.627  12.748  1.00  0.00    -0.414 N 
HETATM   45  C24 UNL     1     117.963  49.708  12.445  1.00  0.00     0.143 C 
HETATM   46  C25 UNL     1     119.720  50.393  13.964  1.00  0.00     0.136 C 
ATOM     47  H3  UNL     1     118.741  55.192  14.521  1.00  0.00     0.170 HD
ENDBRANCH   4  37
TORSDOF 14
ENDMDL
MODEL 4
REMARK VINA RESULT: -8.191277232      1.229      1.731
REMARK  14 active torsions:
REMARK  status: ('A' for Active; 'I' for Inactive)
REMARK    1  A    between atoms: C2_2  and  C3_3 
REMARK    2  A    between atoms: C3_3  and  O1_4 
REMARK    3  A    between atoms: O1_4  and  C4_5 
REMARK    4  A    between atoms: C5_6  and  O2_7 
REMARK    5  A    between atoms: O2_7  and  C6_8 
REMARK    6  A    between atoms: C6_8  and  C7_9 
REMARK    7  A    between atoms: C7_9  and  C8_10 
REMARK    8  A    between atoms: C8_10  and  C9_11 
REMARK    9  A    between atoms: C9_11  and  N1_12 
REMARK       I    between atoms: N2_15  and  C12_16 
REMARK   10  A    between atoms: C12_16  and  C13_18 
REMARK   11  A    between atoms: C20_25  and  N3_26 
REMARK       I    between atoms: N3_26  and  C21_28 
REMARK       I    between atoms: C21_28  and  N4_30 
REMARK   12  A    between atoms: C28_38  and  C29_39 
REMARK   13  A    between atoms: C29_39  and  N6_40 
REMARK   14  A    between atoms: C29_39  and  N7_44 
ROOT
HETATM    1  C4  UNL     1     123.637  59.639  19.690  1.00  0.00     0.112 A 
HETATM    2  C5  UNL     1     122.488  59.133  19.139  1.00  0.00     0.104 A 
HETATM    3  C19 UNL     1     122.548  58.222  18.073  1.00  0.00     0.069 A 
HETATM    4  C20 UNL     1     123.735  57.806  17.545  1.00  0.00     0.039 A 
HETATM    5  C27 UNL     1     124.907  58.327  18.110  1.00  0.00     0.043 A 
HETATM    6  C28 UNL     1     124.840  59.222  19.158  1.00  0.00     0.037 A 
ENDROOT
BRANCH   2   7
HETATM    7  O2  UNL     1     121.281  59.558  19.676  1.00  0.00    -0.348 OA
BRANCH   7   8
HETATM    8  C6  UNL     1     120.257  58.551  19.786  1.00  0.00     0.176 C 
BRANCH   8   9
HETATM    9  C7  UNL     1     119.309  58.612  18.636  1.00  0.00     0.028 C 
BRANCH   9  10
HETATM   10  C8  UNL     1     119.028  57.219  18.141  1.00  0.00     0.032 C 
BRANCH  10  11
HETATM   11  C9  UNL     1     119.211  57.144  16.671  1.00  0.00     0.272 C 
BRANCH  11  12
HETATM   12  N1  UNL     1     120.388  56.311  16.349  1.00  0.00     0.091 N 
HETATM   13  C10 UNL     1     120.338  56.107  14.944  1.00  0.00     0.292 C 
HETATM   14  C11 UNL     1     120.610  54.762  14.407  1.00  0.00     0.156 C 
HETATM   15  N2  UNL     1     120.195  53.726  15.330  1.00  0.00    -0.348 N 
HETATM   16  C12 UNL     1     119.305  52.691  15.016  1.00  0.00     0.224 C 
HETATM   17  C17 UNL     1     120.789  53.872  16.644  1.00  0.00     0.156 C 
HETATM   18  O3  UNL     1     119.045  51.838  15.903  1.00  0.00    -0.273 OA
HETATM   19  C18 UNL     1     120.272  55.172  17.186  1.00  0.00     0.292 C 
BRANCH  16  20
HETATM   20  C13 UNL     1     118.641  52.527  13.707  1.00  0.00     0.078 C 
HETATM   21  C14 UNL     1     119.128  51.379  12.853  1.00  0.00     0.014 C 
HETATM   22  C15 UNL     1     117.672  51.177  12.437  1.00  0.00     0.002 C 
HETATM   23  C16 UNL     1     117.306  51.810  13.763  1.00  0.00     0.014 C 
ENDBRANCH  16  20
ENDBRANCH  11  12
ENDBRANCH  10  11
ENDBRANCH   9  10
ENDBRANCH   8   9
ENDBRANCH   7   8
ENDBRANCH   2   7
BRANCH   1  24
HETATM   24  O1  UNL     1     123.679  60.540  20.743  1.00  0.00    -0.348 OA
BRANCH  24  25
HETATM   25  C3  UNL     1     123.934  61.913  20.574  1.00  0.00     0.175 C 
BRANCH  25  26
HETATM   26  C2  UNL     1     124.565  62.456  21.837  1.00  0.00     0.022 C 
HETATM   27  C1  UNL     1     126.036  62.727  21.656  1.00  0.00     0.007 C 
ENDBRANCH  25  26
ENDBRANCH  24  25
ENDBRANCH   1  24
BRANCH   6  28
HETATM   28  C29 UNL     1     126.140  59.719  19.691  1.00  0.00     0.414 C 
BRANCH  28  29
HETATM   29  N6  UNL     1     126.387  58.977  20.925  1.00  0.00    -0.046 N 
ATOM     30  H63 UNL     1     125.543  58.571  21.329  1.00  0.00     0.277 HD
ATOM     31  H62 UNL     1     126.889  58.102  20.777  1.00  0.00     0.277 HD
ATOM     32  H61 UNL     1     126.869  59.620  21.553  1.00  0.00     0.277 HD
ENDBRANCH  28  29
BRANCH  28  33
HETATM   33  N7  UNL     1     127.162  59.395  18.719  1.00  0.00    -0.046 N 
ATOM     34  H73 UNL     1     127.113  59.975  17.882  1.00  0.00     0.277 HD
ATOM     35  H72 UNL     1     128.097  59.673  19.018  1.00  0.00     0.277 HD
ATOM     36  H71 UNL     1     127.089  58.398  18.516  1.00  0.00     0.277 HD
ENDBRANCH  28  33
ENDBRANCH   6  28
BRANCH   4  37
HETATM   37  N3  UNL     1     123.862  56.851  16.484  1.00  0.00    -0.309 N 
HETATM   38  C21 UNL     1     123.972  55.473  16.606  1.00  0.00     0.323 C 
HETATM   39  O4  UNL     1     123.976  54.930  17.741  1.00  0.00    -0.247 OA
HETATM   40  N4  UNL     1     124.090  54.614  15.488  1.00  0.00    -0.331 N 
HETATM   41  C22 UNL     1     124.107  55.018  14.116  1.00  0.00     0.147 C 
HETATM   42  C26 UNL     1     124.192  53.166  15.726  1.00  0.00     0.147 C 
HETATM   43  C23 UNL     1     125.318  54.405  13.436  1.00  0.00     0.136 C 
HETATM   44  N5  UNL     1     125.445  52.999  13.606  1.00  0.00    -0.414 N 
HETATM   45  C24 UNL     1     124.841  52.184  12.598  1.00  0.00     0.143 C 
HETATM   46  C25 UNL     1     125.301  52.545  14.949  1.00  0.00     0.136 C 
ATOM     47  H3  UNL     1     123.872  57.225  15.536  1.00  0.00     0.170 HD
ENDBRANCH   4  37
TORSDOF 14
ENDMDL
MODEL 5
REMARK VINA RESULT: -8.155212379      2.293      5.531
REMARK  14 active torsions:
REMARK  status: ('A' for Active; 'I' for Inactive)
REMARK    1  A    between atoms: C2_2  and  C3_3 
REMARK    2  A    between atoms: C3_3  and  O1_4 
REMARK    3  A    between atoms: O1_4  and  C4_5 
REMARK    4  A    between atoms: C5_6  and  O2_7 
REMARK    5  A    between atoms: O2_7  and  C6_8 
REMARK    6  A    between atoms: C6_8  and  C7_9 
REMARK    7  A    between atoms: C7_9  and  C8_10 
REMARK    8  A    between atoms: C8_10  and  C9_11 
REMARK    9  A    between atoms: C9_11  and  N1_12 
REMARK       I    between atoms: N2_15  and  C12_16 
REMARK   10  A    between atoms: C12_16  and  C13_18 
REMARK   11  A    between atoms: C20_25  and  N3_26 
REMARK       I    between atoms: N3_26  and  C21_28 
REMARK       I    between atoms: C21_28  and  N4_30 
REMARK   12  A    between atoms: C28_38  and  C29_39 
REMARK   13  A    between atoms: C29_39  and  N6_40 
REMARK   14  A    between atoms: C29_39  and  N7_44 
ROOT
HETATM    1  C4  UNL     1     120.974  58.354  17.682  1.00  0.00     0.112 A 
HETATM    2  C5  UNL     1     121.779  57.717  16.773  1.00  0.00     0.104 A 
HETATM    3  C19 UNL     1     121.297  56.627  16.031  1.00  0.00     0.069 A 
HETATM    4  C20 UNL     1     120.025  56.160  16.180  1.00  0.00     0.039 A 
HETATM    5  C27 UNL     1     119.205  56.813  17.111  1.00  0.00     0.043 A 
HETATM    6  C28 UNL     1     119.686  57.883  17.836  1.00  0.00     0.037 A 
ENDROOT
BRANCH   2   7
HETATM    7  O2  UNL     1     123.075  58.192  16.624  1.00  0.00    -0.348 OA
BRANCH   7   8
HETATM    8  C6  UNL     1     124.067  57.576  17.469  1.00  0.00     0.176 C 
BRANCH   8   9
HETATM    9  C7  UNL     1     124.976  56.694  16.682  1.00  0.00     0.028 C 
BRANCH   9  10
HETATM   10  C8  UNL     1     124.716  55.256  17.041  1.00  0.00     0.032 C 
BRANCH  10  11
HETATM   11  C9  UNL     1     125.377  54.351  16.070  1.00  0.00     0.272 C 
BRANCH  11  12
HETATM   12  N1  UNL     1     124.503  54.139  14.898  1.00  0.00     0.091 N 
HETATM   13  C10 UNL     1     123.488  53.247  15.334  1.00  0.00     0.292 C 
HETATM   14  C11 UNL     1     123.089  52.133  14.454  1.00  0.00     0.156 C 
HETATM   15  N2  UNL     1     124.198  51.669  13.647  1.00  0.00    -0.348 N 
HETATM   16  C12 UNL     1     124.660  50.347  13.613  1.00  0.00     0.224 C 
HETATM   17  C17 UNL     1     124.809  52.729  12.869  1.00  0.00     0.156 C 
HETATM   18  O3  UNL     1     125.618  50.070  12.847  1.00  0.00    -0.273 OA
HETATM   19  C18 UNL     1     125.371  53.698  13.867  1.00  0.00     0.292 C 
BRANCH  16  20
HETATM   20  C13 UNL     1     124.099  49.244  14.420  1.00  0.00     0.078 C 
HETATM   21  C14 UNL     1     122.995  48.441  13.771  1.00  0.00     0.014 C 
HETATM   22  C15 UNL     1     123.613  47.210  14.434  1.00  0.00     0.002 C 
HETATM   23  C16 UNL     1     124.922  47.971  14.404  1.00  0.00     0.014 C 
ENDBRANCH  16  20
ENDBRANCH  11  12
ENDBRANCH  10  11
ENDBRANCH   9  10
ENDBRANCH   8   9
ENDBRANCH   7   8
ENDBRANCH   2   7
BRANCH   1  24
HETATM   24  O1  UNL     1     121.359  59.436  18.458  1.00  0.00    -0.348 OA
BRANCH  24  25
HETATM   25  C3  UNL     1     122.076  59.307  19.661  1.00  0.00     0.175 C 
BRANCH  25  26
HETATM   26  C2  UNL     1     121.782  60.502  20.541  1.00  0.00     0.022 C 
HETATM   27  C1  UNL     1     120.801  61.445  19.894  1.00  0.00     0.007 C 
ENDBRANCH  25  26
ENDBRANCH  24  25
ENDBRANCH   1  24
BRANCH   6  28
HETATM   28  C29 UNL     1     118.739  58.511  18.800  1.00  0.00     0.414 C 
BRANCH  28  29
HETATM   29  N6  UNL     1     117.405  58.055  18.420  1.00  0.00    -0.046 N 
ATOM     30  H63 UNL     1     117.352  57.050  18.253  1.00  0.00     0.277 HD
ATOM     31  H62 UNL     1     116.731  58.090  19.186  1.00  0.00     0.277 HD
ATOM     32  H61 UNL     1     117.131  58.615  17.613  1.00  0.00     0.277 HD
ENDBRANCH  28  29
BRANCH  28  33
HETATM   33  N7  UNL     1     119.064  58.009  20.119  1.00  0.00    -0.046 N 
ATOM     34  H73 UNL     1     118.326  57.429  20.517  1.00  0.00     0.277 HD
ATOM     35  H72 UNL     1     119.797  57.301  20.104  1.00  0.00     0.277 HD
ATOM     36  H71 UNL     1     119.297  58.811  20.704  1.00  0.00     0.277 HD
ENDBRANCH  28  33
ENDBRANCH   6  28
BRANCH   4  37
HETATM   37  N3  UNL     1     119.464  55.079  15.425  1.00  0.00    -0.309 N 
HETATM   38  C21 UNL     1     119.614  53.720  15.667  1.00  0.00     0.323 C 
HETATM   39  O4  UNL     1     120.311  53.317  16.634  1.00  0.00    -0.247 OA
HETATM   40  N4  UNL     1     119.011  52.728  14.859  1.00  0.00    -0.331 N 
HETATM   41  C22 UNL     1     118.183  52.964  13.717  1.00  0.00     0.147 C 
HETATM   42  C26 UNL     1     119.226  51.315  15.208  1.00  0.00     0.147 C 
HETATM   43  C23 UNL     1     118.712  52.154  12.547  1.00  0.00     0.136 C 
HETATM   44  N5  UNL     1     118.906  50.773  12.822  1.00  0.00    -0.414 N 
HETATM   45  C24 UNL     1     117.802  49.911  12.531  1.00  0.00     0.143 C 
HETATM   46  C25 UNL     1     119.615  50.497  14.026  1.00  0.00     0.136 C 
ATOM     47  H3  UNL     1     118.890  55.335  14.622  1.00  0.00     0.170 HD
ENDBRANCH   4  37
TORSDOF 14
ENDMDL
