MODEL 1
REMARK VINA RESULT: -9.221386058      0.000      0.000
REMARK  13 active torsions:
REMARK  status: ('A' for Active; 'I' for Inactive)
REMARK    1  A    between atoms: C2_2  and  C3_3 
REMARK    2  A    between atoms: C3_3  and  C4_4 
REMARK    3  A    between atoms: C4_4  and  N1_5 
REMARK    4  A    between atoms: N1_5  and  C5_7 
REMARK    5  A    between atoms: C6_10  and  N3_11 
REMARK    6  A    between atoms: N7_24  and  C12_25 
REMARK    7  A    between atoms: N8_28  and  C15_29 
REMARK    8  A    between atoms: C15_29  and  C16_30 
REMARK    9  A    between atoms: C16_30  and  N9_31 
REMARK   10  A    between atoms: C19_34  and  C20_35 
REMARK   11  A    between atoms: C26_41  and  N10_42 
REMARK   12  A    between atoms: N10_42  and  C27_43 
REMARK   13  A    between atoms: C27_43  and  C28_44 
ROOT
HETATM    1  N3  UNL     1      72.288  51.781  12.928  1.00  0.00    -0.326 N 
ATOM      2  H3  UNL     1      72.994  51.559  12.226  1.00  0.00     0.169 HD
HETATM    3  C7  UNL     1      72.379  52.896  13.498  1.00  0.00     0.139 A 
HETATM    4  N4  UNL     1      73.395  53.741  13.159  1.00  0.00    -0.337 N 
ATOM      5  H4  UNL     1      74.074  53.475  12.447  1.00  0.00     0.168 HD
HETATM    6  C8  UNL     1      73.486  54.914  13.769  1.00  0.00     0.183 A 
HETATM    7  N5  UNL     1      72.636  55.341  14.714  1.00  0.00    -0.336 N 
ATOM      8  H5  UNL     1      72.762  56.258  15.144  1.00  0.00     0.168 HD
HETATM    9  C9  UNL     1      71.604  54.537  15.095  1.00  0.00     0.140 A 
HETATM   10  C10 UNL     1      71.499  53.318  14.470  1.00  0.00     0.122 A 
HETATM   11  N6  UNL     1      70.407  52.727  15.026  1.00  0.00    -0.346 N 
ATOM     12  H6  UNL     1      70.049  51.804  14.785  1.00  0.00     0.167 HD
HETATM   13  C11 UNL     1      69.880  53.544  15.935  1.00  0.00     0.185 A 
HETATM   14  N7  UNL     1      70.618  54.682  15.987  1.00  0.00    -0.322 N 
ENDROOT
BRANCH   1  15
HETATM   15  C6  UNL     1      71.307  50.815  13.168  1.00  0.00     0.127 A 
HETATM   16  N2  UNL     1      71.643  49.721  13.910  1.00  0.00    -0.176 N 
HETATM   17  C5  UNL     1      70.781  48.733  14.181  1.00  0.00     0.682 A 
ATOM     18  H2  UNL     1      72.594  49.653  14.275  1.00  0.00     0.186 HD
HETATM   19  N11 UNL     1      69.539  48.828  13.704  1.00  0.00    -0.164 N 
HETATM   20  C26 UNL     1      69.084  49.879  12.948  1.00  0.00     0.196 A 
ATOM     21  H11 UNL     1      68.887  48.073  13.915  1.00  0.00     0.187 HD
HETATM   22  C25 UNL     1      70.021  50.876  12.696  1.00  0.00     0.113 A 
BRANCH  17  23
HETATM   23  N1  UNL     1      71.123  47.685  14.896  1.00  0.00    -0.226 N 
ATOM     24  H1  UNL     1      70.383  47.119  15.311  1.00  0.00     0.177 HD
BRANCH  23  25
HETATM   25  C4  UNL     1      72.472  47.301  15.121  1.00  0.00     0.142 C 
BRANCH  25  26
HETATM   26  C3  UNL     1      72.777  47.155  16.615  1.00  0.00     0.046 C 
BRANCH  26  27
HETATM   27  C2  UNL     1      73.896  46.163  16.809  1.00  0.00    -0.035 C 
HETATM   28  C1  UNL     1      74.374  45.959  18.015  1.00  0.00     0.007 C 
ENDBRANCH  26  27
ENDBRANCH  25  26
ENDBRANCH  23  25
ENDBRANCH  17  23
BRANCH  20  29
HETATM   29  N10 UNL     1      67.968  49.945  12.544  1.00  0.00    -0.403 NA
BRANCH  29  30
HETATM   30  C27 UNL     1      66.647  50.238  12.482  1.00  0.00     0.162 C 
BRANCH  30  31
HETATM   31  C28 UNL     1      66.291  51.725  12.655  1.00  0.00     0.038 A 
HETATM   32  C29 UNL     1      66.666  52.303  13.990  1.00  0.00     0.011 A 
HETATM   33  C30 UNL     1      65.204  52.073  13.591  1.00  0.00     0.011 A 
ENDBRANCH  30  31
ENDBRANCH  29  30
ENDBRANCH  20  29
ENDBRANCH   1  15
BRANCH  14  34
HETATM   34  C12 UNL     1      70.338  55.809  16.861  1.00  0.00     0.098 C 
HETATM   35  C13 UNL     1      71.551  56.161  17.693  1.00  0.00     0.046 C 
HETATM   36  C14 UNL     1      71.183  57.247  18.657  1.00  0.00     0.129 C 
HETATM   37  N8  UNL     1      70.573  58.387  18.018  1.00  0.00    -0.372 N 
HETATM   38  C23 UNL     1      69.504  58.078  17.160  1.00  0.00     0.065 C 
HETATM   39  C24 UNL     1      69.915  57.053  16.124  1.00  0.00     0.070 C 
BRANCH  37  40
HETATM   40  C15 UNL     1      70.530  59.553  18.803  1.00  0.00     0.082 C 
BRANCH  40  41
HETATM   41  C16 UNL     1      71.505  59.615  19.938  1.00  0.00     0.161 C 
BRANCH  41  42
HETATM   42  N9  UNL     1      72.634  60.429  19.647  1.00  0.00    -0.408 N 
HETATM   43  C17 UNL     1      73.060  61.339  20.646  1.00  0.00     0.117 C 
HETATM   44  C18 UNL     1      74.467  61.749  20.233  1.00  0.00     0.026 C 
HETATM   45  C19 UNL     1      74.873  60.804  19.137  1.00  0.00     0.004 C 
HETATM   46  C22 UNL     1      73.745  59.790  19.033  1.00  0.00     0.121 C 
BRANCH  45  47
HETATM   47  C20 UNL     1      76.161  60.115  19.583  1.00  0.00     0.002 C 
HETATM   48  C21 UNL     1      75.931  58.685  19.962  1.00  0.00     0.005 C 
ENDBRANCH  45  47
ENDBRANCH  41  42
ENDBRANCH  40  41
ENDBRANCH  37  40
ENDBRANCH  14  34
TORSDOF 13
ENDMDL
MODEL 2
REMARK VINA RESULT: -9.099325085      1.336      4.203
REMARK  13 active torsions:
REMARK  status: ('A' for Active; 'I' for Inactive)
REMARK    1  A    between atoms: C2_2  and  C3_3 
REMARK    2  A    between atoms: C3_3  and  C4_4 
REMARK    3  A    between atoms: C4_4  and  N1_5 
REMARK    4  A    between atoms: N1_5  and  C5_7 
REMARK    5  A    between atoms: C6_10  and  N3_11 
REMARK    6  A    between atoms: N7_24  and  C12_25 
REMARK    7  A    between atoms: N8_28  and  C15_29 
REMARK    8  A    between atoms: C15_29  and  C16_30 
REMARK    9  A    between atoms: C16_30  and  N9_31 
REMARK   10  A    between atoms: C19_34  and  C20_35 
REMARK   11  A    between atoms: C26_41  and  N10_42 
REMARK   12  A    between atoms: N10_42  and  C27_43 
REMARK   13  A    between atoms: C27_43  and  C28_44 
ROOT
HETATM    1  N3  UNL     1      71.277  51.740  12.681  1.00  0.00    -0.326 N 
ATOM      2  H3  UNL     1      71.837  51.507  11.860  1.00  0.00     0.169 HD
HETATM    3  C7  UNL     1      71.687  52.682  13.402  1.00  0.00     0.139 A 
HETATM    4  N4  UNL     1      72.834  53.337  13.063  1.00  0.00    -0.337 N 
ATOM      5  H4  UNL     1      73.356  53.069  12.229  1.00  0.00     0.168 HD
HETATM    6  C8  UNL     1      73.261  54.327  13.833  1.00  0.00     0.183 A 
HETATM    7  N5  UNL     1      72.637  54.743  14.944  1.00  0.00    -0.336 N 
ATOM      8  H5  UNL     1      73.018  55.513  15.493  1.00  0.00     0.168 HD
HETATM    9  C9  UNL     1      71.486  54.124  15.333  1.00  0.00     0.140 A 
HETATM   10  C10 UNL     1      71.034  53.094  14.543  1.00  0.00     0.122 A 
HETATM   11  N6  UNL     1      69.894  52.660  15.146  1.00  0.00    -0.346 N 
ATOM     12  H6  UNL     1      69.305  51.897  14.813  1.00  0.00     0.167 HD
HETATM   13  C11 UNL     1      69.669  53.386  16.238  1.00  0.00     0.185 A 
HETATM   14  N7  UNL     1      70.658  54.308  16.367  1.00  0.00    -0.322 N 
ENDROOT
BRANCH   1  15
HETATM   15  C6  UNL     1      70.124  50.981  12.899  1.00  0.00     0.127 A 
HETATM   16  N2  UNL     1      68.922  51.508  12.527  1.00  0.00    -0.176 N 
HETATM   17  C5  UNL     1      67.759  50.869  12.710  1.00  0.00     0.682 A 
ATOM     18  H2  UNL     1      68.908  52.430  12.090  1.00  0.00     0.186 HD
HETATM   19  N11 UNL     1      67.784  49.663  13.279  1.00  0.00    -0.164 N 
HETATM   20  C26 UNL     1      68.928  49.031  13.694  1.00  0.00     0.196 A 
ATOM     21  H11 UNL     1      66.895  49.180  13.415  1.00  0.00     0.187 HD
HETATM   22  C25 UNL     1      70.106  49.739  13.481  1.00  0.00     0.113 A 
BRANCH  17  23
HETATM   23  N1  UNL     1      66.611  51.392  12.346  1.00  0.00    -0.226 N 
ATOM     24  H1  UNL     1      66.406  51.465  11.350  1.00  0.00     0.177 HD
BRANCH  23  25
HETATM   25  C4  UNL     1      65.640  51.862  13.271  1.00  0.00     0.142 C 
BRANCH  25  26
HETATM   26  C3  UNL     1      66.289  52.605  14.443  1.00  0.00     0.046 C 
BRANCH  26  27
HETATM   27  C2  UNL     1      66.347  54.081  14.137  1.00  0.00    -0.035 C 
HETATM   28  C1  UNL     1      66.711  54.920  15.078  1.00  0.00     0.007 C 
ENDBRANCH  26  27
ENDBRANCH  25  26
ENDBRANCH  23  25
ENDBRANCH  17  23
BRANCH  20  29
HETATM   29  N10 UNL     1      68.923  47.949  14.189  1.00  0.00    -0.403 NA
BRANCH  29  30
HETATM   30  C27 UNL     1      68.717  46.622  14.355  1.00  0.00     0.162 C 
BRANCH  30  31
HETATM   31  C28 UNL     1      69.971  45.794  14.687  1.00  0.00     0.038 A 
HETATM   32  C29 UNL     1      71.098  46.587  15.286  1.00  0.00     0.011 A 
HETATM   33  C30 UNL     1      71.180  46.009  13.869  1.00  0.00     0.011 A 
ENDBRANCH  30  31
ENDBRANCH  29  30
ENDBRANCH  20  29
ENDBRANCH   1  15
BRANCH  14  34
HETATM   34  C12 UNL     1      70.742  55.285  17.440  1.00  0.00     0.098 C 
HETATM   35  C13 UNL     1      72.170  55.741  17.642  1.00  0.00     0.046 C 
HETATM   36  C14 UNL     1      72.226  56.655  18.827  1.00  0.00     0.129 C 
HETATM   37  N8  UNL     1      71.280  57.741  18.750  1.00  0.00    -0.372 N 
HETATM   38  C23 UNL     1      69.960  57.352  18.463  1.00  0.00     0.065 C 
HETATM   39  C24 UNL     1      69.901  56.512  17.205  1.00  0.00     0.070 C 
BRANCH  37  40
HETATM   40  C15 UNL     1      71.522  58.803  19.639  1.00  0.00     0.082 C 
BRANCH  40  41
HETATM   41  C16 UNL     1      71.533  60.174  19.036  1.00  0.00     0.161 C 
BRANCH  41  42
HETATM   42  N9  UNL     1      72.798  60.811  19.148  1.00  0.00    -0.408 N 
HETATM   43  C17 UNL     1      73.079  61.505  20.350  1.00  0.00     0.117 C 
HETATM   44  C18 UNL     1      74.586  61.716  20.344  1.00  0.00     0.026 C 
HETATM   45  C19 UNL     1      75.123  60.855  19.235  1.00  0.00     0.004 C 
HETATM   46  C22 UNL     1      73.931  60.070  18.712  1.00  0.00     0.121 C 
BRANCH  45  47
HETATM   47  C20 UNL     1      76.150  59.905  19.850  1.00  0.00     0.002 C 
HETATM   48  C21 UNL     1      75.539  58.598  20.249  1.00  0.00     0.005 C 
ENDBRANCH  45  47
ENDBRANCH  41  42
ENDBRANCH  40  41
ENDBRANCH  37  40
ENDBRANCH  14  34
TORSDOF 13
ENDMDL
MODEL 3
REMARK VINA RESULT: -8.991358211      1.798      4.026
REMARK  13 active torsions:
REMARK  status: ('A' for Active; 'I' for Inactive)
REMARK    1  A    between atoms: C2_2  and  C3_3 
REMARK    2  A    between atoms: C3_3  and  C4_4 
REMARK    3  A    between atoms: C4_4  and  N1_5 
REMARK    4  A    between atoms: N1_5  and  C5_7 
REMARK    5  A    between atoms: C6_10  and  N3_11 
REMARK    6  A    between atoms: N7_24  and  C12_25 
REMARK    7  A    between atoms: N8_28  and  C15_29 
REMARK    8  A    between atoms: C15_29  and  C16_30 
REMARK    9  A    between atoms: C16_30  and  N9_31 
REMARK   10  A    between atoms: C19_34  and  C20_35 
REMARK   11  A    between atoms: C26_41  and  N10_42 
REMARK   12  A    between atoms: N10_42  and  C27_43 
REMARK   13  A    between atoms: C27_43  and  C28_44 
ROOT
HETATM    1  N3  UNL     1      71.592  51.993  12.695  1.00  0.00    -0.326 N 
ATOM      2  H3  UNL     1      72.146  51.783  11.865  1.00  0.00     0.169 HD
HETATM    3  C7  UNL     1      71.991  52.935  13.423  1.00  0.00     0.139 A 
HETATM    4  N4  UNL     1      73.119  53.619  13.079  1.00  0.00    -0.337 N 
ATOM      5  H4  UNL     1      73.636  53.372  12.235  1.00  0.00     0.168 HD
HETATM    6  C8  UNL     1      73.535  54.608  13.855  1.00  0.00     0.183 A 
HETATM    7  N5  UNL     1      72.916  54.996  14.980  1.00  0.00    -0.336 N 
ATOM      8  H5  UNL     1      73.288  55.768  15.533  1.00  0.00     0.168 HD
HETATM    9  C9  UNL     1      71.784  54.347  15.375  1.00  0.00     0.140 A 
HETATM   10  C10 UNL     1      71.344  53.319  14.577  1.00  0.00     0.122 A 
HETATM   11  N6  UNL     1      70.222  52.852  15.189  1.00  0.00    -0.346 N 
ATOM     12  H6  UNL     1      69.645  52.081  14.854  1.00  0.00     0.167 HD
HETATM   13  C11 UNL     1      69.995  53.560  16.293  1.00  0.00     0.185 A 
HETATM   14  N7  UNL     1      70.965  54.501  16.421  1.00  0.00    -0.322 N 
ENDROOT
BRANCH   1  15
HETATM   15  C6  UNL     1      70.458  51.207  12.919  1.00  0.00     0.127 A 
HETATM   16  N2  UNL     1      69.238  51.725  12.598  1.00  0.00    -0.176 N 
HETATM   17  C5  UNL     1      68.092  51.059  12.790  1.00  0.00     0.682 A 
ATOM     18  H2  UNL     1      69.197  52.661  12.194  1.00  0.00     0.186 HD
HETATM   19  N11 UNL     1      68.152  49.835  13.316  1.00  0.00    -0.164 N 
HETATM   20  C26 UNL     1      69.318  49.209  13.677  1.00  0.00     0.196 A 
ATOM     21  H11 UNL     1      67.276  49.332  13.459  1.00  0.00     0.187 HD
HETATM   22  C25 UNL     1      70.478  49.946  13.457  1.00  0.00     0.113 A 
BRANCH  17  23
HETATM   23  N1  UNL     1      66.925  51.575  12.476  1.00  0.00    -0.226 N 
ATOM     24  H1  UNL     1      66.306  51.038  11.869  1.00  0.00     0.177 HD
BRANCH  23  25
HETATM   25  C4  UNL     1      66.482  52.842  12.941  1.00  0.00     0.142 C 
BRANCH  25  26
HETATM   26  C3  UNL     1      66.587  52.953  14.465  1.00  0.00     0.046 C 
BRANCH  26  27
HETATM   27  C2  UNL     1      66.634  54.407  14.864  1.00  0.00    -0.035 C 
HETATM   28  C1  UNL     1      66.723  54.723  16.135  1.00  0.00     0.007 C 
ENDBRANCH  26  27
ENDBRANCH  25  26
ENDBRANCH  23  25
ENDBRANCH  17  23
BRANCH  20  29
HETATM   29  N10 UNL     1      69.345  48.112  14.134  1.00  0.00    -0.403 NA
BRANCH  29  30
HETATM   30  C27 UNL     1      69.441  46.763  14.214  1.00  0.00     0.162 C 
BRANCH  30  31
HETATM   31  C28 UNL     1      68.113  46.019  14.440  1.00  0.00     0.038 A 
HETATM   32  C29 UNL     1      67.859  44.895  13.477  1.00  0.00     0.011 A 
HETATM   33  C30 UNL     1      67.043  46.191  13.439  1.00  0.00     0.011 A 
ENDBRANCH  30  31
ENDBRANCH  29  30
ENDBRANCH  20  29
ENDBRANCH   1  15
BRANCH  14  34
HETATM   34  C12 UNL     1      71.042  55.466  17.505  1.00  0.00     0.098 C 
HETATM   35  C13 UNL     1      72.437  56.040  17.618  1.00  0.00     0.046 C 
HETATM   36  C14 UNL     1      72.499  56.938  18.815  1.00  0.00     0.129 C 
HETATM   37  N8  UNL     1      71.462  57.940  18.825  1.00  0.00    -0.372 N 
HETATM   38  C23 UNL     1      70.163  57.445  18.622  1.00  0.00     0.065 C 
HETATM   39  C24 UNL     1      70.086  56.621  17.354  1.00  0.00     0.070 C 
BRANCH  37  40
HETATM   40  C15 UNL     1      71.677  59.006  19.717  1.00  0.00     0.082 C 
BRANCH  40  41
HETATM   41  C16 UNL     1      71.689  60.375  19.110  1.00  0.00     0.161 C 
BRANCH  41  42
HETATM   42  N9  UNL     1      72.958  61.008  19.211  1.00  0.00    -0.408 N 
HETATM   43  C17 UNL     1      73.255  61.693  20.415  1.00  0.00     0.117 C 
HETATM   44  C18 UNL     1      74.763  61.898  20.392  1.00  0.00     0.026 C 
HETATM   45  C19 UNL     1      75.284  61.043  19.271  1.00  0.00     0.004 C 
HETATM   46  C22 UNL     1      74.082  60.266  18.758  1.00  0.00     0.121 C 
BRANCH  45  47
HETATM   47  C20 UNL     1      76.314  60.085  19.868  1.00  0.00     0.002 C 
HETATM   48  C21 UNL     1      75.766  58.702  20.035  1.00  0.00     0.005 C 
ENDBRANCH  45  47
ENDBRANCH  41  42
ENDBRANCH  40  41
ENDBRANCH  37  40
ENDBRANCH  14  34
TORSDOF 13
ENDMDL
MODEL 4
REMARK VINA RESULT: -8.928282707      1.053      1.451
REMARK  13 active torsions:
REMARK  status: ('A' for Active; 'I' for Inactive)
REMARK    1  A    between atoms: C2_2  and  C3_3 
REMARK    2  A    between atoms: C3_3  and  C4_4 
REMARK    3  A    between atoms: C4_4  and  N1_5 
REMARK    4  A    between atoms: N1_5  and  C5_7 
REMARK    5  A    between atoms: C6_10  and  N3_11 
REMARK    6  A    between atoms: N7_24  and  C12_25 
REMARK    7  A    between atoms: N8_28  and  C15_29 
REMARK    8  A    between atoms: C15_29  and  C16_30 
REMARK    9  A    between atoms: C16_30  and  N9_31 
REMARK   10  A    between atoms: C19_34  and  C20_35 
REMARK   11  A    between atoms: C26_41  and  N10_42 
REMARK   12  A    between atoms: N10_42  and  C27_43 
REMARK   13  A    between atoms: C27_43  and  C28_44 
ROOT
HETATM    1  N3  UNL     1      72.371  51.906  12.954  1.00  0.00    -0.326 N 
ATOM      2  H3  UNL     1      73.086  51.705  12.255  1.00  0.00     0.169 HD
HETATM    3  C7  UNL     1      72.432  53.020  13.530  1.00  0.00     0.139 A 
HETATM    4  N4  UNL     1      73.429  53.891  13.201  1.00  0.00    -0.337 N 
ATOM      5  H4  UNL     1      74.118  53.645  12.492  1.00  0.00     0.168 HD
HETATM    6  C8  UNL     1      73.489  55.063  13.817  1.00  0.00     0.183 A 
HETATM    7  N5  UNL     1      72.624  55.464  14.760  1.00  0.00    -0.336 N 
ATOM      8  H5  UNL     1      72.725  56.381  15.195  1.00  0.00     0.168 HD
HETATM    9  C9  UNL     1      71.608  54.634  15.130  1.00  0.00     0.140 A 
HETATM   10  C10 UNL     1      71.537  53.416  14.499  1.00  0.00     0.122 A 
HETATM   11  N6  UNL     1      70.456  52.797  15.045  1.00  0.00    -0.346 N 
ATOM     12  H6  UNL     1      70.121  51.866  14.797  1.00  0.00     0.167 HD
HETATM   13  C11 UNL     1      69.904  53.596  15.955  1.00  0.00     0.185 A 
HETATM   14  N7  UNL     1      70.615  54.751  16.017  1.00  0.00    -0.322 N 
ENDROOT
BRANCH   1  15
HETATM   15  C6  UNL     1      71.412  50.916  13.183  1.00  0.00     0.127 A 
HETATM   16  N2  UNL     1      71.781  49.807  13.886  1.00  0.00    -0.176 N 
HETATM   17  C5  UNL     1      70.942  48.795  14.143  1.00  0.00     0.682 A 
ATOM     18  H2  UNL     1      72.740  49.745  14.230  1.00  0.00     0.186 HD
HETATM   19  N11 UNL     1      69.690  48.883  13.692  1.00  0.00    -0.164 N 
HETATM   20  C26 UNL     1      69.202  49.946  12.977  1.00  0.00     0.196 A 
ATOM     21  H11 UNL     1      69.055  48.110  13.892  1.00  0.00     0.187 HD
HETATM   22  C25 UNL     1      70.116  50.968  12.737  1.00  0.00     0.113 A 
BRANCH  17  23
HETATM   23  N1  UNL     1      71.316  47.734  14.820  1.00  0.00    -0.226 N 
ATOM     24  H1  UNL     1      71.465  47.828  15.825  1.00  0.00     0.177 HD
BRANCH  23  25
HETATM   25  C4  UNL     1      71.522  46.461  14.224  1.00  0.00     0.142 C 
BRANCH  25  26
HETATM   26  C3  UNL     1      70.803  45.352  14.997  1.00  0.00     0.046 C 
BRANCH  26  27
HETATM   27  C2  UNL     1      69.494  45.031  14.320  1.00  0.00    -0.035 C 
HETATM   28  C1  UNL     1      68.399  45.638  14.714  1.00  0.00     0.007 C 
ENDBRANCH  26  27
ENDBRANCH  25  26
ENDBRANCH  23  25
ENDBRANCH  17  23
BRANCH  20  29
HETATM   29  N10 UNL     1      68.077  50.004  12.596  1.00  0.00    -0.403 NA
BRANCH  29  30
HETATM   30  C27 UNL     1      66.751  50.279  12.565  1.00  0.00     0.162 C 
BRANCH  30  31
HETATM   31  C28 UNL     1      66.382  51.767  12.697  1.00  0.00     0.038 A 
HETATM   32  C29 UNL     1      66.704  52.371  14.034  1.00  0.00     0.011 A 
HETATM   33  C30 UNL     1      65.259  52.126  13.585  1.00  0.00     0.011 A 
ENDBRANCH  30  31
ENDBRANCH  29  30
ENDBRANCH  20  29
ENDBRANCH   1  15
BRANCH  14  34
HETATM   34  C12 UNL     1      70.302  55.867  16.895  1.00  0.00     0.098 C 
HETATM   35  C13 UNL     1      71.474  56.188  17.796  1.00  0.00     0.046 C 
HETATM   36  C14 UNL     1      71.069  57.262  18.758  1.00  0.00     0.129 C 
HETATM   37  N8  UNL     1      70.508  58.420  18.109  1.00  0.00    -0.372 N 
HETATM   38  C23 UNL     1      69.482  58.141  17.190  1.00  0.00     0.065 C 
HETATM   39  C24 UNL     1      69.935  57.129  16.159  1.00  0.00     0.070 C 
BRANCH  37  40
HETATM   40  C15 UNL     1      70.438  59.574  18.911  1.00  0.00     0.082 C 
BRANCH  40  41
HETATM   41  C16 UNL     1      71.432  59.655  20.028  1.00  0.00     0.161 C 
BRANCH  41  42
HETATM   42  N9  UNL     1      72.551  60.470  19.708  1.00  0.00    -0.408 N 
HETATM   43  C17 UNL     1      72.969  61.419  20.673  1.00  0.00     0.117 C 
HETATM   44  C18 UNL     1      74.370  61.830  20.244  1.00  0.00     0.026 C 
HETATM   45  C19 UNL     1      74.786  60.850  19.182  1.00  0.00     0.004 C 
HETATM   46  C22 UNL     1      73.669  59.822  19.116  1.00  0.00     0.121 C 
BRANCH  45  47
HETATM   47  C20 UNL     1      76.081  60.191  19.652  1.00  0.00     0.002 C 
HETATM   48  C21 UNL     1      75.894  58.738  19.960  1.00  0.00     0.005 C 
ENDBRANCH  45  47
ENDBRANCH  41  42
ENDBRANCH  40  41
ENDBRANCH  37  40
ENDBRANCH  14  34
TORSDOF 13
ENDMDL
MODEL 5
REMARK VINA RESULT: -8.860329269      0.711      4.281
REMARK  13 active torsions:
REMARK  status: ('A' for Active; 'I' for Inactive)
REMARK    1  A    between atoms: C2_2  and  C3_3 
REMARK    2  A    between atoms: C3_3  and  C4_4 
REMARK    3  A    between atoms: C4_4  and  N1_5 
REMARK    4  A    between atoms: N1_5  and  C5_7 
REMARK    5  A    between atoms: C6_10  and  N3_11 
REMARK    6  A    between atoms: N7_24  and  C12_25 
REMARK    7  A    between atoms: N8_28  and  C15_29 
REMARK    8  A    between atoms: C15_29  and  C16_30 
REMARK    9  A    between atoms: C16_30  and  N9_31 
REMARK   10  A    between atoms: C19_34  and  C20_35 
REMARK   11  A    between atoms: C26_41  and  N10_42 
REMARK   12  A    between atoms: N10_42  and  C27_43 
REMARK   13  A    between atoms: C27_43  and  C28_44 
ROOT
HETATM    1  N3  UNL     1      72.269  51.713  12.853  1.00  0.00    -0.326 N 
ATOM      2  H3  UNL     1      72.977  51.487  12.154  1.00  0.00     0.169 HD
HETATM    3  C7  UNL     1      72.374  52.821  13.434  1.00  0.00     0.139 A 
HETATM    4  N4  UNL     1      73.404  53.654  13.109  1.00  0.00    -0.337 N 
ATOM      5  H4  UNL     1      74.083  53.384  12.398  1.00  0.00     0.168 HD
HETATM    6  C8  UNL     1      73.508  54.821  13.729  1.00  0.00     0.183 A 
HETATM    7  N5  UNL     1      72.659  55.252  14.673  1.00  0.00    -0.336 N 
ATOM      8  H5  UNL     1      72.796  56.162  15.112  1.00  0.00     0.168 HD
HETATM    9  C9  UNL     1      71.612  54.460  15.040  1.00  0.00     0.140 A 
HETATM   10  C10 UNL     1      71.494  53.248  14.404  1.00  0.00     0.122 A 
HETATM   11  N6  UNL     1      70.390  52.669  14.948  1.00  0.00    -0.346 N 
ATOM     12  H6  UNL     1      70.019  51.753  14.696  1.00  0.00     0.167 HD
HETATM   13  C11 UNL     1      69.868  53.485  15.860  1.00  0.00     0.185 A 
HETATM   14  N7  UNL     1      70.624  54.612  15.927  1.00  0.00    -0.322 N 
ENDROOT
BRANCH   1  15
HETATM   15  C6  UNL     1      71.272  50.760  13.079  1.00  0.00     0.127 A 
HETATM   16  N2  UNL     1      70.000  51.048  12.682  1.00  0.00    -0.176 N 
HETATM   17  C5  UNL     1      68.972  50.210  12.868  1.00  0.00     0.682 A 
ATOM     18  H2  UNL     1      69.823  51.942  12.223  1.00  0.00     0.186 HD
HETATM   19  N11 UNL     1      69.209  49.042  13.467  1.00  0.00    -0.164 N 
HETATM   20  C26 UNL     1      70.444  48.640  13.908  1.00  0.00     0.196 A 
ATOM     21  H11 UNL     1      68.422  48.407  13.605  1.00  0.00     0.187 HD
HETATM   22  C25 UNL     1      71.475  49.549  13.690  1.00  0.00     0.113 A 
BRANCH  17  23
HETATM   23  N1  UNL     1      67.752  50.506  12.481  1.00  0.00    -0.226 N 
ATOM     24  H1  UNL     1      67.191  49.773  12.048  1.00  0.00     0.177 HD
BRANCH  23  25
HETATM   25  C4  UNL     1      67.175  51.795  12.635  1.00  0.00     0.142 C 
BRANCH  25  26
HETATM   26  C3  UNL     1      66.782  52.067  14.091  1.00  0.00     0.046 C 
BRANCH  26  27
HETATM   27  C2  UNL     1      66.040  53.377  14.178  1.00  0.00    -0.035 C 
HETATM   28  C1  UNL     1      66.641  54.424  14.695  1.00  0.00     0.007 C 
ENDBRANCH  26  27
ENDBRANCH  25  26
ENDBRANCH  23  25
ENDBRANCH  17  23
BRANCH  20  29
HETATM   29  N10 UNL     1      70.630  47.588  14.429  1.00  0.00    -0.403 NA
BRANCH  29  30
HETATM   30  C27 UNL     1      71.134  46.646  15.262  1.00  0.00     0.162 C 
BRANCH  30  31
HETATM   31  C28 UNL     1      72.437  47.032  15.984  1.00  0.00     0.038 A 
HETATM   32  C29 UNL     1      73.675  46.902  15.144  1.00  0.00     0.011 A 
HETATM   33  C30 UNL     1      73.391  45.955  16.315  1.00  0.00     0.011 A 
ENDBRANCH  30  31
ENDBRANCH  29  30
ENDBRANCH  20  29
ENDBRANCH   1  15
BRANCH  14  34
HETATM   34  C12 UNL     1      70.354  55.735  16.810  1.00  0.00     0.098 C 
HETATM   35  C13 UNL     1      71.578  56.082  17.629  1.00  0.00     0.046 C 
HETATM   36  C14 UNL     1      71.222  57.164  18.601  1.00  0.00     0.129 C 
HETATM   37  N8  UNL     1      70.605  58.307  17.975  1.00  0.00    -0.372 N 
HETATM   38  C23 UNL     1      69.526  58.004  17.128  1.00  0.00     0.065 C 
HETATM   39  C24 UNL     1      69.924  56.983  16.083  1.00  0.00     0.070 C 
BRANCH  37  40
HETATM   40  C15 UNL     1      70.573  59.470  18.766  1.00  0.00     0.082 C 
BRANCH  40  41
HETATM   41  C16 UNL     1      71.555  59.522  19.896  1.00  0.00     0.161 C 
BRANCH  41  42
HETATM   42  N9  UNL     1      72.662  60.369  19.621  1.00  0.00    -0.408 N 
HETATM   43  C17 UNL     1      73.049  61.289  20.626  1.00  0.00     0.117 C 
HETATM   44  C18 UNL     1      74.448  61.742  20.233  1.00  0.00     0.026 C 
HETATM   45  C19 UNL     1      74.896  60.811  19.141  1.00  0.00     0.004 C 
HETATM   46  C22 UNL     1      73.800  59.765  19.021  1.00  0.00     0.121 C 
BRANCH  45  47
HETATM   47  C20 UNL     1      76.198  60.159  19.603  1.00  0.00     0.002 C 
HETATM   48  C21 UNL     1      75.998  58.734  20.017  1.00  0.00     0.005 C 
ENDBRANCH  45  47
ENDBRANCH  41  42
ENDBRANCH  40  41
ENDBRANCH  37  40
ENDBRANCH  14  34
TORSDOF 13
ENDMDL
