MODEL 1
REMARK VINA RESULT: -9.902735549      0.000      0.000
REMARK  17 active torsions:
REMARK  status: ('A' for Active; 'I' for Inactive)
REMARK    1  A    between atoms: C2_2  and  C4_4 
REMARK    2  A    between atoms: C4_4  and  C5_5 
REMARK    3  A    between atoms: C5_5  and  C22_33 
REMARK    4  A    between atoms: N1_6  and  C6_8 
REMARK    5  A    between atoms: C6_8  and  C7_9 
REMARK    6  A    between atoms: C6_8  and  C15_17 
REMARK    7  A    between atoms: C7_9  and  C8_10 
REMARK    8  A    between atoms: C8_10  and  C9_11 
REMARK    9  A    between atoms: C15_17  and  C16_19 
REMARK       I    between atoms: C16_19  and  N2_21 
REMARK   10  A    between atoms: C20_25  and  C21_26 
REMARK   11  A    between atoms: C21_26  and  N3_27 
REMARK   12  A    between atoms: C21_26  and  O3_31 
REMARK       I    between atoms: C22_33  and  N4_35 
REMARK   13  A    between atoms: N4_35  and  C23_37 
REMARK   14  A    between atoms: C23_37  and  C24_38 
REMARK   15  A    between atoms: C23_37  and  C29_43 
REMARK   16  A    between atoms: C24_38  and  C25_39 
REMARK   17  A    between atoms: C32_46  and  C33_47 
ROOT
HETATM    1  C5  UNL     1      13.769  20.046  64.158  1.00  0.00     0.078 C 
HETATM    2  N1  UNL     1      14.072  20.797  63.061  1.00  0.00    -0.355 N 
ATOM      3  H1  UNL     1      13.383  20.763  62.310  1.00  0.00     0.166 HD
ENDROOT
BRANCH   2   4
HETATM    4  C6  UNL     1      15.194  21.613  62.809  1.00  0.00     0.066 C 
BRANCH   4   5
HETATM    5  C7  UNL     1      15.831  22.140  64.044  1.00  0.00     0.062 C 
BRANCH   5   6
HETATM    6  C8  UNL     1      15.286  23.344  64.692  1.00  0.00     0.011 C 
BRANCH   6   7
HETATM    7  C9  UNL     1      15.843  23.471  66.066  1.00  0.00    -0.014 C 
HETATM    8  C10 UNL     1      14.821  23.879  67.091  1.00  0.00     0.004 C 
HETATM    9  C11 UNL     1      15.548  23.777  68.454  1.00  0.00     0.000 C 
HETATM   10  C12 UNL     1      16.514  24.925  68.507  1.00  0.00     0.000 C 
HETATM   11  C13 UNL     1      17.458  24.914  67.341  1.00  0.00     0.000 C 
HETATM   12  C14 UNL     1      16.812  24.674  66.014  1.00  0.00     0.004 C 
ENDBRANCH   6   7
ENDBRANCH   5   6
ENDBRANCH   4   5
BRANCH   4  13
HETATM   13  C15 UNL     1      15.896  21.509  61.542  1.00  0.00     0.261 C 
HETATM   14  O1  UNL     1      16.699  20.531  61.338  1.00  0.00    -0.280 OA
BRANCH  13  15
HETATM   15  C16 UNL     1      15.785  22.469  60.454  1.00  0.00     0.296 C 
HETATM   16  O2  UNL     1      14.824  22.349  59.612  1.00  0.00    -0.264 OA
HETATM   17  N2  UNL     1      16.641  23.562  60.222  1.00  0.00    -0.336 N 
HETATM   18  C17 UNL     1      16.154  24.716  59.373  1.00  0.00     0.127 C 
HETATM   19  C20 UNL     1      18.015  23.749  60.503  1.00  0.00     0.143 C 
HETATM   20  C18 UNL     1      17.232  25.758  59.570  1.00  0.00     0.022 C 
HETATM   21  C19 UNL     1      18.457  24.859  59.483  1.00  0.00     0.031 C 
BRANCH  19  22
HETATM   22  C21 UNL     1      18.537  24.195  61.761  1.00  0.00     0.339 C 
BRANCH  22  23
HETATM   23  N3  UNL     1      18.088  25.150  62.675  1.00  0.00    -0.051 N 
ATOM     24  H33 UNL     1      17.411  24.651  63.252  1.00  0.00     0.277 HD
ATOM     25  H32 UNL     1      18.885  25.304  63.293  1.00  0.00     0.277 HD
ATOM     26  H31 UNL     1      17.680  26.077  62.551  1.00  0.00     0.277 HD
ENDBRANCH  22  23
BRANCH  22  27
HETATM   27  O3  UNL     1      19.655  23.607  62.147  1.00  0.00    -0.368 OA
ATOM     28  H3  UNL     1      20.433  24.151  62.106  1.00  0.00     0.212 HD
ENDBRANCH  22  27
ENDBRANCH  19  22
ENDBRANCH  13  15
ENDBRANCH   4  13
ENDBRANCH   2   4
BRANCH   1  29
HETATM   29  C4  UNL     1      13.409  20.641  65.470  1.00  0.00     0.067 C 
BRANCH  29  30
HETATM   30  C2  UNL     1      12.154  21.405  65.577  1.00  0.00    -0.017 C 
HETATM   31  C1  UNL     1      11.100  20.497  66.249  1.00  0.00     0.010 C 
HETATM   32  C3  UNL     1      11.539  21.968  64.352  1.00  0.00     0.010 C 
ENDBRANCH  29  30
ENDBRANCH   1  29
BRANCH   1  33
HETATM   33  C22 UNL     1      12.865  18.893  63.808  1.00  0.00     0.264 C 
HETATM   34  O4  UNL     1      12.912  17.891  64.558  1.00  0.00    -0.266 OA
HETATM   35  N4  UNL     1      12.017  18.917  62.710  1.00  0.00    -0.351 N 
ATOM     36  H4  UNL     1      11.957  19.724  62.090  1.00  0.00     0.163 HD
BRANCH  35  37
HETATM   37  C23 UNL     1      11.159  17.631  62.482  1.00  0.00     0.089 C 
BRANCH  37  38
HETATM   38  C24 UNL     1      10.982  17.557  61.028  1.00  0.00     0.030 C 
BRANCH  38  39
HETATM   39  C25 UNL     1      10.158  16.572  60.322  1.00  0.00    -0.013 C 
HETATM   40  C26 UNL     1       9.464  15.410  60.821  1.00  0.00     0.005 C 
HETATM   41  C27 UNL     1       8.111  16.107  60.624  1.00  0.00     0.001 C 
HETATM   42  C28 UNL     1       8.820  17.202  59.900  1.00  0.00     0.005 C 
ENDBRANCH  38  39
ENDBRANCH  37  38
BRANCH  37  43
HETATM   43  C29 UNL     1      10.033  17.940  63.411  1.00  0.00     0.008 C 
HETATM   44  C30 UNL     1       9.081  19.040  62.994  1.00  0.00     0.007 C 
HETATM   45  C31 UNL     1       8.247  19.321  64.281  1.00  0.00     0.016 C 
HETATM   46  C32 UNL     1       7.240  18.219  64.388  1.00  0.00     0.087 C 
HETATM   47  C34 UNL     1       7.820  16.879  64.024  1.00  0.00     0.016 C 
HETATM   48  C35 UNL     1       9.334  16.832  64.116  1.00  0.00     0.007 C 
BRANCH  46  49
HETATM   49  C33 UNL     1       6.523  18.163  65.703  1.00  0.00     0.177 C 
HETATM   50  O5  UNL     1       6.157  19.220  66.259  1.00  0.00    -0.648 OA
HETATM   51  O6  UNL     1       6.289  16.918  66.265  1.00  0.00    -0.648 OA
ENDBRANCH  46  49
ENDBRANCH  37  43
ENDBRANCH  35  37
ENDBRANCH   1  33
TORSDOF 17
ENDMDL
MODEL 2
REMARK VINA RESULT: -9.885081257      2.720     10.085
REMARK  17 active torsions:
REMARK  status: ('A' for Active; 'I' for Inactive)
REMARK    1  A    between atoms: C2_2  and  C4_4 
REMARK    2  A    between atoms: C4_4  and  C5_5 
REMARK    3  A    between atoms: C5_5  and  C22_33 
REMARK    4  A    between atoms: N1_6  and  C6_8 
REMARK    5  A    between atoms: C6_8  and  C7_9 
REMARK    6  A    between atoms: C6_8  and  C15_17 
REMARK    7  A    between atoms: C7_9  and  C8_10 
REMARK    8  A    between atoms: C8_10  and  C9_11 
REMARK    9  A    between atoms: C15_17  and  C16_19 
REMARK       I    between atoms: C16_19  and  N2_21 
REMARK   10  A    between atoms: C20_25  and  C21_26 
REMARK   11  A    between atoms: C21_26  and  N3_27 
REMARK   12  A    between atoms: C21_26  and  O3_31 
REMARK       I    between atoms: C22_33  and  N4_35 
REMARK   13  A    between atoms: N4_35  and  C23_37 
REMARK   14  A    between atoms: C23_37  and  C24_38 
REMARK   15  A    between atoms: C23_37  and  C29_43 
REMARK   16  A    between atoms: C24_38  and  C25_39 
REMARK   17  A    between atoms: C32_46  and  C33_47 
ROOT
HETATM    1  C5  UNL     1      16.778  21.779  61.827  1.00  0.00     0.078 C 
HETATM    2  N1  UNL     1      15.981  22.138  62.874  1.00  0.00    -0.355 N 
ATOM      3  H1  UNL     1      15.916  23.141  63.045  1.00  0.00     0.166 HD
ENDROOT
BRANCH   2   4
HETATM    4  C6  UNL     1      15.232  21.331  63.754  1.00  0.00     0.066 C 
BRANCH   4   5
HETATM    5  C7  UNL     1      15.122  21.898  65.124  1.00  0.00     0.062 C 
BRANCH   5   6
HETATM    6  C8  UNL     1      14.356  23.135  65.344  1.00  0.00     0.011 C 
BRANCH   6   7
HETATM    7  C9  UNL     1      15.203  24.131  66.056  1.00  0.00    -0.014 C 
HETATM    8  C10 UNL     1      16.640  24.119  65.615  1.00  0.00     0.004 C 
HETATM    9  C11 UNL     1      17.295  25.326  66.329  1.00  0.00     0.000 C 
HETATM   10  C12 UNL     1      17.413  24.950  67.777  1.00  0.00     0.000 C 
HETATM   11  C13 UNL     1      16.086  24.575  68.366  1.00  0.00     0.000 C 
HETATM   12  C14 UNL     1      15.265  23.652  67.525  1.00  0.00     0.004 C 
ENDBRANCH   6   7
ENDBRANCH   5   6
ENDBRANCH   4   5
BRANCH   4  13
HETATM   13  C15 UNL     1      14.293  20.358  63.226  1.00  0.00     0.261 C 
HETATM   14  O1  UNL     1      14.695  19.176  62.938  1.00  0.00    -0.280 OA
BRANCH  13  15
HETATM   15  C16 UNL     1      12.887  20.625  62.959  1.00  0.00     0.296 C 
HETATM   16  O2  UNL     1      12.560  21.191  61.854  1.00  0.00    -0.264 OA
HETATM   17  N2  UNL     1      11.807  20.309  63.804  1.00  0.00    -0.336 N 
HETATM   18  C17 UNL     1      10.415  20.208  63.220  1.00  0.00     0.127 C 
HETATM   19  C20 UNL     1      11.720  20.218  65.213  1.00  0.00     0.143 C 
HETATM   20  C18 UNL     1       9.613  19.623  64.361  1.00  0.00     0.022 C 
HETATM   21  C19 UNL     1      10.193  20.440  65.508  1.00  0.00     0.031 C 
BRANCH  19  22
HETATM   22  C21 UNL     1      12.064  19.055  65.978  1.00  0.00     0.339 C 
BRANCH  22  23
HETATM   23  N3  UNL     1      11.704  18.638  67.261  1.00  0.00    -0.051 N 
ATOM     24  H33 UNL     1      12.289  19.196  67.883  1.00  0.00     0.277 HD
ATOM     25  H32 UNL     1      10.763  19.009  67.393  1.00  0.00     0.277 HD
ATOM     26  H31 UNL     1      11.677  17.717  67.698  1.00  0.00     0.277 HD
ENDBRANCH  22  23
BRANCH  22  27
HETATM   27  O3  UNL     1      12.876  18.206  65.376  1.00  0.00    -0.368 OA
ATOM     28  H3  UNL     1      13.220  17.513  65.928  1.00  0.00     0.212 HD
ENDBRANCH  22  27
ENDBRANCH  19  22
ENDBRANCH  13  15
ENDBRANCH   4  13
ENDBRANCH   2   4
BRANCH   1  29
HETATM   29  C4  UNL     1      16.246  21.206  60.565  1.00  0.00     0.067 C 
BRANCH  29  30
HETATM   30  C2  UNL     1      15.110  21.878  59.909  1.00  0.00    -0.017 C 
HETATM   31  C1  UNL     1      14.797  21.115  58.603  1.00  0.00     0.010 C 
HETATM   32  C3  UNL     1      15.213  23.316  59.571  1.00  0.00     0.010 C 
ENDBRANCH  29  30
ENDBRANCH   1  29
BRANCH   1  33
HETATM   33  C22 UNL     1      17.838  22.815  61.559  1.00  0.00     0.264 C 
HETATM   34  O4  UNL     1      18.893  22.415  61.014  1.00  0.00    -0.266 OA
HETATM   35  N4  UNL     1      17.678  24.152  61.895  1.00  0.00    -0.351 N 
ATOM     36  H4  UNL     1      16.826  24.501  62.332  1.00  0.00     0.163 HD
BRANCH  35  37
HETATM   37  C23 UNL     1      18.883  25.089  61.561  1.00  0.00     0.089 C 
BRANCH  37  38
HETATM   38  C24 UNL     1      18.850  26.120  62.603  1.00  0.00     0.030 C 
BRANCH  38  39
HETATM   39  C25 UNL     1      19.770  27.256  62.703  1.00  0.00    -0.013 C 
HETATM   40  C26 UNL     1      20.822  27.683  61.813  1.00  0.00     0.005 C 
HETATM   41  C27 UNL     1      19.990  28.895  61.374  1.00  0.00     0.001 C 
HETATM   42  C28 UNL     1      19.016  28.574  62.459  1.00  0.00     0.005 C 
ENDBRANCH  38  39
ENDBRANCH  37  38
BRANCH  37  43
HETATM   43  C29 UNL     1      18.556  25.382  60.134  1.00  0.00     0.008 C 
HETATM   44  C30 UNL     1      17.474  26.406  59.874  1.00  0.00     0.007 C 
HETATM   45  C31 UNL     1      17.164  26.246  58.355  1.00  0.00     0.016 C 
HETATM   46  C32 UNL     1      18.270  26.935  57.617  1.00  0.00     0.087 C 
HETATM   47  C34 UNL     1      19.615  26.686  58.243  1.00  0.00     0.016 C 
HETATM   48  C35 UNL     1      19.649  25.454  59.127  1.00  0.00     0.007 C 
BRANCH  46  49
HETATM   49  C33 UNL     1      18.294  26.658  56.143  1.00  0.00     0.177 C 
HETATM   50  O5  UNL     1      17.961  27.550  55.336  1.00  0.00    -0.648 OA
HETATM   51  O6  UNL     1      18.691  25.398  55.724  1.00  0.00    -0.648 OA
ENDBRANCH  46  49
ENDBRANCH  37  43
ENDBRANCH  35  37
ENDBRANCH   1  33
TORSDOF 17
ENDMDL
MODEL 3
REMARK VINA RESULT: -9.833532169      1.315      2.040
REMARK  17 active torsions:
REMARK  status: ('A' for Active; 'I' for Inactive)
REMARK    1  A    between atoms: C2_2  and  C4_4 
REMARK    2  A    between atoms: C4_4  and  C5_5 
REMARK    3  A    between atoms: C5_5  and  C22_33 
REMARK    4  A    between atoms: N1_6  and  C6_8 
REMARK    5  A    between atoms: C6_8  and  C7_9 
REMARK    6  A    between atoms: C6_8  and  C15_17 
REMARK    7  A    between atoms: C7_9  and  C8_10 
REMARK    8  A    between atoms: C8_10  and  C9_11 
REMARK    9  A    between atoms: C15_17  and  C16_19 
REMARK       I    between atoms: C16_19  and  N2_21 
REMARK   10  A    between atoms: C20_25  and  C21_26 
REMARK   11  A    between atoms: C21_26  and  N3_27 
REMARK   12  A    between atoms: C21_26  and  O3_31 
REMARK       I    between atoms: C22_33  and  N4_35 
REMARK   13  A    between atoms: N4_35  and  C23_37 
REMARK   14  A    between atoms: C23_37  and  C24_38 
REMARK   15  A    between atoms: C23_37  and  C29_43 
REMARK   16  A    between atoms: C24_38  and  C25_39 
REMARK   17  A    between atoms: C32_46  and  C33_47 
ROOT
HETATM    1  C5  UNL     1      12.797  19.621  64.322  1.00  0.00     0.078 C 
HETATM    2  N1  UNL     1      13.131  20.564  63.395  1.00  0.00    -0.355 N 
ATOM      3  H1  UNL     1      12.418  20.748  62.690  1.00  0.00     0.166 HD
ENDROOT
BRANCH   2   4
HETATM    4  C6  UNL     1      14.311  21.323  63.265  1.00  0.00     0.066 C 
BRANCH   4   5
HETATM    5  C7  UNL     1      14.724  21.993  64.527  1.00  0.00     0.062 C 
BRANCH   5   6
HETATM    6  C8  UNL     1      13.960  23.148  65.025  1.00  0.00     0.011 C 
BRANCH   6   7
HETATM    7  C9  UNL     1      14.825  23.981  65.906  1.00  0.00    -0.014 C 
HETATM    8  C10 UNL     1      16.268  23.998  65.484  1.00  0.00     0.004 C 
HETATM    9  C11 UNL     1      16.948  25.044  66.400  1.00  0.00     0.000 C 
HETATM   10  C12 UNL     1      17.032  24.423  67.764  1.00  0.00     0.000 C 
HETATM   11  C13 UNL     1      15.685  23.996  68.267  1.00  0.00     0.000 C 
HETATM   12  C14 UNL     1      14.850  23.256  67.271  1.00  0.00     0.004 C 
ENDBRANCH   6   7
ENDBRANCH   5   6
ENDBRANCH   4   5
BRANCH   4  13
HETATM   13  C15 UNL     1      15.235  21.047  62.180  1.00  0.00     0.261 C 
HETATM   14  O1  UNL     1      15.798  19.899  62.100  1.00  0.00    -0.280 OA
BRANCH  13  15
HETATM   15  C16 UNL     1      15.614  22.006  61.152  1.00  0.00     0.296 C 
HETATM   16  O2  UNL     1      14.713  22.454  60.356  1.00  0.00    -0.264 OA
HETATM   17  N2  UNL     1      16.905  22.523  60.936  1.00  0.00    -0.336 N 
HETATM   18  C17 UNL     1      17.064  23.822  60.177  1.00  0.00     0.127 C 
HETATM   19  C20 UNL     1      18.185  21.962  61.155  1.00  0.00     0.143 C 
HETATM   20  C18 UNL     1      18.527  24.151  60.374  1.00  0.00     0.022 C 
HETATM   21  C19 UNL     1      19.116  22.762  60.175  1.00  0.00     0.031 C 
BRANCH  19  22
HETATM   22  C21 UNL     1      18.883  21.986  62.407  1.00  0.00     0.339 C 
BRANCH  22  23
HETATM   23  N3  UNL     1      18.558  22.535  63.649  1.00  0.00    -0.051 N 
ATOM     24  H33 UNL     1      19.443  22.897  64.006  1.00  0.00     0.277 HD
ATOM     25  H32 UNL     1      18.014  23.368  63.424  1.00  0.00     0.277 HD
ATOM     26  H31 UNL     1      18.095  22.144  64.470  1.00  0.00     0.277 HD
ENDBRANCH  22  23
BRANCH  22  27
HETATM   27  O3  UNL     1      20.058  21.384  62.408  1.00  0.00    -0.368 OA
ATOM     28  H3  UNL     1      20.412  21.189  63.268  1.00  0.00     0.212 HD
ENDBRANCH  22  27
ENDBRANCH  19  22
ENDBRANCH  13  15
ENDBRANCH   4  13
ENDBRANCH   2   4
BRANCH   1  29
HETATM   29  C4  UNL     1      12.533  19.947  65.746  1.00  0.00     0.067 C 
BRANCH  29  30
HETATM   30  C2  UNL     1      11.168  19.765  66.270  1.00  0.00    -0.017 C 
HETATM   31  C1  UNL     1      10.540  21.164  66.457  1.00  0.00     0.010 C 
HETATM   32  C3  UNL     1      10.967  19.015  67.532  1.00  0.00     0.010 C 
ENDBRANCH  29  30
ENDBRANCH   1  29
BRANCH   1  33
HETATM   33  C22 UNL     1      11.783  18.647  63.781  1.00  0.00     0.264 C 
HETATM   34  O4  UNL     1      12.213  17.526  63.423  1.00  0.00    -0.266 OA
HETATM   35  N4  UNL     1      10.435  18.956  63.671  1.00  0.00    -0.351 N 
ATOM     36  H4  UNL     1      10.062  19.860  63.962  1.00  0.00     0.163 HD
BRANCH  35  37
HETATM   37  C23 UNL     1       9.524  17.836  63.073  1.00  0.00     0.089 C 
BRANCH  37  38
HETATM   38  C24 UNL     1       9.271  18.262  61.693  1.00  0.00     0.030 C 
BRANCH  38  39
HETATM   39  C25 UNL     1       9.495  17.445  60.498  1.00  0.00    -0.013 C 
HETATM   40  C26 UNL     1      10.587  16.564  60.163  1.00  0.00     0.005 C 
HETATM   41  C27 UNL     1       9.688  15.337  60.360  1.00  0.00     0.001 C 
HETATM   42  C28 UNL     1       8.518  16.257  60.475  1.00  0.00     0.005 C 
ENDBRANCH  38  39
ENDBRANCH  37  38
BRANCH  37  43
HETATM   43  C29 UNL     1       8.458  17.828  64.118  1.00  0.00     0.008 C 
HETATM   44  C30 UNL     1       8.719  17.005  65.360  1.00  0.00     0.007 C 
HETATM   45  C31 UNL     1       7.333  16.953  66.072  1.00  0.00     0.016 C 
HETATM   46  C32 UNL     1       7.149  18.276  66.747  1.00  0.00     0.087 C 
HETATM   47  C34 UNL     1       7.627  19.422  65.898  1.00  0.00     0.016 C 
HETATM   48  C35 UNL     1       7.716  19.082  64.422  1.00  0.00     0.007 C 
BRANCH  46  49
HETATM   49  C33 UNL     1       5.760  18.519  67.260  1.00  0.00     0.177 C 
HETATM   50  O5  UNL     1       5.102  17.577  67.747  1.00  0.00    -0.648 OA
HETATM   51  O6  UNL     1       5.249  19.804  67.169  1.00  0.00    -0.648 OA
ENDBRANCH  46  49
ENDBRANCH  37  43
ENDBRANCH  35  37
ENDBRANCH   1  33
TORSDOF 17
ENDMDL
MODEL 4
REMARK VINA RESULT: -9.827439593      1.502      2.427
REMARK  17 active torsions:
REMARK  status: ('A' for Active; 'I' for Inactive)
REMARK    1  A    between atoms: C2_2  and  C4_4 
REMARK    2  A    between atoms: C4_4  and  C5_5 
REMARK    3  A    between atoms: C5_5  and  C22_33 
REMARK    4  A    between atoms: N1_6  and  C6_8 
REMARK    5  A    between atoms: C6_8  and  C7_9 
REMARK    6  A    between atoms: C6_8  and  C15_17 
REMARK    7  A    between atoms: C7_9  and  C8_10 
REMARK    8  A    between atoms: C8_10  and  C9_11 
REMARK    9  A    between atoms: C15_17  and  C16_19 
REMARK       I    between atoms: C16_19  and  N2_21 
REMARK   10  A    between atoms: C20_25  and  C21_26 
REMARK   11  A    between atoms: C21_26  and  N3_27 
REMARK   12  A    between atoms: C21_26  and  O3_31 
REMARK       I    between atoms: C22_33  and  N4_35 
REMARK   13  A    between atoms: N4_35  and  C23_37 
REMARK   14  A    between atoms: C23_37  and  C24_38 
REMARK   15  A    between atoms: C23_37  and  C29_43 
REMARK   16  A    between atoms: C24_38  and  C25_39 
REMARK   17  A    between atoms: C32_46  and  C33_47 
ROOT
HETATM    1  C5  UNL     1      11.597  20.431  63.823  1.00  0.00     0.078 C 
HETATM    2  N1  UNL     1      12.438  20.805  62.817  1.00  0.00    -0.355 N 
ATOM      3  H1  UNL     1      12.124  20.561  61.878  1.00  0.00     0.166 HD
ENDROOT
BRANCH   2   4
HETATM    4  C6  UNL     1      13.675  21.478  62.878  1.00  0.00     0.066 C 
BRANCH   4   5
HETATM    5  C7  UNL     1      14.189  21.643  64.263  1.00  0.00     0.062 C 
BRANCH   5   6
HETATM    6  C8  UNL     1      14.022  22.929  64.957  1.00  0.00     0.011 C 
BRANCH   6   7
HETATM    7  C9  UNL     1      15.071  23.076  66.004  1.00  0.00    -0.014 C 
HETATM    8  C10 UNL     1      14.642  23.930  67.165  1.00  0.00     0.004 C 
HETATM    9  C11 UNL     1      15.783  23.807  68.204  1.00  0.00     0.000 C 
HETATM   10  C12 UNL     1      16.942  24.588  67.656  1.00  0.00     0.000 C 
HETATM   11  C13 UNL     1      17.342  24.110  66.292  1.00  0.00     0.000 C 
HETATM   12  C14 UNL     1      16.206  23.893  65.345  1.00  0.00     0.004 C 
ENDBRANCH   6   7
ENDBRANCH   5   6
ENDBRANCH   4   5
BRANCH   4  13
HETATM   13  C15 UNL     1      14.532  21.529  61.707  1.00  0.00     0.261 C 
HETATM   14  O1  UNL     1      14.126  22.121  60.646  1.00  0.00    -0.280 OA
BRANCH  13  15
HETATM   15  C16 UNL     1      15.851  20.918  61.621  1.00  0.00     0.296 C 
HETATM   16  O2  UNL     1      15.960  19.647  61.763  1.00  0.00    -0.264 OA
HETATM   17  N2  UNL     1      17.062  21.592  61.377  1.00  0.00    -0.336 N 
HETATM   18  C17 UNL     1      18.250  20.814  60.854  1.00  0.00     0.127 C 
HETATM   19  C20 UNL     1      17.480  22.906  61.693  1.00  0.00     0.143 C 
HETATM   20  C18 UNL     1      19.236  21.903  60.497  1.00  0.00     0.022 C 
HETATM   21  C19 UNL     1      19.048  22.806  61.708  1.00  0.00     0.031 C 
BRANCH  19  22
HETATM   22  C21 UNL     1      17.206  24.064  60.893  1.00  0.00     0.339 C 
BRANCH  22  23
HETATM   23  N3  UNL     1      16.370  24.264  59.792  1.00  0.00    -0.051 N 
ATOM     24  H33 UNL     1      15.950  23.351  59.623  1.00  0.00     0.277 HD
ATOM     25  H32 UNL     1      15.606  24.834  60.155  1.00  0.00     0.277 HD
ATOM     26  H31 UNL     1      16.545  24.639  58.860  1.00  0.00     0.277 HD
ENDBRANCH  22  23
BRANCH  22  27
HETATM   27  O3  UNL     1      17.858  25.157  61.243  1.00  0.00    -0.368 OA
ATOM     28  H3  UNL     1      17.312  25.882  61.523  1.00  0.00     0.212 HD
ENDBRANCH  22  27
ENDBRANCH  19  22
ENDBRANCH  13  15
ENDBRANCH   4  13
ENDBRANCH   2   4
BRANCH   1  29
HETATM   29  C4  UNL     1      10.824  21.405  64.634  1.00  0.00     0.067 C 
BRANCH  29  30
HETATM   30  C2  UNL     1      10.795  21.240  66.097  1.00  0.00    -0.017 C 
HETATM   31  C1  UNL     1      11.461  19.888  66.436  1.00  0.00     0.010 C 
HETATM   32  C3  UNL     1       9.496  21.287  66.808  1.00  0.00     0.010 C 
ENDBRANCH  29  30
ENDBRANCH   1  29
BRANCH   1  33
HETATM   33  C22 UNL     1      10.752  19.248  63.428  1.00  0.00     0.264 C 
HETATM   34  O4  UNL     1      11.345  18.154  63.286  1.00  0.00    -0.266 OA
HETATM   35  N4  UNL     1       9.383  19.344  63.222  1.00  0.00    -0.351 N 
ATOM     36  H4  UNL     1       8.879  20.223  63.338  1.00  0.00     0.163 HD
BRANCH  35  37
HETATM   37  C23 UNL     1       8.662  18.023  62.800  1.00  0.00     0.089 C 
BRANCH  37  38
HETATM   38  C24 UNL     1       8.414  18.180  61.363  1.00  0.00     0.030 C 
BRANCH  38  39
HETATM   39  C25 UNL     1       9.043  17.390  60.302  1.00  0.00    -0.013 C 
HETATM   40  C26 UNL     1      10.412  16.961  60.148  1.00  0.00     0.005 C 
HETATM   41  C27 UNL     1      10.015  15.511  60.457  1.00  0.00     0.001 C 
HETATM   42  C28 UNL     1       8.583  15.925  60.384  1.00  0.00     0.005 C 
ENDBRANCH  38  39
ENDBRANCH  37  38
BRANCH  37  43
HETATM   43  C29 UNL     1       7.563  18.032  63.809  1.00  0.00     0.008 C 
HETATM   44  C30 UNL     1       6.980  16.692  64.201  1.00  0.00     0.007 C 
HETATM   45  C31 UNL     1       5.689  17.062  64.993  1.00  0.00     0.016 C 
HETATM   46  C32 UNL     1       6.133  17.491  66.357  1.00  0.00     0.087 C 
HETATM   47  C34 UNL     1       7.378  18.335  66.313  1.00  0.00     0.016 C 
HETATM   48  C35 UNL     1       7.626  18.973  64.959  1.00  0.00     0.007 C 
BRANCH  46  49
HETATM   49  C33 UNL     1       5.061  18.143  67.178  1.00  0.00     0.177 C 
HETATM   50  O5  UNL     1       4.422  17.472  68.016  1.00  0.00    -0.648 OA
HETATM   51  O6  UNL     1       4.811  19.491  66.971  1.00  0.00    -0.648 OA
ENDBRANCH  46  49
ENDBRANCH  37  43
ENDBRANCH  35  37
ENDBRANCH   1  33
TORSDOF 17
ENDMDL
MODEL 5
REMARK VINA RESULT: -9.812464213      2.027      3.496
REMARK  17 active torsions:
REMARK  status: ('A' for Active; 'I' for Inactive)
REMARK    1  A    between atoms: C2_2  and  C4_4 
REMARK    2  A    between atoms: C4_4  and  C5_5 
REMARK    3  A    between atoms: C5_5  and  C22_33 
REMARK    4  A    between atoms: N1_6  and  C6_8 
REMARK    5  A    between atoms: C6_8  and  C7_9 
REMARK    6  A    between atoms: C6_8  and  C15_17 
REMARK    7  A    between atoms: C7_9  and  C8_10 
REMARK    8  A    between atoms: C8_10  and  C9_11 
REMARK    9  A    between atoms: C15_17  and  C16_19 
REMARK       I    between atoms: C16_19  and  N2_21 
REMARK   10  A    between atoms: C20_25  and  C21_26 
REMARK   11  A    between atoms: C21_26  and  N3_27 
REMARK   12  A    between atoms: C21_26  and  O3_31 
REMARK       I    between atoms: C22_33  and  N4_35 
REMARK   13  A    between atoms: N4_35  and  C23_37 
REMARK   14  A    between atoms: C23_37  and  C24_38 
REMARK   15  A    between atoms: C23_37  and  C29_43 
REMARK   16  A    between atoms: C24_38  and  C25_39 
REMARK   17  A    between atoms: C32_46  and  C33_47 
ROOT
HETATM    1  C5  UNL     1      15.855  21.150  61.605  1.00  0.00     0.078 C 
HETATM    2  N1  UNL     1      16.824  21.439  62.520  1.00  0.00    -0.355 N 
ATOM      3  H1  UNL     1      17.062  20.675  63.153  1.00  0.00     0.166 HD
ENDROOT
BRANCH   2   4
HETATM    4  C6  UNL     1      17.546  22.632  62.724  1.00  0.00     0.066 C 
BRANCH   4   5
HETATM    5  C7  UNL     1      17.364  23.207  64.084  1.00  0.00     0.062 C 
BRANCH   5   6
HETATM    6  C8  UNL     1      16.050  23.128  64.741  1.00  0.00     0.011 C 
BRANCH   6   7
HETATM    7  C9  UNL     1      16.032  24.014  65.937  1.00  0.00    -0.014 C 
HETATM    8  C10 UNL     1      17.381  24.178  66.580  1.00  0.00     0.004 C 
HETATM    9  C11 UNL     1      17.183  25.258  67.671  1.00  0.00     0.000 C 
HETATM   10  C12 UNL     1      16.393  24.611  68.771  1.00  0.00     0.000 C 
HETATM   11  C13 UNL     1      15.098  24.046  68.269  1.00  0.00     0.000 C 
HETATM   12  C14 UNL     1      15.206  23.259  67.003  1.00  0.00     0.004 C 
ENDBRANCH   6   7
ENDBRANCH   5   6
ENDBRANCH   4   5
BRANCH   4  13
HETATM   13  C15 UNL     1      18.689  22.941  61.884  1.00  0.00     0.261 C 
HETATM   14  O1  UNL     1      19.759  22.243  61.983  1.00  0.00    -0.280 OA
BRANCH  13  15
HETATM   15  C16 UNL     1      18.737  24.033  60.923  1.00  0.00     0.296 C 
HETATM   16  O2  UNL     1      18.616  23.768  59.673  1.00  0.00    -0.264 OA
HETATM   17  N2  UNL     1      18.895  25.398  61.226  1.00  0.00    -0.336 N 
HETATM   18  C17 UNL     1      18.463  26.436  60.213  1.00  0.00     0.127 C 
HETATM   19  C20 UNL     1      19.569  26.047  62.287  1.00  0.00     0.143 C 
HETATM   20  C18 UNL     1      18.559  27.728  60.992  1.00  0.00     0.022 C 
HETATM   21  C19 UNL     1      19.876  27.478  61.714  1.00  0.00     0.031 C 
BRANCH  19  22
HETATM   22  C21 UNL     1      19.004  26.296  63.581  1.00  0.00     0.339 C 
BRANCH  22  23
HETATM   23  N3  UNL     1      19.586  26.565  64.821  1.00  0.00    -0.051 N 
ATOM     24  H33 UNL     1      19.635  25.656  65.280  1.00  0.00     0.277 HD
ATOM     25  H32 UNL     1      20.556  26.792  64.601  1.00  0.00     0.277 HD
ATOM     26  H31 UNL     1      19.337  27.213  65.568  1.00  0.00     0.277 HD
ENDBRANCH  22  23
BRANCH  22  27
HETATM   27  O3  UNL     1      17.684  26.269  63.633  1.00  0.00    -0.368 OA
ATOM     28  H3  UNL     1      17.317  25.675  64.277  1.00  0.00     0.212 HD
ENDBRANCH  22  27
ENDBRANCH  19  22
ENDBRANCH  13  15
ENDBRANCH   4  13
ENDBRANCH   2   4
BRANCH   1  29
HETATM   29  C4  UNL     1      16.130  21.023  60.152  1.00  0.00     0.067 C 
BRANCH  29  30
HETATM   30  C2  UNL     1      15.347  21.842  59.210  1.00  0.00    -0.017 C 
HETATM   31  C1  UNL     1      15.192  23.252  59.822  1.00  0.00     0.010 C 
HETATM   32  C3  UNL     1      14.000  21.386  58.797  1.00  0.00     0.010 C 
ENDBRANCH  29  30
ENDBRANCH   1  29
BRANCH   1  33
HETATM   33  C22 UNL     1      14.940  20.057  62.092  1.00  0.00     0.264 C 
HETATM   34  O4  UNL     1      15.486  19.021  62.536  1.00  0.00    -0.266 OA
HETATM   35  N4  UNL     1      13.557  20.169  62.057  1.00  0.00    -0.351 N 
ATOM     36  H4  UNL     1      13.092  21.006  61.706  1.00  0.00     0.163 HD
BRANCH  35  37
HETATM   37  C23 UNL     1      12.759  18.935  62.586  1.00  0.00     0.089 C 
BRANCH  37  38
HETATM   38  C24 UNL     1      12.076  18.401  61.404  1.00  0.00     0.030 C 
BRANCH  38  39
HETATM   39  C25 UNL     1      10.921  17.499  61.425  1.00  0.00    -0.013 C 
HETATM   40  C26 UNL     1       9.513  17.786  61.298  1.00  0.00     0.005 C 
HETATM   41  C27 UNL     1       9.488  17.156  59.899  1.00  0.00     0.001 C 
HETATM   42  C28 UNL     1      10.877  16.662  60.136  1.00  0.00     0.005 C 
ENDBRANCH  38  39
ENDBRANCH  37  38
BRANCH  37  43
HETATM   43  C29 UNL     1      12.025  19.600  63.703  1.00  0.00     0.008 C 
HETATM   44  C30 UNL     1      11.446  20.970  63.424  1.00  0.00     0.007 C 
HETATM   45  C31 UNL     1      11.044  21.500  64.834  1.00  0.00     0.016 C 
HETATM   46  C32 UNL     1       9.764  20.816  65.200  1.00  0.00     0.087 C 
HETATM   47  C34 UNL     1       9.759  19.365  64.802  1.00  0.00     0.016 C 
HETATM   48  C35 UNL     1      11.148  18.792  64.593  1.00  0.00     0.007 C 
BRANCH  46  49
HETATM   49  C33 UNL     1       9.359  20.990  66.633  1.00  0.00     0.177 C 
HETATM   50  O5  UNL     1       9.919  20.320  67.525  1.00  0.00    -0.648 OA
HETATM   51  O6  UNL     1       8.357  21.903  66.919  1.00  0.00    -0.648 OA
ENDBRANCH  46  49
ENDBRANCH  37  43
ENDBRANCH  35  37
ENDBRANCH   1  33
TORSDOF 17
ENDMDL
