MODEL 1
REMARK VINA RESULT: -9.494124434      0.000      0.000
REMARK  13 active torsions:
REMARK  status: ('A' for Active; 'I' for Inactive)
REMARK    1  A    between atoms: C15_19  and  C17_21 
REMARK    2  A    between atoms: C17_21  and  O5_22 
REMARK    3  A    between atoms: O5_22  and  C18_23 
REMARK    4  A    between atoms: C18_23  and  C19_25 
REMARK    5  A    between atoms: C19_25  and  C20_26 
REMARK    6  A    between atoms: C20_26  and  C21_27 
REMARK       I    between atoms: C21_27  and  N1_29 
REMARK    7  A    between atoms: N1_29  and  C22_31 
REMARK    8  A    between atoms: C22_31  and  C23_32 
REMARK    9  A    between atoms: C23_32  and  C24_33 
REMARK   10  A    between atoms: C24_33  and  C25_34 
REMARK   11  A    between atoms: C25_34  and  C26_35 
REMARK   12  A    between atoms: C26_35  and  C27_36 
REMARK   13  A    between atoms: C27_36  and  C28_37 
ROOT
HETATM    1  C1  UNL     1      21.815  23.573  20.541  1.00  0.00     0.021 C 
HETATM    2  C2  UNL     1      20.936  24.520  19.811  1.00  0.00    -0.002 C 
HETATM    3  C3  UNL     1      20.418  25.521  20.850  1.00  0.00     0.022 C 
HETATM    4  C4  UNL     1      21.507  26.359  21.431  1.00  0.00     0.079 C 
HETATM    5  C5  UNL     1      22.573  26.714  20.493  1.00  0.00     0.127 C 
HETATM    6  O1  UNL     1      23.188  27.756  20.716  1.00  0.00    -0.298 OA
HETATM    7  C6  UNL     1      22.975  25.931  19.299  1.00  0.00     0.091 C 
HETATM    8  C7  UNL     1      21.769  25.229  18.766  1.00  0.00     0.075 C 
HETATM    9  C8  UNL     1      20.865  26.318  18.254  1.00  0.00     0.136 C 
HETATM   10  O2  UNL     1      21.068  27.486  18.351  1.00  0.00    -0.297 OA
HETATM   11  C9  UNL     1      19.623  25.845  17.575  1.00  0.00     0.114 C 
HETATM   12  C10 UNL     1      19.172  24.507  18.117  1.00  0.00    -0.053 C 
HETATM   13  C11 UNL     1      19.772  23.914  19.128  1.00  0.00     0.008 C 
HETATM   14  C12 UNL     1      19.268  22.626  19.624  1.00  0.00     0.225 C 
HETATM   15  O3  UNL     1      19.815  22.052  20.574  1.00  0.00    -0.284 OA
HETATM   16  C13 UNL     1      18.118  22.051  18.973  1.00  0.00     0.205 C 
HETATM   17  O4  UNL     1      17.887  20.837  19.203  1.00  0.00    -0.288 OA
HETATM   18  C14 UNL     1      17.271  22.854  18.093  1.00  0.00     0.094 C 
HETATM   19  C15 UNL     1      16.476  21.970  17.171  1.00  0.00     0.051 C 
HETATM   20  C16 UNL     1      17.215  20.715  16.742  1.00  0.00     0.026 C 
HETATM   21  C29 UNL     1      16.108  22.659  15.894  1.00  0.00     0.138 C 
HETATM   22  O10 UNL     1      14.981  22.651  15.489  1.00  0.00    -0.297 OA
HETATM   23  C30 UNL     1      17.170  23.352  15.145  1.00  0.00     0.080 C 
HETATM   24  C31 UNL     1      18.395  23.629  15.993  1.00  0.00     0.022 C 
HETATM   25  C32 UNL     1      17.981  23.962  17.386  1.00  0.00    -0.007 C 
HETATM   26  C33 UNL     1      16.988  25.138  17.301  1.00  0.00     0.021 C 
ENDROOT
BRANCH  19  27
HETATM   27  C17 UNL     1      15.260  21.525  17.925  1.00  0.00     0.196 C 
BRANCH  27  28
HETATM   28  O5  UNL     1      15.024  20.129  17.859  1.00  0.00    -0.320 OA
BRANCH  28  29
HETATM   29  C18 UNL     1      14.553  19.416  18.941  1.00  0.00     0.259 C 
HETATM   30  O6  UNL     1      14.482  20.065  20.034  1.00  0.00    -0.265 OA
BRANCH  29  31
HETATM   31  C19 UNL     1      14.141  17.993  18.907  1.00  0.00     0.120 C 
BRANCH  31  32
HETATM   32  C20 UNL     1      13.301  17.642  20.097  1.00  0.00     0.112 C 
BRANCH  32  33
HETATM   33  C21 UNL     1      11.832  17.524  19.742  1.00  0.00     0.217 C 
HETATM   34  O7  UNL     1      11.096  18.398  20.218  1.00  0.00    -0.274 OA
HETATM   35  N1  UNL     1      11.484  16.436  18.920  1.00  0.00    -0.361 N 
ATOM     36  H1  UNL     1      12.241  15.809  18.648  1.00  0.00     0.162 HD
BRANCH  35  37
HETATM   37  C22 UNL     1      10.194  16.122  18.429  1.00  0.00     0.122 C 
BRANCH  37  38
HETATM   38  C23 UNL     1       9.961  16.202  17.000  1.00  0.00     0.020 C 
BRANCH  38  39
HETATM   39  C24 UNL     1      10.973  16.810  16.122  1.00  0.00     0.002 C 
BRANCH  39  40
HETATM   40  C25 UNL     1      10.311  18.061  15.465  1.00  0.00     0.001 C 
BRANCH  40  41
HETATM   41  C26 UNL     1      10.293  19.215  16.408  1.00  0.00     0.010 C 
BRANCH  41  42
HETATM   42  C27 UNL     1      11.669  19.711  16.689  1.00  0.00     0.113 C 
BRANCH  42  43
HETATM   43  C28 UNL     1      12.170  20.370  15.421  1.00  0.00     0.172 C 
HETATM   44  O8  UNL     1      13.263  19.921  14.938  1.00  0.00    -0.648 OA
HETATM   45  O9  UNL     1      11.477  21.394  14.824  1.00  0.00    -0.648 OA
ENDBRANCH  42  43
ENDBRANCH  41  42
ENDBRANCH  40  41
ENDBRANCH  39  40
ENDBRANCH  38  39
ENDBRANCH  37  38
ENDBRANCH  35  37
ENDBRANCH  32  33
ENDBRANCH  31  32
ENDBRANCH  29  31
ENDBRANCH  28  29
ENDBRANCH  27  28
ENDBRANCH  19  27
TORSDOF 13
ENDMDL
MODEL 2
REMARK VINA RESULT: -9.405087869      1.135      1.534
REMARK  13 active torsions:
REMARK  status: ('A' for Active; 'I' for Inactive)
REMARK    1  A    between atoms: C15_19  and  C17_21 
REMARK    2  A    between atoms: C17_21  and  O5_22 
REMARK    3  A    between atoms: O5_22  and  C18_23 
REMARK    4  A    between atoms: C18_23  and  C19_25 
REMARK    5  A    between atoms: C19_25  and  C20_26 
REMARK    6  A    between atoms: C20_26  and  C21_27 
REMARK       I    between atoms: C21_27  and  N1_29 
REMARK    7  A    between atoms: N1_29  and  C22_31 
REMARK    8  A    between atoms: C22_31  and  C23_32 
REMARK    9  A    between atoms: C23_32  and  C24_33 
REMARK   10  A    between atoms: C24_33  and  C25_34 
REMARK   11  A    between atoms: C25_34  and  C26_35 
REMARK   12  A    between atoms: C26_35  and  C27_36 
REMARK   13  A    between atoms: C27_36  and  C28_37 
ROOT
HETATM    1  C1  UNL     1      21.776  23.561  20.495  1.00  0.00     0.021 C 
HETATM    2  C2  UNL     1      20.879  24.495  19.769  1.00  0.00    -0.002 C 
HETATM    3  C3  UNL     1      20.372  25.505  20.804  1.00  0.00     0.022 C 
HETATM    4  C4  UNL     1      21.465  26.357  21.357  1.00  0.00     0.079 C 
HETATM    5  C5  UNL     1      22.513  26.706  20.396  1.00  0.00     0.127 C 
HETATM    6  O1  UNL     1      23.126  27.755  20.597  1.00  0.00    -0.298 OA
HETATM    7  C6  UNL     1      22.900  25.911  19.206  1.00  0.00     0.091 C 
HETATM    8  C7  UNL     1      21.689  25.195  18.702  1.00  0.00     0.075 C 
HETATM    9  C8  UNL     1      20.769  26.273  18.192  1.00  0.00     0.136 C 
HETATM   10  O2  UNL     1      20.967  27.443  18.271  1.00  0.00    -0.297 OA
HETATM   11  C9  UNL     1      19.520  25.785  17.540  1.00  0.00     0.114 C 
HETATM   12  C10 UNL     1      19.086  24.451  18.106  1.00  0.00    -0.053 C 
HETATM   13  C11 UNL     1      19.707  23.873  19.114  1.00  0.00     0.008 C 
HETATM   14  C12 UNL     1      19.220  22.588  19.634  1.00  0.00     0.225 C 
HETATM   15  O3  UNL     1      19.786  22.029  20.581  1.00  0.00    -0.284 OA
HETATM   16  C13 UNL     1      18.062  21.998  19.010  1.00  0.00     0.205 C 
HETATM   17  O4  UNL     1      17.842  20.786  19.258  1.00  0.00    -0.288 OA
HETATM   18  C14 UNL     1      17.195  22.786  18.135  1.00  0.00     0.094 C 
HETATM   19  C15 UNL     1      16.390  21.886  17.237  1.00  0.00     0.051 C 
HETATM   20  C16 UNL     1      17.130  20.630  16.811  1.00  0.00     0.026 C 
HETATM   21  C29 UNL     1      15.996  22.557  15.959  1.00  0.00     0.138 C 
HETATM   22  O10 UNL     1      14.862  22.537  15.572  1.00  0.00    -0.297 OA
HETATM   23  C30 UNL     1      17.040  23.247  15.183  1.00  0.00     0.080 C 
HETATM   24  C31 UNL     1      18.279  23.542  16.006  1.00  0.00     0.022 C 
HETATM   25  C32 UNL     1      17.886  23.890  17.402  1.00  0.00    -0.007 C 
HETATM   26  C33 UNL     1      16.884  25.058  17.320  1.00  0.00     0.021 C 
ENDROOT
BRANCH  19  27
HETATM   27  C17 UNL     1      15.190  21.443  18.017  1.00  0.00     0.196 C 
BRANCH  27  28
HETATM   28  O5  UNL     1      14.910  20.058  17.901  1.00  0.00    -0.320 OA
BRANCH  28  29
HETATM   29  C18 UNL     1      14.524  19.298  18.984  1.00  0.00     0.259 C 
HETATM   30  O6  UNL     1      14.494  19.910  20.099  1.00  0.00    -0.265 OA
BRANCH  29  31
HETATM   31  C19 UNL     1      14.159  17.862  18.928  1.00  0.00     0.120 C 
BRANCH  31  32
HETATM   32  C20 UNL     1      13.066  17.542  19.901  1.00  0.00     0.112 C 
BRANCH  32  33
HETATM   33  C21 UNL     1      11.696  17.582  19.253  1.00  0.00     0.217 C 
HETATM   34  O7  UNL     1      10.782  18.021  19.962  1.00  0.00    -0.274 OA
HETATM   35  N1  UNL     1      11.630  17.113  17.928  1.00  0.00    -0.361 N 
ATOM     36  H1  UNL     1      12.501  16.767  17.522  1.00  0.00     0.162 HD
BRANCH  35  37
HETATM   37  C22 UNL     1      10.483  17.070  17.099  1.00  0.00     0.122 C 
BRANCH  37  38
HETATM   38  C23 UNL     1      10.363  18.051  16.036  1.00  0.00     0.020 C 
BRANCH  38  39
HETATM   39  C24 UNL     1      10.505  19.483  16.338  1.00  0.00     0.002 C 
BRANCH  39  40
HETATM   40  C25 UNL     1      11.600  20.043  15.378  1.00  0.00     0.001 C 
BRANCH  40  41
HETATM   41  C26 UNL     1      11.047  21.114  14.502  1.00  0.00     0.010 C 
BRANCH  41  42
HETATM   42  C27 UNL     1      10.348  20.543  13.318  1.00  0.00     0.113 C 
BRANCH  42  43
HETATM   43  C28 UNL     1       8.935  21.085  13.333  1.00  0.00     0.172 C 
HETATM   44  O8  UNL     1       8.580  21.725  14.380  1.00  0.00    -0.648 OA
HETATM   45  O9  UNL     1       8.086  20.900  12.270  1.00  0.00    -0.648 OA
ENDBRANCH  42  43
ENDBRANCH  41  42
ENDBRANCH  40  41
ENDBRANCH  39  40
ENDBRANCH  38  39
ENDBRANCH  37  38
ENDBRANCH  35  37
ENDBRANCH  32  33
ENDBRANCH  31  32
ENDBRANCH  29  31
ENDBRANCH  28  29
ENDBRANCH  27  28
ENDBRANCH  19  27
TORSDOF 13
ENDMDL
MODEL 3
REMARK VINA RESULT: -9.382891797      2.241      3.590
REMARK  13 active torsions:
REMARK  status: ('A' for Active; 'I' for Inactive)
REMARK    1  A    between atoms: C15_19  and  C17_21 
REMARK    2  A    between atoms: C17_21  and  O5_22 
REMARK    3  A    between atoms: O5_22  and  C18_23 
REMARK    4  A    between atoms: C18_23  and  C19_25 
REMARK    5  A    between atoms: C19_25  and  C20_26 
REMARK    6  A    between atoms: C20_26  and  C21_27 
REMARK       I    between atoms: C21_27  and  N1_29 
REMARK    7  A    between atoms: N1_29  and  C22_31 
REMARK    8  A    between atoms: C22_31  and  C23_32 
REMARK    9  A    between atoms: C23_32  and  C24_33 
REMARK   10  A    between atoms: C24_33  and  C25_34 
REMARK   11  A    between atoms: C25_34  and  C26_35 
REMARK   12  A    between atoms: C26_35  and  C27_36 
REMARK   13  A    between atoms: C27_36  and  C28_37 
ROOT
HETATM    1  C1  UNL     1      20.131  23.531  18.034  1.00  0.00     0.021 C 
HETATM    2  C2  UNL     1      18.990  23.970  17.192  1.00  0.00    -0.002 C 
HETATM    3  C3  UNL     1      18.610  25.375  17.675  1.00  0.00     0.022 C 
HETATM    4  C4  UNL     1      19.689  26.376  17.432  1.00  0.00     0.079 C 
HETATM    5  C5  UNL     1      20.447  26.171  16.197  1.00  0.00     0.127 C 
HETATM    6  O1  UNL     1      20.959  27.166  15.685  1.00  0.00    -0.298 OA
HETATM    7  C6  UNL     1      20.652  24.873  15.509  1.00  0.00     0.091 C 
HETATM    8  C7  UNL     1      19.453  24.015  15.754  1.00  0.00     0.075 C 
HETATM    9  C8  UNL     1      18.321  24.689  15.025  1.00  0.00     0.136 C 
HETATM   10  O2  UNL     1      18.390  25.732  14.457  1.00  0.00    -0.297 OA
HETATM   11  C9  UNL     1      17.025  23.951  15.044  1.00  0.00     0.114 C 
HETATM   12  C10 UNL     1      16.891  23.101  16.288  1.00  0.00    -0.053 C 
HETATM   13  C11 UNL     1      17.785  23.115  17.255  1.00  0.00     0.008 C 
HETATM   14  C12 UNL     1      17.582  22.285  18.450  1.00  0.00     0.225 C 
HETATM   15  O3  UNL     1      18.408  22.284  19.371  1.00  0.00    -0.284 OA
HETATM   16  C13 UNL     1      16.394  21.472  18.519  1.00  0.00     0.205 C 
HETATM   17  O4  UNL     1      16.381  20.562  19.385  1.00  0.00    -0.288 OA
HETATM   18  C14 UNL     1      15.266  21.710  17.619  1.00  0.00     0.094 C 
HETATM   19  C15 UNL     1      14.395  20.486  17.527  1.00  0.00     0.051 C 
HETATM   20  C16 UNL     1      15.166  19.181  17.614  1.00  0.00     0.026 C 
HETATM   21  C29 UNL     1      13.649  20.412  16.232  1.00  0.00     0.138 C 
HETATM   22  O10 UNL     1      12.468  20.211  16.207  1.00  0.00    -0.297 OA
HETATM   23  C30 UNL     1      14.404  20.594  14.981  1.00  0.00     0.080 C 
HETATM   24  C31 UNL     1      15.751  21.254  15.204  1.00  0.00     0.022 C 
HETATM   25  C32 UNL     1      15.640  22.273  16.287  1.00  0.00    -0.007 C 
HETATM   26  C33 UNL     1      14.513  23.247  15.889  1.00  0.00     0.021 C 
ENDROOT
BRANCH  19  27
HETATM   27  C17 UNL     1      13.460  20.521  18.697  1.00  0.00     0.196 C 
BRANCH  27  28
HETATM   28  O5  UNL     1      13.281  19.263  19.326  1.00  0.00    -0.320 OA
BRANCH  28  29
HETATM   29  C18 UNL     1      12.036  18.690  19.472  1.00  0.00     0.259 C 
HETATM   30  O6  UNL     1      11.561  18.710  20.653  1.00  0.00    -0.265 OA
BRANCH  29  31
HETATM   31  C19 UNL     1      11.249  18.075  18.377  1.00  0.00     0.120 C 
BRANCH  31  32
HETATM   32  C20 UNL     1      11.818  16.748  17.978  1.00  0.00     0.112 C 
BRANCH  32  33
HETATM   33  C21 UNL     1      11.517  16.411  16.531  1.00  0.00     0.217 C 
HETATM   34  O7  UNL     1      11.442  15.204  16.268  1.00  0.00    -0.274 OA
HETATM   35  N1  UNL     1      11.363  17.510  15.665  1.00  0.00    -0.361 N 
ATOM     36  H1  UNL     1      11.486  18.436  16.075  1.00  0.00     0.162 HD
BRANCH  35  37
HETATM   37  C22 UNL     1      11.055  17.465  14.284  1.00  0.00     0.122 C 
BRANCH  37  38
HETATM   38  C23 UNL     1      11.947  18.133  13.355  1.00  0.00     0.020 C 
BRANCH  38  39
HETATM   39  C24 UNL     1      11.587  19.449  12.807  1.00  0.00     0.002 C 
BRANCH  39  40
HETATM   40  C25 UNL     1      10.080  19.378  12.409  1.00  0.00     0.001 C 
BRANCH  40  41
HETATM   41  C26 UNL     1       9.354  20.606  12.840  1.00  0.00     0.010 C 
BRANCH  41  42
HETATM   42  C27 UNL     1      10.065  21.298  13.950  1.00  0.00     0.113 C 
BRANCH  42  43
HETATM   43  C28 UNL     1       9.279  21.031  15.215  1.00  0.00     0.172 C 
HETATM   44  O8  UNL     1       8.604  22.008  15.685  1.00  0.00    -0.648 OA
HETATM   45  O9  UNL     1       9.291  19.798  15.819  1.00  0.00    -0.648 OA
ENDBRANCH  42  43
ENDBRANCH  41  42
ENDBRANCH  40  41
ENDBRANCH  39  40
ENDBRANCH  38  39
ENDBRANCH  37  38
ENDBRANCH  35  37
ENDBRANCH  32  33
ENDBRANCH  31  32
ENDBRANCH  29  31
ENDBRANCH  28  29
ENDBRANCH  27  28
ENDBRANCH  19  27
TORSDOF 13
ENDMDL
MODEL 4
REMARK VINA RESULT: -9.314907659      0.771      1.180
REMARK  13 active torsions:
REMARK  status: ('A' for Active; 'I' for Inactive)
REMARK    1  A    between atoms: C15_19  and  C17_21 
REMARK    2  A    between atoms: C17_21  and  O5_22 
REMARK    3  A    between atoms: O5_22  and  C18_23 
REMARK    4  A    between atoms: C18_23  and  C19_25 
REMARK    5  A    between atoms: C19_25  and  C20_26 
REMARK    6  A    between atoms: C20_26  and  C21_27 
REMARK       I    between atoms: C21_27  and  N1_29 
REMARK    7  A    between atoms: N1_29  and  C22_31 
REMARK    8  A    between atoms: C22_31  and  C23_32 
REMARK    9  A    between atoms: C23_32  and  C24_33 
REMARK   10  A    between atoms: C24_33  and  C25_34 
REMARK   11  A    between atoms: C25_34  and  C26_35 
REMARK   12  A    between atoms: C26_35  and  C27_36 
REMARK   13  A    between atoms: C27_36  and  C28_37 
ROOT
HETATM    1  C1  UNL     1      21.848  23.347  20.658  1.00  0.00     0.021 C 
HETATM    2  C2  UNL     1      21.039  24.363  19.940  1.00  0.00    -0.002 C 
HETATM    3  C3  UNL     1      20.550  25.357  21.000  1.00  0.00     0.022 C 
HETATM    4  C4  UNL     1      21.667  26.116  21.634  1.00  0.00     0.079 C 
HETATM    5  C5  UNL     1      22.773  26.443  20.732  1.00  0.00     0.127 C 
HETATM    6  O1  UNL     1      23.437  27.443  21.004  1.00  0.00    -0.298 OA
HETATM    7  C6  UNL     1      23.162  25.678  19.522  1.00  0.00     0.091 C 
HETATM    8  C7  UNL     1      21.933  25.059  18.939  1.00  0.00     0.075 C 
HETATM    9  C8  UNL     1      21.101  26.212  18.443  1.00  0.00     0.136 C 
HETATM   10  O2  UNL     1      21.364  27.363  18.583  1.00  0.00    -0.297 OA
HETATM   11  C9  UNL     1      19.853  25.829  17.721  1.00  0.00     0.114 C 
HETATM   12  C10 UNL     1      19.319  24.500  18.208  1.00  0.00    -0.053 C 
HETATM   13  C11 UNL     1      19.862  23.843  19.212  1.00  0.00     0.008 C 
HETATM   14  C12 UNL     1      19.278  22.569  19.653  1.00  0.00     0.225 C 
HETATM   15  O3  UNL     1      19.770  21.936  20.595  1.00  0.00    -0.284 OA
HETATM   16  C13 UNL     1      18.115  22.078  18.957  1.00  0.00     0.205 C 
HETATM   17  O4  UNL     1      17.814  20.872  19.141  1.00  0.00    -0.288 OA
HETATM   18  C14 UNL     1      17.334  22.953  18.086  1.00  0.00     0.094 C 
HETATM   19  C15 UNL     1      16.516  22.144  17.116  1.00  0.00     0.051 C 
HETATM   20  C16 UNL     1      17.197  20.865  16.663  1.00  0.00     0.026 C 
HETATM   21  C29 UNL     1      16.216  22.892  15.856  1.00  0.00     0.138 C 
HETATM   22  O10 UNL     1      15.100  22.958  15.425  1.00  0.00    -0.297 OA
HETATM   23  C30 UNL     1      17.330  23.551  15.155  1.00  0.00     0.080 C 
HETATM   24  C31 UNL     1      18.548  23.734  16.038  1.00  0.00     0.022 C 
HETATM   25  C32 UNL     1      18.119  24.044  17.432  1.00  0.00    -0.007 C 
HETATM   26  C33 UNL     1      17.191  25.274  17.365  1.00  0.00     0.021 C 
ENDROOT
BRANCH  19  27
HETATM   27  C17 UNL     1      15.260  21.741  17.828  1.00  0.00     0.196 C 
BRANCH  27  28
HETATM   28  O5  UNL     1      14.919  20.375  17.661  1.00  0.00    -0.320 OA
BRANCH  28  29
HETATM   29  C18 UNL     1      14.619  19.561  18.732  1.00  0.00     0.259 C 
HETATM   30  O6  UNL     1      14.644  20.126  19.872  1.00  0.00    -0.265 OA
BRANCH  29  31
HETATM   31  C19 UNL     1      14.283  18.121  18.637  1.00  0.00     0.120 C 
BRANCH  31  32
HETATM   32  C20 UNL     1      13.296  17.722  19.692  1.00  0.00     0.112 C 
BRANCH  32  33
HETATM   33  C21 UNL     1      11.871  17.739  19.174  1.00  0.00     0.217 C 
HETATM   34  O7  UNL     1      11.010  18.087  19.992  1.00  0.00    -0.274 OA
HETATM   35  N1  UNL     1      11.702  17.354  17.831  1.00  0.00    -0.361 N 
ATOM     36  H1  UNL     1      12.544  17.077  17.325  1.00  0.00     0.162 HD
BRANCH  35  37
HETATM   37  C22 UNL     1      10.485  17.311  17.108  1.00  0.00     0.122 C 
BRANCH  37  38
HETATM   38  C23 UNL     1      10.240  18.333  16.108  1.00  0.00     0.020 C 
BRANCH  38  39
HETATM   39  C24 UNL     1      10.533  19.742  16.411  1.00  0.00     0.002 C 
BRANCH  39  40
HETATM   40  C25 UNL     1      10.052  20.579  15.184  1.00  0.00     0.001 C 
BRANCH  40  41
HETATM   41  C26 UNL     1      11.209  21.155  14.443  1.00  0.00     0.010 C 
BRANCH  41  42
HETATM   42  C27 UNL     1      12.505  20.729  15.039  1.00  0.00     0.113 C 
BRANCH  42  43
HETATM   43  C28 UNL     1      13.274  20.004  13.955  1.00  0.00     0.172 C 
HETATM   44  O8  UNL     1      12.638  19.105  13.308  1.00  0.00    -0.648 OA
HETATM   45  O9  UNL     1      14.586  20.305  13.684  1.00  0.00    -0.648 OA
ENDBRANCH  42  43
ENDBRANCH  41  42
ENDBRANCH  40  41
ENDBRANCH  39  40
ENDBRANCH  38  39
ENDBRANCH  37  38
ENDBRANCH  35  37
ENDBRANCH  32  33
ENDBRANCH  31  32
ENDBRANCH  29  31
ENDBRANCH  28  29
ENDBRANCH  27  28
ENDBRANCH  19  27
TORSDOF 13
ENDMDL
MODEL 5
REMARK VINA RESULT: -9.250703118      1.811      2.209
REMARK  13 active torsions:
REMARK  status: ('A' for Active; 'I' for Inactive)
REMARK    1  A    between atoms: C15_19  and  C17_21 
REMARK    2  A    between atoms: C17_21  and  O5_22 
REMARK    3  A    between atoms: O5_22  and  C18_23 
REMARK    4  A    between atoms: C18_23  and  C19_25 
REMARK    5  A    between atoms: C19_25  and  C20_26 
REMARK    6  A    between atoms: C20_26  and  C21_27 
REMARK       I    between atoms: C21_27  and  N1_29 
REMARK    7  A    between atoms: N1_29  and  C22_31 
REMARK    8  A    between atoms: C22_31  and  C23_32 
REMARK    9  A    between atoms: C23_32  and  C24_33 
REMARK   10  A    between atoms: C24_33  and  C25_34 
REMARK   11  A    between atoms: C25_34  and  C26_35 
REMARK   12  A    between atoms: C26_35  and  C27_36 
REMARK   13  A    between atoms: C27_36  and  C28_37 
ROOT
HETATM    1  C1  UNL     1      21.839  23.559  20.431  1.00  0.00     0.021 C 
HETATM    2  C2  UNL     1      20.905  24.491  19.752  1.00  0.00    -0.002 C 
HETATM    3  C3  UNL     1      20.405  25.464  20.826  1.00  0.00     0.022 C 
HETATM    4  C4  UNL     1      21.494  26.324  21.373  1.00  0.00     0.079 C 
HETATM    5  C5  UNL     1      22.510  26.720  20.395  1.00  0.00     0.127 C 
HETATM    6  O1  UNL     1      23.106  27.776  20.607  1.00  0.00    -0.298 OA
HETATM    7  C6  UNL     1      22.883  25.964  19.175  1.00  0.00     0.091 C 
HETATM    8  C7  UNL     1      21.673  25.236  18.683  1.00  0.00     0.075 C 
HETATM    9  C8  UNL     1      20.720  26.306  18.225  1.00  0.00     0.136 C 
HETATM   10  O2  UNL     1      20.896  27.478  18.329  1.00  0.00    -0.297 OA
HETATM   11  C9  UNL     1      19.464  25.808  17.592  1.00  0.00     0.114 C 
HETATM   12  C10 UNL     1      19.072  24.452  18.133  1.00  0.00    -0.053 C 
HETATM   13  C11 UNL     1      19.731  23.862  19.111  1.00  0.00     0.008 C 
HETATM   14  C12 UNL     1      19.283  22.555  19.609  1.00  0.00     0.225 C 
HETATM   15  O3  UNL     1      19.884  21.983  20.527  1.00  0.00    -0.284 OA
HETATM   16  C13 UNL     1      18.122  21.956  18.999  1.00  0.00     0.205 C 
HETATM   17  O4  UNL     1      17.933  20.734  19.221  1.00  0.00    -0.288 OA
HETATM   18  C14 UNL     1      17.217  22.747  18.167  1.00  0.00     0.094 C 
HETATM   19  C15 UNL     1      16.408  21.854  17.266  1.00  0.00     0.051 C 
HETATM   20  C16 UNL     1      17.162  20.625  16.789  1.00  0.00     0.026 C 
HETATM   21  C29 UNL     1      15.968  22.548  16.016  1.00  0.00     0.138 C 
HETATM   22  O10 UNL     1      14.825  22.515  15.657  1.00  0.00    -0.297 OA
HETATM   23  C30 UNL     1      16.978  23.280  15.233  1.00  0.00     0.080 C 
HETATM   24  C31 UNL     1      18.230  23.580  16.032  1.00  0.00     0.022 C 
HETATM   25  C32 UNL     1      17.867  23.884  17.446  1.00  0.00    -0.007 C 
HETATM   26  C33 UNL     1      16.839  25.033  17.419  1.00  0.00     0.021 C 
ENDROOT
BRANCH  19  27
HETATM   27  C17 UNL     1      15.237  21.366  18.064  1.00  0.00     0.196 C 
BRANCH  27  28
HETATM   28  O5  UNL     1      14.891  20.015  17.807  1.00  0.00    -0.320 OA
BRANCH  28  29
HETATM   29  C18 UNL     1      14.436  19.176  18.801  1.00  0.00     0.259 C 
HETATM   30  O6  UNL     1      14.252  19.723  19.936  1.00  0.00    -0.265 OA
BRANCH  29  31
HETATM   31  C19 UNL     1      14.160  17.730  18.633  1.00  0.00     0.120 C 
BRANCH  31  32
HETATM   32  C20 UNL     1      12.761  17.392  19.046  1.00  0.00     0.112 C 
BRANCH  32  33
HETATM   33  C21 UNL     1      11.730  17.987  18.107  1.00  0.00     0.217 C 
HETATM   34  O7  UNL     1      10.896  18.735  18.634  1.00  0.00    -0.274 OA
HETATM   35  N1  UNL     1      11.845  17.616  16.754  1.00  0.00    -0.361 N 
ATOM     36  H1  UNL     1      12.595  16.964  16.522  1.00  0.00     0.162 HD
BRANCH  35  37
HETATM   37  C22 UNL     1      11.029  18.052  15.682  1.00  0.00     0.122 C 
BRANCH  37  38
HETATM   38  C23 UNL     1      11.493  19.160  14.869  1.00  0.00     0.020 C 
BRANCH  38  39
HETATM   39  C24 UNL     1      11.220  20.543  15.286  1.00  0.00     0.002 C 
BRANCH  39  40
HETATM   40  C25 UNL     1      10.661  21.293  14.036  1.00  0.00     0.001 C 
BRANCH  40  41
HETATM   41  C26 UNL     1       9.246  20.910  13.771  1.00  0.00     0.010 C 
BRANCH  41  42
HETATM   42  C27 UNL     1       8.489  22.025  13.138  1.00  0.00     0.113 C 
BRANCH  42  43
HETATM   43  C28 UNL     1       7.719  21.435  11.976  1.00  0.00     0.172 C 
HETATM   44  O8  UNL     1       7.975  20.219  11.680  1.00  0.00    -0.648 OA
HETATM   45  O9  UNL     1       6.791  22.172  11.283  1.00  0.00    -0.648 OA
ENDBRANCH  42  43
ENDBRANCH  41  42
ENDBRANCH  40  41
ENDBRANCH  39  40
ENDBRANCH  38  39
ENDBRANCH  37  38
ENDBRANCH  35  37
ENDBRANCH  32  33
ENDBRANCH  31  32
ENDBRANCH  29  31
ENDBRANCH  28  29
ENDBRANCH  27  28
ENDBRANCH  19  27
TORSDOF 13
ENDMDL
