MODEL 1
REMARK VINA RESULT: -8.745274345      0.000      0.000
REMARK  13 active torsions:
REMARK  status: ('A' for Active; 'I' for Inactive)
REMARK    1  A    between atoms: C2_2  and  C3_3 
REMARK    2  A    between atoms: C3_3  and  N1_4 
REMARK    3  A    between atoms: N1_4  and  C4_6 
REMARK    4  A    between atoms: C5_9  and  N3_10 
REMARK    5  A    between atoms: N3_10  and  C6_12 
REMARK    6  A    between atoms: C6_12  and  C7_13 
REMARK    7  A    between atoms: C7_13  and  N4_14 
REMARK    8  A    between atoms: N5_17  and  C10_18 
REMARK    9  A    between atoms: N7_31  and  C19_33 
REMARK   10  A    between atoms: C19_33  and  C20_34 
REMARK   11  A    between atoms: C22_36  and  O1_37 
REMARK   12  A    between atoms: C24_39  and  O2_40 
REMARK   13  A    between atoms: C26_42  and  O3_43 
ROOT
HETATM    1  C4  UNL     1       9.776  19.266  16.951  1.00  0.00     0.707 A 
HETATM    2  N2  UNL     1       9.555  18.551  18.092  1.00  0.00    -0.022 N 
ATOM      3  H2  UNL     1       8.950  17.729  18.075  1.00  0.00     0.203 HD
HETATM    4  C5  UNL     1      10.135  18.934  19.226  1.00  0.00     0.707 A 
HETATM    5  N6  UNL     1      10.950  20.028  19.281  1.00  0.00    -0.022 N 
ATOM      6  H6  UNL     1      11.381  20.296  20.166  1.00  0.00     0.203 HD
HETATM    7  C18 UNL     1      11.184  20.745  18.182  1.00  0.00     0.707 A 
HETATM    8  N7  UNL     1      11.937  21.783  18.136  1.00  0.00    -0.221 N 
ATOM      9  H7  UNL     1      12.032  22.240  17.229  1.00  0.00     0.178 HD
HETATM   10  N8  UNL     1      10.578  20.334  17.026  1.00  0.00    -0.022 N 
ATOM     11  H8  UNL     1      10.746  20.871  16.176  1.00  0.00     0.203 HD
ENDROOT
BRANCH   4  12
HETATM   12  N3  UNL     1       9.958  18.295  20.305  1.00  0.00    -0.224 N 
ATOM     13  H3  UNL     1      10.733  17.702  20.601  1.00  0.00     0.177 HD
BRANCH  12  14
HETATM   14  C6  UNL     1       8.814  18.295  21.160  1.00  0.00     0.158 C 
BRANCH  14  15
HETATM   15  C7  UNL     1       7.943  17.122  20.749  1.00  0.00     0.143 C 
BRANCH  15  16
HETATM   16  N4  UNL     1       6.636  17.555  20.322  1.00  0.00    -0.376 N 
HETATM   17  C8  UNL     1       5.888  18.435  21.199  1.00  0.00     0.143 C 
HETATM   18  C9  UNL     1       4.426  18.441  20.934  1.00  0.00     0.143 C 
HETATM   19  N5  UNL     1       4.088  18.577  19.517  1.00  0.00    -0.375 N 
HETATM   20  C12 UNL     1       4.785  17.666  18.679  1.00  0.00     0.096 A 
HETATM   21  C13 UNL     1       4.223  17.289  17.481  1.00  0.00     0.146 A 
HETATM   22  C17 UNL     1       6.036  17.176  19.095  1.00  0.00     0.062 A 
HETATM   23  F1  UNL     1       3.030  17.807  17.159  1.00  0.00    -0.204 F 
HETATM   24  C14 UNL     1       4.884  16.409  16.651  1.00  0.00     0.068 A 
HETATM   25  C15 UNL     1       6.113  15.923  17.054  1.00  0.00     0.039 A 
HETATM   26 CL1  UNL     1       7.001  14.808  16.056  1.00  0.00    -0.084 Cl
HETATM   27  C16 UNL     1       6.679  16.307  18.269  1.00  0.00     0.055 A 
BRANCH  19  28
HETATM   28  C10 UNL     1       3.147  19.547  19.056  1.00  0.00     0.119 C 
HETATM   29  C11 UNL     1       3.685  20.953  18.919  1.00  0.00     0.026 C 
ENDBRANCH  19  28
ENDBRANCH  15  16
ENDBRANCH  14  15
ENDBRANCH  12  14
ENDBRANCH   4  12
BRANCH   1  30
HETATM   30  N1  UNL     1       9.207  18.870  15.885  1.00  0.00    -0.222 N 
ATOM     31  H1  UNL     1       8.751  19.572  15.303  1.00  0.00     0.178 HD
BRANCH  30  32
HETATM   32  C3  UNL     1       9.160  17.504  15.442  1.00  0.00     0.164 C 
BRANCH  32  33
HETATM   33  C2  UNL     1      10.532  17.113  14.950  1.00  0.00    -0.017 C 
HETATM   34  C1  UNL     1      10.675  16.235  13.986  1.00  0.00     0.008 C 
ENDBRANCH  32  33
ENDBRANCH  30  32
ENDBRANCH   1  30
BRANCH   8  35
HETATM   35  C19 UNL     1      12.653  22.359  19.224  1.00  0.00     0.176 C 
BRANCH  35  36
HETATM   36  C20 UNL     1      14.032  22.771  18.815  1.00  0.00    -0.035 A 
HETATM   37  C21 UNL     1      14.935  23.359  19.663  1.00  0.00     0.048 A 
HETATM   38  C22 UNL     1      16.202  23.732  19.276  1.00  0.00     0.104 A 
HETATM   39  C24 UNL     1      16.571  23.499  17.975  1.00  0.00     0.135 A 
HETATM   40  C26 UNL     1      15.697  22.907  17.077  1.00  0.00     0.104 A 
HETATM   41  C28 UNL     1      14.422  22.543  17.507  1.00  0.00     0.048 A 
BRANCH  38  42
HETATM   42  O1  UNL     1      17.040  24.320  20.204  1.00  0.00    -0.353 OA
HETATM   43  C23 UNL     1      16.553  25.300  21.090  1.00  0.00     0.210 C 
ENDBRANCH  38  42
BRANCH  39  44
HETATM   44  O2  UNL     1      17.844  23.861  17.541  1.00  0.00    -0.351 OA
HETATM   45  C25 UNL     1      18.024  25.193  17.097  1.00  0.00     0.210 C 
ENDBRANCH  39  44
BRANCH  40  46
HETATM   46  O3  UNL     1      16.044  22.661  15.762  1.00  0.00    -0.353 OA
HETATM   47  C27 UNL     1      15.925  21.371  15.208  1.00  0.00     0.210 C 
ENDBRANCH  40  46
ENDBRANCH  35  36
ENDBRANCH   8  35
TORSDOF 13
ENDMDL
MODEL 2
REMARK VINA RESULT: -8.686344978      0.148      2.036
REMARK  13 active torsions:
REMARK  status: ('A' for Active; 'I' for Inactive)
REMARK    1  A    between atoms: C2_2  and  C3_3 
REMARK    2  A    between atoms: C3_3  and  N1_4 
REMARK    3  A    between atoms: N1_4  and  C4_6 
REMARK    4  A    between atoms: C5_9  and  N3_10 
REMARK    5  A    between atoms: N3_10  and  C6_12 
REMARK    6  A    between atoms: C6_12  and  C7_13 
REMARK    7  A    between atoms: C7_13  and  N4_14 
REMARK    8  A    between atoms: N5_17  and  C10_18 
REMARK    9  A    between atoms: N7_31  and  C19_33 
REMARK   10  A    between atoms: C19_33  and  C20_34 
REMARK   11  A    between atoms: C22_36  and  O1_37 
REMARK   12  A    between atoms: C24_39  and  O2_40 
REMARK   13  A    between atoms: C26_42  and  O3_43 
ROOT
HETATM    1  C4  UNL     1       9.722  19.225  16.965  1.00  0.00     0.707 A 
HETATM    2  N2  UNL     1       9.525  18.525  18.119  1.00  0.00    -0.022 N 
ATOM      3  H2  UNL     1       8.912  17.709  18.128  1.00  0.00     0.203 HD
HETATM    4  C5  UNL     1      10.139  18.915  19.232  1.00  0.00     0.707 A 
HETATM    5  N6  UNL     1      10.966  20.001  19.253  1.00  0.00    -0.022 N 
ATOM      6  H6  UNL     1      11.423  20.276  20.122  1.00  0.00     0.203 HD
HETATM    7  C18 UNL     1      11.176  20.704  18.140  1.00  0.00     0.707 A 
HETATM    8  N7  UNL     1      11.937  21.734  18.061  1.00  0.00    -0.221 N 
ATOM      9  H7  UNL     1      12.011  22.181  17.147  1.00  0.00     0.178 HD
HETATM   10  N8  UNL     1      10.535  20.286  17.006  1.00  0.00    -0.022 N 
ATOM     11  H8  UNL     1      10.685  20.812  16.145  1.00  0.00     0.203 HD
ENDROOT
BRANCH   4  12
HETATM   12  N3  UNL     1       9.986  18.289  20.323  1.00  0.00    -0.224 N 
ATOM     13  H3  UNL     1      10.765  17.695  20.605  1.00  0.00     0.177 HD
BRANCH  12  14
HETATM   14  C6  UNL     1       8.865  18.309  21.208  1.00  0.00     0.158 C 
BRANCH  14  15
HETATM   15  C7  UNL     1       7.966  17.148  20.821  1.00  0.00     0.143 C 
BRANCH  15  16
HETATM   16  N4  UNL     1       6.653  17.601  20.436  1.00  0.00    -0.376 N 
HETATM   17  C8  UNL     1       5.945  18.489  21.336  1.00  0.00     0.143 C 
HETATM   18  C9  UNL     1       4.475  18.516  21.117  1.00  0.00     0.143 C 
HETATM   19  N5  UNL     1       4.096  18.660  19.711  1.00  0.00    -0.375 N 
HETATM   20  C12 UNL     1       4.754  17.741  18.850  1.00  0.00     0.096 A 
HETATM   21  C13 UNL     1       4.150  17.375  17.670  1.00  0.00     0.146 A 
HETATM   22  C17 UNL     1       6.010  17.233  19.227  1.00  0.00     0.062 A 
HETATM   23  F1  UNL     1       2.955  17.910  17.386  1.00  0.00    -0.204 F 
HETATM   24  C14 UNL     1       4.773  16.487  16.819  1.00  0.00     0.068 A 
HETATM   25  C15 UNL     1       6.006  15.983  17.183  1.00  0.00     0.039 A 
HETATM   26 CL1  UNL     1       6.848  14.858  16.156  1.00  0.00    -0.084 Cl
HETATM   27  C16 UNL     1       6.614  16.357  18.380  1.00  0.00     0.055 A 
BRANCH  19  28
HETATM   28  C10 UNL     1       3.155  19.644  19.281  1.00  0.00     0.119 C 
HETATM   29  C11 UNL     1       3.750  20.976  18.883  1.00  0.00     0.026 C 
ENDBRANCH  19  28
ENDBRANCH  15  16
ENDBRANCH  14  15
ENDBRANCH  12  14
ENDBRANCH   4  12
BRANCH   1  30
HETATM   30  N1  UNL     1       9.119  18.822  15.919  1.00  0.00    -0.222 N 
ATOM     31  H1  UNL     1       8.623  19.517  15.362  1.00  0.00     0.178 HD
BRANCH  30  32
HETATM   32  C3  UNL     1       9.089  17.459  15.466  1.00  0.00     0.164 C 
BRANCH  32  33
HETATM   33  C2  UNL     1      10.475  17.076  15.009  1.00  0.00    -0.017 C 
HETATM   34  C1  UNL     1      10.646  16.254  14.002  1.00  0.00     0.008 C 
ENDBRANCH  32  33
ENDBRANCH  30  32
ENDBRANCH   1  30
BRANCH   8  35
HETATM   35  C19 UNL     1      12.688  22.316  19.122  1.00  0.00     0.176 C 
BRANCH  35  36
HETATM   36  C20 UNL     1      14.051  22.732  18.665  1.00  0.00    -0.035 A 
HETATM   37  C21 UNL     1      14.498  22.593  17.377  1.00  0.00     0.048 A 
HETATM   38  C22 UNL     1      15.753  22.981  16.967  1.00  0.00     0.104 A 
HETATM   39  C24 UNL     1      16.590  23.535  17.903  1.00  0.00     0.135 A 
HETATM   40  C26 UNL     1      16.188  23.699  19.219  1.00  0.00     0.104 A 
HETATM   41  C28 UNL     1      14.909  23.292  19.595  1.00  0.00     0.048 A 
BRANCH  38  42
HETATM   42  O1  UNL     1      16.113  22.799  15.646  1.00  0.00    -0.353 OA
HETATM   43  C23 UNL     1      16.294  21.504  15.124  1.00  0.00     0.210 C 
ENDBRANCH  38  42
BRANCH  39  44
HETATM   44  O2  UNL     1      17.870  23.942  17.532  1.00  0.00    -0.351 OA
HETATM   45  C25 UNL     1      18.020  25.271  17.067  1.00  0.00     0.210 C 
ENDBRANCH  39  44
BRANCH  40  46
HETATM   46  O3  UNL     1      17.012  24.253  20.179  1.00  0.00    -0.353 OA
HETATM   47  C27 UNL     1      16.528  25.220  21.082  1.00  0.00     0.210 C 
ENDBRANCH  40  46
ENDBRANCH  35  36
ENDBRANCH   8  35
TORSDOF 13
ENDMDL
MODEL 3
REMARK VINA RESULT: -8.536263009      5.282     10.578
REMARK  13 active torsions:
REMARK  status: ('A' for Active; 'I' for Inactive)
REMARK    1  A    between atoms: C2_2  and  C3_3 
REMARK    2  A    between atoms: C3_3  and  N1_4 
REMARK    3  A    between atoms: N1_4  and  C4_6 
REMARK    4  A    between atoms: C5_9  and  N3_10 
REMARK    5  A    between atoms: N3_10  and  C6_12 
REMARK    6  A    between atoms: C6_12  and  C7_13 
REMARK    7  A    between atoms: C7_13  and  N4_14 
REMARK    8  A    between atoms: N5_17  and  C10_18 
REMARK    9  A    between atoms: N7_31  and  C19_33 
REMARK   10  A    between atoms: C19_33  and  C20_34 
REMARK   11  A    between atoms: C22_36  and  O1_37 
REMARK   12  A    between atoms: C24_39  and  O2_40 
REMARK   13  A    between atoms: C26_42  and  O3_43 
ROOT
HETATM    1  C4  UNL     1       9.984  17.658  16.218  1.00  0.00     0.707 A 
HETATM    2  N2  UNL     1      11.110  17.840  16.967  1.00  0.00    -0.022 N 
ATOM      3  H2  UNL     1      12.017  17.529  16.617  1.00  0.00     0.203 HD
HETATM    4  C5  UNL     1      11.016  18.427  18.156  1.00  0.00     0.707 A 
HETATM    5  N6  UNL     1       9.818  18.856  18.652  1.00  0.00    -0.022 N 
ATOM      6  H6  UNL     1       9.777  19.303  19.567  1.00  0.00     0.203 HD
HETATM    7  C18 UNL     1       8.701  18.690  17.942  1.00  0.00     0.707 A 
HETATM    8  N7  UNL     1       7.534  19.063  18.322  1.00  0.00    -0.221 N 
ATOM      9  H7  UNL     1       6.762  18.877  17.682  1.00  0.00     0.178 HD
HETATM   10  N8  UNL     1       8.821  18.084  16.721  1.00  0.00    -0.022 N 
ATOM     11  H8  UNL     1       7.976  17.950  16.165  1.00  0.00     0.203 HD
ENDROOT
BRANCH   4  12
HETATM   12  N3  UNL     1      12.037  18.619  18.879  1.00  0.00    -0.224 N 
ATOM     13  H3  UNL     1      12.002  18.211  19.813  1.00  0.00     0.177 HD
BRANCH  12  14
HETATM   14  C6  UNL     1      13.232  19.332  18.557  1.00  0.00     0.158 C 
BRANCH  14  15
HETATM   15  C7  UNL     1      12.815  20.648  17.925  1.00  0.00     0.143 C 
BRANCH  15  16
HETATM   16  N4  UNL     1      13.781  21.688  18.176  1.00  0.00    -0.376 N 
HETATM   17  C8  UNL     1      13.662  22.449  19.404  1.00  0.00     0.143 C 
HETATM   18  C9  UNL     1      14.357  23.762  19.364  1.00  0.00     0.143 C 
HETATM   19  N5  UNL     1      15.719  23.686  18.834  1.00  0.00    -0.375 N 
HETATM   20  C12 UNL     1      15.809  22.989  17.600  1.00  0.00     0.096 A 
HETATM   21  C13 UNL     1      16.837  23.284  16.735  1.00  0.00     0.146 A 
HETATM   22  C17 UNL     1      14.846  22.011  17.297  1.00  0.00     0.062 A 
HETATM   23  F1  UNL     1      17.715  24.227  17.103  1.00  0.00    -0.204 F 
HETATM   24  C14 UNL     1      16.945  22.617  15.533  1.00  0.00     0.068 A 
HETATM   25  C15 UNL     1      16.001  21.656  15.228  1.00  0.00     0.039 A 
HETATM   26 CL1  UNL     1      16.076  20.776  13.728  1.00  0.00    -0.084 Cl
HETATM   27  C16 UNL     1      14.961  21.360  16.107  1.00  0.00     0.055 A 
BRANCH  19  28
HETATM   28  C10 UNL     1      16.829  24.266  19.522  1.00  0.00     0.119 C 
HETATM   29  C11 UNL     1      16.481  25.026  20.782  1.00  0.00     0.026 C 
ENDBRANCH  19  28
ENDBRANCH  15  16
ENDBRANCH  14  15
ENDBRANCH  12  14
ENDBRANCH   4  12
BRANCH   1  30
HETATM   30  N1  UNL     1      10.113  17.093  15.085  1.00  0.00    -0.222 N 
ATOM     31  H1  UNL     1      11.053  17.010  14.701  1.00  0.00     0.178 HD
BRANCH  30  32
HETATM   32  C3  UNL     1       9.027  16.565  14.307  1.00  0.00     0.164 C 
BRANCH  32  33
HETATM   33  C2  UNL     1       8.728  15.167  14.789  1.00  0.00    -0.017 C 
HETATM   34  C1  UNL     1       7.620  14.903  15.439  1.00  0.00     0.008 C 
ENDBRANCH  32  33
ENDBRANCH  30  32
ENDBRANCH   1  30
BRANCH   8  35
HETATM   35  C19 UNL     1       7.209  19.711  19.548  1.00  0.00     0.176 C 
BRANCH  35  36
HETATM   36  C20 UNL     1       6.136  18.976  20.288  1.00  0.00    -0.035 A 
HETATM   37  C21 UNL     1       4.796  19.145  20.053  1.00  0.00     0.048 A 
HETATM   38  C22 UNL     1       3.817  18.463  20.738  1.00  0.00     0.104 A 
HETATM   39  C24 UNL     1       4.213  17.570  21.703  1.00  0.00     0.135 A 
HETATM   40  C26 UNL     1       5.554  17.362  21.981  1.00  0.00     0.104 A 
HETATM   41  C28 UNL     1       6.516  18.073  21.265  1.00  0.00     0.048 A 
BRANCH  38  42
HETATM   42  O1  UNL     1       2.492  18.701  20.429  1.00  0.00    -0.353 OA
HETATM   43  C23 UNL     1       2.148  19.530  19.344  1.00  0.00     0.210 C 
ENDBRANCH  38  42
BRANCH  39  44
HETATM   44  O2  UNL     1       3.256  16.858  22.422  1.00  0.00    -0.351 OA
HETATM   45  C25 UNL     1       2.757  17.453  23.606  1.00  0.00     0.210 C 
ENDBRANCH  39  44
BRANCH  40  46
HETATM   46  O3  UNL     1       5.979  16.470  22.947  1.00  0.00    -0.353 OA
HETATM   47  C27 UNL     1       7.336  16.108  23.057  1.00  0.00     0.210 C 
ENDBRANCH  40  46
ENDBRANCH  35  36
ENDBRANCH   8  35
TORSDOF 13
ENDMDL
MODEL 4
REMARK VINA RESULT: -8.535623031      5.287     10.523
REMARK  13 active torsions:
REMARK  status: ('A' for Active; 'I' for Inactive)
REMARK    1  A    between atoms: C2_2  and  C3_3 
REMARK    2  A    between atoms: C3_3  and  N1_4 
REMARK    3  A    between atoms: N1_4  and  C4_6 
REMARK    4  A    between atoms: C5_9  and  N3_10 
REMARK    5  A    between atoms: N3_10  and  C6_12 
REMARK    6  A    between atoms: C6_12  and  C7_13 
REMARK    7  A    between atoms: C7_13  and  N4_14 
REMARK    8  A    between atoms: N5_17  and  C10_18 
REMARK    9  A    between atoms: N7_31  and  C19_33 
REMARK   10  A    between atoms: C19_33  and  C20_34 
REMARK   11  A    between atoms: C22_36  and  O1_37 
REMARK   12  A    between atoms: C24_39  and  O2_40 
REMARK   13  A    between atoms: C26_42  and  O3_43 
ROOT
HETATM    1  C4  UNL     1      10.016  17.667  16.202  1.00  0.00     0.707 A 
HETATM    2  N2  UNL     1      11.141  17.856  16.951  1.00  0.00    -0.022 N 
ATOM      3  H2  UNL     1      12.050  17.550  16.600  1.00  0.00     0.203 HD
HETATM    4  C5  UNL     1      11.044  18.442  18.140  1.00  0.00     0.707 A 
HETATM    5  N6  UNL     1       9.844  18.863  18.636  1.00  0.00    -0.022 N 
ATOM      6  H6  UNL     1       9.801  19.310  19.552  1.00  0.00     0.203 HD
HETATM    7  C18 UNL     1       8.728  18.692  17.927  1.00  0.00     0.707 A 
HETATM    8  N7  UNL     1       7.559  19.057  18.308  1.00  0.00    -0.221 N 
ATOM      9  H7  UNL     1       6.788  18.867  17.668  1.00  0.00     0.178 HD
HETATM   10  N8  UNL     1       8.850  18.086  16.706  1.00  0.00    -0.022 N 
ATOM     11  H8  UNL     1       8.007  17.947  16.149  1.00  0.00     0.203 HD
ENDROOT
BRANCH   4  12
HETATM   12  N3  UNL     1      12.065  18.639  18.862  1.00  0.00    -0.224 N 
ATOM     13  H3  UNL     1      12.031  18.233  19.797  1.00  0.00     0.177 HD
BRANCH  12  14
HETATM   14  C6  UNL     1      13.257  19.357  18.539  1.00  0.00     0.158 C 
BRANCH  14  15
HETATM   15  C7  UNL     1      12.833  20.676  17.918  1.00  0.00     0.143 C 
BRANCH  15  16
HETATM   16  N4  UNL     1      13.798  21.717  18.174  1.00  0.00    -0.376 N 
HETATM   17  C8  UNL     1      13.666  22.486  19.395  1.00  0.00     0.143 C 
HETATM   18  C9  UNL     1      14.363  23.798  19.355  1.00  0.00     0.143 C 
HETATM   19  N5  UNL     1      15.730  23.718  18.841  1.00  0.00    -0.375 N 
HETATM   20  C12 UNL     1      15.834  23.012  17.612  1.00  0.00     0.096 A 
HETATM   21  C13 UNL     1      16.872  23.301  16.757  1.00  0.00     0.146 A 
HETATM   22  C17 UNL     1      14.873  22.034  17.305  1.00  0.00     0.062 A 
HETATM   23  F1  UNL     1      17.747  24.245  17.130  1.00  0.00    -0.204 F 
HETATM   24  C14 UNL     1      16.993  22.626  15.561  1.00  0.00     0.068 A 
HETATM   25  C15 UNL     1      16.051  21.664  15.251  1.00  0.00     0.039 A 
HETATM   26 CL1  UNL     1      16.142  20.775  13.758  1.00  0.00    -0.084 Cl
HETATM   27  C16 UNL     1      15.001  21.375  16.121  1.00  0.00     0.055 A 
BRANCH  19  28
HETATM   28  C10 UNL     1      16.833  24.300  19.538  1.00  0.00     0.119 C 
HETATM   29  C11 UNL     1      16.471  25.074  20.786  1.00  0.00     0.026 C 
ENDBRANCH  19  28
ENDBRANCH  15  16
ENDBRANCH  14  15
ENDBRANCH  12  14
ENDBRANCH   4  12
BRANCH   1  30
HETATM   30  N1  UNL     1      10.147  17.103  15.068  1.00  0.00    -0.222 N 
ATOM     31  H1  UNL     1      11.088  17.030  14.682  1.00  0.00     0.178 HD
BRANCH  30  32
HETATM   32  C3  UNL     1       9.065  16.563  14.294  1.00  0.00     0.164 C 
BRANCH  32  33
HETATM   33  C2  UNL     1       8.767  15.171  14.794  1.00  0.00    -0.017 C 
HETATM   34  C1  UNL     1       7.651  14.911  15.432  1.00  0.00     0.008 C 
ENDBRANCH  32  33
ENDBRANCH  30  32
ENDBRANCH   1  30
BRANCH   8  35
HETATM   35  C19 UNL     1       7.230  19.703  19.534  1.00  0.00     0.176 C 
BRANCH  35  36
HETATM   36  C20 UNL     1       6.202  18.932  20.300  1.00  0.00    -0.035 A 
HETATM   37  C21 UNL     1       6.504  18.042  21.298  1.00  0.00     0.048 A 
HETATM   38  C22 UNL     1       5.550  17.339  21.998  1.00  0.00     0.104 A 
HETATM   39  C24 UNL     1       4.233  17.549  21.674  1.00  0.00     0.135 A 
HETATM   40  C26 UNL     1       3.873  18.438  20.674  1.00  0.00     0.104 A 
HETATM   41  C28 UNL     1       4.869  19.130  19.988  1.00  0.00     0.048 A 
BRANCH  38  42
HETATM   42  O1  UNL     1       5.954  16.463  22.987  1.00  0.00    -0.353 OA
HETATM   43  C23 UNL     1       7.310  16.106  23.117  1.00  0.00     0.210 C 
ENDBRANCH  38  42
BRANCH  39  44
HETATM   44  O2  UNL     1       3.234  16.859  22.357  1.00  0.00    -0.351 OA
HETATM   45  C25 UNL     1       2.702  17.469  23.519  1.00  0.00     0.210 C 
ENDBRANCH  39  44
BRANCH  40  46
HETATM   46  O3  UNL     1       2.554  18.667  20.330  1.00  0.00    -0.353 OA
HETATM   47  C27 UNL     1       2.142  18.653  18.982  1.00  0.00     0.210 C 
ENDBRANCH  40  46
ENDBRANCH  35  36
ENDBRANCH   8  35
TORSDOF 13
ENDMDL
MODEL 5
REMARK VINA RESULT: -8.528141113      5.464     10.749
REMARK  13 active torsions:
REMARK  status: ('A' for Active; 'I' for Inactive)
REMARK    1  A    between atoms: C2_2  and  C3_3 
REMARK    2  A    between atoms: C3_3  and  N1_4 
REMARK    3  A    between atoms: N1_4  and  C4_6 
REMARK    4  A    between atoms: C5_9  and  N3_10 
REMARK    5  A    between atoms: N3_10  and  C6_12 
REMARK    6  A    between atoms: C6_12  and  C7_13 
REMARK    7  A    between atoms: C7_13  and  N4_14 
REMARK    8  A    between atoms: N5_17  and  C10_18 
REMARK    9  A    between atoms: N7_31  and  C19_33 
REMARK   10  A    between atoms: C19_33  and  C20_34 
REMARK   11  A    between atoms: C22_36  and  O1_37 
REMARK   12  A    between atoms: C24_39  and  O2_40 
REMARK   13  A    between atoms: C26_42  and  O3_43 
ROOT
HETATM    1  C4  UNL     1       9.636  17.542  16.124  1.00  0.00     0.707 A 
HETATM    2  N2  UNL     1      10.785  17.656  16.851  1.00  0.00    -0.022 N 
ATOM      3  H2  UNL     1      11.667  17.303  16.479  1.00  0.00     0.203 HD
HETATM    4  C5  UNL     1      10.745  18.233  18.048  1.00  0.00     0.707 A 
HETATM    5  N6  UNL     1       9.582  18.716  18.574  1.00  0.00    -0.022 N 
ATOM      6  H6  UNL     1       9.583  19.154  19.495  1.00  0.00     0.203 HD
HETATM    7  C18 UNL     1       8.444  18.618  17.886  1.00  0.00     0.707 A 
HETATM    8  N7  UNL     1       7.306  19.046  18.295  1.00  0.00    -0.221 N 
ATOM      9  H7  UNL     1       6.512  18.908  17.669  1.00  0.00     0.178 HD
HETATM   10  N8  UNL     1       8.507  18.021  16.656  1.00  0.00    -0.022 N 
ATOM     11  H8  UNL     1       7.645  17.938  16.115  1.00  0.00     0.203 HD
ENDROOT
BRANCH   4  12
HETATM   12  N3  UNL     1      11.790  18.362  18.752  1.00  0.00    -0.224 N 
ATOM     13  H3  UNL     1      11.719  18.034  19.715  1.00  0.00     0.177 HD
BRANCH  12  14
HETATM   14  C6  UNL     1      13.054  18.908  18.373  1.00  0.00     0.158 C 
BRANCH  14  15
HETATM   15  C7  UNL     1      12.839  20.382  18.081  1.00  0.00     0.143 C 
BRANCH  15  16
HETATM   16  N4  UNL     1      13.901  20.923  17.270  1.00  0.00    -0.376 N 
HETATM   17  C8  UNL     1      14.094  20.375  15.942  1.00  0.00     0.143 C 
HETATM   18  C9  UNL     1      15.448  20.625  15.382  1.00  0.00     0.143 C 
HETATM   19  N5  UNL     1      15.896  22.009  15.531  1.00  0.00    -0.375 N 
HETATM   20  C12 UNL     1      15.757  22.511  16.853  1.00  0.00     0.096 A 
HETATM   21  C13 UNL     1      16.586  23.522  17.278  1.00  0.00     0.146 A 
HETATM   22  C17 UNL     1      14.770  21.962  17.690  1.00  0.00     0.062 A 
HETATM   23  F1  UNL     1      17.497  23.991  16.414  1.00  0.00    -0.204 F 
HETATM   24  C14 UNL     1      16.466  24.026  18.556  1.00  0.00     0.068 A 
HETATM   25  C15 UNL     1      15.499  23.491  19.385  1.00  0.00     0.039 A 
HETATM   26 CL1  UNL     1      15.293  24.079  21.010  1.00  0.00    -0.084 Cl
HETATM   27  C16 UNL     1      14.661  22.466  18.950  1.00  0.00     0.055 A 
BRANCH  19  28
HETATM   28  C10 UNL     1      16.414  22.756  14.429  1.00  0.00     0.119 C 
HETATM   29  C11 UNL     1      15.571  22.723  13.174  1.00  0.00     0.026 C 
ENDBRANCH  19  28
ENDBRANCH  15  16
ENDBRANCH  14  15
ENDBRANCH  12  14
ENDBRANCH   4  12
BRANCH   1  30
HETATM   30  N1  UNL     1       9.712  16.986  14.982  1.00  0.00    -0.222 N 
ATOM     31  H1  UNL     1      10.045  17.551  14.201  1.00  0.00     0.178 HD
BRANCH  30  32
HETATM   32  C3  UNL     1       9.361  15.619  14.713  1.00  0.00     0.164 C 
BRANCH  32  33
HETATM   33  C2  UNL     1       7.997  15.592  14.070  1.00  0.00    -0.017 C 
HETATM   34  C1  UNL     1       6.909  15.570  14.803  1.00  0.00     0.008 C 
ENDBRANCH  32  33
ENDBRANCH  30  32
ENDBRANCH   1  30
BRANCH   8  35
HETATM   35  C19 UNL     1       7.040  19.694  19.534  1.00  0.00     0.176 C 
BRANCH  35  36
HETATM   36  C20 UNL     1       6.006  18.958  20.327  1.00  0.00    -0.035 A 
HETATM   37  C21 UNL     1       4.655  19.128  20.162  1.00  0.00     0.048 A 
HETATM   38  C22 UNL     1       3.713  18.445  20.896  1.00  0.00     0.104 A 
HETATM   39  C24 UNL     1       4.158  17.549  21.836  1.00  0.00     0.135 A 
HETATM   40  C26 UNL     1       5.512  17.339  22.042  1.00  0.00     0.104 A 
HETATM   41  C28 UNL     1       6.435  18.051  21.279  1.00  0.00     0.048 A 
BRANCH  38  42
HETATM   42  O1  UNL     1       2.374  18.686  20.657  1.00  0.00    -0.353 OA
HETATM   43  C23 UNL     1       1.763  19.863  21.131  1.00  0.00     0.210 C 
ENDBRANCH  38  42
BRANCH  39  44
HETATM   44  O2  UNL     1       3.239  16.835  22.601  1.00  0.00    -0.351 OA
HETATM   45  C25 UNL     1       2.804  17.425  23.812  1.00  0.00     0.210 C 
ENDBRANCH  39  44
BRANCH  40  46
HETATM   46  O3  UNL     1       5.985  16.443  22.982  1.00  0.00    -0.353 OA
HETATM   47  C27 UNL     1       7.344  16.073  23.014  1.00  0.00     0.210 C 
ENDBRANCH  40  46
ENDBRANCH  35  36
ENDBRANCH   8  35
TORSDOF 13
ENDMDL
