MODEL 1
REMARK VINA RESULT: -8.857003684      0.000      0.000
REMARK  12 active torsions:
REMARK  status: ('A' for Active; 'I' for Inactive)
REMARK    1  A    between atoms: C2_2  and  N1_3 
REMARK    2  A    between atoms: N1_3  and  C3_4 
REMARK    3  A    between atoms: N1_3  and  C5_6 
REMARK    4  A    between atoms: C5_6  and  C6_7 
REMARK    5  A    between atoms: C6_7  and  N2_8 
REMARK    6  A    between atoms: N2_8  and  C7_9 
REMARK    7  A    between atoms: N2_8  and  C20_34 
REMARK    8  A    between atoms: C7_9  and  C8_10 
REMARK    9  A    between atoms: C8_10  and  C9_11 
REMARK   10  A    between atoms: C9_11  and  O1_12 
REMARK   11  A    between atoms: O1_12  and  C10_13 
REMARK   12  A    between atoms: N5_29  and  C17_30 
ROOT
HETATM    1  C10 UNL     1      13.410  21.820  15.836  1.00  0.00     0.087 A 
HETATM    2  C11 UNL     1      12.901  22.493  16.908  1.00  0.00     0.040 A 
HETATM    3  C12 UNL     1      13.735  23.138  17.794  1.00  0.00     0.034 A 
HETATM    4  C13 UNL     1      15.129  23.120  17.612  1.00  0.00     0.064 A 
HETATM    5  C14 UNL     1      15.679  22.449  16.528  1.00  0.00     0.056 A 
HETATM    6  C15 UNL     1      14.807  21.812  15.664  1.00  0.00     0.060 A 
HETATM    7 BR1  UNL     1      15.372  20.838  14.125  1.00  0.00    -0.047 Br
HETATM    8  C16 UNL     1      17.118  22.400  16.231  1.00  0.00     0.123 C 
HETATM    9  N3  UNL     1      17.657  21.840  15.270  1.00  0.00    -0.384 N 
ATOM     10  H31 UNL     1      18.655  21.806  15.063  1.00  0.00     0.157 HD
ATOM     11  H32 UNL     1      17.000  21.358  14.656  1.00  0.00     0.157 HD
HETATM   12  N4  UNL     1      18.067  23.096  17.118  1.00  0.00    -0.252 N 
ATOM     13  H4  UNL     1      19.053  22.836  17.148  1.00  0.00     0.182 HD
HETATM   14  S1  UNL     1      17.450  24.352  18.092  1.00  0.00     0.328 S 
HETATM   15  O2  UNL     1      18.364  24.704  19.200  1.00  0.00    -0.182 OA
HETATM   16  O3  UNL     1      17.266  25.571  17.201  1.00  0.00    -0.182 OA
HETATM   17  N5  UNL     1      15.897  23.793  18.616  1.00  0.00    -0.234 N 
ENDROOT
BRANCH   1  18
HETATM   18  O1  UNL     1      12.564  21.166  14.973  1.00  0.00    -0.350 OA
BRANCH  18  19
HETATM   19  C9  UNL     1      11.462  20.441  15.456  1.00  0.00     0.177 C 
BRANCH  19  20
HETATM   20  C8  UNL     1      11.860  19.118  16.035  1.00  0.00     0.046 C 
BRANCH  20  21
HETATM   21  C7  UNL     1      11.074  17.987  15.471  1.00  0.00     0.128 C 
BRANCH  21  22
HETATM   22  N2  UNL     1       9.967  17.627  16.356  1.00  0.00    -0.352 N 
BRANCH  22  23
HETATM   23  C6  UNL     1       9.930  18.147  17.674  1.00  0.00     0.156 C 
BRANCH  23  24
HETATM   24  C5  UNL     1       8.653  18.859  17.978  1.00  0.00     0.292 C 
BRANCH  24  25
HETATM   25  N1  UNL     1       8.883  20.010  18.822  1.00  0.00     0.089 N 
BRANCH  25  26
HETATM   26  C2  UNL     1      10.200  20.007  19.324  1.00  0.00     0.268 C 
HETATM   27  C1  UNL     1      10.791  21.395  19.572  1.00  0.00     0.037 C 
ENDBRANCH  25  26
BRANCH  25  28
HETATM   28  C3  UNL     1       7.876  20.243  19.761  1.00  0.00     0.268 C 
HETATM   29  C4  UNL     1       8.009  19.349  21.002  1.00  0.00     0.037 C 
ENDBRANCH  25  28
ENDBRANCH  24  25
ENDBRANCH  23  24
ENDBRANCH  22  23
BRANCH  22  30
HETATM   30  C20 UNL     1       8.940  16.738  15.889  1.00  0.00     0.173 C 
HETATM   31  N6  UNL     1       8.472  15.675  16.439  1.00  0.00    -0.361 N 
HETATM   32  C21 UNL     1       7.440  15.082  15.623  1.00  0.00     0.142 C 
ATOM     33  H6  UNL     1       8.789  15.300  17.333  1.00  0.00     0.162 HD
HETATM   34  C22 UNL     1       7.628  15.729  14.275  1.00  0.00     0.142 C 
HETATM   35  N7  UNL     1       8.287  16.973  14.653  1.00  0.00    -0.361 N 
ATOM     36  H7  UNL     1       8.279  17.848  14.128  1.00  0.00     0.162 HD
ENDBRANCH  22  30
ENDBRANCH  21  22
ENDBRANCH  20  21
ENDBRANCH  19  20
ENDBRANCH  18  19
ENDBRANCH   1  18
BRANCH  17  37
HETATM   37  C17 UNL     1      15.391  23.943  19.927  1.00  0.00     0.126 A 
HETATM   38 CL1  UNL     1      14.384  22.551  20.477  1.00  0.00    -0.094 Cl
HETATM   39  C18 UNL     1      15.025  25.324  20.397  1.00  0.00     0.052 A 
HETATM   40  C19 UNL     1      16.173  24.597  21.006  1.00  0.00     0.052 A 
ENDBRANCH  17  37
TORSDOF 12
ENDMDL
MODEL 2
REMARK VINA RESULT: -8.852705892      3.919      9.059
REMARK  12 active torsions:
REMARK  status: ('A' for Active; 'I' for Inactive)
REMARK    1  A    between atoms: C2_2  and  N1_3 
REMARK    2  A    between atoms: N1_3  and  C3_4 
REMARK    3  A    between atoms: N1_3  and  C5_6 
REMARK    4  A    between atoms: C5_6  and  C6_7 
REMARK    5  A    between atoms: C6_7  and  N2_8 
REMARK    6  A    between atoms: N2_8  and  C7_9 
REMARK    7  A    between atoms: N2_8  and  C20_34 
REMARK    8  A    between atoms: C7_9  and  C8_10 
REMARK    9  A    between atoms: C8_10  and  C9_11 
REMARK   10  A    between atoms: C9_11  and  O1_12 
REMARK   11  A    between atoms: O1_12  and  C10_13 
REMARK   12  A    between atoms: N5_29  and  C17_30 
ROOT
HETATM    1  C10 UNL     1      11.585  19.657  18.878  1.00  0.00     0.087 A 
HETATM    2  C11 UNL     1      11.163  19.379  20.144  1.00  0.00     0.040 A 
HETATM    3  C12 UNL     1       9.975  18.716  20.361  1.00  0.00     0.034 A 
HETATM    4  C13 UNL     1       9.172  18.310  19.281  1.00  0.00     0.064 A 
HETATM    5  C14 UNL     1       9.575  18.573  17.978  1.00  0.00     0.056 A 
HETATM    6  C15 UNL     1      10.773  19.242  17.805  1.00  0.00     0.060 A 
HETATM    7 BR1  UNL     1      11.489  19.697  16.097  1.00  0.00    -0.047 Br
HETATM    8  C16 UNL     1       8.825  18.160  16.783  1.00  0.00     0.123 C 
HETATM    9  N3  UNL     1       9.150  18.347  15.604  1.00  0.00    -0.384 N 
ATOM     10  H31 UNL     1       8.630  18.060  14.775  1.00  0.00     0.157 HD
ATOM     11  H32 UNL     1      10.025  18.860  15.497  1.00  0.00     0.157 HD
HETATM   12  N4  UNL     1       7.562  17.419  16.938  1.00  0.00    -0.252 N 
ATOM     13  H4  UNL     1       6.866  17.395  16.192  1.00  0.00     0.182 HD
HETATM   14  S1  UNL     1       7.310  16.602  18.414  1.00  0.00     0.328 S 
HETATM   15  O2  UNL     1       5.892  16.237  18.618  1.00  0.00    -0.182 OA
HETATM   16  O3  UNL     1       8.144  15.330  18.379  1.00  0.00    -0.182 OA
HETATM   17  N5  UNL     1       7.943  17.662  19.627  1.00  0.00    -0.234 N 
ENDROOT
BRANCH   1  18
HETATM   18  O1  UNL     1      12.764  20.336  18.681  1.00  0.00    -0.350 OA
BRANCH  18  19
HETATM   19  C9  UNL     1      13.209  21.289  19.612  1.00  0.00     0.177 C 
BRANCH  19  20
HETATM   20  C8  UNL     1      13.050  22.692  19.111  1.00  0.00     0.046 C 
BRANCH  20  21
HETATM   21  C7  UNL     1      13.168  22.788  17.630  1.00  0.00     0.128 C 
BRANCH  21  22
HETATM   22  N2  UNL     1      14.568  22.905  17.225  1.00  0.00    -0.352 N 
BRANCH  22  23
HETATM   23  C6  UNL     1      15.356  23.967  17.736  1.00  0.00     0.156 C 
BRANCH  23  24
HETATM   24  C5  UNL     1      16.647  23.498  18.320  1.00  0.00     0.292 C 
BRANCH  24  25
HETATM   25  N1  UNL     1      17.422  24.605  18.835  1.00  0.00     0.089 N 
BRANCH  25  26
HETATM   26  C2  UNL     1      16.648  25.392  19.712  1.00  0.00     0.268 C 
HETATM   27  C1  UNL     1      16.470  24.799  21.111  1.00  0.00     0.037 C 
ENDBRANCH  25  26
BRANCH  25  28
HETATM   28  C3  UNL     1      18.138  25.306  17.862  1.00  0.00     0.268 C 
HETATM   29  C4  UNL     1      17.900  26.821  17.934  1.00  0.00     0.037 C 
ENDBRANCH  25  28
ENDBRANCH  24  25
ENDBRANCH  23  24
ENDBRANCH  22  23
BRANCH  22  30
HETATM   30  C20 UNL     1      15.126  21.958  16.300  1.00  0.00     0.173 C 
HETATM   31  N6  UNL     1      15.645  22.160  15.142  1.00  0.00    -0.361 N 
HETATM   32  C21 UNL     1      16.085  20.920  14.549  1.00  0.00     0.142 C 
ATOM     33  H6  UNL     1      15.735  23.075  14.701  1.00  0.00     0.162 HD
HETATM   34  C22 UNL     1      15.380  19.862  15.358  1.00  0.00     0.142 C 
HETATM   35  N7  UNL     1      15.151  20.575  16.609  1.00  0.00    -0.361 N 
ATOM     36  H7  UNL     1      15.033  20.157  17.532  1.00  0.00     0.162 HD
ENDBRANCH  22  30
ENDBRANCH  21  22
ENDBRANCH  20  21
ENDBRANCH  19  20
ENDBRANCH  18  19
ENDBRANCH   1  18
BRANCH  17  37
HETATM   37  C17 UNL     1       7.320  17.922  20.869  1.00  0.00     0.126 A 
HETATM   38 CL1  UNL     1       7.553  16.610  22.084  1.00  0.00    -0.094 Cl
HETATM   39  C18 UNL     1       6.020  18.679  20.871  1.00  0.00     0.052 A 
HETATM   40  C19 UNL     1       7.250  19.287  21.449  1.00  0.00     0.052 A 
ENDBRANCH  17  37
TORSDOF 12
ENDMDL
MODEL 3
REMARK VINA RESULT: -8.830100028      2.305      4.701
REMARK  12 active torsions:
REMARK  status: ('A' for Active; 'I' for Inactive)
REMARK    1  A    between atoms: C2_2  and  N1_3 
REMARK    2  A    between atoms: N1_3  and  C3_4 
REMARK    3  A    between atoms: N1_3  and  C5_6 
REMARK    4  A    between atoms: C5_6  and  C6_7 
REMARK    5  A    between atoms: C6_7  and  N2_8 
REMARK    6  A    between atoms: N2_8  and  C7_9 
REMARK    7  A    between atoms: N2_8  and  C20_34 
REMARK    8  A    between atoms: C7_9  and  C8_10 
REMARK    9  A    between atoms: C8_10  and  C9_11 
REMARK   10  A    between atoms: C9_11  and  O1_12 
REMARK   11  A    between atoms: O1_12  and  C10_13 
REMARK   12  A    between atoms: N5_29  and  C17_30 
ROOT
HETATM    1  C10 UNL     1      13.684  20.321  16.982  1.00  0.00     0.087 A 
HETATM    2  C11 UNL     1      14.520  20.031  15.945  1.00  0.00     0.040 A 
HETATM    3  C12 UNL     1      15.519  20.907  15.579  1.00  0.00     0.034 A 
HETATM    4  C13 UNL     1      15.699  22.118  16.269  1.00  0.00     0.064 A 
HETATM    5  C14 UNL     1      14.868  22.441  17.333  1.00  0.00     0.056 A 
HETATM    6  C15 UNL     1      13.878  21.536  17.666  1.00  0.00     0.060 A 
HETATM    7 BR1  UNL     1      12.639  21.805  19.091  1.00  0.00    -0.047 Br
HETATM    8  C16 UNL     1      14.997  23.665  18.139  1.00  0.00     0.123 C 
HETATM    9  N3  UNL     1      14.302  23.989  19.108  1.00  0.00    -0.384 N 
ATOM     10  H31 UNL     1      14.391  24.838  19.667  1.00  0.00     0.157 HD
ATOM     11  H32 UNL     1      13.564  23.320  19.325  1.00  0.00     0.157 HD
HETATM   12  N4  UNL     1      16.063  24.633  17.825  1.00  0.00    -0.252 N 
ATOM     13  H4  UNL     1      16.000  25.606  18.123  1.00  0.00     0.182 HD
HETATM   14  S1  UNL     1      17.406  24.059  16.945  1.00  0.00     0.328 S 
HETATM   15  O2  UNL     1      18.201  25.157  16.354  1.00  0.00    -0.182 OA
HETATM   16  O3  UNL     1      18.286  23.281  17.912  1.00  0.00    -0.182 OA
HETATM   17  N5  UNL     1      16.744  22.965  15.778  1.00  0.00    -0.234 N 
ENDROOT
BRANCH   1  18
HETATM   18  O1  UNL     1      12.682  19.444  17.321  1.00  0.00    -0.350 OA
BRANCH  18  19
HETATM   19  C9  UNL     1      11.984  18.731  16.331  1.00  0.00     0.177 C 
BRANCH  19  20
HETATM   20  C8  UNL     1      10.776  19.470  15.842  1.00  0.00     0.046 C 
BRANCH  20  21
HETATM   21  C7  UNL     1       9.970  20.048  16.953  1.00  0.00     0.128 C 
BRANCH  21  22
HETATM   22  N2  UNL     1       9.318  18.994  17.728  1.00  0.00    -0.352 N 
BRANCH  22  23
HETATM   23  C6  UNL     1       8.440  18.090  17.077  1.00  0.00     0.156 C 
BRANCH  23  24
HETATM   24  C5  UNL     1       8.819  16.663  17.291  1.00  0.00     0.292 C 
BRANCH  24  25
HETATM   25  N1  UNL     1       8.453  15.847  16.154  1.00  0.00     0.089 N 
BRANCH  25  26
HETATM   26  C2  UNL     1       8.671  16.544  14.949  1.00  0.00     0.268 C 
HETATM   27  C1  UNL     1       9.992  16.214  14.252  1.00  0.00     0.037 C 
ENDBRANCH  25  26
BRANCH  25  28
HETATM   28  C3  UNL     1       7.212  15.218  16.275  1.00  0.00     0.268 C 
HETATM   29  C4  UNL     1       6.162  15.797  15.317  1.00  0.00     0.037 C 
ENDBRANCH  25  28
ENDBRANCH  24  25
ENDBRANCH  23  24
ENDBRANCH  22  23
BRANCH  22  30
HETATM   30  C20 UNL     1       9.556  18.895  19.142  1.00  0.00     0.173 C 
HETATM   31  N6  UNL     1       8.744  19.086  20.119  1.00  0.00    -0.361 N 
HETATM   32  C21 UNL     1       9.402  18.878  21.386  1.00  0.00     0.142 C 
ATOM     33  H6  UNL     1       7.764  19.349  20.013  1.00  0.00     0.162 HD
HETATM   34  C22 UNL     1      10.869  18.925  21.043  1.00  0.00     0.142 C 
HETATM   35  N7  UNL     1      10.838  18.548  19.636  1.00  0.00    -0.361 N 
ATOM     36  H7  UNL     1      11.596  18.116  19.107  1.00  0.00     0.162 HD
ENDBRANCH  22  30
ENDBRANCH  21  22
ENDBRANCH  20  21
ENDBRANCH  19  20
ENDBRANCH  18  19
ENDBRANCH   1  18
BRANCH  17  37
HETATM   37  C17 UNL     1      17.151  22.893  14.426  1.00  0.00     0.126 A 
HETATM   38 CL1  UNL     1      18.377  21.609  14.107  1.00  0.00    -0.094 Cl
HETATM   39  C18 UNL     1      17.226  24.169  13.634  1.00  0.00     0.052 A 
HETATM   40  C19 UNL     1      16.210  23.133  13.303  1.00  0.00     0.052 A 
ENDBRANCH  17  37
TORSDOF 12
ENDMDL
MODEL 4
REMARK VINA RESULT: -8.752812558      2.326      4.867
REMARK  12 active torsions:
REMARK  status: ('A' for Active; 'I' for Inactive)
REMARK    1  A    between atoms: C2_2  and  N1_3 
REMARK    2  A    between atoms: N1_3  and  C3_4 
REMARK    3  A    between atoms: N1_3  and  C5_6 
REMARK    4  A    between atoms: C5_6  and  C6_7 
REMARK    5  A    between atoms: C6_7  and  N2_8 
REMARK    6  A    between atoms: N2_8  and  C7_9 
REMARK    7  A    between atoms: N2_8  and  C20_34 
REMARK    8  A    between atoms: C7_9  and  C8_10 
REMARK    9  A    between atoms: C8_10  and  C9_11 
REMARK   10  A    between atoms: C9_11  and  O1_12 
REMARK   11  A    between atoms: O1_12  and  C10_13 
REMARK   12  A    between atoms: N5_29  and  C17_30 
ROOT
HETATM    1  C10 UNL     1      13.356  20.437  16.769  1.00  0.00     0.087 A 
HETATM    2  C11 UNL     1      14.224  20.115  15.769  1.00  0.00     0.040 A 
HETATM    3  C12 UNL     1      15.284  20.941  15.465  1.00  0.00     0.034 A 
HETATM    4  C13 UNL     1      15.496  22.131  16.181  1.00  0.00     0.064 A 
HETATM    5  C14 UNL     1      14.633  22.485  17.210  1.00  0.00     0.056 A 
HETATM    6  C15 UNL     1      13.580  21.631  17.481  1.00  0.00     0.060 A 
HETATM    7 BR1  UNL     1      12.290  21.948  18.848  1.00  0.00    -0.047 Br
HETATM    8  C16 UNL     1      14.787  23.690  18.039  1.00  0.00     0.123 C 
HETATM    9  N3  UNL     1      14.064  24.039  18.979  1.00  0.00    -0.384 N 
ATOM     10  H31 UNL     1      14.171  24.874  19.555  1.00  0.00     0.157 HD
ATOM     11  H32 UNL     1      13.282  23.407  19.150  1.00  0.00     0.157 HD
HETATM   12  N4  UNL     1      15.918  24.602  17.792  1.00  0.00    -0.252 N 
ATOM     13  H4  UNL     1      15.892  25.573  18.101  1.00  0.00     0.182 HD
HETATM   14  S1  UNL     1      17.269  23.967  16.968  1.00  0.00     0.328 S 
HETATM   15  O2  UNL     1      18.149  25.028  16.433  1.00  0.00    -0.182 OA
HETATM   16  O3  UNL     1      18.059  23.131  17.964  1.00  0.00    -0.182 OA
HETATM   17  N5  UNL     1      16.607  22.927  15.754  1.00  0.00    -0.234 N 
ENDROOT
BRANCH   1  18
HETATM   18  O1  UNL     1      12.292  19.611  17.046  1.00  0.00    -0.350 OA
BRANCH  18  19
HETATM   19  C9  UNL     1      12.066  18.450  16.288  1.00  0.00     0.177 C 
BRANCH  19  20
HETATM   20  C8  UNL     1      10.674  18.392  15.737  1.00  0.00     0.046 C 
BRANCH  20  21
HETATM   21  C7  UNL     1       9.673  19.018  16.643  1.00  0.00     0.128 C 
BRANCH  21  22
HETATM   22  N2  UNL     1       9.366  18.139  17.770  1.00  0.00    -0.352 N 
BRANCH  22  23
HETATM   23  C6  UNL     1       8.704  16.907  17.533  1.00  0.00     0.156 C 
BRANCH  23  24
HETATM   24  C5  UNL     1       7.299  17.088  17.064  1.00  0.00     0.292 C 
BRANCH  24  25
HETATM   25  N1  UNL     1       7.072  16.401  15.812  1.00  0.00     0.089 N 
BRANCH  25  26
HETATM   26  C2  UNL     1       5.696  16.168  15.612  1.00  0.00     0.268 C 
HETATM   27  C1  UNL     1       5.153  14.923  16.314  1.00  0.00     0.037 C 
ENDBRANCH  25  26
BRANCH  25  28
HETATM   28  C3  UNL     1       7.911  15.305  15.598  1.00  0.00     0.268 C 
HETATM   29  C4  UNL     1       8.634  15.373  14.246  1.00  0.00     0.037 C 
ENDBRANCH  25  28
ENDBRANCH  24  25
ENDBRANCH  23  24
ENDBRANCH  22  23
BRANCH  22  30
HETATM   30  C20 UNL     1       9.718  18.537  19.104  1.00  0.00     0.173 C 
HETATM   31  N6  UNL     1      10.875  18.581  19.661  1.00  0.00    -0.361 N 
HETATM   32  C21 UNL     1      10.776  19.045  21.024  1.00  0.00     0.142 C 
ATOM     33  H6  UNL     1      11.748  18.321  19.202  1.00  0.00     0.162 HD
HETATM   34  C22 UNL     1       9.312  18.894  21.352  1.00  0.00     0.142 C 
HETATM   35  N7  UNL     1       8.721  18.956  20.021  1.00  0.00    -0.361 N 
ATOM     36  H7  UNL     1       7.771  19.247  19.792  1.00  0.00     0.162 HD
ENDBRANCH  22  30
ENDBRANCH  21  22
ENDBRANCH  20  21
ENDBRANCH  19  20
ENDBRANCH  18  19
ENDBRANCH   1  18
BRANCH  17  37
HETATM   37  C17 UNL     1      17.075  22.850  14.422  1.00  0.00     0.126 A 
HETATM   38 CL1  UNL     1      18.321  21.571  14.165  1.00  0.00    -0.094 Cl
HETATM   39  C18 UNL     1      17.179  24.122  13.628  1.00  0.00     0.052 A 
HETATM   40  C19 UNL     1      16.184  23.079  13.256  1.00  0.00     0.052 A 
ENDBRANCH  17  37
TORSDOF 12
ENDMDL
MODEL 5
REMARK VINA RESULT: -8.712293150      4.009      9.577
REMARK  12 active torsions:
REMARK  status: ('A' for Active; 'I' for Inactive)
REMARK    1  A    between atoms: C2_2  and  N1_3 
REMARK    2  A    between atoms: N1_3  and  C3_4 
REMARK    3  A    between atoms: N1_3  and  C5_6 
REMARK    4  A    between atoms: C5_6  and  C6_7 
REMARK    5  A    between atoms: C6_7  and  N2_8 
REMARK    6  A    between atoms: N2_8  and  C7_9 
REMARK    7  A    between atoms: N2_8  and  C20_34 
REMARK    8  A    between atoms: C7_9  and  C8_10 
REMARK    9  A    between atoms: C8_10  and  C9_11 
REMARK   10  A    between atoms: C9_11  and  O1_12 
REMARK   11  A    between atoms: O1_12  and  C10_13 
REMARK   12  A    between atoms: N5_29  and  C17_30 
ROOT
HETATM    1  C10 UNL     1      11.251  19.776  19.319  1.00  0.00     0.087 A 
HETATM    2  C11 UNL     1      10.805  19.362  20.540  1.00  0.00     0.040 A 
HETATM    3  C12 UNL     1       9.662  18.602  20.651  1.00  0.00     0.034 A 
HETATM    4  C13 UNL     1       8.930  18.234  19.508  1.00  0.00     0.064 A 
HETATM    5  C14 UNL     1       9.360  18.635  18.250  1.00  0.00     0.056 A 
HETATM    6  C15 UNL     1      10.510  19.399  18.183  1.00  0.00     0.060 A 
HETATM    7 BR1  UNL     1      11.252  20.046  16.550  1.00  0.00    -0.047 Br
HETATM    8  C16 UNL     1       8.685  18.274  16.994  1.00  0.00     0.123 C 
HETATM    9  N3  UNL     1       9.037  18.583  15.850  1.00  0.00    -0.384 N 
ATOM     10  H31 UNL     1       8.569  18.333  14.979  1.00  0.00     0.157 HD
ATOM     11  H32 UNL     1       9.875  19.164  15.822  1.00  0.00     0.157 HD
HETATM   12  N4  UNL     1       7.474  17.435  17.035  1.00  0.00    -0.252 N 
ATOM     13  H4  UNL     1       6.809  17.427  16.262  1.00  0.00     0.182 HD
HETATM   14  S1  UNL     1       7.231  16.480  18.426  1.00  0.00     0.328 S 
HETATM   15  O2  UNL     1       5.836  16.001  18.541  1.00  0.00    -0.182 OA
HETATM   16  O3  UNL     1       8.157  15.278  18.322  1.00  0.00    -0.182 OA
HETATM   17  N5  UNL     1       7.740  17.475  19.749  1.00  0.00    -0.234 N 
ENDROOT
BRANCH   1  18
HETATM   18  O1  UNL     1      12.383  20.550  19.229  1.00  0.00    -0.350 OA
BRANCH  18  19
HETATM   19  C9  UNL     1      12.360  21.905  19.601  1.00  0.00     0.177 C 
BRANCH  19  20
HETATM   20  C8  UNL     1      13.729  22.436  19.902  1.00  0.00     0.046 C 
BRANCH  20  21
HETATM   21  C7  UNL     1      14.780  21.829  19.041  1.00  0.00     0.128 C 
BRANCH  21  22
HETATM   22  N2  UNL     1      15.087  22.694  17.903  1.00  0.00    -0.352 N 
BRANCH  22  23
HETATM   23  C6  UNL     1      14.465  22.448  16.653  1.00  0.00     0.156 C 
BRANCH  23  24
HETATM   24  C5  UNL     1      15.442  22.379  15.526  1.00  0.00     0.292 C 
BRANCH  24  25
HETATM   25  N1  UNL     1      15.208  21.215  14.701  1.00  0.00     0.089 N 
BRANCH  25  26
HETATM   26  C2  UNL     1      16.379  20.853  14.006  1.00  0.00     0.268 C 
HETATM   27  C1  UNL     1      17.633  21.623  14.423  1.00  0.00     0.037 C 
ENDBRANCH  25  26
BRANCH  25  28
HETATM   28  C3  UNL     1      14.042  21.279  13.935  1.00  0.00     0.268 C 
HETATM   29  C4  UNL     1      14.329  21.295  12.427  1.00  0.00     0.037 C 
ENDBRANCH  25  28
ENDBRANCH  24  25
ENDBRANCH  23  24
ENDBRANCH  22  23
BRANCH  22  30
HETATM   30  C20 UNL     1      16.027  23.769  18.056  1.00  0.00     0.173 C 
HETATM   31  N6  UNL     1      15.811  25.034  18.129  1.00  0.00    -0.361 N 
HETATM   32  C21 UNL     1      17.049  25.761  18.283  1.00  0.00     0.142 C 
ATOM     33  H6  UNL     1      14.889  25.467  18.083  1.00  0.00     0.162 HD
HETATM   34  C22 UNL     1      18.106  24.765  17.882  1.00  0.00     0.142 C 
HETATM   35  N7  UNL     1      17.417  23.507  18.146  1.00  0.00    -0.361 N 
ATOM     36  H7  UNL     1      17.853  22.609  18.355  1.00  0.00     0.162 HD
ENDBRANCH  22  30
ENDBRANCH  21  22
ENDBRANCH  20  21
ENDBRANCH  19  20
ENDBRANCH  18  19
ENDBRANCH   1  18
BRANCH  17  37
HETATM   37  C17 UNL     1       7.056  17.583  20.980  1.00  0.00     0.126 A 
HETATM   38 CL1  UNL     1       7.363  16.205  22.103  1.00  0.00    -0.094 Cl
HETATM   39  C18 UNL     1       5.696  18.225  20.987  1.00  0.00     0.052 A 
HETATM   40  C19 UNL     1       6.848  18.888  21.657  1.00  0.00     0.052 A 
ENDBRANCH  17  37
TORSDOF 12
ENDMDL
