MODEL 1
REMARK VINA RESULT: -8.603371153      0.000      0.000
REMARK  9 active torsions:
REMARK  status: ('A' for Active; 'I' for Inactive)
REMARK    1  A    between atoms: C2_2  and  C3_3 
REMARK    2  A    between atoms: C3_3  and  C5_5 
REMARK    3  A    between atoms: C5_5  and  C6_6 
REMARK    4  A    between atoms: C6_6  and  C7_7 
REMARK    5  A    between atoms: C7_7  and  C8_8 
REMARK    6  A    between atoms: C10_11  and  O2_12 
REMARK    7  A    between atoms: C13_16  and  O3_17 
REMARK    8  A    between atoms: O3_17  and  C14_18 
REMARK    9  A    between atoms: C22_28  and  O6_29 
ROOT
HETATM    1  C8  UNL     1     -25.691  21.556   3.262  1.00  0.00     0.088 C 
HETATM    2  C9  UNL     1     -24.590  21.973   2.347  1.00  0.00     0.049 C 
HETATM    3  O1  UNL     1     -26.666  20.948   2.491  1.00  0.00    -0.341 OA
HETATM    4  C10 UNL     1     -27.586  21.849   2.094  1.00  0.00     0.176 C 
HETATM    5  C11 UNL     1     -28.948  21.206   2.429  1.00  0.00     0.073 C 
HETATM    6  C12 UNL     1     -29.800  22.383   2.718  1.00  0.00     0.053 C 
HETATM    7  C13 UNL     1     -28.852  23.360   3.509  1.00  0.00     0.146 C 
HETATM    8  C16 UNL     1     -29.457  24.686   3.186  1.00  0.00     0.163 C 
HETATM    9  O5  UNL     1     -30.677  24.766   3.314  1.00  0.00    -0.295 OA
HETATM   10  C17 UNL     1     -28.749  25.881   2.739  1.00  0.00     0.082 C 
HETATM   11  C18 UNL     1     -27.282  25.617   2.763  1.00  0.00     0.013 C 
HETATM   12  C19 UNL     1     -27.037  24.292   2.059  1.00  0.00     0.002 C 
HETATM   13  C20 UNL     1     -27.587  24.442   0.683  1.00  0.00     0.011 C 
HETATM   14  C21 UNL     1     -27.531  23.123   2.876  1.00  0.00     0.087 C 
HETATM   15  C22 UNL     1     -26.429  22.779   3.848  1.00  0.00     0.170 C 
ENDROOT
BRANCH   1  16
HETATM   16  C7  UNL     1     -25.359  20.590   4.343  1.00  0.00     0.040 C 
BRANCH  16  17
HETATM   17  C6  UNL     1     -24.147  20.773   5.142  1.00  0.00     0.004 C 
BRANCH  17  18
HETATM   18  C5  UNL     1     -23.086  19.717   5.083  1.00  0.00     0.008 C 
BRANCH  18  19
HETATM   19  C3  UNL     1     -23.580  18.344   5.498  1.00  0.00     0.003 C 
HETATM   20  C4  UNL     1     -23.336  17.352   4.390  1.00  0.00     0.014 C 
BRANCH  19  21
HETATM   21  C2  UNL     1     -22.919  17.851   6.733  1.00  0.00    -0.033 C 
HETATM   22  C1  UNL     1     -22.447  18.674   7.678  1.00  0.00     0.007 C 
ENDBRANCH  19  21
ENDBRANCH  18  19
ENDBRANCH  17  18
ENDBRANCH  16  17
ENDBRANCH   1  16
BRANCH  15  23
HETATM   23  O6  UNL     1     -25.464  23.737   4.004  1.00  0.00    -0.391 OA
ATOM     24  H6  UNL     1     -25.170  23.649   4.903  1.00  0.00     0.210 HD
ENDBRANCH  15  23
BRANCH   4  25
HETATM   25  O2  UNL     1     -27.548  21.937   0.735  1.00  0.00    -0.364 OA
ATOM     26  H2  UNL     1     -28.323  22.398   0.440  1.00  0.00     0.213 HD
ENDBRANCH   4  25
BRANCH   7  27
HETATM   27  O3  UNL     1     -29.090  22.983   4.818  1.00  0.00    -0.301 OA
BRANCH  27  28
HETATM   28  C14 UNL     1     -29.284  23.639   5.969  1.00  0.00     0.256 C 
HETATM   29  C15 UNL     1     -28.280  24.563   6.600  1.00  0.00     0.126 C 
HETATM   30  O4  UNL     1     -30.352  23.494   6.577  1.00  0.00    -0.266 OA
ENDBRANCH  27  28
ENDBRANCH   7  27
TORSDOF 9
ENDMDL
MODEL 2
REMARK VINA RESULT: -8.525998936      0.383      1.063
REMARK  9 active torsions:
REMARK  status: ('A' for Active; 'I' for Inactive)
REMARK    1  A    between atoms: C2_2  and  C3_3 
REMARK    2  A    between atoms: C3_3  and  C5_5 
REMARK    3  A    between atoms: C5_5  and  C6_6 
REMARK    4  A    between atoms: C6_6  and  C7_7 
REMARK    5  A    between atoms: C7_7  and  C8_8 
REMARK    6  A    between atoms: C10_11  and  O2_12 
REMARK    7  A    between atoms: C13_16  and  O3_17 
REMARK    8  A    between atoms: O3_17  and  C14_18 
REMARK    9  A    between atoms: C22_28  and  O6_29 
ROOT
HETATM    1  C8  UNL     1     -25.673  21.582   3.224  1.00  0.00     0.088 C 
HETATM    2  C9  UNL     1     -24.567  22.006   2.318  1.00  0.00     0.049 C 
HETATM    3  O1  UNL     1     -26.644  20.979   2.444  1.00  0.00    -0.341 OA
HETATM    4  C10 UNL     1     -27.562  21.883   2.048  1.00  0.00     0.176 C 
HETATM    5  C11 UNL     1     -28.925  21.236   2.372  1.00  0.00     0.073 C 
HETATM    6  C12 UNL     1     -29.779  22.411   2.665  1.00  0.00     0.053 C 
HETATM    7  C13 UNL     1     -28.836  23.381   3.470  1.00  0.00     0.146 C 
HETATM    8  C16 UNL     1     -29.441  24.710   3.154  1.00  0.00     0.163 C 
HETATM    9  O5  UNL     1     -30.661  24.788   3.276  1.00  0.00    -0.295 OA
HETATM   10  C17 UNL     1     -28.731  25.909   2.720  1.00  0.00     0.082 C 
HETATM   11  C18 UNL     1     -27.264  25.646   2.749  1.00  0.00     0.013 C 
HETATM   12  C19 UNL     1     -27.014  24.327   2.036  1.00  0.00     0.002 C 
HETATM   13  C20 UNL     1     -27.557  24.487   0.659  1.00  0.00     0.011 C 
HETATM   14  C21 UNL     1     -27.511  23.151   2.841  1.00  0.00     0.087 C 
HETATM   15  C22 UNL     1     -26.415  22.799   3.816  1.00  0.00     0.170 C 
ENDROOT
BRANCH   1  16
HETATM   16  C7  UNL     1     -25.346  20.607   4.299  1.00  0.00     0.040 C 
BRANCH  16  17
HETATM   17  C6  UNL     1     -23.963  20.451   4.750  1.00  0.00     0.004 C 
BRANCH  17  18
HETATM   18  C5  UNL     1     -23.711  19.777   6.064  1.00  0.00     0.008 C 
BRANCH  18  19
HETATM   19  C3  UNL     1     -22.861  18.527   5.946  1.00  0.00     0.003 C 
HETATM   20  C4  UNL     1     -22.764  17.841   7.285  1.00  0.00     0.014 C 
BRANCH  19  21
HETATM   21  C2  UNL     1     -23.403  17.562   4.955  1.00  0.00    -0.033 C 
HETATM   22  C1  UNL     1     -22.701  17.148   3.891  1.00  0.00     0.007 C 
ENDBRANCH  19  21
ENDBRANCH  18  19
ENDBRANCH  17  18
ENDBRANCH  16  17
ENDBRANCH   1  16
BRANCH  15  23
HETATM   23  O6  UNL     1     -25.451  23.757   3.985  1.00  0.00    -0.391 OA
ATOM     24  H6  UNL     1     -25.821  24.550   3.614  1.00  0.00     0.210 HD
ENDBRANCH  15  23
BRANCH   4  25
HETATM   25  O2  UNL     1     -27.516  21.981   0.691  1.00  0.00    -0.364 OA
ATOM     26  H2  UNL     1     -28.405  21.963   0.356  1.00  0.00     0.213 HD
ENDBRANCH   4  25
BRANCH   7  27
HETATM   27  O3  UNL     1     -29.080  22.994   4.774  1.00  0.00    -0.301 OA
BRANCH  27  28
HETATM   28  C14 UNL     1     -29.284  23.641   5.929  1.00  0.00     0.256 C 
HETATM   29  C15 UNL     1     -28.282  24.555   6.579  1.00  0.00     0.126 C 
HETATM   30  O4  UNL     1     -30.359  23.495   6.524  1.00  0.00    -0.266 OA
ENDBRANCH  27  28
ENDBRANCH   7  27
TORSDOF 9
ENDMDL
MODEL 3
REMARK VINA RESULT: -8.282051701      0.959      1.451
REMARK  9 active torsions:
REMARK  status: ('A' for Active; 'I' for Inactive)
REMARK    1  A    between atoms: C2_2  and  C3_3 
REMARK    2  A    between atoms: C3_3  and  C5_5 
REMARK    3  A    between atoms: C5_5  and  C6_6 
REMARK    4  A    between atoms: C6_6  and  C7_7 
REMARK    5  A    between atoms: C7_7  and  C8_8 
REMARK    6  A    between atoms: C10_11  and  O2_12 
REMARK    7  A    between atoms: C13_16  and  O3_17 
REMARK    8  A    between atoms: O3_17  and  C14_18 
REMARK    9  A    between atoms: C22_28  and  O6_29 
ROOT
HETATM    1  C8  UNL     1     -24.715  22.028   2.459  1.00  0.00     0.088 C 
HETATM    2  C9  UNL     1     -23.901  22.510   1.307  1.00  0.00     0.049 C 
HETATM    3  O1  UNL     1     -25.764  21.284   1.948  1.00  0.00    -0.341 OA
HETATM    4  C10 UNL     1     -26.845  22.063   1.748  1.00  0.00     0.176 C 
HETATM    5  C11 UNL     1     -28.015  21.299   2.403  1.00  0.00     0.073 C 
HETATM    6  C12 UNL     1     -28.907  22.395   2.848  1.00  0.00     0.053 C 
HETATM    7  C13 UNL     1     -27.923  23.504   3.376  1.00  0.00     0.146 C 
HETATM    8  C16 UNL     1     -28.730  24.742   3.166  1.00  0.00     0.163 C 
HETATM    9  O5  UNL     1     -29.891  24.701   3.566  1.00  0.00    -0.295 OA
HETATM   10  C17 UNL     1     -28.280  25.980   2.538  1.00  0.00     0.082 C 
HETATM   11  C18 UNL     1     -26.825  25.872   2.232  1.00  0.00     0.013 C 
HETATM   12  C19 UNL     1     -26.596  24.545   1.526  1.00  0.00     0.002 C 
HETATM   13  C20 UNL     1     -27.454  24.567   0.308  1.00  0.00     0.011 C 
HETATM   14  C21 UNL     1     -26.759  23.374   2.464  1.00  0.00     0.087 C 
HETATM   15  C22 UNL     1     -25.436  23.196   3.167  1.00  0.00     0.170 C 
ENDROOT
BRANCH   1  16
HETATM   16  C7  UNL     1     -24.042  21.158   3.461  1.00  0.00     0.040 C 
BRANCH  16  17
HETATM   17  C6  UNL     1     -24.822  20.529   4.527  1.00  0.00     0.004 C 
BRANCH  17  18
HETATM   18  C5  UNL     1     -24.162  20.295   5.852  1.00  0.00     0.008 C 
BRANCH  18  19
HETATM   19  C3  UNL     1     -23.015  19.305   5.785  1.00  0.00     0.003 C 
HETATM   20  C4  UNL     1     -22.303  19.251   7.113  1.00  0.00     0.014 C 
BRANCH  19  21
HETATM   21  C2  UNL     1     -23.465  17.935   5.430  1.00  0.00    -0.033 C 
HETATM   22  C1  UNL     1     -23.066  17.309   4.315  1.00  0.00     0.007 C 
ENDBRANCH  19  21
ENDBRANCH  18  19
ENDBRANCH  17  18
ENDBRANCH  16  17
ENDBRANCH   1  16
BRANCH  15  23
HETATM   23  O6  UNL     1     -24.575  24.256   3.074  1.00  0.00    -0.391 OA
ATOM     24  H6  UNL     1     -24.698  24.600   2.197  1.00  0.00     0.210 HD
ENDBRANCH  15  23
BRANCH   4  25
HETATM   25  O2  UNL     1     -27.122  22.085   0.415  1.00  0.00    -0.364 OA
ATOM     26  H2  UNL     1     -27.802  22.730   0.258  1.00  0.00     0.213 HD
ENDBRANCH   4  25
BRANCH   7  27
HETATM   27  O3  UNL     1     -27.817  23.172   4.714  1.00  0.00    -0.301 OA
BRANCH  27  28
HETATM   28  C14 UNL     1     -27.855  23.858   5.863  1.00  0.00     0.256 C 
HETATM   29  C15 UNL     1     -26.802  24.838   6.303  1.00  0.00     0.126 C 
HETATM   30  O4  UNL     1     -28.807  23.694   6.636  1.00  0.00    -0.266 OA
ENDBRANCH  27  28
ENDBRANCH   7  27
TORSDOF 9
ENDMDL
MODEL 4
REMARK VINA RESULT: -8.106044514      2.222      4.724
REMARK  9 active torsions:
REMARK  status: ('A' for Active; 'I' for Inactive)
REMARK    1  A    between atoms: C2_2  and  C3_3 
REMARK    2  A    between atoms: C3_3  and  C5_5 
REMARK    3  A    between atoms: C5_5  and  C6_6 
REMARK    4  A    between atoms: C6_6  and  C7_7 
REMARK    5  A    between atoms: C7_7  and  C8_8 
REMARK    6  A    between atoms: C10_11  and  O2_12 
REMARK    7  A    between atoms: C13_16  and  O3_17 
REMARK    8  A    between atoms: O3_17  and  C14_18 
REMARK    9  A    between atoms: C22_28  and  O6_29 
ROOT
HETATM    1  C8  UNL     1     -24.981  22.065   3.826  1.00  0.00     0.088 C 
HETATM    2  C9  UNL     1     -25.777  22.624   4.956  1.00  0.00     0.049 C 
HETATM    3  O1  UNL     1     -24.207  23.091   3.313  1.00  0.00    -0.341 OA
HETATM    4  C10 UNL     1     -24.853  23.714   2.307  1.00  0.00     0.176 C 
HETATM    5  C11 UNL     1     -23.826  23.788   1.157  1.00  0.00     0.073 C 
HETATM    6  C12 UNL     1     -24.686  23.727  -0.048  1.00  0.00     0.053 C 
HETATM    7  C13 UNL     1     -25.801  22.682   0.326  1.00  0.00     0.146 C 
HETATM    8  C16 UNL     1     -26.933  23.136  -0.536  1.00  0.00     0.163 C 
HETATM    9  O5  UNL     1     -26.658  23.356  -1.713  1.00  0.00    -0.295 OA
HETATM   10  C17 UNL     1     -28.317  23.342  -0.120  1.00  0.00     0.082 C 
HETATM   11  C18 UNL     1     -28.470  22.912   1.299  1.00  0.00     0.013 C 
HETATM   12  C19 UNL     1     -27.343  23.544   2.101  1.00  0.00     0.002 C 
HETATM   13  C20 UNL     1     -27.472  25.016   1.914  1.00  0.00     0.011 C 
HETATM   14  C21 UNL     1     -26.006  22.922   1.776  1.00  0.00     0.087 C 
HETATM   15  C22 UNL     1     -25.885  21.686   2.633  1.00  0.00     0.170 C 
ENDROOT
BRANCH   1  16
HETATM   16  C7  UNL     1     -24.041  20.954   4.131  1.00  0.00     0.040 C 
BRANCH  16  17
HETATM   17  C6  UNL     1     -24.256  20.115   5.311  1.00  0.00     0.004 C 
BRANCH  17  18
HETATM   18  C5  UNL     1     -23.085  19.810   6.194  1.00  0.00     0.008 C 
BRANCH  18  19
HETATM   19  C3  UNL     1     -22.625  18.367   6.104  1.00  0.00     0.003 C 
HETATM   20  C4  UNL     1     -22.786  17.691   7.442  1.00  0.00     0.014 C 
BRANCH  19  21
HETATM   21  C2  UNL     1     -23.377  17.591   5.085  1.00  0.00    -0.033 C 
HETATM   22  C1  UNL     1     -22.803  17.107   3.976  1.00  0.00     0.007 C 
ENDBRANCH  19  21
ENDBRANCH  18  19
ENDBRANCH  17  18
ENDBRANCH  16  17
ENDBRANCH   1  16
BRANCH  15  23
HETATM   23  O6  UNL     1     -27.053  21.246   3.196  1.00  0.00    -0.391 OA
ATOM     24  H6  UNL     1     -27.664  21.171   2.473  1.00  0.00     0.210 HD
ENDBRANCH  15  23
BRANCH   4  25
HETATM   25  O2  UNL     1     -25.084  25.004   2.674  1.00  0.00    -0.364 OA
ATOM     26  H2  UNL     1     -25.964  25.064   3.029  1.00  0.00     0.213 HD
ENDBRANCH   4  25
BRANCH   7  27
HETATM   27  O3  UNL     1     -25.243  21.501  -0.126  1.00  0.00    -0.301 OA
BRANCH  27  28
HETATM   28  C14 UNL     1     -24.253  21.187  -0.972  1.00  0.00     0.256 C 
HETATM   29  C15 UNL     1     -24.424  21.029  -2.458  1.00  0.00     0.126 C 
HETATM   30  O4  UNL     1     -23.112  21.007  -0.530  1.00  0.00    -0.266 OA
ENDBRANCH  27  28
ENDBRANCH   7  27
TORSDOF 9
ENDMDL
MODEL 5
REMARK VINA RESULT: -7.900141701      2.369      4.811
REMARK  9 active torsions:
REMARK  status: ('A' for Active; 'I' for Inactive)
REMARK    1  A    between atoms: C2_2  and  C3_3 
REMARK    2  A    between atoms: C3_3  and  C5_5 
REMARK    3  A    between atoms: C5_5  and  C6_6 
REMARK    4  A    between atoms: C6_6  and  C7_7 
REMARK    5  A    between atoms: C7_7  and  C8_8 
REMARK    6  A    between atoms: C10_11  and  O2_12 
REMARK    7  A    between atoms: C13_16  and  O3_17 
REMARK    8  A    between atoms: O3_17  and  C14_18 
REMARK    9  A    between atoms: C22_28  and  O6_29 
ROOT
HETATM    1  C8  UNL     1     -24.915  22.128   3.333  1.00  0.00     0.088 C 
HETATM    2  C9  UNL     1     -25.697  22.715   4.459  1.00  0.00     0.049 C 
HETATM    3  O1  UNL     1     -24.084  23.117   2.840  1.00  0.00    -0.341 OA
HETATM    4  C10 UNL     1     -24.685  23.782   1.833  1.00  0.00     0.176 C 
HETATM    5  C11 UNL     1     -23.641  23.816   0.697  1.00  0.00     0.073 C 
HETATM    6  C12 UNL     1     -24.487  23.811  -0.520  1.00  0.00     0.053 C 
HETATM    7  C13 UNL     1     -25.659  22.820  -0.170  1.00  0.00     0.146 C 
HETATM    8  C16 UNL     1     -26.756  23.340  -1.041  1.00  0.00     0.163 C 
HETATM    9  O5  UNL     1     -26.455  23.557  -2.212  1.00  0.00    -0.295 OA
HETATM   10  C17 UNL     1     -28.133  23.612  -0.640  1.00  0.00     0.082 C 
HETATM   11  C18 UNL     1     -28.325  23.176   0.773  1.00  0.00     0.013 C 
HETATM   12  C19 UNL     1     -27.178  23.742   1.595  1.00  0.00     0.002 C 
HETATM   13  C20 UNL     1     -27.229  25.220   1.422  1.00  0.00     0.011 C 
HETATM   14  C21 UNL     1     -25.870  23.056   1.280  1.00  0.00     0.087 C 
HETATM   15  C22 UNL     1     -25.823  21.807   2.125  1.00  0.00     0.170 C 
ENDROOT
BRANCH   1  16
HETATM   16  C7  UNL     1     -24.037  20.966   3.637  1.00  0.00     0.040 C 
BRANCH  16  17
HETATM   17  C6  UNL     1     -24.506  19.908   4.532  1.00  0.00     0.004 C 
BRANCH  17  18
HETATM   18  C5  UNL     1     -23.807  19.720   5.844  1.00  0.00     0.008 C 
BRANCH  18  19
HETATM   19  C3  UNL     1     -23.451  18.274   6.133  1.00  0.00     0.003 C 
HETATM   20  C4  UNL     1     -22.618  17.713   5.009  1.00  0.00     0.014 C 
BRANCH  19  21
HETATM   21  C2  UNL     1     -22.701  18.116   7.406  1.00  0.00    -0.033 C 
HETATM   22  C1  UNL     1     -21.981  19.107   7.948  1.00  0.00     0.007 C 
ENDBRANCH  19  21
ENDBRANCH  18  19
ENDBRANCH  17  18
ENDBRANCH  16  17
ENDBRANCH   1  16
BRANCH  15  23
HETATM   23  O6  UNL     1     -27.018  21.421   2.669  1.00  0.00    -0.391 OA
ATOM     24  H6  UNL     1     -26.856  20.561   3.039  1.00  0.00     0.210 HD
ENDBRANCH  15  23
BRANCH   4  25
HETATM   25  O2  UNL     1     -24.855  25.079   2.211  1.00  0.00    -0.364 OA
ATOM     26  H2  UNL     1     -25.111  25.096   3.126  1.00  0.00     0.213 HD
ENDBRANCH   4  25
BRANCH   7  27
HETATM   27  O3  UNL     1     -25.157  21.617  -0.628  1.00  0.00    -0.301 OA
BRANCH  27  28
HETATM   28  C14 UNL     1     -24.034  21.239  -1.253  1.00  0.00     0.256 C 
HETATM   29  C15 UNL     1     -23.882  21.151  -2.747  1.00  0.00     0.126 C 
HETATM   30  O4  UNL     1     -23.040  20.934  -0.583  1.00  0.00    -0.266 OA
ENDBRANCH  27  28
ENDBRANCH   7  27
TORSDOF 9
ENDMDL
