MODEL 1
REMARK VINA RESULT: -10.098984775      0.000      0.000
REMARK  14 active torsions:
REMARK  status: ('A' for Active; 'I' for Inactive)
REMARK    1  A    between atoms: N1_2  and  C3_4 
REMARK    2  A    between atoms: C4_7  and  N3_8 
REMARK    3  A    between atoms: C6_14  and  C7_15 
REMARK    4  A    between atoms: C7_15  and  O1_16 
REMARK    5  A    between atoms: O1_16  and  C8_17 
REMARK    6  A    between atoms: C8_17  and  C9_19 
REMARK    7  A    between atoms: C9_19  and  C10_20 
REMARK    8  A    between atoms: C9_19  and  N12_42 
REMARK    9  A    between atoms: C13_26  and  S1_27 
REMARK   10  A    between atoms: S1_27  and  N7_28 
REMARK   11  A    between atoms: N7_28  and  C14_30 
REMARK   12  A    between atoms: N11_36  and  O3_37 
REMARK   13  A    between atoms: N12_42  and  N13_43 
REMARK   14  A    between atoms: N12_42  and  N15_48 
ROOT
HETATM    1  C9  UNL     1      44.695 -16.502  31.876  1.00  0.00     0.144 C 
ENDROOT
BRANCH   1   2
HETATM    2  C8  UNL     1      45.778 -15.466  31.895  1.00  0.00     0.309 C 
HETATM    3  O2  UNL     1      45.722 -14.370  32.477  1.00  0.00    -0.258 OA
BRANCH   2   4
HETATM    4  O1  UNL     1      46.935 -15.756  31.205  1.00  0.00    -0.309 OA
BRANCH   4   5
HETATM    5  C7  UNL     1      48.156 -16.170  31.665  1.00  0.00     0.255 C 
BRANCH   5   6
HETATM    6  C6  UNL     1      49.007 -15.221  32.379  1.00  0.00     0.109 A 
HETATM    7  N4  UNL     1      48.712 -14.838  33.662  1.00  0.00    -0.339 N 
HETATM    8  C5  UNL     1      49.545 -14.004  34.309  1.00  0.00     0.111 A 
ATOM      9  H4  UNL     1      47.869 -15.182  34.120  1.00  0.00     0.167 HD
HETATM   10  C4  UNL     1      49.292 -13.616  35.607  1.00  0.00     0.144 A 
HETATM   11  C23 UNL     1      50.688 -13.526  33.710  1.00  0.00     0.147 A 
HETATM   12  N2  UNL     1      50.158 -12.800  36.229  1.00  0.00    -0.175 N 
HETATM   13  C3  UNL     1      51.274 -12.337  35.637  1.00  0.00     0.681 A 
ATOM     14  H2  UNL     1      49.962 -12.519  37.190  1.00  0.00     0.186 HD
HETATM   15  N18 UNL     1      51.524 -12.712  34.369  1.00  0.00    -0.184 N 
ATOM     16  H18 UNL     1      52.365 -12.371  33.902  1.00  0.00     0.184 HD
HETATM   17  C22 UNL     1      50.990 -13.913  32.405  1.00  0.00     0.276 A 
HETATM   18  N17 UNL     1      50.119 -14.752  31.798  1.00  0.00    -0.309 N 
HETATM   19  O5  UNL     1      52.025 -13.485  31.844  1.00  0.00    -0.266 OA
ATOM     20  H17 UNL     1      50.322 -15.046  30.842  1.00  0.00     0.170 HD
BRANCH  10  21
HETATM   21  N3  UNL     1      48.222 -14.033  36.241  1.00  0.00    -0.383 N 
ATOM     22  H32 UNL     1      48.173 -14.012  37.260  1.00  0.00     0.157 HD
ATOM     23  H31 UNL     1      47.424 -14.381  35.710  1.00  0.00     0.157 HD
ENDBRANCH  10  21
BRANCH  13  24
HETATM   24  N1  UNL     1      52.209 -11.504  36.285  1.00  0.00    -0.226 N 
HETATM   25  C1  UNL     1      52.343 -11.565  37.718  1.00  0.00     0.168 C 
HETATM   26  C2  UNL     1      53.019 -10.597  35.517  1.00  0.00     0.168 C 
ENDBRANCH  13  24
ENDBRANCH   5   6
ENDBRANCH   4   5
ENDBRANCH   2   4
ENDBRANCH   1   2
BRANCH   1  27
HETATM   27  C10 UNL     1      43.386 -15.934  31.540  1.00  0.00     0.048 C 
HETATM   28  C11 UNL     1      42.613 -15.469  32.560  1.00  0.00     0.062 C 
HETATM   29  C12 UNL     1      41.374 -14.854  32.599  1.00  0.00     0.118 C 
HETATM   30  N5  UNL     1      40.943 -14.321  33.839  1.00  0.00    -0.083 NA
HETATM   31  N6  UNL     1      40.498 -14.689  31.569  1.00  0.00    -0.338 N 
HETATM   32  C13 UNL     1      40.777 -14.756  30.251  1.00  0.00     0.096 C 
ATOM     33  H6  UNL     1      39.529 -14.494  31.822  1.00  0.00     0.167 HD
HETATM   34  C15 UNL     1      41.822 -15.447  29.643  1.00  0.00     0.094 C 
HETATM   35  C16 UNL     1      43.026 -15.877  30.209  1.00  0.00     0.187 C 
HETATM   36  O4  UNL     1      43.849 -16.246  29.335  1.00  0.00    -0.287 OA
BRANCH  32  37
HETATM   37  S1  UNL     1      39.657 -13.829  29.223  1.00  0.00     0.020 SA
BRANCH  37  38
HETATM   38  N7  UNL     1      40.458 -12.588  28.295  1.00  0.00    -0.154 N 
ATOM     39  H7  UNL     1      40.639 -11.662  28.684  1.00  0.00     0.193 HD
BRANCH  38  40
HETATM   40  C14 UNL     1      40.849 -12.934  26.954  1.00  0.00     0.744 A 
HETATM   41  N8  UNL     1      41.576 -13.948  26.500  1.00  0.00    -0.115 N 
HETATM   42  N9  UNL     1      41.673 -13.868  25.198  1.00  0.00    -0.209 N 
ATOM     43  H8  UNL     1      41.994 -14.677  27.078  1.00  0.00     0.207 HD
HETATM   44  N10 UNL     1      40.995 -12.781  24.803  1.00  0.00     0.039 NA
ATOM     45  H9  UNL     1      42.175 -14.516  24.591  1.00  0.00     0.206 HD
HETATM   46  N11 UNL     1      40.482 -12.197  25.870  1.00  0.00     0.034 N 
BRANCH  46  47
HETATM   47  O3  UNL     1      39.713 -11.060  25.914  1.00  0.00    -0.256 OA
ATOM     48  H3  UNL     1      40.049 -10.178  26.016  1.00  0.00     0.247 HD
ENDBRANCH  46  47
ENDBRANCH  38  40
ENDBRANCH  37  38
ENDBRANCH  32  37
ENDBRANCH   1  27
BRANCH   1  49
HETATM   49  N12 UNL     1      44.807 -17.580  32.723  1.00  0.00    -0.077 NA
BRANCH  49  50
HETATM   50  N13 UNL     1      45.738 -18.476  32.118  1.00  0.00    -0.245 N 
HETATM   51  N14 UNL     1      45.716 -18.670  30.896  1.00  0.00    -0.333 N 
ATOM     52 2H14 UNL     1      45.022 -18.179  30.333  1.00  0.00     0.178 HD
ATOM     53 1H14 UNL     1      46.382 -19.310  30.463  1.00  0.00     0.178 HD
ATOM     54  H13 UNL     1      46.426 -18.959  32.695  1.00  0.00     0.204 HD
ENDBRANCH  49  50
BRANCH  49  55
HETATM   55  N15 UNL     1      45.122 -17.553  34.035  1.00  0.00    -0.273 N 
HETATM   56  C17 UNL     1      46.158 -17.010  34.675  1.00  0.00     0.114 A 
HETATM   57  C18 UNL     1      46.353 -17.023  36.044  1.00  0.00     0.045 A 
HETATM   58  C19 UNL     1      45.434 -17.629  36.834  1.00  0.00     0.049 A 
HETATM   59  N16 UNL     1      45.591 -17.665  38.255  1.00  0.00    -0.102 NA
HETATM   60  C20 UNL     1      44.339 -18.207  36.218  1.00  0.00     0.045 A 
HETATM   61  C21 UNL     1      44.197 -18.164  34.853  1.00  0.00     0.114 A 
ENDBRANCH  49  55
ENDBRANCH   1  49
TORSDOF 14
ENDMDL
MODEL 2
REMARK VINA RESULT: -10.038274017      1.738      2.358
REMARK  14 active torsions:
REMARK  status: ('A' for Active; 'I' for Inactive)
REMARK    1  A    between atoms: N1_2  and  C3_4 
REMARK    2  A    between atoms: C4_7  and  N3_8 
REMARK    3  A    between atoms: C6_14  and  C7_15 
REMARK    4  A    between atoms: C7_15  and  O1_16 
REMARK    5  A    between atoms: O1_16  and  C8_17 
REMARK    6  A    between atoms: C8_17  and  C9_19 
REMARK    7  A    between atoms: C9_19  and  C10_20 
REMARK    8  A    between atoms: C9_19  and  N12_42 
REMARK    9  A    between atoms: C13_26  and  S1_27 
REMARK   10  A    between atoms: S1_27  and  N7_28 
REMARK   11  A    between atoms: N7_28  and  C14_30 
REMARK   12  A    between atoms: N11_36  and  O3_37 
REMARK   13  A    between atoms: N12_42  and  N13_43 
REMARK   14  A    between atoms: N12_42  and  N15_48 
ROOT
HETATM    1  C9  UNL     1      45.096 -16.530  31.573  1.00  0.00     0.144 C 
ENDROOT
BRANCH   1   2
HETATM    2  C8  UNL     1      46.177 -15.499  31.696  1.00  0.00     0.309 C 
HETATM    3  O2  UNL     1      46.090 -14.430  32.322  1.00  0.00    -0.258 OA
BRANCH   2   4
HETATM    4  O1  UNL     1      47.368 -15.761  31.056  1.00  0.00    -0.309 OA
BRANCH   4   5
HETATM    5  C7  UNL     1      48.582 -16.133  31.571  1.00  0.00     0.255 C 
BRANCH   5   6
HETATM    6  C6  UNL     1      49.367 -15.155  32.321  1.00  0.00     0.109 A 
HETATM    7  N4  UNL     1      49.010 -14.795  33.594  1.00  0.00    -0.339 N 
HETATM    8  C5  UNL     1      49.784 -13.933  34.277  1.00  0.00     0.111 A 
ATOM      9  H4  UNL     1      48.166 -15.178  34.020  1.00  0.00     0.167 HD
HETATM   10  C4  UNL     1      49.469 -13.567  35.567  1.00  0.00     0.144 A 
HETATM   11  C23 UNL     1      50.928 -13.404  33.723  1.00  0.00     0.147 A 
HETATM   12  N2  UNL     1      50.278 -12.720  36.226  1.00  0.00    -0.175 N 
HETATM   13  C3  UNL     1      51.394 -12.208  35.678  1.00  0.00     0.681 A 
ATOM     14  H2  UNL     1      50.036 -12.456  37.181  1.00  0.00     0.186 HD
HETATM   15  N18 UNL     1      51.705 -12.562  34.418  1.00  0.00    -0.184 N 
ATOM     16  H18 UNL     1      52.547 -12.183  33.984  1.00  0.00     0.184 HD
HETATM   17  C22 UNL     1      51.292 -13.767  32.427  1.00  0.00     0.276 A 
HETATM   18  N17 UNL     1      50.479 -14.637  31.783  1.00  0.00    -0.309 N 
HETATM   19  O5  UNL     1      52.328 -13.293  31.907  1.00  0.00    -0.266 OA
ATOM     20  H17 UNL     1      50.727 -14.914  30.833  1.00  0.00     0.170 HD
BRANCH  10  21
HETATM   21  N3  UNL     1      48.395 -14.032  36.160  1.00  0.00    -0.383 N 
ATOM     22  H32 UNL     1      48.333 -15.010  36.444  1.00  0.00     0.157 HD
ATOM     23  H31 UNL     1      47.610 -13.408  36.344  1.00  0.00     0.157 HD
ENDBRANCH  10  21
BRANCH  13  24
HETATM   24  N1  UNL     1      52.270 -11.342  36.365  1.00  0.00    -0.226 N 
HETATM   25  C1  UNL     1      53.098 -10.429  35.620  1.00  0.00     0.168 C 
HETATM   26  C2  UNL     1      52.335 -11.375  37.801  1.00  0.00     0.168 C 
ENDBRANCH  13  24
ENDBRANCH   5   6
ENDBRANCH   4   5
ENDBRANCH   2   4
ENDBRANCH   1   2
BRANCH   1  27
HETATM   27  C10 UNL     1      43.845 -15.967  31.056  1.00  0.00     0.048 C 
HETATM   28  C11 UNL     1      42.831 -15.753  31.939  1.00  0.00     0.062 C 
HETATM   29  C12 UNL     1      41.561 -15.216  31.806  1.00  0.00     0.118 C 
HETATM   30  N5  UNL     1      40.827 -14.964  32.990  1.00  0.00    -0.083 NA
HETATM   31  N6  UNL     1      40.918 -14.888  30.652  1.00  0.00    -0.338 N 
HETATM   32  C13 UNL     1      41.480 -14.676  29.444  1.00  0.00     0.096 C 
ATOM     33  H6  UNL     1      39.904 -14.793  30.707  1.00  0.00     0.167 HD
HETATM   34  C15 UNL     1      42.690 -15.182  28.975  1.00  0.00     0.094 C 
HETATM   35  C16 UNL     1      43.777 -15.660  29.712  1.00  0.00     0.187 C 
HETATM   36  O4  UNL     1      44.799 -15.808  28.997  1.00  0.00    -0.287 OA
BRANCH  32  37
HETATM   37  S1  UNL     1      40.530 -13.614  28.376  1.00  0.00     0.020 SA
BRANCH  37  38
HETATM   38  N7  UNL     1      39.021 -13.109  29.090  1.00  0.00    -0.154 N 
ATOM     39  H7  UNL     1      38.130 -13.512  28.801  1.00  0.00     0.193 HD
BRANCH  38  40
HETATM   40  C14 UNL     1      39.095 -12.095  30.109  1.00  0.00     0.744 A 
HETATM   41  N8  UNL     1      39.389 -10.803  30.023  1.00  0.00    -0.115 N 
HETATM   42  N9  UNL     1      39.328 -10.261  31.212  1.00  0.00    -0.209 N 
ATOM     43  H8  UNL     1      39.626 -10.309  29.162  1.00  0.00     0.207 HD
HETATM   44  N10 UNL     1      38.987 -11.221  32.083  1.00  0.00     0.039 NA
ATOM     45  H9  UNL     1      39.509  -9.282  31.437  1.00  0.00     0.206 HD
HETATM   46  N11 UNL     1      38.839 -12.353  31.421  1.00  0.00     0.034 N 
BRANCH  46  47
HETATM   47  O3  UNL     1      38.488 -13.580  31.928  1.00  0.00    -0.256 OA
ATOM     48  H3  UNL     1      37.646 -13.790  32.313  1.00  0.00     0.247 HD
ENDBRANCH  46  47
ENDBRANCH  38  40
ENDBRANCH  37  38
ENDBRANCH  32  37
ENDBRANCH   1  27
BRANCH   1  49
HETATM   49  N12 UNL     1      45.090 -17.581  32.460  1.00  0.00    -0.077 NA
BRANCH  49  50
HETATM   50  N13 UNL     1      46.086 -18.498  32.009  1.00  0.00    -0.245 N 
HETATM   51  N14 UNL     1      46.117 -18.854  30.825  1.00  0.00    -0.333 N 
ATOM     52 2H14 UNL     1      45.419 -18.482  30.181  1.00  0.00     0.178 HD
ATOM     53 1H14 UNL     1      46.828 -19.510  30.501  1.00  0.00     0.178 HD
ATOM     54  H13 UNL     1      46.777 -18.861  32.666  1.00  0.00     0.204 HD
ENDBRANCH  49  50
BRANCH  49  55
HETATM   55  N15 UNL     1      45.234 -17.512  33.800  1.00  0.00    -0.273 N 
HETATM   56  C17 UNL     1      46.202 -16.987  34.551  1.00  0.00     0.114 A 
HETATM   57  C18 UNL     1      46.217 -16.951  35.933  1.00  0.00     0.045 A 
HETATM   58  C19 UNL     1      45.177 -17.486  36.617  1.00  0.00     0.049 A 
HETATM   59  N16 UNL     1      45.147 -17.470  38.046  1.00  0.00    -0.102 NA
HETATM   60  C20 UNL     1      44.146 -18.044  35.883  1.00  0.00     0.045 A 
HETATM   61  C21 UNL     1      44.184 -18.051  34.511  1.00  0.00     0.114 A 
ENDBRANCH  49  55
ENDBRANCH   1  49
TORSDOF 14
ENDMDL
MODEL 3
REMARK VINA RESULT: -9.968314654      1.966      2.786
REMARK  14 active torsions:
REMARK  status: ('A' for Active; 'I' for Inactive)
REMARK    1  A    between atoms: N1_2  and  C3_4 
REMARK    2  A    between atoms: C4_7  and  N3_8 
REMARK    3  A    between atoms: C6_14  and  C7_15 
REMARK    4  A    between atoms: C7_15  and  O1_16 
REMARK    5  A    between atoms: O1_16  and  C8_17 
REMARK    6  A    between atoms: C8_17  and  C9_19 
REMARK    7  A    between atoms: C9_19  and  C10_20 
REMARK    8  A    between atoms: C9_19  and  N12_42 
REMARK    9  A    between atoms: C13_26  and  S1_27 
REMARK   10  A    between atoms: S1_27  and  N7_28 
REMARK   11  A    between atoms: N7_28  and  C14_30 
REMARK   12  A    between atoms: N11_36  and  O3_37 
REMARK   13  A    between atoms: N12_42  and  N13_43 
REMARK   14  A    between atoms: N12_42  and  N15_48 
ROOT
HETATM    1  C9  UNL     1      45.137 -16.596  31.612  1.00  0.00     0.144 C 
ENDROOT
BRANCH   1   2
HETATM    2  C8  UNL     1      46.240 -15.589  31.728  1.00  0.00     0.309 C 
HETATM    3  O2  UNL     1      46.092 -14.368  31.904  1.00  0.00    -0.258 OA
BRANCH   2   4
HETATM    4  O1  UNL     1      47.531 -16.059  31.627  1.00  0.00    -0.309 OA
BRANCH   4   5
HETATM    5  C7  UNL     1      48.711 -15.376  31.502  1.00  0.00     0.255 C 
BRANCH   5   6
HETATM    6  C6  UNL     1      49.280 -14.716  32.675  1.00  0.00     0.109 A 
HETATM    7  N4  UNL     1      50.449 -14.008  32.586  1.00  0.00    -0.339 N 
HETATM    8  C5  UNL     1      50.917 -13.368  33.672  1.00  0.00     0.111 A 
ATOM      9  H4  UNL     1      50.959 -13.966  31.704  1.00  0.00     0.167 HD
HETATM   10  C4  UNL     1      52.077 -12.628  33.614  1.00  0.00     0.144 A 
HETATM   11  C23 UNL     1      50.246 -13.411  34.874  1.00  0.00     0.147 A 
HETATM   12  N2  UNL     1      52.502 -11.984  34.714  1.00  0.00    -0.175 N 
HETATM   13  C3  UNL     1      51.840 -12.030  35.884  1.00  0.00     0.681 A 
ATOM     14  H2  UNL     1      53.362 -11.438  34.659  1.00  0.00     0.186 HD
HETATM   15  N18 UNL     1      50.708 -12.753  35.946  1.00  0.00    -0.184 N 
ATOM     16  H18 UNL     1      50.191 -12.802  36.825  1.00  0.00     0.184 HD
HETATM   17  C22 UNL     1      49.057 -14.133  34.967  1.00  0.00     0.276 A 
HETATM   18  N17 UNL     1      48.629 -14.759  33.846  1.00  0.00    -0.309 N 
HETATM   19  O5  UNL     1      48.434 -14.184  36.054  1.00  0.00    -0.266 OA
ATOM     20  H17 UNL     1      47.761 -15.293  33.894  1.00  0.00     0.170 HD
BRANCH  10  21
HETATM   21  N3  UNL     1      52.769 -12.541  32.503  1.00  0.00    -0.383 N 
ATOM     22  H32 UNL     1      53.686 -12.982  32.418  1.00  0.00     0.157 HD
ATOM     23  H31 UNL     1      52.387 -12.026  31.709  1.00  0.00     0.157 HD
ENDBRANCH  10  21
BRANCH  13  24
HETATM   24  N1  UNL     1      52.256 -11.337  37.039  1.00  0.00    -0.226 N 
HETATM   25  C1  UNL     1      51.736 -11.722  38.326  1.00  0.00     0.168 C 
HETATM   26  C2  UNL     1      53.191 -10.250  36.930  1.00  0.00     0.168 C 
ENDBRANCH  13  24
ENDBRANCH   5   6
ENDBRANCH   4   5
ENDBRANCH   2   4
ENDBRANCH   1   2
BRANCH   1  27
HETATM   27  C10 UNL     1      43.902 -16.012  31.078  1.00  0.00     0.048 C 
HETATM   28  C11 UNL     1      42.886 -15.764  31.950  1.00  0.00     0.062 C 
HETATM   29  C12 UNL     1      41.630 -15.201  31.800  1.00  0.00     0.118 C 
HETATM   30  N5  UNL     1      40.892 -14.917  32.974  1.00  0.00    -0.083 NA
HETATM   31  N6  UNL     1      41.004 -14.874  30.636  1.00  0.00    -0.338 N 
HETATM   32  C13 UNL     1      41.580 -14.690  29.430  1.00  0.00     0.096 C 
ATOM     33  H6  UNL     1      39.992 -14.755  30.681  1.00  0.00     0.167 HD
HETATM   34  C15 UNL     1      42.782 -15.228  28.978  1.00  0.00     0.094 C 
HETATM   35  C16 UNL     1      43.852 -15.721  29.730  1.00  0.00     0.187 C 
HETATM   36  O4  UNL     1      44.877 -15.900  29.026  1.00  0.00    -0.287 OA
BRANCH  32  37
HETATM   37  S1  UNL     1      40.662 -13.620  28.341  1.00  0.00     0.020 SA
BRANCH  37  38
HETATM   38  N7  UNL     1      39.130 -13.125  29.010  1.00  0.00    -0.154 N 
ATOM     39  H7  UNL     1      38.252 -13.550  28.710  1.00  0.00     0.193 HD
BRANCH  38  40
HETATM   40  C14 UNL     1      39.164 -12.086  30.006  1.00  0.00     0.744 A 
HETATM   41  N8  UNL     1      39.437 -10.792  29.895  1.00  0.00    -0.115 N 
HETATM   42  N9  UNL     1      39.341 -10.224  31.070  1.00  0.00    -0.209 N 
ATOM     43  H8  UNL     1      39.684 -10.314  29.029  1.00  0.00     0.207 HD
HETATM   44  N10 UNL     1      38.999 -11.169  31.956  1.00  0.00     0.039 NA
ATOM     45  H9  UNL     1      39.499  -9.237  31.275  1.00  0.00     0.206 HD
HETATM   46  N11 UNL     1      38.885 -12.319  31.317  1.00  0.00     0.034 N 
BRANCH  46  47
HETATM   47  O3  UNL     1      38.545 -13.541  31.846  1.00  0.00    -0.256 OA
ATOM     48  H3  UNL     1      38.702 -14.378  31.428  1.00  0.00     0.247 HD
ENDBRANCH  46  47
ENDBRANCH  38  40
ENDBRANCH  37  38
ENDBRANCH  32  37
ENDBRANCH   1  27
BRANCH   1  49
HETATM   49  N12 UNL     1      45.100 -17.632  32.516  1.00  0.00    -0.077 NA
BRANCH  49  50
HETATM   50  N13 UNL     1      46.084 -18.575  32.091  1.00  0.00    -0.245 N 
HETATM   51  N14 UNL     1      46.183 -18.879  30.896  1.00  0.00    -0.333 N 
ATOM     52 2H14 UNL     1      45.551 -18.445  30.224  1.00  0.00     0.178 HD
ATOM     53 1H14 UNL     1      46.886 -19.552  30.592  1.00  0.00     0.178 HD
ATOM     54  H13 UNL     1      46.708 -19.000  32.776  1.00  0.00     0.204 HD
ENDBRANCH  49  50
BRANCH  49  55
HETATM   55  N15 UNL     1      45.229 -17.545  33.856  1.00  0.00    -0.273 N 
HETATM   56  C17 UNL     1      46.167 -16.972  34.610  1.00  0.00     0.114 A 
HETATM   57  C18 UNL     1      46.169 -16.924  35.992  1.00  0.00     0.045 A 
HETATM   58  C19 UNL     1      45.146 -17.495  36.672  1.00  0.00     0.049 A 
HETATM   59  N16 UNL     1      45.103 -17.468  38.101  1.00  0.00    -0.102 NA
HETATM   60  C20 UNL     1      44.146 -18.103  35.935  1.00  0.00     0.045 A 
HETATM   61  C21 UNL     1      44.196 -18.122  34.563  1.00  0.00     0.114 A 
ENDBRANCH  49  55
ENDBRANCH   1  49
TORSDOF 14
ENDMDL
MODEL 4
REMARK VINA RESULT: -9.756768946      1.308      2.010
REMARK  14 active torsions:
REMARK  status: ('A' for Active; 'I' for Inactive)
REMARK    1  A    between atoms: N1_2  and  C3_4 
REMARK    2  A    between atoms: C4_7  and  N3_8 
REMARK    3  A    between atoms: C6_14  and  C7_15 
REMARK    4  A    between atoms: C7_15  and  O1_16 
REMARK    5  A    between atoms: O1_16  and  C8_17 
REMARK    6  A    between atoms: C8_17  and  C9_19 
REMARK    7  A    between atoms: C9_19  and  C10_20 
REMARK    8  A    between atoms: C9_19  and  N12_42 
REMARK    9  A    between atoms: C13_26  and  S1_27 
REMARK   10  A    between atoms: S1_27  and  N7_28 
REMARK   11  A    between atoms: N7_28  and  C14_30 
REMARK   12  A    between atoms: N11_36  and  O3_37 
REMARK   13  A    between atoms: N12_42  and  N13_43 
REMARK   14  A    between atoms: N12_42  and  N15_48 
ROOT
HETATM    1  C9  UNL     1      44.082 -15.929  32.654  1.00  0.00     0.144 C 
ENDROOT
BRANCH   1   2
HETATM    2  C8  UNL     1      45.227 -15.015  32.341  1.00  0.00     0.309 C 
HETATM    3  O2  UNL     1      45.266 -13.796  32.575  1.00  0.00    -0.258 OA
BRANCH   2   4
HETATM    4  O1  UNL     1      46.331 -15.577  31.739  1.00  0.00    -0.309 OA
BRANCH   4   5
HETATM    5  C7  UNL     1      47.452 -16.133  32.296  1.00  0.00     0.255 C 
BRANCH   5   6
HETATM    6  C6  UNL     1      48.314 -15.305  33.137  1.00  0.00     0.109 A 
HETATM    7  N4  UNL     1      49.481 -14.780  32.647  1.00  0.00    -0.339 N 
HETATM    8  C5  UNL     1      50.225 -13.979  33.429  1.00  0.00     0.111 A 
ATOM      9  H4  UNL     1      49.782 -14.995  31.696  1.00  0.00     0.167 HD
HETATM   10  C4  UNL     1      51.392 -13.415  32.962  1.00  0.00     0.144 A 
HETATM   11  C23 UNL     1      49.838 -13.675  34.716  1.00  0.00     0.147 A 
HETATM   12  N2  UNL     1      52.097 -12.602  33.766  1.00  0.00    -0.175 N 
HETATM   13  C3  UNL     1      51.712 -12.309  35.021  1.00  0.00     0.681 A 
ATOM     14  H2  UNL     1      52.959 -12.189  33.410  1.00  0.00     0.186 HD
HETATM   15  N18 UNL     1      50.574 -12.859  35.483  1.00  0.00    -0.184 N 
ATOM     16  H18 UNL     1      50.266 -12.650  36.433  1.00  0.00     0.184 HD
HETATM   17  C22 UNL     1      48.652 -14.209  35.218  1.00  0.00     0.276 A 
HETATM   18  N17 UNL     1      47.941 -15.010  34.390  1.00  0.00    -0.309 N 
HETATM   19  O5  UNL     1      48.287 -13.945  36.387  1.00  0.00    -0.266 OA
ATOM     20  H17 UNL     1      47.071 -15.412  34.739  1.00  0.00     0.170 HD
BRANCH  10  21
HETATM   21  N3  UNL     1      51.821 -13.659  31.747  1.00  0.00    -0.383 N 
ATOM     22  H32 UNL     1      52.423 -12.995  31.258  1.00  0.00     0.157 HD
ATOM     23  H31 UNL     1      51.554 -14.526  31.282  1.00  0.00     0.157 HD
ENDBRANCH  10  21
BRANCH  13  24
HETATM   24  N1  UNL     1      52.424 -11.435  35.868  1.00  0.00    -0.226 N 
HETATM   25  C1  UNL     1      53.204 -10.368  35.295  1.00  0.00     0.168 C 
HETATM   26  C2  UNL     1      52.372 -11.612  37.294  1.00  0.00     0.168 C 
ENDBRANCH  13  24
ENDBRANCH   5   6
ENDBRANCH   4   5
ENDBRANCH   2   4
ENDBRANCH   1   2
BRANCH   1  27
HETATM   27  C10 UNL     1      42.791 -15.364  32.250  1.00  0.00     0.048 C 
HETATM   28  C11 UNL     1      42.105 -14.626  33.165  1.00  0.00     0.062 C 
HETATM   29  C12 UNL     1      40.907 -13.933  33.113  1.00  0.00     0.118 C 
HETATM   30  N5  UNL     1      40.580 -13.102  34.211  1.00  0.00    -0.083 NA
HETATM   31  N6  UNL     1      39.986 -13.948  32.110  1.00  0.00    -0.338 N 
HETATM   32  C13 UNL     1      40.185 -14.335  30.833  1.00  0.00     0.096 C 
ATOM     33  H6  UNL     1      39.046 -13.634  32.351  1.00  0.00     0.167 HD
HETATM   34  C15 UNL     1      41.152 -15.218  30.360  1.00  0.00     0.094 C 
HETATM   35  C16 UNL     1      42.359 -15.588  30.958  1.00  0.00     0.187 C 
HETATM   36  O4  UNL     1      43.108 -16.205  30.160  1.00  0.00    -0.287 OA
BRANCH  32  37
HETATM   37  S1  UNL     1      39.064 -13.593  29.665  1.00  0.00     0.020 SA
BRANCH  37  38
HETATM   38  N7  UNL     1      39.835 -12.409  28.643  1.00  0.00    -0.154 N 
ATOM     39  H7  UNL     1      39.799 -11.412  28.855  1.00  0.00     0.193 HD
BRANCH  38  40
HETATM   40  C14 UNL     1      40.527 -12.909  27.483  1.00  0.00     0.744 A 
HETATM   41  N8  UNL     1      41.236 -14.018  27.311  1.00  0.00    -0.115 N 
HETATM   42  N9  UNL     1      41.679 -14.066  26.081  1.00  0.00    -0.209 N 
ATOM     43  H8  UNL     1      41.409 -14.723  28.027  1.00  0.00     0.207 HD
HETATM   44  N10 UNL     1      41.247 -12.968  25.446  1.00  0.00     0.039 NA
ATOM     45  H9  UNL     1      42.252 -14.808  25.677  1.00  0.00     0.206 HD
HETATM   46  N11 UNL     1      40.537 -12.246  26.294  1.00  0.00     0.034 N 
BRANCH  46  47
HETATM   47  O3  UNL     1      39.907 -11.050  26.053  1.00  0.00    -0.256 OA
ATOM     48  H3  UNL     1      40.329 -10.271  25.711  1.00  0.00     0.247 HD
ENDBRANCH  46  47
ENDBRANCH  38  40
ENDBRANCH  37  38
ENDBRANCH  32  37
ENDBRANCH   1  27
BRANCH   1  49
HETATM   49  N12 UNL     1      44.185 -16.756  33.748  1.00  0.00    -0.077 NA
BRANCH  49  50
HETATM   50  N13 UNL     1      44.884 -17.921  33.311  1.00  0.00    -0.245 N 
HETATM   51  N14 UNL     1      44.704 -18.367  32.171  1.00  0.00    -0.333 N 
ATOM     52 2H14 UNL     1      44.049 -17.888  31.553  1.00  0.00     0.178 HD
ATOM     53 1H14 UNL     1      45.203 -19.200  31.858  1.00  0.00     0.178 HD
ATOM     54  H13 UNL     1      45.535 -18.389  33.941  1.00  0.00     0.204 HD
ENDBRANCH  49  50
BRANCH  49  55
HETATM   55  N15 UNL     1      44.706 -16.446  34.954  1.00  0.00    -0.273 N 
HETATM   56  C17 UNL     1      44.554 -15.366  35.721  1.00  0.00     0.114 A 
HETATM   57  C18 UNL     1      45.124 -15.180  36.967  1.00  0.00     0.045 A 
HETATM   58  C19 UNL     1      45.909 -16.155  37.485  1.00  0.00     0.049 A 
HETATM   59  N16 UNL     1      46.517 -16.009  38.771  1.00  0.00    -0.102 NA
HETATM   60  C20 UNL     1      46.098 -17.297  36.727  1.00  0.00     0.045 A 
HETATM   61  C21 UNL     1      45.507 -17.428  35.495  1.00  0.00     0.114 A 
ENDBRANCH  49  55
ENDBRANCH   1  49
TORSDOF 14
ENDMDL
MODEL 5
REMARK VINA RESULT: -9.715935698      1.966      2.328
REMARK  14 active torsions:
REMARK  status: ('A' for Active; 'I' for Inactive)
REMARK    1  A    between atoms: N1_2  and  C3_4 
REMARK    2  A    between atoms: C4_7  and  N3_8 
REMARK    3  A    between atoms: C6_14  and  C7_15 
REMARK    4  A    between atoms: C7_15  and  O1_16 
REMARK    5  A    between atoms: O1_16  and  C8_17 
REMARK    6  A    between atoms: C8_17  and  C9_19 
REMARK    7  A    between atoms: C9_19  and  C10_20 
REMARK    8  A    between atoms: C9_19  and  N12_42 
REMARK    9  A    between atoms: C13_26  and  S1_27 
REMARK   10  A    between atoms: S1_27  and  N7_28 
REMARK   11  A    between atoms: N7_28  and  C14_30 
REMARK   12  A    between atoms: N11_36  and  O3_37 
REMARK   13  A    between atoms: N12_42  and  N13_43 
REMARK   14  A    between atoms: N12_42  and  N15_48 
ROOT
HETATM    1  C9  UNL     1      44.732 -16.412  31.798  1.00  0.00     0.144 C 
ENDROOT
BRANCH   1   2
HETATM    2  C8  UNL     1      45.912 -15.488  31.807  1.00  0.00     0.309 C 
HETATM    3  O2  UNL     1      45.949 -14.364  32.335  1.00  0.00    -0.258 OA
BRANCH   2   4
HETATM    4  O1  UNL     1      47.054 -15.924  31.171  1.00  0.00    -0.309 OA
BRANCH   4   5
HETATM    5  C7  UNL     1      48.260 -16.311  31.692  1.00  0.00     0.255 C 
BRANCH   5   6
HETATM    6  C6  UNL     1      49.092 -15.321  32.372  1.00  0.00     0.109 A 
HETATM    7  N4  UNL     1      48.805 -14.921  33.651  1.00  0.00    -0.339 N 
HETATM    8  C5  UNL     1      49.621 -14.049  34.268  1.00  0.00     0.111 A 
ATOM      9  H4  UNL     1      47.979 -15.281  34.130  1.00  0.00     0.167 HD
HETATM   10  C4  UNL     1      49.376 -13.641  35.561  1.00  0.00     0.144 A 
HETATM   11  C23 UNL     1      50.741 -13.549  33.641  1.00  0.00     0.147 A 
HETATM   12  N2  UNL     1      50.227 -12.786  36.153  1.00  0.00    -0.175 N 
HETATM   13  C3  UNL     1      51.319 -12.302  35.534  1.00  0.00     0.681 A 
ATOM     14  H2  UNL     1      50.036 -12.491  37.110  1.00  0.00     0.186 HD
HETATM   15  N18 UNL     1      51.561 -12.696  34.271  1.00  0.00    -0.184 N 
ATOM     16  H18 UNL     1      52.384 -12.340  33.783  1.00  0.00     0.184 HD
HETATM   17  C22 UNL     1      51.034 -13.954  32.340  1.00  0.00     0.276 A 
HETATM   18  N17 UNL     1      50.181 -14.832  31.764  1.00  0.00    -0.309 N 
HETATM   19  O5  UNL     1      52.048 -13.507  31.754  1.00  0.00    -0.266 OA
ATOM     20  H17 UNL     1      50.378 -15.140  30.811  1.00  0.00     0.170 HD
BRANCH  10  21
HETATM   21  N3  UNL     1      48.329 -14.076  36.221  1.00  0.00    -0.383 N 
ATOM     22  H32 UNL     1      48.418 -14.811  36.924  1.00  0.00     0.157 HD
ATOM     23  H31 UNL     1      47.411 -13.674  36.032  1.00  0.00     0.157 HD
ENDBRANCH  10  21
BRANCH  13  24
HETATM   24  N1  UNL     1      52.237 -11.428  36.150  1.00  0.00    -0.226 N 
HETATM   25  C1  UNL     1      52.337 -11.397  37.586  1.00  0.00     0.168 C 
HETATM   26  C2  UNL     1      53.065 -10.570  35.346  1.00  0.00     0.168 C 
ENDBRANCH  13  24
ENDBRANCH   5   6
ENDBRANCH   4   5
ENDBRANCH   2   4
ENDBRANCH   1   2
BRANCH   1  27
HETATM   27  C10 UNL     1      43.480 -15.714  31.492  1.00  0.00     0.048 C 
HETATM   28  C11 UNL     1      42.617 -15.478  32.518  1.00  0.00     0.062 C 
HETATM   29  C12 UNL     1      41.395 -14.830  32.594  1.00  0.00     0.118 C 
HETATM   30  N5  UNL     1      40.851 -14.600  33.880  1.00  0.00    -0.083 NA
HETATM   31  N6  UNL     1      40.636 -14.373  31.560  1.00  0.00    -0.338 N 
HETATM   32  C13 UNL     1      41.048 -14.127  30.299  1.00  0.00     0.096 C 
ATOM     33  H6  UNL     1      39.651 -14.198  31.760  1.00  0.00     0.167 HD
HETATM   34  C15 UNL     1      42.133 -14.697  29.639  1.00  0.00     0.094 C 
HETATM   35  C16 UNL     1      43.261 -15.312  30.190  1.00  0.00     0.187 C 
HETATM   36  O4  UNL     1      44.161 -15.495  29.333  1.00  0.00    -0.287 OA
BRANCH  32  37
HETATM   37  S1  UNL     1      40.064 -12.919  29.435  1.00  0.00     0.020 SA
BRANCH  37  38
HETATM   38  N7  UNL     1      39.118 -11.922  30.508  1.00  0.00    -0.154 N 
ATOM     39  H7  UNL     1      38.541 -12.327  31.246  1.00  0.00     0.193 HD
BRANCH  38  40
HETATM   40  C14 UNL     1      39.190 -10.499  30.302  1.00  0.00     0.744 A 
HETATM   41  N8  UNL     1      39.649  -9.798  29.272  1.00  0.00    -0.115 N 
HETATM   42  N9  UNL     1      39.510  -8.520  29.517  1.00  0.00    -0.209 N 
ATOM     43  H8  UNL     1      40.047 -10.194  28.421  1.00  0.00     0.207 HD
HETATM   44  N10 UNL     1      38.950  -8.395  30.728  1.00  0.00     0.039 NA
ATOM     45  H9  UNL     1      39.780  -7.756  28.897  1.00  0.00     0.206 HD
HETATM   46  N11 UNL     1      38.747  -9.602  31.223  1.00  0.00     0.034 N 
BRANCH  46  47
HETATM   47  O3  UNL     1      38.189  -9.927  32.435  1.00  0.00    -0.256 OA
ATOM     48  H3  UNL     1      37.347  -9.619  32.748  1.00  0.00     0.247 HD
ENDBRANCH  46  47
ENDBRANCH  38  40
ENDBRANCH  37  38
ENDBRANCH  32  37
ENDBRANCH   1  27
BRANCH   1  49
HETATM   49  N12 UNL     1      44.752 -17.506  32.632  1.00  0.00    -0.077 NA
BRANCH  49  50
HETATM   50  N13 UNL     1      45.635 -18.455  32.034  1.00  0.00    -0.245 N 
HETATM   51  N14 UNL     1      45.597 -18.663  30.815  1.00  0.00    -0.333 N 
ATOM     52 2H14 UNL     1      44.925 -18.145  30.249  1.00  0.00     0.178 HD
ATOM     53 1H14 UNL     1      46.228 -19.341  30.388  1.00  0.00     0.178 HD
ATOM     54  H13 UNL     1      46.301 -18.964  32.615  1.00  0.00     0.204 HD
ENDBRANCH  49  50
BRANCH  49  55
HETATM   55  N15 UNL     1      45.039 -17.516  33.950  1.00  0.00    -0.273 N 
HETATM   56  C17 UNL     1      46.015 -16.924  34.638  1.00  0.00     0.114 A 
HETATM   57  C18 UNL     1      46.184 -16.988  36.009  1.00  0.00     0.045 A 
HETATM   58  C19 UNL     1      45.303 -17.702  36.749  1.00  0.00     0.049 A 
HETATM   59  N16 UNL     1      45.435 -17.794  38.170  1.00  0.00    -0.102 NA
HETATM   60  C20 UNL     1      44.270 -18.336  36.081  1.00  0.00     0.045 A 
HETATM   61  C21 UNL     1      44.151 -18.239  34.717  1.00  0.00     0.114 A 
ENDBRANCH  49  55
ENDBRANCH   1  49
TORSDOF 14
ENDMDL
