MODEL 1
REMARK VINA RESULT: -6.713748884      0.000      0.000
REMARK  7 active torsions:
REMARK  status: ('A' for Active; 'I' for Inactive)
REMARK    1  A    between atoms: C2_2  and  O1_3 
REMARK    2  A    between atoms: C2_2  and  C3_5 
REMARK    3  A    between atoms: C3_5  and  C4_6 
REMARK    4  A    between atoms: C4_6  and  C5_7 
REMARK    5  A    between atoms: C4_6  and  C11_17 
REMARK    6  A    between atoms: C6_8  and  C7_9 
REMARK    7  A    between atoms: C11_17  and  O2_19 
ROOT
HETATM    1  C4  UNL     1       1.244  -8.637  -6.432  1.00  0.00     0.038 C 
ENDROOT
BRANCH   1   2
HETATM    2  C3  UNL     1       0.774  -9.769  -5.576  1.00  0.00     0.042 C 
BRANCH   2   3
HETATM    3  C2  UNL     1       1.432 -11.084  -5.810  1.00  0.00     0.114 C 
HETATM    4  C1  UNL     1       2.274 -11.357  -4.553  1.00  0.00     0.039 C 
BRANCH   3   5
HETATM    5  O1  UNL     1       2.322 -11.101  -6.861  1.00  0.00    -0.396 OA
ATOM      6  H1  UNL     1       2.428 -10.193  -7.118  1.00  0.00     0.210 HD
ENDBRANCH   3   5
ENDBRANCH   2   3
ENDBRANCH   1   2
BRANCH   1   7
HETATM    7  C5  UNL     1       0.173  -8.033  -7.254  1.00  0.00    -0.021 C 
HETATM    8  C6  UNL     1       0.337  -6.863  -7.848  1.00  0.00    -0.005 C 
BRANCH   8   9
HETATM    9  C7  UNL     1      -0.713  -6.219  -8.684  1.00  0.00     0.106 C 
HETATM   10  C8  UNL     1      -2.104  -6.670  -8.277  1.00  0.00     0.048 C 
HETATM   11  C9  UNL     1      -3.044  -6.115  -9.315  1.00  0.00     0.122 C 
HETATM   12  N1  UNL     1      -2.951  -4.707  -9.352  1.00  0.00    -0.386 N 
HETATM   13  C10 UNL     1      -1.873  -4.102  -8.684  1.00  0.00     0.171 C 
ATOM     14  H1  UNL     1      -3.644  -4.147  -9.847  1.00  0.00     0.160 HD
HETATM   15  N2  UNL     1      -0.625  -4.787  -8.700  1.00  0.00    -0.378 N 
ATOM     16  H2  UNL     1       0.268  -4.295  -8.722  1.00  0.00     0.160 HD
ENDBRANCH   8   9
ENDBRANCH   1   7
BRANCH   1  17
HETATM   17  C11 UNL     1       2.125  -7.660  -5.733  1.00  0.00     0.121 C 
HETATM   18  C12 UNL     1       3.470  -7.652  -6.462  1.00  0.00     0.040 C 
BRANCH  17  19
HETATM   19  O2  UNL     1       2.289  -7.891  -4.380  1.00  0.00    -0.395 OA
ATOM     20  H2  UNL     1       3.147  -7.669  -4.038  1.00  0.00     0.210 HD
ENDBRANCH  17  19
ENDBRANCH   1  17
TORSDOF 7
ENDMDL
MODEL 2
REMARK VINA RESULT: -6.570236948      5.249      7.023
REMARK  7 active torsions:
REMARK  status: ('A' for Active; 'I' for Inactive)
REMARK    1  A    between atoms: C2_2  and  O1_3 
REMARK    2  A    between atoms: C2_2  and  C3_5 
REMARK    3  A    between atoms: C3_5  and  C4_6 
REMARK    4  A    between atoms: C4_6  and  C5_7 
REMARK    5  A    between atoms: C4_6  and  C11_17 
REMARK    6  A    between atoms: C6_8  and  C7_9 
REMARK    7  A    between atoms: C11_17  and  O2_19 
ROOT
HETATM    1  C4  UNL     1      -3.879  -5.023  -7.264  1.00  0.00     0.038 C 
ENDROOT
BRANCH   1   2
HETATM    2  C3  UNL     1      -2.451  -5.350  -7.556  1.00  0.00     0.042 C 
BRANCH   2   3
HETATM    3  C2  UNL     1      -1.796  -4.535  -8.616  1.00  0.00     0.114 C 
HETATM    4  C1  UNL     1      -0.785  -5.474  -9.296  1.00  0.00     0.039 C 
BRANCH   3   5
HETATM    5  O1  UNL     1      -1.054  -3.474  -8.147  1.00  0.00    -0.396 OA
ATOM      6  H1  UNL     1      -1.398  -3.287  -7.281  1.00  0.00     0.210 HD
ENDBRANCH   3   5
ENDBRANCH   2   3
ENDBRANCH   1   2
BRANCH   1   7
HETATM    7  C5  UNL     1      -4.453  -4.010  -8.178  1.00  0.00    -0.021 C 
HETATM    8  C6  UNL     1      -4.679  -2.770  -7.778  1.00  0.00    -0.005 C 
BRANCH   8   9
HETATM    9  C7  UNL     1      -5.254  -1.721  -8.663  1.00  0.00     0.106 C 
HETATM   10  C8  UNL     1      -4.999  -2.025 -10.128  1.00  0.00     0.048 C 
HETATM   11  C9  UNL     1      -5.442  -0.806 -10.892  1.00  0.00     0.122 C 
HETATM   12  N1  UNL     1      -6.810  -0.551 -10.651  1.00  0.00    -0.386 N 
HETATM   13  C10 UNL     1      -7.428  -1.236  -9.592  1.00  0.00     0.171 C 
ATOM     14  H1  UNL     1      -7.331   0.109 -11.227  1.00  0.00     0.160 HD
HETATM   15  N2  UNL     1      -6.648  -1.482  -8.427  1.00  0.00    -0.378 N 
ATOM     16  H2  UNL     1      -7.052  -1.487  -7.490  1.00  0.00     0.160 HD
ENDBRANCH   8   9
ENDBRANCH   1   7
BRANCH   1  17
HETATM   17  C11 UNL     1      -4.747  -6.209  -7.018  1.00  0.00     0.121 C 
HETATM   18  C12 UNL     1      -5.736  -6.302  -8.181  1.00  0.00     0.040 C 
BRANCH  17  19
HETATM   19  O2  UNL     1      -5.400  -6.208  -5.800  1.00  0.00    -0.395 OA
ATOM     20  H2  UNL     1      -4.944  -6.664  -5.103  1.00  0.00     0.210 HD
ENDBRANCH  17  19
ENDBRANCH   1  17
TORSDOF 7
ENDMDL
MODEL 3
REMARK VINA RESULT: -6.510683563      6.687      8.380
REMARK  7 active torsions:
REMARK  status: ('A' for Active; 'I' for Inactive)
REMARK    1  A    between atoms: C2_2  and  O1_3 
REMARK    2  A    between atoms: C2_2  and  C3_5 
REMARK    3  A    between atoms: C3_5  and  C4_6 
REMARK    4  A    between atoms: C4_6  and  C5_7 
REMARK    5  A    between atoms: C4_6  and  C11_17 
REMARK    6  A    between atoms: C6_8  and  C7_9 
REMARK    7  A    between atoms: C11_17  and  O2_19 
ROOT
HETATM    1  C4  UNL     1      -5.632  -6.725  -8.117  1.00  0.00     0.038 C 
ENDROOT
BRANCH   1   2
HETATM    2  C3  UNL     1      -4.337  -5.984  -8.023  1.00  0.00     0.042 C 
BRANCH   2   3
HETATM    3  C2  UNL     1      -4.436  -4.499  -7.964  1.00  0.00     0.114 C 
HETATM    4  C1  UNL     1      -3.171  -3.971  -8.662  1.00  0.00     0.039 C 
BRANCH   3   5
HETATM    5  O1  UNL     1      -4.401  -3.972  -6.693  1.00  0.00    -0.396 OA
ATOM      6  H1  UNL     1      -4.798  -4.630  -6.134  1.00  0.00     0.210 HD
ENDBRANCH   3   5
ENDBRANCH   2   3
ENDBRANCH   1   2
BRANCH   1   7
HETATM    7  C5  UNL     1      -5.566  -7.923  -8.983  1.00  0.00    -0.021 C 
HETATM    8  C6  UNL     1      -6.657  -8.591  -9.320  1.00  0.00    -0.005 C 
BRANCH   8   9
HETATM    9  C7  UNL     1      -6.637  -9.800 -10.187  1.00  0.00     0.106 C 
HETATM   10  C8  UNL     1      -5.548 -10.770  -9.766  1.00  0.00     0.048 C 
HETATM   11  C9  UNL     1      -5.501 -11.834 -10.830  1.00  0.00     0.122 C 
HETATM   12  N1  UNL     1      -6.754 -12.478 -10.930  1.00  0.00    -0.386 N 
HETATM   13  C10 UNL     1      -7.851 -11.883 -10.287  1.00  0.00     0.171 C 
ATOM     14  H1  UNL     1      -6.858 -13.347 -11.453  1.00  0.00     0.160 HD
HETATM   15  N2  UNL     1      -7.907 -10.461 -10.268  1.00  0.00    -0.378 N 
ATOM     16  H2  UNL     1      -8.787  -9.948 -10.309  1.00  0.00     0.160 HD
ENDBRANCH   8   9
ENDBRANCH   1   7
BRANCH   1  17
HETATM   17  C11 UNL     1      -6.321  -6.930  -6.812  1.00  0.00     0.121 C 
HETATM   18  C12 UNL     1      -7.739  -6.375  -6.950  1.00  0.00     0.040 C 
BRANCH  17  19
HETATM   19  O2  UNL     1      -5.671  -6.385  -5.721  1.00  0.00    -0.395 OA
ATOM     20  H2  UNL     1      -5.450  -5.465  -5.807  1.00  0.00     0.210 HD
ENDBRANCH  17  19
ENDBRANCH   1  17
TORSDOF 7
ENDMDL
MODEL 4
REMARK VINA RESULT: -6.439321720      5.147      6.963
REMARK  7 active torsions:
REMARK  status: ('A' for Active; 'I' for Inactive)
REMARK    1  A    between atoms: C2_2  and  O1_3 
REMARK    2  A    between atoms: C2_2  and  C3_5 
REMARK    3  A    between atoms: C3_5  and  C4_6 
REMARK    4  A    between atoms: C4_6  and  C5_7 
REMARK    5  A    between atoms: C4_6  and  C11_17 
REMARK    6  A    between atoms: C6_8  and  C7_9 
REMARK    7  A    between atoms: C11_17  and  O2_19 
ROOT
HETATM    1  C4  UNL     1      -3.388  -4.665  -8.297  1.00  0.00     0.038 C 
ENDROOT
BRANCH   1   2
HETATM    2  C3  UNL     1      -4.102  -4.931  -7.012  1.00  0.00     0.042 C 
BRANCH   2   3
HETATM    3  C2  UNL     1      -4.685  -6.293  -6.856  1.00  0.00     0.114 C 
HETATM    4  C1  UNL     1      -5.496  -6.546  -8.138  1.00  0.00     0.039 C 
BRANCH   3   5
HETATM    5  O1  UNL     1      -5.584  -6.417  -5.821  1.00  0.00    -0.396 OA
ATOM      6  H1  UNL     1      -5.090  -6.787  -5.098  1.00  0.00     0.210 HD
ENDBRANCH   3   5
ENDBRANCH   2   3
ENDBRANCH   1   2
BRANCH   1   7
HETATM    7  C5  UNL     1      -3.987  -3.569  -9.092  1.00  0.00    -0.021 C 
HETATM    8  C6  UNL     1      -4.781  -2.669  -8.536  1.00  0.00    -0.005 C 
BRANCH   8   9
HETATM    9  C7  UNL     1      -5.404  -1.552  -9.297  1.00  0.00     0.106 C 
HETATM   10  C8  UNL     1      -5.109  -1.657 -10.782  1.00  0.00     0.048 C 
HETATM   11  C9  UNL     1      -5.612  -0.379 -11.399  1.00  0.00     0.122 C 
HETATM   12  N1  UNL     1      -6.996  -0.234 -11.158  1.00  0.00    -0.386 N 
HETATM   13  C10 UNL     1      -7.589  -1.080 -10.206  1.00  0.00     0.171 C 
ATOM     14  H1  UNL     1      -7.548   0.462 -11.659  1.00  0.00     0.160 HD
HETATM   15  N2  UNL     1      -6.813  -1.424  -9.063  1.00  0.00    -0.378 N 
ATOM     16  H2  UNL     1      -7.229  -1.569  -8.143  1.00  0.00     0.160 HD
ENDBRANCH   8   9
ENDBRANCH   1   7
BRANCH   1  17
HETATM   17  C11 UNL     1      -1.903  -4.615  -8.179  1.00  0.00     0.121 C 
HETATM   18  C12 UNL     1      -1.328  -5.569  -9.227  1.00  0.00     0.040 C 
BRANCH  17  19
HETATM   19  O2  UNL     1      -1.412  -4.898  -6.918  1.00  0.00    -0.395 OA
ATOM     20  H2  UNL     1      -1.598  -5.775  -6.605  1.00  0.00     0.210 HD
ENDBRANCH  17  19
ENDBRANCH   1  17
TORSDOF 7
ENDMDL
MODEL 5
REMARK VINA RESULT: -6.389993468      5.474      7.476
REMARK  7 active torsions:
REMARK  status: ('A' for Active; 'I' for Inactive)
REMARK    1  A    between atoms: C2_2  and  O1_3 
REMARK    2  A    between atoms: C2_2  and  C3_5 
REMARK    3  A    between atoms: C3_5  and  C4_6 
REMARK    4  A    between atoms: C4_6  and  C5_7 
REMARK    5  A    between atoms: C4_6  and  C11_17 
REMARK    6  A    between atoms: C6_8  and  C7_9 
REMARK    7  A    between atoms: C11_17  and  O2_19 
ROOT
HETATM    1  C4  UNL     1      -6.881  -7.426  -7.303  1.00  0.00     0.038 C 
ENDROOT
BRANCH   1   2
HETATM    2  C3  UNL     1      -6.686  -8.712  -8.039  1.00  0.00     0.042 C 
BRANCH   2   3
HETATM    3  C2  UNL     1      -5.983  -8.617  -9.348  1.00  0.00     0.114 C 
HETATM    4  C1  UNL     1      -6.972  -9.164 -10.391  1.00  0.00     0.039 C 
BRANCH   3   5
HETATM    5  O1  UNL     1      -4.861  -9.407  -9.456  1.00  0.00    -0.396 OA
ATOM      6  H1  UNL     1      -4.571  -9.315 -10.356  1.00  0.00     0.210 HD
ENDBRANCH   3   5
ENDBRANCH   2   3
ENDBRANCH   1   2
BRANCH   1   7
HETATM    7  C5  UNL     1      -5.888  -6.387  -7.653  1.00  0.00    -0.021 C 
HETATM    8  C6  UNL     1      -4.880  -6.097  -6.848  1.00  0.00    -0.005 C 
BRANCH   8   9
HETATM    9  C7  UNL     1      -3.859  -5.060  -7.161  1.00  0.00     0.106 C 
HETATM   10  C8  UNL     1      -3.064  -5.417  -8.403  1.00  0.00     0.048 C 
HETATM   11  C9  UNL     1      -1.949  -4.410  -8.490  1.00  0.00     0.122 C 
HETATM   12  N1  UNL     1      -2.478  -3.104  -8.576  1.00  0.00    -0.386 N 
HETATM   13  C10 UNL     1      -3.843  -2.928  -8.292  1.00  0.00     0.171 C 
ATOM     14  H1  UNL     1      -1.889  -2.313  -8.836  1.00  0.00     0.160 HD
HETATM   15  N2  UNL     1      -4.407  -3.739  -7.267  1.00  0.00    -0.378 N 
ATOM     16  H2  UNL     1      -5.149  -3.405  -6.651  1.00  0.00     0.160 HD
ENDBRANCH   8   9
ENDBRANCH   1   7
BRANCH   1  17
HETATM   17  C11 UNL     1      -8.293  -6.953  -7.252  1.00  0.00     0.121 C 
HETATM   18  C12 UNL     1      -8.619  -6.336  -8.613  1.00  0.00     0.040 C 
BRANCH  17  19
HETATM   19  O2  UNL     1      -8.574  -6.075  -6.222  1.00  0.00    -0.395 OA
ATOM     20  H2  UNL     1      -9.477  -5.783  -6.182  1.00  0.00     0.210 HD
ENDBRANCH  17  19
ENDBRANCH   1  17
TORSDOF 7
ENDMDL
