MODEL 1
REMARK VINA RESULT: -6.099944243      0.000      0.000
REMARK  8 active torsions:
REMARK  status: ('A' for Active; 'I' for Inactive)
REMARK    1  A    between atoms: C2_2  and  C4_4 
REMARK    2  A    between atoms: C4_4  and  N1_5 
REMARK    3  A    between atoms: C4_4  and  C12_15 
REMARK       I    between atoms: N1_5  and  C5_7 
REMARK    4  A    between atoms: C5_7  and  C6_9 
REMARK       I    between atoms: C12_15  and  N2_17 
REMARK    5  A    between atoms: N2_17  and  C13_19 
REMARK    6  A    between atoms: N3_24  and  C15_25 
REMARK    7  A    between atoms: C15_25  and  C17_27 
REMARK    8  A    between atoms: C17_27  and  O5_28 
ROOT
HETATM    1  C12 UNL     1      15.166   1.206  44.664  1.00  0.00     0.241 C 
HETATM    2  O2  UNL     1      14.198   2.049  44.862  1.00  0.00    -0.271 OA
HETATM    3  N2  UNL     1      16.243   1.727  43.919  1.00  0.00    -0.352 N 
ATOM      4  H2  UNL     1      17.037   1.116  43.726  1.00  0.00     0.163 HD
ENDROOT
BRANCH   3   5
HETATM    5  C13 UNL     1      16.284   3.108  43.404  1.00  0.00     0.119 C 
HETATM    6  C14 UNL     1      17.159   3.821  44.317  1.00  0.00     0.185 C 
HETATM    7  S1  UNL     1      16.988   5.613  44.508  1.00  0.00     0.224 S 
HETATM    8  O3  UNL     1      18.172   6.062  45.282  1.00  0.00    -0.210 OA
HETATM    9  O4  UNL     1      15.687   5.925  45.138  1.00  0.00    -0.210 OA
HETATM   10  N3  UNL     1      17.039   6.356  42.867  1.00  0.00    -0.139 NA
HETATM   11  C18 UNL     1      16.871   5.284  42.070  1.00  0.00    -0.076 C 
HETATM   12  C19 UNL     1      16.675   4.263  41.143  1.00  0.00     0.086 C 
HETATM   13  C20 UNL     1      15.420   4.425  40.298  1.00  0.00     0.025 C 
HETATM   14  C21 UNL     1      16.614   2.927  41.947  1.00  0.00     0.050 C 
HETATM   15  C22 UNL     1      17.912   2.198  41.776  1.00  0.00     0.031 C 
HETATM   16 BR1  UNL     1      15.229   1.886  41.103  1.00  0.00    -0.082 Br
BRANCH  10  17
HETATM   17  C15 UNL     1      18.171   7.206  42.763  1.00  0.00     0.107 C 
HETATM   18  C16 UNL     1      17.792   8.396  41.894  1.00  0.00     0.030 C 
BRANCH  17  19
HETATM   19  C17 UNL     1      19.372   6.556  42.104  1.00  0.00     0.185 C 
BRANCH  19  20
HETATM   20  O5  UNL     1      20.263   6.095  43.071  1.00  0.00    -0.399 OA
ATOM     21  H5  UNL     1      20.577   5.228  42.843  1.00  0.00     0.209 HD
ENDBRANCH  19  20
ENDBRANCH  17  19
ENDBRANCH  10  17
ENDBRANCH   3   5
BRANCH   1  22
HETATM   22  C4  UNL     1      15.035  -0.140  45.222  1.00  0.00     0.180 C 
BRANCH  22  23
HETATM   23  C2  UNL     1      14.020  -0.942  44.491  1.00  0.00     0.009 C 
HETATM   24  C1  UNL     1      14.668  -1.899  43.536  1.00  0.00     0.012 C 
HETATM   25  C3  UNL     1      13.107  -1.740  45.381  1.00  0.00     0.012 C 
ENDBRANCH  22  23
BRANCH  22  26
HETATM   26  N1  UNL     1      14.541   0.053  46.616  1.00  0.00    -0.347 N 
HETATM   27  C5  UNL     1      15.418   0.150  47.714  1.00  0.00     0.222 C 
HETATM   28  O1  UNL     1      16.645   0.073  47.517  1.00  0.00    -0.273 OA
ATOM     29  H1  UNL     1      13.536   0.117  46.780  1.00  0.00     0.163 HD
BRANCH  27  30
HETATM   30  C6  UNL     1      14.953   0.340  49.101  1.00  0.00     0.078 C 
HETATM   31  C7  UNL     1      13.732  -0.462  49.321  1.00  0.00     0.014 C 
HETATM   32  C8  UNL     1      12.845  -0.026  50.428  1.00  0.00     0.001 C 
HETATM   33  C9  UNL     1      12.467   1.437  50.162  1.00  0.00     0.000 C 
HETATM   34  C10 UNL     1      13.776   2.200  50.320  1.00  0.00     0.001 C 
HETATM   35  C11 UNL     1      14.785   1.822  49.300  1.00  0.00     0.014 C 
ENDBRANCH  27  30
ENDBRANCH  22  26
ENDBRANCH   1  22
TORSDOF 8
ENDMDL
MODEL 2
REMARK VINA RESULT: -6.076719237      4.272      5.699
REMARK  8 active torsions:
REMARK  status: ('A' for Active; 'I' for Inactive)
REMARK    1  A    between atoms: C2_2  and  C4_4 
REMARK    2  A    between atoms: C4_4  and  N1_5 
REMARK    3  A    between atoms: C4_4  and  C12_15 
REMARK       I    between atoms: N1_5  and  C5_7 
REMARK    4  A    between atoms: C5_7  and  C6_9 
REMARK       I    between atoms: C12_15  and  N2_17 
REMARK    5  A    between atoms: N2_17  and  C13_19 
REMARK    6  A    between atoms: N3_24  and  C15_25 
REMARK    7  A    between atoms: C15_25  and  C17_27 
REMARK    8  A    between atoms: C17_27  and  O5_28 
ROOT
HETATM    1  C12 UNL     1      15.164  -1.697  46.842  1.00  0.00     0.241 C 
HETATM    2  O2  UNL     1      16.162  -2.295  46.265  1.00  0.00    -0.271 OA
HETATM    3  N2  UNL     1      14.439  -0.834  45.996  1.00  0.00    -0.352 N 
ATOM      4  H2  UNL     1      13.642  -0.332  46.387  1.00  0.00     0.163 HD
ENDROOT
BRANCH   3   5
HETATM    5  C13 UNL     1      14.771  -0.618  44.576  1.00  0.00     0.119 C 
HETATM    6  C14 UNL     1      13.653  -1.184  43.842  1.00  0.00     0.185 C 
HETATM    7  S1  UNL     1      13.895  -1.759  42.142  1.00  0.00     0.224 S 
HETATM    8  O3  UNL     1      12.539  -2.019  41.596  1.00  0.00    -0.210 OA
HETATM    9  O4  UNL     1      14.796  -2.933  42.138  1.00  0.00    -0.210 OA
HETATM   10  N3  UNL     1      14.664  -0.426  41.205  1.00  0.00    -0.139 NA
HETATM   11  C18 UNL     1      15.067   0.406  42.183  1.00  0.00    -0.076 C 
HETATM   12  C19 UNL     1      15.559   1.332  43.101  1.00  0.00     0.086 C 
HETATM   13  C20 UNL     1      17.069   1.510  43.053  1.00  0.00     0.025 C 
HETATM   14  C21 UNL     1      15.118   0.845  44.517  1.00  0.00     0.050 C 
HETATM   15  C22 UNL     1      13.972   1.688  44.985  1.00  0.00     0.031 C 
HETATM   16 BR1  UNL     1      16.625   1.190  45.667  1.00  0.00    -0.082 Br
BRANCH  10  17
HETATM   17  C15 UNL     1      13.790  -0.006  40.167  1.00  0.00     0.107 C 
HETATM   18  C16 UNL     1      14.120  -0.808  38.917  1.00  0.00     0.030 C 
BRANCH  17  19
HETATM   19  C17 UNL     1      13.934   1.456  39.793  1.00  0.00     0.185 C 
BRANCH  19  20
HETATM   20  O5  UNL     1      12.679   2.042  39.641  1.00  0.00    -0.399 OA
ATOM     21  H5  UNL     1      12.068   1.420  39.265  1.00  0.00     0.209 HD
ENDBRANCH  19  20
ENDBRANCH  17  19
ENDBRANCH  10  17
ENDBRANCH   3   5
BRANCH   1  22
HETATM   22  C4  UNL     1      14.911  -1.983  48.255  1.00  0.00     0.180 C 
BRANCH  22  23
HETATM   23  C2  UNL     1      14.509  -3.398  48.465  1.00  0.00     0.009 C 
HETATM   24  C1  UNL     1      15.079  -4.289  47.404  1.00  0.00     0.012 C 
HETATM   25  C3  UNL     1      14.919  -3.962  49.798  1.00  0.00     0.012 C 
ENDBRANCH  22  23
BRANCH  22  26
HETATM   26  N1  UNL     1      13.754  -1.121  48.634  1.00  0.00    -0.347 N 
HETATM   27  C5  UNL     1      13.906   0.023  49.440  1.00  0.00     0.222 C 
HETATM   28  O1  UNL     1      15.042   0.328  49.850  1.00  0.00    -0.273 OA
ATOM     29  H1  UNL     1      12.823  -1.369  48.298  1.00  0.00     0.163 HD
BRANCH  27  30
HETATM   30  C6  UNL     1      12.777   0.889  49.829  1.00  0.00     0.078 C 
HETATM   31  C7  UNL     1      13.300   2.125  50.446  1.00  0.00     0.014 C 
HETATM   32  C8  UNL     1      12.375   2.860  51.344  1.00  0.00     0.001 C 
HETATM   33  C9  UNL     1      11.926   1.881  52.438  1.00  0.00     0.000 C 
HETATM   34  C10 UNL     1      11.091   0.844  51.697  1.00  0.00     0.001 C 
HETATM   35  C11 UNL     1      11.886   0.063  50.718  1.00  0.00     0.014 C 
ENDBRANCH  27  30
ENDBRANCH  22  26
ENDBRANCH   1  22
TORSDOF 8
ENDMDL
MODEL 3
REMARK VINA RESULT: -6.071046124      1.596      2.343
REMARK  8 active torsions:
REMARK  status: ('A' for Active; 'I' for Inactive)
REMARK    1  A    between atoms: C2_2  and  C4_4 
REMARK    2  A    between atoms: C4_4  and  N1_5 
REMARK    3  A    between atoms: C4_4  and  C12_15 
REMARK       I    between atoms: N1_5  and  C5_7 
REMARK    4  A    between atoms: C5_7  and  C6_9 
REMARK       I    between atoms: C12_15  and  N2_17 
REMARK    5  A    between atoms: N2_17  and  C13_19 
REMARK    6  A    between atoms: N3_24  and  C15_25 
REMARK    7  A    between atoms: C15_25  and  C17_27 
REMARK    8  A    between atoms: C17_27  and  O5_28 
ROOT
HETATM    1  C12 UNL     1      15.438   1.961  46.483  1.00  0.00     0.241 C 
HETATM    2  O2  UNL     1      14.274   2.313  46.027  1.00  0.00    -0.271 OA
HETATM    3  N2  UNL     1      16.526   2.549  45.807  1.00  0.00    -0.352 N 
ATOM      4  H2  UNL     1      17.470   2.314  46.115  1.00  0.00     0.163 HD
ENDROOT
BRANCH   3   5
HETATM    5  C13 UNL     1      16.373   3.486  44.679  1.00  0.00     0.119 C 
HETATM    6  C14 UNL     1      16.920   4.742  45.161  1.00  0.00     0.185 C 
HETATM    7  S1  UNL     1      16.361   6.302  44.432  1.00  0.00     0.224 S 
HETATM    8  O3  UNL     1      17.283   7.350  44.939  1.00  0.00    -0.210 OA
HETATM    9  O4  UNL     1      14.936   6.524  44.762  1.00  0.00    -0.210 OA
HETATM   10  N3  UNL     1      16.536   6.177  42.643  1.00  0.00    -0.139 NA
HETATM   11  C18 UNL     1      16.724   4.855  42.474  1.00  0.00    -0.076 C 
HETATM   12  C19 UNL     1      16.897   3.507  42.164  1.00  0.00     0.086 C 
HETATM   13  C20 UNL     1      15.796   2.925  41.291  1.00  0.00     0.025 C 
HETATM   14  C21 UNL     1      16.973   2.738  43.520  1.00  0.00     0.050 C 
HETATM   15  C22 UNL     1      18.402   2.378  43.794  1.00  0.00     0.031 C 
HETATM   16 BR1  UNL     1      15.990   1.106  43.236  1.00  0.00    -0.082 Br
BRANCH  10  17
HETATM   17  C15 UNL     1      17.475   7.139  42.186  1.00  0.00     0.107 C 
HETATM   18  C16 UNL     1      17.006   7.653  40.833  1.00  0.00     0.030 C 
BRANCH  17  19
HETATM   19  C17 UNL     1      18.871   6.588  41.979  1.00  0.00     0.185 C 
BRANCH  19  20
HETATM   20  O5  UNL     1      19.662   6.841  43.098  1.00  0.00    -0.399 OA
ATOM     21  H5  UNL     1      20.207   7.605  42.950  1.00  0.00     0.209 HD
ENDBRANCH  19  20
ENDBRANCH  17  19
ENDBRANCH  10  17
ENDBRANCH   3   5
BRANCH   1  22
HETATM   22  C4  UNL     1      15.485   1.031  47.611  1.00  0.00     0.180 C 
BRANCH  22  23
HETATM   23  C2  UNL     1      15.765  -0.358  47.166  1.00  0.00     0.009 C 
HETATM   24  C1  UNL     1      14.660  -0.886  46.302  1.00  0.00     0.012 C 
HETATM   25  C3  UNL     1      17.050  -0.512  46.400  1.00  0.00     0.012 C 
ENDBRANCH  22  23
BRANCH  22  26
HETATM   26  N1  UNL     1      14.116   1.051  48.202  1.00  0.00    -0.347 N 
HETATM   27  C5  UNL     1      13.864   1.556  49.492  1.00  0.00     0.222 C 
HETATM   28  O1  UNL     1      14.814   2.002  50.163  1.00  0.00    -0.273 OA
ATOM     29  H1  UNL     1      13.336   0.687  47.653  1.00  0.00     0.163 HD
BRANCH  27  30
HETATM   30  C6  UNL     1      12.519   1.585  50.097  1.00  0.00     0.078 C 
HETATM   31  C7  UNL     1      12.482   2.615  51.155  1.00  0.00     0.014 C 
HETATM   32  C8  UNL     1      11.438   2.455  52.198  1.00  0.00     0.001 C 
HETATM   33  C9  UNL     1      11.629   1.069  52.827  1.00  0.00     0.000 C 
HETATM   34  C10 UNL     1      11.285   0.095  51.707  1.00  0.00     0.001 C 
HETATM   35  C11 UNL     1      12.226   0.184  50.563  1.00  0.00     0.014 C 
ENDBRANCH  27  30
ENDBRANCH  22  26
ENDBRANCH   1  22
TORSDOF 8
ENDMDL
MODEL 4
REMARK VINA RESULT: -5.952598836      4.501      6.322
REMARK  8 active torsions:
REMARK  status: ('A' for Active; 'I' for Inactive)
REMARK    1  A    between atoms: C2_2  and  C4_4 
REMARK    2  A    between atoms: C4_4  and  N1_5 
REMARK    3  A    between atoms: C4_4  and  C12_15 
REMARK       I    between atoms: N1_5  and  C5_7 
REMARK    4  A    between atoms: C5_7  and  C6_9 
REMARK       I    between atoms: C12_15  and  N2_17 
REMARK    5  A    between atoms: N2_17  and  C13_19 
REMARK    6  A    between atoms: N3_24  and  C15_25 
REMARK    7  A    between atoms: C15_25  and  C17_27 
REMARK    8  A    between atoms: C17_27  and  O5_28 
ROOT
HETATM    1  C12 UNL     1      15.370  -1.694  46.679  1.00  0.00     0.241 C 
HETATM    2  O2  UNL     1      16.578  -1.314  46.391  1.00  0.00    -0.271 OA
HETATM    3  N2  UNL     1      14.512  -1.788  45.563  1.00  0.00    -0.352 N 
ATOM      4  H2  UNL     1      13.547  -2.080  45.719  1.00  0.00     0.163 HD
ENDROOT
BRANCH   3   5
HETATM    5  C13 UNL     1      14.935  -1.485  44.184  1.00  0.00     0.119 C 
HETATM    6  C14 UNL     1      14.973  -2.773  43.515  1.00  0.00     0.185 C 
HETATM    7  S1  UNL     1      16.047  -3.006  42.076  1.00  0.00     0.224 S 
HETATM    8  O3  UNL     1      15.660  -4.308  41.477  1.00  0.00    -0.210 OA
HETATM    9  O4  UNL     1      17.463  -2.916  42.492  1.00  0.00    -0.210 OA
HETATM   10  N3  UNL     1      15.696  -1.687  40.899  1.00  0.00    -0.139 NA
HETATM   11  C18 UNL     1      14.985  -0.826  41.649  1.00  0.00    -0.076 C 
HETATM   12  C19 UNL     1      14.267   0.159  42.326  1.00  0.00     0.086 C 
HETATM   13  C20 UNL     1      14.973   1.504  42.397  1.00  0.00     0.025 C 
HETATM   14  C21 UNL     1      13.998  -0.386  43.764  1.00  0.00     0.050 C 
HETATM   15  C22 UNL     1      12.571  -0.832  43.855  1.00  0.00     0.031 C 
HETATM   16 BR1  UNL     1      14.226   1.129  44.933  1.00  0.00    -0.082 Br
BRANCH  10  17
HETATM   17  C15 UNL     1      15.185  -2.243  39.697  1.00  0.00     0.107 C 
HETATM   18  C16 UNL     1      15.703  -1.412  38.532  1.00  0.00     0.030 C 
BRANCH  17  19
HETATM   19  C17 UNL     1      13.672  -2.223  39.602  1.00  0.00     0.185 C 
BRANCH  19  20
HETATM   20  O5  UNL     1      13.144  -3.444  40.018  1.00  0.00    -0.399 OA
ATOM     21  H5  UNL     1      12.277  -3.320  40.383  1.00  0.00     0.209 HD
ENDBRANCH  19  20
ENDBRANCH  17  19
ENDBRANCH  10  17
ENDBRANCH   3   5
BRANCH   1  22
HETATM   22  C4  UNL     1      15.049  -1.978  48.077  1.00  0.00     0.180 C 
BRANCH  22  23
HETATM   23  C2  UNL     1      14.599  -3.382  48.264  1.00  0.00     0.009 C 
HETATM   24  C1  UNL     1      15.348  -4.317  47.364  1.00  0.00     0.012 C 
HETATM   25  C3  UNL     1      14.746  -3.894  49.670  1.00  0.00     0.012 C 
ENDBRANCH  22  23
BRANCH  22  26
HETATM   26  N1  UNL     1      13.902  -1.086  48.412  1.00  0.00    -0.347 N 
HETATM   27  C5  UNL     1      14.027  -0.010  49.312  1.00  0.00     0.222 C 
HETATM   28  O1  UNL     1      15.132   0.206  49.846  1.00  0.00    -0.273 OA
ATOM     29  H1  UNL     1      12.997  -1.261  47.974  1.00  0.00     0.163 HD
BRANCH  27  30
HETATM   30  C6  UNL     1      12.908   0.885  49.659  1.00  0.00     0.078 C 
HETATM   31  C7  UNL     1      13.438   2.103  50.304  1.00  0.00     0.014 C 
HETATM   32  C8  UNL     1      12.496   2.858  51.167  1.00  0.00     0.001 C 
HETATM   33  C9  UNL     1      11.976   1.887  52.235  1.00  0.00     0.000 C 
HETATM   34  C10 UNL     1      11.145   0.877  51.455  1.00  0.00     0.001 C 
HETATM   35  C11 UNL     1      11.959   0.079  50.505  1.00  0.00     0.014 C 
ENDBRANCH  27  30
ENDBRANCH  22  26
ENDBRANCH   1  22
TORSDOF 8
ENDMDL
MODEL 5
REMARK VINA RESULT: -5.831392647      2.644      3.302
REMARK  8 active torsions:
REMARK  status: ('A' for Active; 'I' for Inactive)
REMARK    1  A    between atoms: C2_2  and  C4_4 
REMARK    2  A    between atoms: C4_4  and  N1_5 
REMARK    3  A    between atoms: C4_4  and  C12_15 
REMARK       I    between atoms: N1_5  and  C5_7 
REMARK    4  A    between atoms: C5_7  and  C6_9 
REMARK       I    between atoms: C12_15  and  N2_17 
REMARK    5  A    between atoms: N2_17  and  C13_19 
REMARK    6  A    between atoms: N3_24  and  C15_25 
REMARK    7  A    between atoms: C15_25  and  C17_27 
REMARK    8  A    between atoms: C17_27  and  O5_28 
ROOT
HETATM    1  C12 UNL     1      15.087  -0.346  43.382  1.00  0.00     0.241 C 
HETATM    2  O2  UNL     1      15.835  -0.906  42.480  1.00  0.00    -0.271 OA
HETATM    3  N2  UNL     1      15.376   1.015  43.610  1.00  0.00    -0.352 N 
ATOM      4  H2  UNL     1      14.825   1.515  44.308  1.00  0.00     0.163 HD
ENDROOT
BRANCH   3   5
HETATM    5  C13 UNL     1      16.433   1.753  42.895  1.00  0.00     0.119 C 
HETATM    6  C14 UNL     1      15.724   2.574  41.929  1.00  0.00     0.185 C 
HETATM    7  S1  UNL     1      16.568   3.115  40.421  1.00  0.00     0.224 S 
HETATM    8  O3  UNL     1      15.687   4.134  39.796  1.00  0.00    -0.210 OA
HETATM    9  O4  UNL     1      16.858   1.944  39.566  1.00  0.00    -0.210 OA
HETATM   10  N3  UNL     1      18.123   3.891  40.899  1.00  0.00    -0.139 NA
HETATM   11  C18 UNL     1      18.241   3.509  42.184  1.00  0.00    -0.076 C 
HETATM   12  C19 UNL     1      18.495   3.157  43.508  1.00  0.00     0.086 C 
HETATM   13  C20 UNL     1      19.768   2.347  43.702  1.00  0.00     0.025 C 
HETATM   14  C21 UNL     1      17.258   2.345  44.005  1.00  0.00     0.050 C 
HETATM   15  C22 UNL     1      16.423   3.223  44.887  1.00  0.00     0.031 C 
HETATM   16 BR1  UNL     1      17.982   0.925  45.088  1.00  0.00    -0.082 Br
BRANCH  10  17
HETATM   17  C15 UNL     1      18.112   5.258  40.514  1.00  0.00     0.107 C 
HETATM   18  C16 UNL     1      19.521   5.641  40.085  1.00  0.00     0.030 C 
BRANCH  17  19
HETATM   19  C17 UNL     1      17.727   6.210  41.629  1.00  0.00     0.185 C 
BRANCH  19  20
HETATM   20  O5  UNL     1      16.370   6.520  41.554  1.00  0.00    -0.399 OA
ATOM     21  H5  UNL     1      15.846   5.769  41.803  1.00  0.00     0.209 HD
ENDBRANCH  19  20
ENDBRANCH  17  19
ENDBRANCH  10  17
ENDBRANCH   3   5
BRANCH   1  22
HETATM   22  C4  UNL     1      14.060  -1.161  44.031  1.00  0.00     0.180 C 
BRANCH  22  23
HETATM   23  C2  UNL     1      12.693  -0.757  43.613  1.00  0.00     0.009 C 
HETATM   24  C1  UNL     1      12.566  -0.726  42.120  1.00  0.00     0.012 C 
HETATM   25  C3  UNL     1      11.600  -1.647  44.140  1.00  0.00     0.012 C 
ENDBRANCH  22  23
BRANCH  22  26
HETATM   26  N1  UNL     1      14.192  -0.880  45.489  1.00  0.00    -0.347 N 
HETATM   27  C5  UNL     1      15.192  -1.478  46.280  1.00  0.00     0.222 C 
HETATM   28  O1  UNL     1      15.994  -2.267  45.745  1.00  0.00    -0.273 OA
ATOM     29  H1  UNL     1      13.536  -0.234  45.928  1.00  0.00     0.163 HD
BRANCH  27  30
HETATM   30  C6  UNL     1      15.340  -1.217  47.724  1.00  0.00     0.078 C 
HETATM   31  C7  UNL     1      14.221  -1.847  48.452  1.00  0.00     0.014 C 
HETATM   32  C8  UNL     1      13.903  -1.289  49.790  1.00  0.00     0.001 C 
HETATM   33  C9  UNL     1      13.626   0.209  49.605  1.00  0.00     0.000 C 
HETATM   34  C10 UNL     1      14.971   0.794  49.192  1.00  0.00     0.001 C 
HETATM   35  C11 UNL     1      15.441   0.277  47.883  1.00  0.00     0.014 C 
ENDBRANCH  27  30
ENDBRANCH  22  26
ENDBRANCH   1  22
TORSDOF 8
ENDMDL
