MODEL 1
REMARK VINA RESULT: -6.326546794      0.000      0.000
REMARK  12 active torsions:
REMARK  status: ('A' for Active; 'I' for Inactive)
REMARK    1  A    between atoms: C2_2  and  C3_3 
REMARK    2  A    between atoms: C3_3  and  C4_4 
REMARK    3  A    between atoms: C4_4  and  N1_5 
REMARK    4  A    between atoms: C4_4  and  C11_18 
REMARK       I    between atoms: N1_5  and  C5_7 
REMARK    5  A    between atoms: C5_7  and  C6_9 
REMARK    6  A    between atoms: C10_13  and  N2_14 
REMARK    7  A    between atoms: C11_18  and  C12_20 
REMARK       I    between atoms: C12_20  and  N3_22 
REMARK    8  A    between atoms: C13_23  and  C14_24 
REMARK    9  A    between atoms: C14_24  and  O4_25 
REMARK   10  A    between atoms: C14_24  and  N4_27 
REMARK   11  A    between atoms: C18_31  and  C19_32 
REMARK   12  A    between atoms: C21_36  and  C22_37 
REMARK       I    between atoms: C22_37  and  N5_39 
ROOT
HETATM    1  C12 UNL     1      16.353   1.962  46.257  1.00  0.00     0.292 C 
HETATM    2  O3  UNL     1      16.223   3.224  46.210  1.00  0.00    -0.264 OA
HETATM    3  N3  UNL     1      15.436   1.239  47.093  1.00  0.00    -0.327 N 
HETATM    4  C13 UNL     1      15.209  -0.095  47.438  1.00  0.00     0.169 C 
HETATM    5  C20 UNL     1      14.462   0.273  48.718  1.00  0.00     0.055 A 
HETATM    6  C21 UNL     1      14.725   1.523  49.429  1.00  0.00     0.110 A 
HETATM    7  C26 UNL     1      14.360   1.627  47.986  1.00  0.00     0.109 A 
ENDROOT
BRANCH   1   8
HETATM    8  C11 UNL     1      17.358   1.232  45.527  1.00  0.00     0.239 C 
HETATM    9  O2  UNL     1      17.981   0.318  46.100  1.00  0.00    -0.285 OA
BRANCH   8  10
HETATM   10  C4  UNL     1      17.628   1.602  44.093  1.00  0.00     0.164 C 
BRANCH  10  11
HETATM   11  C3  UNL     1      18.642   0.671  43.547  1.00  0.00     0.033 C 
BRANCH  11  12
HETATM   12  C2  UNL     1      18.241  -0.195  42.408  1.00  0.00    -0.002 C 
HETATM   13  C1  UNL     1      17.651   0.456  41.219  1.00  0.00     0.005 C 
ENDBRANCH  11  12
ENDBRANCH  10  11
BRANCH  10  14
HETATM   14  N1  UNL     1      17.943   3.002  43.984  1.00  0.00    -0.349 N 
HETATM   15  C5  UNL     1      17.356   3.937  43.114  1.00  0.00     0.224 C 
HETATM   16  O1  UNL     1      16.438   3.576  42.341  1.00  0.00    -0.273 OA
ATOM     17  H1  UNL     1      18.671   3.353  44.606  1.00  0.00     0.163 HD
BRANCH  15  18
HETATM   18  C6  UNL     1      17.783   5.341  43.071  1.00  0.00     0.108 C 
HETATM   19  C7  UNL     1      16.566   6.280  43.065  1.00  0.00     0.016 C 
HETATM   20  C8  UNL     1      16.161   6.237  44.521  1.00  0.00     0.003 C 
HETATM   21  C9  UNL     1      17.492   6.395  45.224  1.00  0.00     0.034 C 
HETATM   22  C10 UNL     1      18.533   5.821  44.264  1.00  0.00     0.196 C 
BRANCH  22  23
HETATM   23  N2  UNL     1      19.355   6.968  43.851  1.00  0.00    -0.074 N 
ATOM     24  H23 UNL     1      19.602   6.941  42.862  1.00  0.00     0.274 HD
ATOM     25  H22 UNL     1      18.832   7.844  43.837  1.00  0.00     0.274 HD
ATOM     26  H21 UNL     1      20.171   7.006  44.461  1.00  0.00     0.274 HD
ENDBRANCH  22  23
ENDBRANCH  15  18
ENDBRANCH  10  14
ENDBRANCH   8  10
ENDBRANCH   1   8
BRANCH   4  27
HETATM   27  C14 UNL     1      14.433  -0.936  46.557  1.00  0.00     0.138 C 
BRANCH  27  28
HETATM   28  O4  UNL     1      13.781  -1.911  47.189  1.00  0.00    -0.348 OA
ATOM     29  H4  UNL     1      12.870  -1.706  47.366  1.00  0.00     0.219 HD
ENDBRANCH  27  28
BRANCH  27  30
HETATM   30  N4  UNL     1      14.207  -0.962  45.187  1.00  0.00    -0.349 N 
HETATM   31  C15 UNL     1      14.733  -2.032  44.297  1.00  0.00     0.126 C 
HETATM   32  C16 UNL     1      14.863  -1.389  42.940  1.00  0.00     0.022 C 
HETATM   33  C17 UNL     1      14.488   0.058  43.160  1.00  0.00     0.038 C 
HETATM   34  C18 UNL     1      13.485  -0.120  44.324  1.00  0.00     0.187 C 
BRANCH  34  35
HETATM   35  C19 UNL     1      12.278  -0.770  43.727  1.00  0.00     0.196 C 
HETATM   36  O5  UNL     1      11.705  -1.627  44.442  1.00  0.00    -0.646 OA
HETATM   37  O6  UNL     1      11.773  -0.500  42.490  1.00  0.00    -0.646 OA
ENDBRANCH  34  35
ENDBRANCH  27  30
ENDBRANCH   4  27
BRANCH   6  38
HETATM   38  C22 UNL     1      13.732   2.087  50.354  1.00  0.00     0.228 C 
HETATM   39  O7  UNL     1      13.433   3.320  50.193  1.00  0.00    -0.273 OA
HETATM   40  N5  UNL     1      13.094   1.386  51.391  1.00  0.00    -0.335 N 
HETATM   41  C23 UNL     1      11.838   1.054  51.271  1.00  0.00    -0.018 C 
ATOM     42  H5  UNL     1      13.610   1.139  52.235  1.00  0.00     0.168 HD
HETATM   43  C24 UNL     1      11.144   0.305  52.372  1.00  0.00     0.062 C 
HETATM   44  C25 UNL     1      11.095   1.418  50.044  1.00  0.00     0.062 C 
ENDBRANCH   6  38
TORSDOF 12
ENDMDL
MODEL 2
REMARK VINA RESULT: -6.202691533      4.500      9.213
REMARK  12 active torsions:
REMARK  status: ('A' for Active; 'I' for Inactive)
REMARK    1  A    between atoms: C2_2  and  C3_3 
REMARK    2  A    between atoms: C3_3  and  C4_4 
REMARK    3  A    between atoms: C4_4  and  N1_5 
REMARK    4  A    between atoms: C4_4  and  C11_18 
REMARK       I    between atoms: N1_5  and  C5_7 
REMARK    5  A    between atoms: C5_7  and  C6_9 
REMARK    6  A    between atoms: C10_13  and  N2_14 
REMARK    7  A    between atoms: C11_18  and  C12_20 
REMARK       I    between atoms: C12_20  and  N3_22 
REMARK    8  A    between atoms: C13_23  and  C14_24 
REMARK    9  A    between atoms: C14_24  and  O4_25 
REMARK   10  A    between atoms: C14_24  and  N4_27 
REMARK   11  A    between atoms: C18_31  and  C19_32 
REMARK   12  A    between atoms: C21_36  and  C22_37 
REMARK       I    between atoms: C22_37  and  N5_39 
ROOT
HETATM    1  C12 UNL     1      14.831  -4.246  48.467  1.00  0.00     0.292 C 
HETATM    2  O3  UNL     1      14.407  -5.214  47.764  1.00  0.00    -0.264 OA
HETATM    3  N3  UNL     1      14.855  -2.949  47.848  1.00  0.00    -0.327 N 
HETATM    4  C13 UNL     1      15.222  -1.654  48.218  1.00  0.00     0.169 C 
HETATM    5  C20 UNL     1      15.396  -1.198  46.771  1.00  0.00     0.055 A 
HETATM    6  C21 UNL     1      15.745  -2.136  45.706  1.00  0.00     0.110 A 
HETATM    7  C26 UNL     1      14.537  -2.454  46.522  1.00  0.00     0.109 A 
ENDROOT
BRANCH   1   8
HETATM    8  C11 UNL     1      15.280  -4.380  49.829  1.00  0.00     0.239 C 
HETATM    9  O2  UNL     1      14.862  -3.580  50.687  1.00  0.00    -0.285 OA
BRANCH   8  10
HETATM   10  C4  UNL     1      16.248  -5.481  50.171  1.00  0.00     0.164 C 
BRANCH  10  11
HETATM   11  C3  UNL     1      17.182  -4.985  51.207  1.00  0.00     0.033 C 
BRANCH  11  12
HETATM   12  C2  UNL     1      18.472  -5.703  51.373  1.00  0.00    -0.002 C 
HETATM   13  C1  UNL     1      18.473  -6.946  52.174  1.00  0.00     0.005 C 
ENDBRANCH  11  12
ENDBRANCH  10  11
BRANCH  10  14
HETATM   14  N1  UNL     1      16.858  -6.004  48.977  1.00  0.00    -0.349 N 
HETATM   15  C5  UNL     1      16.954  -7.354  48.597  1.00  0.00     0.224 C 
HETATM   16  O1  UNL     1      16.453  -8.242  49.325  1.00  0.00    -0.273 OA
ATOM     17  H1  UNL     1      17.266  -5.321  48.339  1.00  0.00     0.163 HD
BRANCH  15  18
HETATM   18  C6  UNL     1      17.632  -7.772  47.364  1.00  0.00     0.108 C 
HETATM   19  C7  UNL     1      16.794  -8.818  46.611  1.00  0.00     0.016 C 
HETATM   20  C8  UNL     1      15.740  -7.941  45.974  1.00  0.00     0.003 C 
HETATM   21  C9  UNL     1      16.570  -6.799  45.425  1.00  0.00     0.034 C 
HETATM   22  C10 UNL     1      17.798  -6.713  46.330  1.00  0.00     0.196 C 
BRANCH  22  23
HETATM   23  N2  UNL     1      18.936  -7.087  45.477  1.00  0.00    -0.074 N 
ATOM     24  H23 UNL     1      19.774  -7.309  46.014  1.00  0.00     0.274 HD
ATOM     25  H22 UNL     1      18.813  -7.996  45.031  1.00  0.00     0.274 HD
ATOM     26  H21 UNL     1      19.085  -6.334  44.805  1.00  0.00     0.274 HD
ENDBRANCH  22  23
ENDBRANCH  15  18
ENDBRANCH  10  14
ENDBRANCH   8  10
ENDBRANCH   1   8
BRANCH   4  27
HETATM   27  C14 UNL     1      14.290  -0.833  48.957  1.00  0.00     0.138 C 
BRANCH  27  28
HETATM   28  O4  UNL     1      13.271  -1.518  49.473  1.00  0.00    -0.348 OA
ATOM     29  H4  UNL     1      12.700  -1.903  48.817  1.00  0.00     0.219 HD
ENDBRANCH  27  28
BRANCH  27  30
HETATM   30  N4  UNL     1      14.213   0.521  49.255  1.00  0.00    -0.349 N 
HETATM   31  C15 UNL     1      14.246   1.585  48.216  1.00  0.00     0.126 C 
HETATM   32  C16 UNL     1      14.797   2.802  48.913  1.00  0.00     0.022 C 
HETATM   33  C17 UNL     1      15.141   2.327  50.306  1.00  0.00     0.038 C 
HETATM   34  C18 UNL     1      14.068   1.224  50.463  1.00  0.00     0.187 C 
BRANCH  34  35
HETATM   35  C19 UNL     1      12.761   1.939  50.585  1.00  0.00     0.196 C 
HETATM   36  O5  UNL     1      11.734   1.243  50.403  1.00  0.00    -0.646 OA
HETATM   37  O6  UNL     1      12.615   3.263  50.874  1.00  0.00    -0.646 OA
ENDBRANCH  34  35
ENDBRANCH  27  30
ENDBRANCH   4  27
BRANCH   6  38
HETATM   38  C22 UNL     1      15.467  -1.817  44.299  1.00  0.00     0.228 C 
HETATM   39  O7  UNL     1      14.839  -2.703  43.623  1.00  0.00    -0.273 OA
HETATM   40  N5  UNL     1      15.833  -0.629  43.645  1.00  0.00    -0.335 N 
HETATM   41  C23 UNL     1      14.921   0.257  43.352  1.00  0.00    -0.018 C 
ATOM     42  H5  UNL     1      16.808  -0.460  43.399  1.00  0.00     0.168 HD
HETATM   43  C24 UNL     1      15.299   1.531  42.653  1.00  0.00     0.062 C 
HETATM   44  C25 UNL     1      13.508   0.004  43.710  1.00  0.00     0.062 C 
ENDBRANCH   6  38
TORSDOF 12
ENDMDL
MODEL 3
REMARK VINA RESULT: -6.182581633      2.834      6.203
REMARK  12 active torsions:
REMARK  status: ('A' for Active; 'I' for Inactive)
REMARK    1  A    between atoms: C2_2  and  C3_3 
REMARK    2  A    between atoms: C3_3  and  C4_4 
REMARK    3  A    between atoms: C4_4  and  N1_5 
REMARK    4  A    between atoms: C4_4  and  C11_18 
REMARK       I    between atoms: N1_5  and  C5_7 
REMARK    5  A    between atoms: C5_7  and  C6_9 
REMARK    6  A    between atoms: C10_13  and  N2_14 
REMARK    7  A    between atoms: C11_18  and  C12_20 
REMARK       I    between atoms: C12_20  and  N3_22 
REMARK    8  A    between atoms: C13_23  and  C14_24 
REMARK    9  A    between atoms: C14_24  and  O4_25 
REMARK   10  A    between atoms: C14_24  and  N4_27 
REMARK   11  A    between atoms: C18_31  and  C19_32 
REMARK   12  A    between atoms: C21_36  and  C22_37 
REMARK       I    between atoms: C22_37  and  N5_39 
ROOT
HETATM    1  C12 UNL     1      16.948   3.309  44.052  1.00  0.00     0.292 C 
HETATM    2  O3  UNL     1      17.980   3.256  43.315  1.00  0.00    -0.264 OA
HETATM    3  N3  UNL     1      16.041   2.196  43.990  1.00  0.00    -0.327 N 
HETATM    4  C13 UNL     1      14.835   1.834  44.593  1.00  0.00     0.169 C 
HETATM    5  C20 UNL     1      14.478   0.847  43.483  1.00  0.00     0.055 A 
HETATM    6  C21 UNL     1      14.973   1.013  42.118  1.00  0.00     0.110 A 
HETATM    7  C26 UNL     1      15.990   0.974  43.210  1.00  0.00     0.109 A 
ENDROOT
BRANCH   1   8
HETATM    8  C11 UNL     1      16.646   4.409  44.932  1.00  0.00     0.239 C 
HETATM    9  O2  UNL     1      16.474   4.186  46.145  1.00  0.00    -0.285 OA
BRANCH   8  10
HETATM   10  C4  UNL     1      16.544   5.796  44.355  1.00  0.00     0.164 C 
BRANCH  10  11
HETATM   11  C3  UNL     1      15.723   6.627  45.265  1.00  0.00     0.033 C 
BRANCH  11  12
HETATM   12  C2  UNL     1      16.036   8.078  45.343  1.00  0.00    -0.002 C 
HETATM   13  C1  UNL     1      17.290   8.479  46.015  1.00  0.00     0.005 C 
ENDBRANCH  11  12
ENDBRANCH  10  11
BRANCH  10  14
HETATM   14  N1  UNL     1      16.099   5.740  42.987  1.00  0.00    -0.349 N 
HETATM   15  C5  UNL     1      16.754   6.270  41.862  1.00  0.00     0.224 C 
HETATM   16  O1  UNL     1      17.860   6.844  41.999  1.00  0.00    -0.273 OA
ATOM     17  H1  UNL     1      15.212   5.266  42.817  1.00  0.00     0.163 HD
BRANCH  15  18
HETATM   18  C6  UNL     1      16.185   6.179  40.512  1.00  0.00     0.108 C 
HETATM   19  C7  UNL     1      17.166   5.483  39.554  1.00  0.00     0.016 C 
HETATM   20  C8  UNL     1      16.979   4.036  39.949  1.00  0.00     0.003 C 
HETATM   21  C9  UNL     1      15.471   3.923  40.028  1.00  0.00     0.034 C 
HETATM   22  C10 UNL     1      14.973   5.324  40.381  1.00  0.00     0.196 C 
BRANCH  22  23
HETATM   23  N2  UNL     1      14.224   5.778  39.200  1.00  0.00    -0.074 N 
ATOM     24  H23 UNL     1      13.292   6.123  39.433  1.00  0.00     0.274 HD
ATOM     25  H22 UNL     1      14.595   6.642  38.805  1.00  0.00     0.274 HD
ATOM     26  H21 UNL     1      14.204   5.013  38.527  1.00  0.00     0.274 HD
ENDBRANCH  22  23
ENDBRANCH  15  18
ENDBRANCH  10  14
ENDBRANCH   8  10
ENDBRANCH   1   8
BRANCH   4  27
HETATM   27  C14 UNL     1      14.849   1.224  45.902  1.00  0.00     0.138 C 
BRANCH  27  28
HETATM   28  O4  UNL     1      14.774   2.103  46.901  1.00  0.00    -0.348 OA
ATOM     29  H4  UNL     1      14.427   1.736  47.705  1.00  0.00     0.219 HD
ENDBRANCH  27  28
BRANCH  27  30
HETATM   30  N4  UNL     1      14.923  -0.084  46.365  1.00  0.00    -0.349 N 
HETATM   31  C15 UNL     1      16.175  -0.886  46.336  1.00  0.00     0.126 C 
HETATM   32  C16 UNL     1      15.724  -2.322  46.269  1.00  0.00     0.022 C 
HETATM   33  C17 UNL     1      14.218  -2.249  46.165  1.00  0.00     0.038 C 
HETATM   34  C18 UNL     1      13.979  -0.941  46.954  1.00  0.00     0.187 C 
BRANCH  34  35
HETATM   35  C19 UNL     1      14.275  -1.266  48.383  1.00  0.00     0.196 C 
HETATM   36  O5  UNL     1      14.595  -0.296  49.112  1.00  0.00    -0.646 OA
HETATM   37  O6  UNL     1      14.223  -2.512  48.932  1.00  0.00    -0.646 OA
ENDBRANCH  34  35
ENDBRANCH  27  30
ENDBRANCH   4  27
BRANCH   6  38
HETATM   38  C22 UNL     1      15.026  -0.126  41.192  1.00  0.00     0.228 C 
HETATM   39  O7  UNL     1      16.188  -0.509  40.818  1.00  0.00    -0.273 OA
HETATM   40  N5  UNL     1      13.913  -0.820  40.688  1.00  0.00    -0.335 N 
HETATM   41  C23 UNL     1      13.645  -2.020  41.125  1.00  0.00    -0.018 C 
ATOM     42  H5  UNL     1      13.316  -0.387  39.984  1.00  0.00     0.168 HD
HETATM   43  C24 UNL     1      12.459  -2.772  40.596  1.00  0.00     0.062 C 
HETATM   44  C25 UNL     1      14.517  -2.642  42.146  1.00  0.00     0.062 C 
ENDBRANCH   6  38
TORSDOF 12
ENDMDL
MODEL 4
REMARK VINA RESULT: -6.102625993      2.810      7.519
REMARK  12 active torsions:
REMARK  status: ('A' for Active; 'I' for Inactive)
REMARK    1  A    between atoms: C2_2  and  C3_3 
REMARK    2  A    between atoms: C3_3  and  C4_4 
REMARK    3  A    between atoms: C4_4  and  N1_5 
REMARK    4  A    between atoms: C4_4  and  C11_18 
REMARK       I    between atoms: N1_5  and  C5_7 
REMARK    5  A    between atoms: C5_7  and  C6_9 
REMARK    6  A    between atoms: C10_13  and  N2_14 
REMARK    7  A    between atoms: C11_18  and  C12_20 
REMARK       I    between atoms: C12_20  and  N3_22 
REMARK    8  A    between atoms: C13_23  and  C14_24 
REMARK    9  A    between atoms: C14_24  and  O4_25 
REMARK   10  A    between atoms: C14_24  and  N4_27 
REMARK   11  A    between atoms: C18_31  and  C19_32 
REMARK   12  A    between atoms: C21_36  and  C22_37 
REMARK       I    between atoms: C22_37  and  N5_39 
ROOT
HETATM    1  C12 UNL     1      14.761   0.279  46.090  1.00  0.00     0.292 C 
HETATM    2  O3  UNL     1      14.150   1.390  46.042  1.00  0.00    -0.264 OA
HETATM    3  N3  UNL     1      14.695  -0.557  44.923  1.00  0.00    -0.327 N 
HETATM    4  C13 UNL     1      15.191  -1.804  44.536  1.00  0.00     0.169 C 
HETATM    5  C20 UNL     1      14.137  -1.979  43.444  1.00  0.00     0.055 A 
HETATM    6  C21 UNL     1      12.826  -1.339  43.531  1.00  0.00     0.110 A 
HETATM    7  C26 UNL     1      14.022  -0.454  43.641  1.00  0.00     0.109 A 
ENDROOT
BRANCH   1   8
HETATM    8  C11 UNL     1      15.505  -0.179  47.236  1.00  0.00     0.239 C 
HETATM    9  O2  UNL     1      16.743  -0.048  47.248  1.00  0.00    -0.285 OA
BRANCH   8  10
HETATM   10  C4  UNL     1      14.760  -0.806  48.384  1.00  0.00     0.164 C 
BRANCH  10  11
HETATM   11  C3  UNL     1      14.308  -2.155  47.973  1.00  0.00     0.033 C 
BRANCH  11  12
HETATM   12  C2  UNL     1      14.685  -3.303  48.838  1.00  0.00    -0.002 C 
HETATM   13  C1  UNL     1      15.022  -4.583  48.179  1.00  0.00     0.005 C 
ENDBRANCH  11  12
ENDBRANCH  10  11
BRANCH  10  14
HETATM   14  N1  UNL     1      13.731   0.079  48.861  1.00  0.00    -0.349 N 
HETATM   15  C5  UNL     1      13.885   1.149  49.761  1.00  0.00     0.224 C 
HETATM   16  O1  UNL     1      15.022   1.423  50.213  1.00  0.00    -0.273 OA
ATOM     17  H1  UNL     1      12.789  -0.088  48.509  1.00  0.00     0.163 HD
BRANCH  15  18
HETATM   18  C6  UNL     1      12.750   1.968  50.202  1.00  0.00     0.108 C 
HETATM   19  C7  UNL     1      11.430   1.196  50.047  1.00  0.00     0.016 C 
HETATM   20  C8  UNL     1      11.491   0.274  51.243  1.00  0.00     0.003 C 
HETATM   21  C9  UNL     1      11.928   1.215  52.345  1.00  0.00     0.034 C 
HETATM   22  C10 UNL     1      12.732   2.313  51.651  1.00  0.00     0.196 C 
BRANCH  22  23
HETATM   23  N2  UNL     1      11.936   3.539  51.814  1.00  0.00    -0.074 N 
ATOM     24  H23 UNL     1      11.682   3.966  50.924  1.00  0.00     0.274 HD
ATOM     25  H22 UNL     1      10.991   3.354  52.152  1.00  0.00     0.274 HD
ATOM     26  H21 UNL     1      12.455   4.172  52.422  1.00  0.00     0.274 HD
ENDBRANCH  22  23
ENDBRANCH  15  18
ENDBRANCH  10  14
ENDBRANCH   8  10
ENDBRANCH   1   8
BRANCH   4  27
HETATM   27  C14 UNL     1      16.541  -1.909  44.034  1.00  0.00     0.138 C 
BRANCH  27  28
HETATM   28  O4  UNL     1      17.012  -3.155  44.030  1.00  0.00    -0.348 OA
ATOM     29  H4  UNL     1      17.925  -3.215  43.772  1.00  0.00     0.219 HD
ENDBRANCH  27  28
BRANCH  27  30
HETATM   30  N4  UNL     1      17.471  -0.998  43.550  1.00  0.00    -0.349 N 
HETATM   31  C15 UNL     1      17.638  -0.700  42.101  1.00  0.00     0.126 C 
HETATM   32  C16 UNL     1      19.069  -0.249  41.953  1.00  0.00     0.022 C 
HETATM   33  C17 UNL     1      19.670  -0.410  43.330  1.00  0.00     0.038 C 
HETATM   34  C18 UNL     1      18.404  -0.160  44.183  1.00  0.00     0.187 C 
BRANCH  34  35
HETATM   35  C19 UNL     1      18.095   1.295  44.038  1.00  0.00     0.196 C 
HETATM   36  O5  UNL     1      19.066   2.079  44.166  1.00  0.00    -0.646 OA
HETATM   37  O6  UNL     1      16.860   1.814  43.784  1.00  0.00    -0.646 OA
ENDBRANCH  34  35
ENDBRANCH  27  30
ENDBRANCH   4  27
BRANCH   6  38
HETATM   38  C22 UNL     1      12.012  -1.121  42.328  1.00  0.00     0.228 C 
HETATM   39  O7  UNL     1      11.955   0.076  41.882  1.00  0.00    -0.273 OA
HETATM   40  N5  UNL     1      11.298  -2.114  41.635  1.00  0.00    -0.335 N 
HETATM   41  C23 UNL     1      11.731  -2.536  40.479  1.00  0.00    -0.018 C 
ATOM     42  H5  UNL     1      10.445  -2.504  42.035  1.00  0.00     0.168 HD
HETATM   43  C24 UNL     1      10.978  -3.596  39.729  1.00  0.00     0.062 C 
HETATM   44  C25 UNL     1      12.969  -1.965  39.904  1.00  0.00     0.062 C 
ENDBRANCH   6  38
TORSDOF 12
ENDMDL
MODEL 5
REMARK VINA RESULT: -6.082546590      2.584      5.363
REMARK  12 active torsions:
REMARK  status: ('A' for Active; 'I' for Inactive)
REMARK    1  A    between atoms: C2_2  and  C3_3 
REMARK    2  A    between atoms: C3_3  and  C4_4 
REMARK    3  A    between atoms: C4_4  and  N1_5 
REMARK    4  A    between atoms: C4_4  and  C11_18 
REMARK       I    between atoms: N1_5  and  C5_7 
REMARK    5  A    between atoms: C5_7  and  C6_9 
REMARK    6  A    between atoms: C10_13  and  N2_14 
REMARK    7  A    between atoms: C11_18  and  C12_20 
REMARK       I    between atoms: C12_20  and  N3_22 
REMARK    8  A    between atoms: C13_23  and  C14_24 
REMARK    9  A    between atoms: C14_24  and  O4_25 
REMARK   10  A    between atoms: C14_24  and  N4_27 
REMARK   11  A    between atoms: C18_31  and  C19_32 
REMARK   12  A    between atoms: C21_36  and  C22_37 
REMARK       I    between atoms: C22_37  and  N5_39 
ROOT
HETATM    1  C12 UNL     1      16.327  -0.688  44.752  1.00  0.00     0.292 C 
HETATM    2  O3  UNL     1      16.836  -1.742  45.244  1.00  0.00    -0.264 OA
HETATM    3  N3  UNL     1      15.892   0.323  45.676  1.00  0.00    -0.327 N 
HETATM    4  C13 UNL     1      15.303   1.586  45.597  1.00  0.00     0.169 C 
HETATM    5  C20 UNL     1      14.777   1.525  47.030  1.00  0.00     0.055 A 
HETATM    6  C21 UNL     1      14.476   0.253  47.684  1.00  0.00     0.110 A 
HETATM    7  C26 UNL     1      15.848   0.420  47.123  1.00  0.00     0.109 A 
ENDROOT
BRANCH   1   8
HETATM    8  C11 UNL     1      16.167  -0.459  43.339  1.00  0.00     0.239 C 
HETATM    9  O2  UNL     1      17.180  -0.338  42.625  1.00  0.00    -0.285 OA
BRANCH   8  10
HETATM   10  C4  UNL     1      14.777  -0.368  42.769  1.00  0.00     0.164 C 
BRANCH  10  11
HETATM   11  C3  UNL     1      13.996  -1.535  43.238  1.00  0.00     0.033 C 
BRANCH  11  12
HETATM   12  C2  UNL     1      12.922  -1.291  44.235  1.00  0.00    -0.002 C 
HETATM   13  C1  UNL     1      11.528  -1.572  43.832  1.00  0.00     0.005 C 
ENDBRANCH  11  12
ENDBRANCH  10  11
BRANCH  10  14
HETATM   14  N1  UNL     1      14.828  -0.182  41.342  1.00  0.00    -0.349 N 
HETATM   15  C5  UNL     1      13.746   0.076  40.482  1.00  0.00     0.224 C 
HETATM   16  O1  UNL     1      12.590   0.189  40.954  1.00  0.00    -0.273 OA
ATOM     17  H1  UNL     1      15.749  -0.246  40.909  1.00  0.00     0.163 HD
BRANCH  15  18
HETATM   18  C6  UNL     1      13.917   0.216  39.031  1.00  0.00     0.108 C 
HETATM   19  C7  UNL     1      13.135   1.431  38.507  1.00  0.00     0.016 C 
HETATM   20  C8  UNL     1      14.044   2.564  38.927  1.00  0.00     0.003 C 
HETATM   21  C9  UNL     1      15.406   2.047  38.513  1.00  0.00     0.034 C 
HETATM   22  C10 UNL     1      15.301   0.524  38.574  1.00  0.00     0.196 C 
BRANCH  22  23
HETATM   23  N2  UNL     1      15.429   0.070  37.181  1.00  0.00    -0.074 N 
ATOM     24  H23 UNL     1      15.938  -0.810  37.098  1.00  0.00     0.274 HD
ATOM     25  H22 UNL     1      14.543  -0.246  36.786  1.00  0.00     0.274 HD
ATOM     26  H21 UNL     1      15.854   0.824  36.643  1.00  0.00     0.274 HD
ENDBRANCH  22  23
ENDBRANCH  15  18
ENDBRANCH  10  14
ENDBRANCH   8  10
ENDBRANCH   1   8
BRANCH   4  27
HETATM   27  C14 UNL     1      16.132   2.744  45.353  1.00  0.00     0.138 C 
BRANCH  27  28
HETATM   28  O4  UNL     1      16.115   3.630  46.348  1.00  0.00    -0.348 OA
ATOM     29  H4  UNL     1      16.586   4.432  46.150  1.00  0.00     0.219 HD
ENDBRANCH  27  28
BRANCH  27  30
HETATM   30  N4  UNL     1      16.951   3.150  44.308  1.00  0.00    -0.349 N 
HETATM   31  C15 UNL     1      18.242   2.484  43.982  1.00  0.00     0.126 C 
HETATM   32  C16 UNL     1      19.077   3.547  43.314  1.00  0.00     0.022 C 
HETATM   33  C17 UNL     1      18.236   4.800  43.386  1.00  0.00     0.038 C 
HETATM   34  C18 UNL     1      16.830   4.159  43.338  1.00  0.00     0.187 C 
BRANCH  34  35
HETATM   35  C19 UNL     1      16.667   3.635  41.948  1.00  0.00     0.196 C 
HETATM   36  O5  UNL     1      15.869   2.676  41.811  1.00  0.00    -0.646 OA
HETATM   37  O6  UNL     1      17.310   4.117  40.847  1.00  0.00    -0.646 OA
ENDBRANCH  34  35
ENDBRANCH  27  30
ENDBRANCH   4  27
BRANCH   6  38
HETATM   38  C22 UNL     1      14.421   0.154  49.149  1.00  0.00     0.228 C 
HETATM   39  O7  UNL     1      15.488   0.457  49.785  1.00  0.00    -0.273 OA
HETATM   40  N5  UNL     1      13.301  -0.245  49.898  1.00  0.00    -0.335 N 
HETATM   41  C23 UNL     1      12.628   0.641  50.580  1.00  0.00    -0.018 C 
ATOM     42  H5  UNL     1      13.014  -1.224  49.909  1.00  0.00     0.168 HD
HETATM   43  C24 UNL     1      11.430   0.228  51.384  1.00  0.00     0.062 C 
HETATM   44  C25 UNL     1      13.051   2.059  50.561  1.00  0.00     0.062 C 
ENDBRANCH   6  38
TORSDOF 12
ENDMDL
