MODEL 1
REMARK VINA RESULT: -7.770094294      0.000      0.000
REMARK  9 active torsions:
REMARK  status: ('A' for Active; 'I' for Inactive)
REMARK    1  A    between atoms: C2_2  and  C3_3 
REMARK    2  A    between atoms: C3_3  and  N1_4 
REMARK       I    between atoms: N1_4  and  C4_6 
REMARK    3  A    between atoms: C4_6  and  C5_8 
REMARK       I    between atoms: C5_8  and  N2_10 
REMARK    4  A    between atoms: N2_10  and  C6_12 
REMARK    5  A    between atoms: C6_12  and  C7_13 
REMARK    6  A    between atoms: C7_13  and  N3_14 
REMARK    7  A    between atoms: C13_20  and  N4_22 
REMARK    8  A    between atoms: N5_26  and  C15_27 
REMARK       I    between atoms: N6_30  and  C18_31 
REMARK    9  A    between atoms: C18_31  and  C19_33 
ROOT
HETATM    1  C15 UNL     1      14.373  -0.286  43.530  1.00  0.00     0.102 C 
HETATM    2  C16 UNL     1      12.951  -0.269  43.089  1.00  0.00     0.046 C 
HETATM    3  C17 UNL     1      12.405  -1.650  42.787  1.00  0.00     0.128 C 
HETATM    4  N6  UNL     1      13.263  -2.138  41.681  1.00  0.00    -0.350 N 
HETATM    5  C18 UNL     1      12.693  -2.394  40.421  1.00  0.00     0.224 C 
HETATM    6  O3  UNL     1      11.444  -2.245  40.230  1.00  0.00    -0.273 OA
HETATM    7  C25 UNL     1      14.626  -2.324  42.056  1.00  0.00     0.147 C 
HETATM    8  C26 UNL     1      15.266  -1.245  42.848  1.00  0.00     0.133 C 
HETATM    9  C27 UNL     1      16.236  -0.569  41.942  1.00  0.00     0.067 C 
HETATM   10  N7  UNL     1      16.988  -0.046  41.227  1.00  0.00    -0.197 NA
ENDROOT
BRANCH   1  11
HETATM   11  N5  UNL     1      14.533  -0.331  44.936  1.00  0.00    -0.374 N 
HETATM   12  C13 UNL     1      14.865   0.863  45.631  1.00  0.00     0.210 C 
HETATM   13  C12 UNL     1      15.656   0.398  46.873  1.00  0.00     0.139 C 
HETATM   14  C14 UNL     1      15.826   1.692  44.812  1.00  0.00     0.072 C 
HETATM   15  N3  UNL     1      14.760   0.317  47.957  1.00  0.00    -0.383 N 
HETATM   16  C11 UNL     1      16.415  -0.864  46.568  1.00  0.00     0.030 C 
HETATM   17  C8  UNL     1      13.949  -0.826  48.097  1.00  0.00     0.065 C 
HETATM   18  C9  UNL     1      14.144  -1.740  46.906  1.00  0.00     0.041 C 
HETATM   19  C10 UNL     1      15.608  -2.106  46.856  1.00  0.00     0.013 C 
HETATM   20  C28 UNL     1      13.615  -1.183  45.630  1.00  0.00     0.129 C 
BRANCH  12  21
HETATM   21  N4  UNL     1      13.824   1.687  46.108  1.00  0.00    -0.051 N 
ATOM     22  H43 UNL     1      12.917   1.475  45.692  1.00  0.00     0.277 HD
ATOM     23  H42 UNL     1      13.566   1.493  47.076  1.00  0.00     0.277 HD
ATOM     24  H41 UNL     1      14.126   2.649  45.954  1.00  0.00     0.277 HD
ENDBRANCH  12  21
BRANCH  15  25
HETATM   25  C7  UNL     1      15.107   1.035  49.134  1.00  0.00     0.142 C 
BRANCH  25  26
HETATM   26  C6  UNL     1      14.120   2.093  49.518  1.00  0.00     0.143 C 
BRANCH  26  27
HETATM   27  N2  UNL     1      13.237   1.718  50.598  1.00  0.00    -0.351 N 
HETATM   28  C5  UNL     1      12.391   2.622  51.296  1.00  0.00     0.309 C 
HETATM   29  O2  UNL     1      12.417   3.834  50.947  1.00  0.00    -0.262 OA
ATOM     30  H2  UNL     1      13.220   0.737  50.879  1.00  0.00     0.162 HD
BRANCH  28  31
HETATM   31  C4  UNL     1      11.517   2.183  52.378  1.00  0.00     0.309 C 
HETATM   32  N1  UNL     1      11.166   0.824  52.503  1.00  0.00    -0.353 N 
ATOM     33  H1  UNL     1      11.544   0.164  51.824  1.00  0.00     0.162 HD
HETATM   34  O1  UNL     1      11.098   3.039  53.173  1.00  0.00    -0.262 OA
BRANCH  32  35
HETATM   35  C3  UNL     1      10.303   0.316  53.538  1.00  0.00     0.122 C 
BRANCH  35  36
HETATM   36  C2  UNL     1      10.390  -1.183  53.591  1.00  0.00     0.015 C 
HETATM   37  C1  UNL     1      11.819  -1.577  53.917  1.00  0.00     0.006 C 
ENDBRANCH  35  36
ENDBRANCH  32  35
ENDBRANCH  28  31
ENDBRANCH  26  27
ENDBRANCH  25  26
ENDBRANCH  15  25
ENDBRANCH   1  11
BRANCH   5  38
HETATM   38  C19 UNL     1      13.550  -2.836  39.302  1.00  0.00     0.078 C 
HETATM   39  C20 UNL     1      13.883  -1.678  38.393  1.00  0.00     0.014 C 
HETATM   40  C21 UNL     1      13.588  -2.034  36.942  1.00  0.00     0.001 C 
HETATM   41  C22 UNL     1      14.278  -3.355  36.577  1.00  0.00     0.000 C 
HETATM   42  C23 UNL     1      13.672  -4.449  37.416  1.00  0.00     0.001 C 
HETATM   43  C24 UNL     1      12.835  -3.937  38.548  1.00  0.00     0.014 C 
ENDBRANCH   5  38
TORSDOF 9
ENDMDL
MODEL 2
REMARK VINA RESULT: -7.116923517      2.203      3.255
REMARK  9 active torsions:
REMARK  status: ('A' for Active; 'I' for Inactive)
REMARK    1  A    between atoms: C2_2  and  C3_3 
REMARK    2  A    between atoms: C3_3  and  N1_4 
REMARK       I    between atoms: N1_4  and  C4_6 
REMARK    3  A    between atoms: C4_6  and  C5_8 
REMARK       I    between atoms: C5_8  and  N2_10 
REMARK    4  A    between atoms: N2_10  and  C6_12 
REMARK    5  A    between atoms: C6_12  and  C7_13 
REMARK    6  A    between atoms: C7_13  and  N3_14 
REMARK    7  A    between atoms: C13_20  and  N4_22 
REMARK    8  A    between atoms: N5_26  and  C15_27 
REMARK       I    between atoms: N6_30  and  C18_31 
REMARK    9  A    between atoms: C18_31  and  C19_33 
ROOT
HETATM    1  C15 UNL     1      15.091  -1.117  42.580  1.00  0.00     0.102 C 
HETATM    2  C16 UNL     1      15.860  -2.351  42.254  1.00  0.00     0.046 C 
HETATM    3  C17 UNL     1      17.234  -2.062  41.686  1.00  0.00     0.128 C 
HETATM    4  N6  UNL     1      16.955  -1.307  40.441  1.00  0.00    -0.350 N 
HETATM    5  C18 UNL     1      17.316  -1.858  39.198  1.00  0.00     0.224 C 
HETATM    6  O3  UNL     1      17.913  -2.979  39.133  1.00  0.00    -0.273 OA
HETATM    7  C25 UNL     1      16.345  -0.038  40.669  1.00  0.00     0.147 C 
HETATM    8  C26 UNL     1      15.223   0.013  41.638  1.00  0.00     0.133 C 
HETATM    9  C27 UNL     1      13.983   0.236  40.843  1.00  0.00     0.067 C 
HETATM   10  N7  UNL     1      13.021   0.406  40.216  1.00  0.00    -0.197 NA
ENDROOT
BRANCH   1  11
HETATM   11  N5  UNL     1      15.233  -0.697  43.924  1.00  0.00    -0.374 N 
HETATM   12  C13 UNL     1      14.354  -1.227  44.908  1.00  0.00     0.210 C 
HETATM   13  C12 UNL     1      14.244  -0.125  45.984  1.00  0.00     0.139 C 
HETATM   14  C14 UNL     1      12.966  -1.389  44.335  1.00  0.00     0.072 C 
HETATM   15  N3  UNL     1      15.163  -0.420  47.010  1.00  0.00    -0.383 N 
HETATM   16  C11 UNL     1      14.392   1.235  45.357  1.00  0.00     0.030 C 
HETATM   17  C8  UNL     1      16.517  -0.067  46.846  1.00  0.00     0.065 C 
HETATM   18  C9  UNL     1      16.733   0.494  45.456  1.00  0.00     0.041 C 
HETATM   19  C10 UNL     1      15.829   1.693  45.310  1.00  0.00     0.013 C 
HETATM   20  C28 UNL     1      16.580  -0.516  44.372  1.00  0.00     0.129 C 
BRANCH  12  21
HETATM   21  N4  UNL     1      14.722  -2.408  45.586  1.00  0.00    -0.051 N 
ATOM     22  H43 UNL     1      15.574  -2.309  46.140  1.00  0.00     0.277 HD
ATOM     23  H42 UNL     1      14.098  -2.643  46.358  1.00  0.00     0.277 HD
ATOM     24  H41 UNL     1      14.783  -3.139  44.877  1.00  0.00     0.277 HD
ENDBRANCH  12  21
BRANCH  15  25
HETATM   25  C7  UNL     1      14.649  -0.491  48.333  1.00  0.00     0.142 C 
BRANCH  25  26
HETATM   26  C6  UNL     1      14.773   0.786  49.106  1.00  0.00     0.143 C 
BRANCH  26  27
HETATM   27  N2  UNL     1      13.708   1.011  50.054  1.00  0.00    -0.351 N 
HETATM   28  C5  UNL     1      13.242   2.295  50.450  1.00  0.00     0.309 C 
HETATM   29  O2  UNL     1      13.802   3.302  49.939  1.00  0.00    -0.262 OA
ATOM     30  H2  UNL     1      13.259   0.194  50.468  1.00  0.00     0.162 HD
BRANCH  28  31
HETATM   31  C4  UNL     1      12.158   2.460  51.412  1.00  0.00     0.309 C 
HETATM   32  N1  UNL     1      11.292   1.386  51.700  1.00  0.00    -0.353 N 
ATOM     33  H1  UNL     1      11.450   0.498  51.224  1.00  0.00     0.162 HD
HETATM   34  O1  UNL     1      12.026   3.567  51.959  1.00  0.00    -0.262 OA
BRANCH  32  35
HETATM   35  C3  UNL     1      10.195   1.474  52.629  1.00  0.00     0.122 C 
BRANCH  35  36
HETATM   36  C2  UNL     1      10.474   0.625  53.836  1.00  0.00     0.015 C 
HETATM   37  C1  UNL     1      10.974  -0.731  53.373  1.00  0.00     0.006 C 
ENDBRANCH  35  36
ENDBRANCH  32  35
ENDBRANCH  28  31
ENDBRANCH  26  27
ENDBRANCH  25  26
ENDBRANCH  15  25
ENDBRANCH   1  11
BRANCH   5  38
HETATM   38  C19 UNL     1      16.998  -1.133  37.952  1.00  0.00     0.078 C 
HETATM   39  C20 UNL     1      15.661  -1.569  37.404  1.00  0.00     0.014 C 
HETATM   40  C21 UNL     1      15.780  -1.940  35.932  1.00  0.00     0.001 C 
HETATM   41  C22 UNL     1      16.448  -0.797  35.157  1.00  0.00     0.000 C 
HETATM   42  C23 UNL     1      17.854  -0.638  35.671  1.00  0.00     0.001 C 
HETATM   43  C24 UNL     1      18.107  -1.377  36.950  1.00  0.00     0.014 C 
ENDBRANCH   5  38
TORSDOF 9
ENDMDL
MODEL 3
REMARK VINA RESULT: -7.114296813      3.560      4.835
REMARK  9 active torsions:
REMARK  status: ('A' for Active; 'I' for Inactive)
REMARK    1  A    between atoms: C2_2  and  C3_3 
REMARK    2  A    between atoms: C3_3  and  N1_4 
REMARK       I    between atoms: N1_4  and  C4_6 
REMARK    3  A    between atoms: C4_6  and  C5_8 
REMARK       I    between atoms: C5_8  and  N2_10 
REMARK    4  A    between atoms: N2_10  and  C6_12 
REMARK    5  A    between atoms: C6_12  and  C7_13 
REMARK    6  A    between atoms: C7_13  and  N3_14 
REMARK    7  A    between atoms: C13_20  and  N4_22 
REMARK    8  A    between atoms: N5_26  and  C15_27 
REMARK       I    between atoms: N6_30  and  C18_31 
REMARK    9  A    between atoms: C18_31  and  C19_33 
ROOT
HETATM    1  C15 UNL     1      16.614   2.149  43.337  1.00  0.00     0.102 C 
HETATM    2  C16 UNL     1      15.683   2.123  42.174  1.00  0.00     0.046 C 
HETATM    3  C17 UNL     1      16.174   1.247  41.040  1.00  0.00     0.128 C 
HETATM    4  N6  UNL     1      17.455   1.871  40.636  1.00  0.00    -0.350 N 
HETATM    5  C18 UNL     1      17.586   2.421  39.347  1.00  0.00     0.224 C 
HETATM    6  O3  UNL     1      16.627   2.356  38.513  1.00  0.00    -0.273 OA
HETATM    7  C25 UNL     1      18.461   1.812  41.645  1.00  0.00     0.147 C 
HETATM    8  C26 UNL     1      18.058   2.167  43.028  1.00  0.00     0.133 C 
HETATM    9  C27 UNL     1      18.685   3.485  43.329  1.00  0.00     0.067 C 
HETATM   10  N7  UNL     1      19.174   4.514  43.555  1.00  0.00    -0.197 NA
ENDROOT
BRANCH   1  11
HETATM   11  N5  UNL     1      16.305   1.194  44.335  1.00  0.00    -0.374 N 
HETATM   12  C13 UNL     1      15.621   1.618  45.506  1.00  0.00     0.210 C 
HETATM   13  C12 UNL     1      16.079   0.645  46.614  1.00  0.00     0.139 C 
HETATM   14  C14 UNL     1      16.106   2.986  45.927  1.00  0.00     0.072 C 
HETATM   15  N3  UNL     1      15.115  -0.376  46.727  1.00  0.00    -0.383 N 
HETATM   16  C11 UNL     1      17.485   0.178  46.352  1.00  0.00     0.030 C 
HETATM   17  C8  UNL     1      15.145  -1.456  45.823  1.00  0.00     0.065 C 
HETATM   18  C9  UNL     1      16.214  -1.217  44.778  1.00  0.00     0.041 C 
HETATM   19  C10 UNL     1      17.529  -1.070  45.505  1.00  0.00     0.013 C 
HETATM   20  C28 UNL     1      15.905  -0.092  43.851  1.00  0.00     0.129 C 
BRANCH  12  21
HETATM   21  N4  UNL     1      14.210   1.597  45.518  1.00  0.00    -0.051 N 
ATOM     22  H43 UNL     1      13.810   0.913  44.876  1.00  0.00     0.277 HD
ATOM     23  H42 UNL     1      13.818   1.208  46.375  1.00  0.00     0.277 HD
ATOM     24  H41 UNL     1      13.907   2.553  45.331  1.00  0.00     0.277 HD
ENDBRANCH  12  21
BRANCH  15  25
HETATM   25  C7  UNL     1      14.567  -0.604  48.018  1.00  0.00     0.142 C 
BRANCH  25  26
HETATM   26  C6  UNL     1      14.917   0.448  49.026  1.00  0.00     0.143 C 
BRANCH  26  27
HETATM   27  N2  UNL     1      13.844   0.780  49.933  1.00  0.00    -0.351 N 
HETATM   28  C5  UNL     1      13.450   2.107  50.260  1.00  0.00     0.309 C 
HETATM   29  O2  UNL     1      14.085   3.054  49.722  1.00  0.00    -0.262 OA
ATOM     30  H2  UNL     1      13.334   0.012  50.368  1.00  0.00     0.162 HD
BRANCH  28  31
HETATM   31  C4  UNL     1      12.354   2.381  51.182  1.00  0.00     0.309 C 
HETATM   32  N1  UNL     1      11.486   1.346  51.586  1.00  0.00    -0.353 N 
ATOM     33  H1  UNL     1      11.653   0.408  51.221  1.00  0.00     0.162 HD
HETATM   34  O1  UNL     1      12.213   3.545  51.592  1.00  0.00    -0.262 OA
BRANCH  32  35
HETATM   35  C3  UNL     1      10.378   1.540  52.485  1.00  0.00     0.122 C 
BRANCH  35  36
HETATM   36  C2  UNL     1      10.636   0.826  53.781  1.00  0.00     0.015 C 
HETATM   37  C1  UNL     1      10.868  -0.644  53.490  1.00  0.00     0.006 C 
ENDBRANCH  35  36
ENDBRANCH  32  35
ENDBRANCH  28  31
ENDBRANCH  26  27
ENDBRANCH  25  26
ENDBRANCH  15  25
ENDBRANCH   1  11
BRANCH   5  38
HETATM   38  C19 UNL     1      18.844   3.085  38.955  1.00  0.00     0.078 C 
HETATM   39  C20 UNL     1      18.791   4.561  39.269  1.00  0.00     0.014 C 
HETATM   40  C21 UNL     1      19.191   5.383  38.052  1.00  0.00     0.001 C 
HETATM   41  C22 UNL     1      20.538   4.892  37.508  1.00  0.00     0.000 C 
HETATM   42  C23 UNL     1      20.363   3.476  37.027  1.00  0.00     0.001 C 
HETATM   43  C24 UNL     1      19.079   2.848  37.478  1.00  0.00     0.014 C 
ENDBRANCH   5  38
TORSDOF 9
ENDMDL
MODEL 4
REMARK VINA RESULT: -7.110537146      1.310      1.641
REMARK  9 active torsions:
REMARK  status: ('A' for Active; 'I' for Inactive)
REMARK    1  A    between atoms: C2_2  and  C3_3 
REMARK    2  A    between atoms: C3_3  and  N1_4 
REMARK       I    between atoms: N1_4  and  C4_6 
REMARK    3  A    between atoms: C4_6  and  C5_8 
REMARK       I    between atoms: C5_8  and  N2_10 
REMARK    4  A    between atoms: N2_10  and  C6_12 
REMARK    5  A    between atoms: C6_12  and  C7_13 
REMARK    6  A    between atoms: C7_13  and  N3_14 
REMARK    7  A    between atoms: C13_20  and  N4_22 
REMARK    8  A    between atoms: N5_26  and  C15_27 
REMARK       I    between atoms: N6_30  and  C18_31 
REMARK    9  A    between atoms: C18_31  and  C19_33 
ROOT
HETATM    1  C15 UNL     1      14.288  -0.905  42.194  1.00  0.00     0.102 C 
HETATM    2  C16 UNL     1      12.863  -0.785  41.777  1.00  0.00     0.046 C 
HETATM    3  C17 UNL     1      12.151  -2.121  41.704  1.00  0.00     0.128 C 
HETATM    4  N6  UNL     1      12.908  -2.874  40.676  1.00  0.00    -0.350 N 
HETATM    5  C18 UNL     1      12.271  -3.250  39.480  1.00  0.00     0.224 C 
HETATM    6  O3  UNL     1      11.042  -2.984  39.286  1.00  0.00    -0.273 OA
HETATM    7  C25 UNL     1      14.252  -3.162  41.055  1.00  0.00     0.147 C 
HETATM    8  C26 UNL     1      15.039  -2.058  41.658  1.00  0.00     0.133 C 
HETATM    9  C27 UNL     1      16.051  -1.653  40.643  1.00  0.00     0.067 C 
HETATM   10  N7  UNL     1      16.834  -1.340  39.843  1.00  0.00    -0.197 NA
ENDROOT
BRANCH   1  11
HETATM   11  N5  UNL     1      14.488  -0.752  43.587  1.00  0.00    -0.374 N 
HETATM   12  C13 UNL     1      14.718   0.548  44.112  1.00  0.00     0.210 C 
HETATM   13  C12 UNL     1      15.583   0.326  45.371  1.00  0.00     0.139 C 
HETATM   14  C14 UNL     1      15.570   1.352  43.158  1.00  0.00     0.072 C 
HETATM   15  N3  UNL     1      14.729   0.302  46.491  1.00  0.00    -0.383 N 
HETATM   16  C11 UNL     1      16.456  -0.887  45.200  1.00  0.00     0.030 C 
HETATM   17  C8  UNL     1      14.039  -0.886  46.806  1.00  0.00     0.065 C 
HETATM   18  C9  UNL     1      14.293  -1.924  45.733  1.00  0.00     0.041 C 
HETATM   19  C10 UNL     1      15.784  -2.152  45.673  1.00  0.00     0.013 C 
HETATM   20  C28 UNL     1      13.678  -1.590  44.418  1.00  0.00     0.129 C 
BRANCH  12  21
HETATM   21  N4  UNL     1      13.613   1.324  44.521  1.00  0.00    -0.051 N 
ATOM     22  H43 UNL     1      13.587   2.249  44.092  1.00  0.00     0.277 HD
ATOM     23  H42 UNL     1      12.724   0.989  44.151  1.00  0.00     0.277 HD
ATOM     24  H41 UNL     1      13.643   1.351  45.540  1.00  0.00     0.277 HD
ENDBRANCH  12  21
BRANCH  15  25
HETATM   25  C7  UNL     1      15.033   1.196  47.552  1.00  0.00     0.142 C 
BRANCH  25  26
HETATM   26  C6  UNL     1      15.119   0.542  48.897  1.00  0.00     0.143 C 
BRANCH  26  27
HETATM   27  N2  UNL     1      14.014   0.845  49.776  1.00  0.00    -0.351 N 
HETATM   28  C5  UNL     1      13.637   2.158  50.170  1.00  0.00     0.309 C 
HETATM   29  O2  UNL     1      14.319   3.120  49.723  1.00  0.00    -0.262 OA
ATOM     30  H2  UNL     1      13.466   0.064  50.138  1.00  0.00     0.162 HD
BRANCH  28  31
HETATM   31  C4  UNL     1      12.507   2.403  51.059  1.00  0.00     0.309 C 
HETATM   32  N1  UNL     1      11.678   1.338  51.468  1.00  0.00    -0.353 N 
ATOM     33  H1  UNL     1      11.897   0.401  51.130  1.00  0.00     0.162 HD
HETATM   34  O1  UNL     1      12.303   3.568  51.437  1.00  0.00    -0.262 OA
BRANCH  32  35
HETATM   35  C3  UNL     1      10.541   1.502  52.335  1.00  0.00     0.122 C 
BRANCH  35  36
HETATM   36  C2  UNL     1      10.810   0.854  53.664  1.00  0.00     0.015 C 
HETATM   37  C1  UNL     1      10.933  -0.644  53.460  1.00  0.00     0.006 C 
ENDBRANCH  35  36
ENDBRANCH  32  35
ENDBRANCH  28  31
ENDBRANCH  26  27
ENDBRANCH  25  26
ENDBRANCH  15  25
ENDBRANCH   1  11
BRANCH   5  38
HETATM   38  C19 UNL     1      13.032  -3.959  38.432  1.00  0.00     0.078 C 
HETATM   39  C20 UNL     1      13.003  -3.188  37.134  1.00  0.00     0.014 C 
HETATM   40  C21 UNL     1      12.583  -4.092  35.983  1.00  0.00     0.001 C 
HETATM   41  C22 UNL     1      13.459  -5.352  35.961  1.00  0.00     0.000 C 
HETATM   42  C23 UNL     1      13.201  -6.126  37.227  1.00  0.00     0.001 C 
HETATM   43  C24 UNL     1      12.447  -5.345  38.259  1.00  0.00     0.014 C 
ENDBRANCH   5  38
TORSDOF 9
ENDMDL
MODEL 5
REMARK VINA RESULT: -7.065934913      2.869      3.749
REMARK  9 active torsions:
REMARK  status: ('A' for Active; 'I' for Inactive)
REMARK    1  A    between atoms: C2_2  and  C3_3 
REMARK    2  A    between atoms: C3_3  and  N1_4 
REMARK       I    between atoms: N1_4  and  C4_6 
REMARK    3  A    between atoms: C4_6  and  C5_8 
REMARK       I    between atoms: C5_8  and  N2_10 
REMARK    4  A    between atoms: N2_10  and  C6_12 
REMARK    5  A    between atoms: C6_12  and  C7_13 
REMARK    6  A    between atoms: C7_13  and  N3_14 
REMARK    7  A    between atoms: C13_20  and  N4_22 
REMARK    8  A    between atoms: N5_26  and  C15_27 
REMARK       I    between atoms: N6_30  and  C18_31 
REMARK    9  A    between atoms: C18_31  and  C19_33 
ROOT
HETATM    1  C15 UNL     1      16.297   0.827  43.309  1.00  0.00     0.102 C 
HETATM    2  C16 UNL     1      15.346   1.673  42.535  1.00  0.00     0.046 C 
HETATM    3  C17 UNL     1      14.896   1.028  41.240  1.00  0.00     0.128 C 
HETATM    4  N6  UNL     1      16.151   0.860  40.470  1.00  0.00    -0.350 N 
HETATM    5  C18 UNL     1      16.321   1.555  39.258  1.00  0.00     0.224 C 
HETATM    6  O3  UNL     1      15.396   2.297  38.799  1.00  0.00    -0.273 OA
HETATM    7  C25 UNL     1      17.069  -0.052  41.068  1.00  0.00     0.147 C 
HETATM    8  C26 UNL     1      17.302   0.077  42.528  1.00  0.00     0.133 C 
HETATM    9  C27 UNL     1      18.676   0.629  42.693  1.00  0.00     0.067 C 
HETATM   10  N7  UNL     1      19.746   1.063  42.812  1.00  0.00    -0.197 NA
ENDROOT
BRANCH   1  11
HETATM   11  N5  UNL     1      15.672   0.010  44.280  1.00  0.00    -0.374 N 
HETATM   12  C13 UNL     1      15.586   0.473  45.620  1.00  0.00     0.210 C 
HETATM   13  C12 UNL     1      15.577  -0.804  46.488  1.00  0.00     0.139 C 
HETATM   14  C14 UNL     1      16.845   1.221  45.995  1.00  0.00     0.072 C 
HETATM   15  N3  UNL     1      14.237  -1.125  46.781  1.00  0.00    -0.383 N 
HETATM   16  C11 UNL     1      16.370  -1.895  45.822  1.00  0.00     0.030 C 
HETATM   17  C8  UNL     1      13.469  -1.818  45.825  1.00  0.00     0.065 C 
HETATM   18  C9  UNL     1      14.269  -1.985  44.550  1.00  0.00     0.041 C 
HETATM   19  C10 UNL     1      15.525  -2.744  44.904  1.00  0.00     0.013 C 
HETATM   20  C28 UNL     1      14.518  -0.706  43.827  1.00  0.00     0.129 C 
BRANCH  12  21
HETATM   21  N4  UNL     1      14.459   1.226  46.011  1.00  0.00    -0.051 N 
ATOM     22  H43 UNL     1      14.443   1.443  47.007  1.00  0.00     0.277 HD
ATOM     23  H42 UNL     1      14.479   2.189  45.673  1.00  0.00     0.277 HD
ATOM     24  H41 UNL     1      13.642   0.704  45.696  1.00  0.00     0.277 HD
ENDBRANCH  12  21
BRANCH  15  25
HETATM   25  C7  UNL     1      13.899  -1.289  48.151  1.00  0.00     0.142 C 
BRANCH  25  26
HETATM   26  C6  UNL     1      14.614  -0.350  49.074  1.00  0.00     0.143 C 
BRANCH  26  27
HETATM   27  N2  UNL     1      13.752   0.326  50.015  1.00  0.00    -0.351 N 
HETATM   28  C5  UNL     1      13.386   1.697  49.929  1.00  0.00     0.309 C 
HETATM   29  O2  UNL     1      13.850   2.365  48.965  1.00  0.00    -0.262 OA
ATOM     30  H2  UNL     1      13.381  -0.217  50.795  1.00  0.00     0.162 HD
BRANCH  28  31
HETATM   31  C4  UNL     1      12.508   2.325  50.909  1.00  0.00     0.309 C 
HETATM   32  N1  UNL     1      11.734   1.534  51.782  1.00  0.00    -0.353 N 
ATOM     33  H1  UNL     1      11.813   0.520  51.711  1.00  0.00     0.162 HD
HETATM   34  O1  UNL     1      12.466   3.566  50.945  1.00  0.00    -0.262 OA
BRANCH  32  35
HETATM   35  C3  UNL     1      10.839   2.080  52.770  1.00  0.00     0.122 C 
BRANCH  35  36
HETATM   36  C2  UNL     1      10.159   0.969  53.518  1.00  0.00     0.015 C 
HETATM   37  C1  UNL     1      10.964  -0.304  53.337  1.00  0.00     0.006 C 
ENDBRANCH  35  36
ENDBRANCH  32  35
ENDBRANCH  28  31
ENDBRANCH  26  27
ENDBRANCH  25  26
ENDBRANCH  15  25
ENDBRANCH   1  11
BRANCH   5  38
HETATM   38  C19 UNL     1      17.587   1.428  38.510  1.00  0.00     0.078 C 
HETATM   39  C20 UNL     1      18.471   2.630  38.744  1.00  0.00     0.014 C 
HETATM   40  C21 UNL     1      18.952   3.208  37.421  1.00  0.00     0.001 C 
HETATM   41  C22 UNL     1      19.587   2.103  36.567  1.00  0.00     0.000 C 
HETATM   42  C23 UNL     1      18.519   1.097  36.229  1.00  0.00     0.001 C 
HETATM   43  C24 UNL     1      17.269   1.262  37.039  1.00  0.00     0.014 C 
ENDBRANCH   5  38
TORSDOF 9
ENDMDL
