MODEL 1
REMARK VINA RESULT: -9.107740741      0.000      0.000
REMARK  15 active torsions:
REMARK  status: ('A' for Active; 'I' for Inactive)
REMARK    1  A    between atoms: C2_2  and  O1_3 
REMARK    2  A    between atoms: O1_3  and  C3_4 
REMARK       I    between atoms: C3_4  and  N1_6 
REMARK    3  A    between atoms: N2_9  and  C6_10 
REMARK    4  A    between atoms: C6_10  and  O3_11 
REMARK    5  A    between atoms: C6_10  and  C7_13 
REMARK    6  A    between atoms: C7_13  and  C8_14 
REMARK    7  A    between atoms: C7_13  and  C14_20 
REMARK    8  A    between atoms: C8_14  and  C9_15 
REMARK    9  A    between atoms: C9_15  and  C10_16 
REMARK   10  A    between atoms: C9_15  and  C12_18 
REMARK   11  A    between atoms: C14_20  and  N3_21 
REMARK   12  A    between atoms: C14_20  and  C27_40 
REMARK   13  A    between atoms: N3_21  and  C15_23 
REMARK   14  A    between atoms: C19_28  and  C20_29 
REMARK       I    between atoms: C20_29  and  N5_31 
REMARK   15  A    between atoms: N5_31  and  C21_33 
ROOT
HETATM    1  C21 UNL     1      13.209  18.609  18.451  1.00  0.00     0.122 C 
HETATM    2  C22 UNL     1      12.100  17.953  17.782  1.00  0.00     0.091 C 
HETATM    3  N6  UNL     1      11.214  17.448  17.260  1.00  0.00    -0.195 NA
HETATM    4  C23 UNL     1      12.662  19.447  19.578  1.00  0.00     0.046 C 
HETATM    5  C24 UNL     1      12.310  18.399  20.613  1.00  0.00     0.004 C 
HETATM    6  C25 UNL     1      13.409  17.359  20.493  1.00  0.00     0.004 C 
HETATM    7  C26 UNL     1      14.106  17.635  19.182  1.00  0.00     0.046 C 
ENDROOT
BRANCH   1   8
HETATM    8  N5  UNL     1      14.027  19.395  17.540  1.00  0.00    -0.335 N 
HETATM    9  C20 UNL     1      13.469  20.391  16.692  1.00  0.00     0.256 C 
HETATM   10  O4  UNL     1      12.232  20.538  16.788  1.00  0.00    -0.267 OA
ATOM     11  H5  UNL     1      15.032  19.226  17.508  1.00  0.00     0.164 HD
BRANCH   9  12
HETATM   12  C19 UNL     1      14.351  21.143  15.804  1.00  0.00     0.075 A 
HETATM   13  C15 UNL     1      15.254  22.164  16.083  1.00  0.00     0.065 A 
HETATM   14  C16 UNL     1      15.832  22.535  14.882  1.00  0.00     0.120 A 
HETATM   15  N4  UNL     1      15.331  21.800  13.905  1.00  0.00    -0.367 N 
HETATM   16  C17 UNL     1      15.681  21.887  12.504  1.00  0.00     0.154 C 
HETATM   17  C18 UNL     1      14.443  20.959  14.425  1.00  0.00     0.109 A 
BRANCH  13  18
HETATM   18  N3  UNL     1      15.526  22.667  17.401  1.00  0.00    -0.350 N 
ATOM     19  H3  UNL     1      14.754  23.144  17.864  1.00  0.00     0.166 HD
BRANCH  18  20
HETATM   20  C14 UNL     1      16.728  22.582  18.133  1.00  0.00     0.109 C 
BRANCH  20  21
HETATM   21  C7  UNL     1      17.500  23.761  18.534  1.00  0.00     0.025 C 
BRANCH  21  22
HETATM   22  C6  UNL     1      17.493  25.004  17.770  1.00  0.00     0.146 C 
BRANCH  22  23
HETATM   23  N2  UNL     1      18.531  25.577  16.998  1.00  0.00    -0.358 N 
HETATM   24  C5  UNL     1      18.272  25.996  15.643  1.00  0.00     0.145 C 
HETATM   25  C4  UNL     1      19.573  26.212  14.878  1.00  0.00     0.148 C 
HETATM   26  N1  UNL     1      20.430  27.145  15.586  1.00  0.00    -0.325 N 
HETATM   27  C3  UNL     1      21.165  28.086  14.848  1.00  0.00     0.362 C 
HETATM   28  C29 UNL     1      20.475  27.052  17.033  1.00  0.00     0.148 C 
HETATM   29  O2  UNL     1      21.086  28.123  13.598  1.00  0.00    -0.238 OA
HETATM   30  C28 UNL     1      19.888  25.768  17.514  1.00  0.00     0.145 C 
BRANCH  27  31
HETATM   31  O1  UNL     1      22.008  29.013  15.446  1.00  0.00    -0.304 OA
BRANCH  31  32
HETATM   32  C2  UNL     1      23.428  28.878  15.324  1.00  0.00     0.176 C 
HETATM   33  C1  UNL     1      23.916  28.015  16.481  1.00  0.00     0.034 C 
ENDBRANCH  31  32
ENDBRANCH  27  31
ENDBRANCH  22  23
BRANCH  22  34
HETATM   34  O3  UNL     1      16.425  25.751  17.750  1.00  0.00    -0.346 OA
ATOM     35  H3  UNL     1      16.333  26.240  18.559  1.00  0.00     0.219 HD
ENDBRANCH  22  34
ENDBRANCH  21  22
BRANCH  21  36
HETATM   36  C8  UNL     1      17.831  23.943  19.985  1.00  0.00     0.050 C 
BRANCH  36  37
HETATM   37  C9  UNL     1      19.197  23.762  20.459  1.00  0.00    -0.011 C 
BRANCH  37  38
HETATM   38  C10 UNL     1      19.897  24.925  21.095  1.00  0.00     0.000 C 
HETATM   39  C11 UNL     1      21.333  25.088  20.676  1.00  0.00     0.005 C 
ENDBRANCH  37  38
BRANCH  37  40
HETATM   40  C12 UNL     1      19.148  22.658  21.538  1.00  0.00     0.000 C 
HETATM   41  C13 UNL     1      18.823  21.334  20.941  1.00  0.00     0.005 C 
ENDBRANCH  37  40
ENDBRANCH  36  37
ENDBRANCH  21  36
ENDBRANCH  20  21
BRANCH  20  42
HETATM   42  C27 UNL     1      17.505  21.371  17.757  1.00  0.00     0.282 C 
HETATM   43  N7  UNL     1      16.999  20.102  18.110  1.00  0.00    -0.056 NA
HETATM   44  O5  UNL     1      18.571  21.455  17.145  1.00  0.00    -0.269 OA
ENDBRANCH  20  42
ENDBRANCH  18  20
ENDBRANCH  13  18
ENDBRANCH   9  12
ENDBRANCH   1   8
TORSDOF 15
ENDMDL
MODEL 2
REMARK VINA RESULT: -8.968674912      1.965      3.590
REMARK  15 active torsions:
REMARK  status: ('A' for Active; 'I' for Inactive)
REMARK    1  A    between atoms: C2_2  and  O1_3 
REMARK    2  A    between atoms: O1_3  and  C3_4 
REMARK       I    between atoms: C3_4  and  N1_6 
REMARK    3  A    between atoms: N2_9  and  C6_10 
REMARK    4  A    between atoms: C6_10  and  O3_11 
REMARK    5  A    between atoms: C6_10  and  C7_13 
REMARK    6  A    between atoms: C7_13  and  C8_14 
REMARK    7  A    between atoms: C7_13  and  C14_20 
REMARK    8  A    between atoms: C8_14  and  C9_15 
REMARK    9  A    between atoms: C9_15  and  C10_16 
REMARK   10  A    between atoms: C9_15  and  C12_18 
REMARK   11  A    between atoms: C14_20  and  N3_21 
REMARK   12  A    between atoms: C14_20  and  C27_40 
REMARK   13  A    between atoms: N3_21  and  C15_23 
REMARK   14  A    between atoms: C19_28  and  C20_29 
REMARK       I    between atoms: C20_29  and  N5_31 
REMARK   15  A    between atoms: N5_31  and  C21_33 
ROOT
HETATM    1  C21 UNL     1      11.400  19.705  14.316  1.00  0.00     0.122 C 
HETATM    2  C22 UNL     1      10.613  20.912  14.139  1.00  0.00     0.091 C 
HETATM    3  N6  UNL     1       9.976  21.854  14.000  1.00  0.00    -0.195 NA
HETATM    4  C23 UNL     1      10.561  18.520  13.914  1.00  0.00     0.046 C 
HETATM    5  C24 UNL     1      10.568  18.622  12.403  1.00  0.00     0.004 C 
HETATM    6  C25 UNL     1      11.966  19.105  12.059  1.00  0.00     0.004 C 
HETATM    7  C26 UNL     1      12.561  19.620  13.349  1.00  0.00     0.046 C 
ENDROOT
BRANCH   1   8
HETATM    8  N5  UNL     1      11.918  19.568  15.669  1.00  0.00    -0.335 N 
HETATM    9  C20 UNL     1      12.825  20.508  16.230  1.00  0.00     0.256 C 
HETATM   10  O4  UNL     1      13.144  21.453  15.477  1.00  0.00    -0.267 OA
ATOM     11  H5  UNL     1      11.620  18.772  16.234  1.00  0.00     0.164 HD
BRANCH   9  12
HETATM   12  C19 UNL     1      13.301  20.308  17.596  1.00  0.00     0.075 A 
HETATM   13  C15 UNL     1      14.318  20.948  18.298  1.00  0.00     0.065 A 
HETATM   14  C16 UNL     1      14.364  20.375  19.557  1.00  0.00     0.120 A 
HETATM   15  N4  UNL     1      13.440  19.434  19.649  1.00  0.00    -0.367 N 
HETATM   16  C17 UNL     1      13.174  18.609  20.806  1.00  0.00     0.154 C 
HETATM   17  C18 UNL     1      12.789  19.371  18.492  1.00  0.00     0.109 A 
BRANCH  13  18
HETATM   18  N3  UNL     1      15.108  22.028  17.776  1.00  0.00    -0.350 N 
ATOM     19  H3  UNL     1      14.589  22.794  17.348  1.00  0.00     0.166 HD
BRANCH  18  20
HETATM   20  C14 UNL     1      16.512  22.160  17.782  1.00  0.00     0.109 C 
BRANCH  20  21
HETATM   21  C7  UNL     1      17.199  23.326  18.341  1.00  0.00     0.025 C 
BRANCH  21  22
HETATM   22  C6  UNL     1      17.160  24.641  17.711  1.00  0.00     0.146 C 
BRANCH  22  23
HETATM   23  N2  UNL     1      18.170  25.302  16.973  1.00  0.00    -0.358 N 
HETATM   24  C5  UNL     1      17.887  25.794  15.647  1.00  0.00     0.145 C 
HETATM   25  C4  UNL     1      19.174  26.109  14.893  1.00  0.00     0.148 C 
HETATM   26  N1  UNL     1      19.997  27.030  15.655  1.00  0.00    -0.325 N 
HETATM   27  C3  UNL     1      20.690  28.043  14.975  1.00  0.00     0.362 C 
HETATM   28  C29 UNL     1      20.054  26.849  17.093  1.00  0.00     0.148 C 
HETATM   29  O2  UNL     1      20.603  28.154  13.730  1.00  0.00    -0.238 OA
HETATM   30  C28 UNL     1      19.520  25.515  17.495  1.00  0.00     0.145 C 
BRANCH  27  31
HETATM   31  O1  UNL     1      21.498  28.965  15.627  1.00  0.00    -0.304 OA
BRANCH  31  32
HETATM   32  C2  UNL     1      22.712  28.539  16.254  1.00  0.00     0.176 C 
HETATM   33  C1  UNL     1      23.816  28.571  15.204  1.00  0.00     0.034 C 
ENDBRANCH  31  32
ENDBRANCH  27  31
ENDBRANCH  22  23
BRANCH  22  34
HETATM   34  O3  UNL     1      16.085  25.374  17.799  1.00  0.00    -0.346 OA
ATOM     35  H3  UNL     1      15.526  25.080  18.507  1.00  0.00     0.219 HD
ENDBRANCH  22  34
ENDBRANCH  21  22
BRANCH  21  36
HETATM   36  C8  UNL     1      17.452  23.369  19.819  1.00  0.00     0.050 C 
BRANCH  36  37
HETATM   37  C9  UNL     1      18.814  23.442  20.333  1.00  0.00    -0.011 C 
BRANCH  37  38
HETATM   38  C10 UNL     1      19.202  24.616  21.179  1.00  0.00     0.000 C 
HETATM   39  C11 UNL     1      20.600  25.118  20.940  1.00  0.00     0.005 C 
ENDBRANCH  37  38
BRANCH  37  40
HETATM   40  C12 UNL     1      19.018  22.196  21.222  1.00  0.00     0.000 C 
HETATM   41  C13 UNL     1      18.648  20.949  20.497  1.00  0.00     0.005 C 
ENDBRANCH  37  40
ENDBRANCH  36  37
ENDBRANCH  21  36
ENDBRANCH  20  21
BRANCH  20  42
HETATM   42  C27 UNL     1      17.116  21.547  16.569  1.00  0.00     0.282 C 
HETATM   43  N7  UNL     1      16.597  21.892  15.302  1.00  0.00    -0.056 NA
HETATM   44  O5  UNL     1      18.055  20.754  16.649  1.00  0.00    -0.269 OA
ENDBRANCH  20  42
ENDBRANCH  18  20
ENDBRANCH  13  18
ENDBRANCH   9  12
ENDBRANCH   1   8
TORSDOF 15
ENDMDL
MODEL 3
REMARK VINA RESULT: -8.911064004      2.007      3.463
REMARK  15 active torsions:
REMARK  status: ('A' for Active; 'I' for Inactive)
REMARK    1  A    between atoms: C2_2  and  O1_3 
REMARK    2  A    between atoms: O1_3  and  C3_4 
REMARK       I    between atoms: C3_4  and  N1_6 
REMARK    3  A    between atoms: N2_9  and  C6_10 
REMARK    4  A    between atoms: C6_10  and  O3_11 
REMARK    5  A    between atoms: C6_10  and  C7_13 
REMARK    6  A    between atoms: C7_13  and  C8_14 
REMARK    7  A    between atoms: C7_13  and  C14_20 
REMARK    8  A    between atoms: C8_14  and  C9_15 
REMARK    9  A    between atoms: C9_15  and  C10_16 
REMARK   10  A    between atoms: C9_15  and  C12_18 
REMARK   11  A    between atoms: C14_20  and  N3_21 
REMARK   12  A    between atoms: C14_20  and  C27_40 
REMARK   13  A    between atoms: N3_21  and  C15_23 
REMARK   14  A    between atoms: C19_28  and  C20_29 
REMARK       I    between atoms: C20_29  and  N5_31 
REMARK   15  A    between atoms: N5_31  and  C21_33 
ROOT
HETATM    1  C21 UNL     1      13.375  19.042  18.522  1.00  0.00     0.122 C 
HETATM    2  C22 UNL     1      11.932  19.105  18.374  1.00  0.00     0.091 C 
HETATM    3  N6  UNL     1      10.793  19.168  18.269  1.00  0.00    -0.195 NA
HETATM    4  C23 UNL     1      13.750  19.664  19.843  1.00  0.00     0.046 C 
HETATM    5  C24 UNL     1      13.335  18.592  20.829  1.00  0.00     0.004 C 
HETATM    6  C25 UNL     1      13.666  17.284  20.134  1.00  0.00     0.004 C 
HETATM    7  C26 UNL     1      13.883  17.626  18.678  1.00  0.00     0.046 C 
ENDROOT
BRANCH   1   8
HETATM    8  N5  UNL     1      14.079  19.664  17.412  1.00  0.00    -0.335 N 
HETATM    9  C20 UNL     1      14.308  21.067  17.353  1.00  0.00     0.256 C 
HETATM   10  O4  UNL     1      13.860  21.719  18.319  1.00  0.00    -0.267 OA
ATOM     11  H5  UNL     1      14.419  19.076  16.651  1.00  0.00     0.164 HD
BRANCH   9  12
HETATM   12  C19 UNL     1      15.024  21.622  16.208  1.00  0.00     0.075 A 
HETATM   13  C15 UNL     1      16.008  22.604  16.150  1.00  0.00     0.065 A 
HETATM   14  C16 UNL     1      16.347  22.762  14.818  1.00  0.00     0.120 A 
HETATM   15  N4  UNL     1      15.627  21.937  14.078  1.00  0.00    -0.367 N 
HETATM   16  C17 UNL     1      15.690  21.803  12.639  1.00  0.00     0.154 C 
HETATM   17  C18 UNL     1      14.827  21.242  14.880  1.00  0.00     0.109 A 
BRANCH  13  18
HETATM   18  N3  UNL     1      16.562  23.264  17.299  1.00  0.00    -0.350 N 
ATOM     19  H3  UNL     1      15.937  23.901  17.792  1.00  0.00     0.166 HD
BRANCH  18  20
HETATM   20  C14 UNL     1      17.862  23.140  17.830  1.00  0.00     0.109 C 
BRANCH  20  21
HETATM   21  C7  UNL     1      18.897  24.159  17.645  1.00  0.00     0.025 C 
BRANCH  21  22
HETATM   22  C6  UNL     1      19.482  24.900  18.758  1.00  0.00     0.146 C 
BRANCH  22  23
HETATM   23  N2  UNL     1      20.636  25.718  18.770  1.00  0.00    -0.358 N 
HETATM   24  C5  UNL     1      21.826  25.272  19.453  1.00  0.00     0.145 C 
HETATM   25  C4  UNL     1      22.792  26.429  19.681  1.00  0.00     0.148 C 
HETATM   26  N1  UNL     1      23.097  27.091  18.426  1.00  0.00    -0.325 N 
HETATM   27  C3  UNL     1      24.409  27.531  18.191  1.00  0.00     0.362 C 
HETATM   28  C29 UNL     1      22.015  27.259  17.475  1.00  0.00     0.148 C 
HETATM   29  O2  UNL     1      25.306  27.357  19.049  1.00  0.00    -0.238 OA
HETATM   30  C28 UNL     1      20.688  27.025  18.113  1.00  0.00     0.145 C 
BRANCH  27  31
HETATM   31  O1  UNL     1      24.785  28.173  17.019  1.00  0.00    -0.304 OA
BRANCH  31  32
HETATM   32  C2  UNL     1      26.158  28.185  16.614  1.00  0.00     0.176 C 
HETATM   33  C1  UNL     1      26.360  27.054  15.614  1.00  0.00     0.034 C 
ENDBRANCH  31  32
ENDBRANCH  27  31
ENDBRANCH  22  23
BRANCH  22  34
HETATM   34  O3  UNL     1      18.927  24.850  19.937  1.00  0.00    -0.346 OA
ATOM     35  H3  UNL     1      18.004  24.639  19.874  1.00  0.00     0.219 HD
ENDBRANCH  22  34
ENDBRANCH  21  22
BRANCH  21  36
HETATM   36  C8  UNL     1      19.791  24.064  16.444  1.00  0.00     0.050 C 
BRANCH  36  37
HETATM   37  C9  UNL     1      19.413  24.703  15.190  1.00  0.00    -0.011 C 
BRANCH  37  38
HETATM   38  C10 UNL     1      18.344  25.753  15.211  1.00  0.00     0.000 C 
HETATM   39  C11 UNL     1      18.587  26.904  14.272  1.00  0.00     0.005 C 
ENDBRANCH  37  38
BRANCH  37  40
HETATM   40  C12 UNL     1      20.680  25.402  14.650  1.00  0.00     0.000 C 
HETATM   41  C13 UNL     1      21.641  24.416  14.086  1.00  0.00     0.005 C 
ENDBRANCH  37  40
ENDBRANCH  36  37
ENDBRANCH  21  36
ENDBRANCH  20  21
BRANCH  20  42
HETATM   42  C27 UNL     1      18.313  21.723  17.830  1.00  0.00     0.282 C 
HETATM   43  N7  UNL     1      18.586  21.096  19.064  1.00  0.00    -0.056 NA
HETATM   44  O5  UNL     1      18.446  21.091  16.781  1.00  0.00    -0.269 OA
ENDBRANCH  20  42
ENDBRANCH  18  20
ENDBRANCH  13  18
ENDBRANCH   9  12
ENDBRANCH   1   8
TORSDOF 15
ENDMDL
MODEL 4
REMARK VINA RESULT: -8.794337867      2.224      4.240
REMARK  15 active torsions:
REMARK  status: ('A' for Active; 'I' for Inactive)
REMARK    1  A    between atoms: C2_2  and  O1_3 
REMARK    2  A    between atoms: O1_3  and  C3_4 
REMARK       I    between atoms: C3_4  and  N1_6 
REMARK    3  A    between atoms: N2_9  and  C6_10 
REMARK    4  A    between atoms: C6_10  and  O3_11 
REMARK    5  A    between atoms: C6_10  and  C7_13 
REMARK    6  A    between atoms: C7_13  and  C8_14 
REMARK    7  A    between atoms: C7_13  and  C14_20 
REMARK    8  A    between atoms: C8_14  and  C9_15 
REMARK    9  A    between atoms: C9_15  and  C10_16 
REMARK   10  A    between atoms: C9_15  and  C12_18 
REMARK   11  A    between atoms: C14_20  and  N3_21 
REMARK   12  A    between atoms: C14_20  and  C27_40 
REMARK   13  A    between atoms: N3_21  and  C15_23 
REMARK   14  A    between atoms: C19_28  and  C20_29 
REMARK       I    between atoms: C20_29  and  N5_31 
REMARK   15  A    between atoms: N5_31  and  C21_33 
ROOT
HETATM    1  C21 UNL     1      11.050  19.404  14.723  1.00  0.00     0.122 C 
HETATM    2  C22 UNL     1      10.096  18.313  14.807  1.00  0.00     0.091 C 
HETATM    3  N6  UNL     1       9.354  17.442  14.862  1.00  0.00    -0.195 NA
HETATM    4  C23 UNL     1      11.749  19.329  13.389  1.00  0.00     0.046 C 
HETATM    5  C24 UNL     1      10.682  19.835  12.441  1.00  0.00     0.004 C 
HETATM    6  C25 UNL     1       9.972  20.933  13.214  1.00  0.00     0.004 C 
HETATM    7  C26 UNL     1      10.380  20.759  14.658  1.00  0.00     0.046 C 
ENDROOT
BRANCH   1   8
HETATM    8  N5  UNL     1      11.995  19.410  15.829  1.00  0.00    -0.335 N 
HETATM    9  C20 UNL     1      11.607  19.763  17.151  1.00  0.00     0.256 C 
HETATM   10  O4  UNL     1      10.403  20.068  17.289  1.00  0.00    -0.267 OA
ATOM     11  H5  UNL     1      12.966  19.152  15.652  1.00  0.00     0.164 HD
BRANCH   9  12
HETATM   12  C19 UNL     1      12.609  19.745  18.213  1.00  0.00     0.075 A 
HETATM   13  C15 UNL     1      13.611  20.659  18.523  1.00  0.00     0.065 A 
HETATM   14  C16 UNL     1      14.289  20.161  19.622  1.00  0.00     0.120 A 
HETATM   15  N4  UNL     1      13.754  19.009  19.988  1.00  0.00    -0.367 N 
HETATM   16  C17 UNL     1      14.182  18.181  21.093  1.00  0.00     0.154 C 
HETATM   17  C18 UNL     1      12.748  18.734  19.165  1.00  0.00     0.109 A 
BRANCH  13  18
HETATM   18  N3  UNL     1      13.826  21.893  17.822  1.00  0.00    -0.350 N 
ATOM     19  H3  UNL     1      13.256  22.683  18.124  1.00  0.00     0.166 HD
BRANCH  18  20
HETATM   20  C14 UNL     1      14.727  22.150  16.768  1.00  0.00     0.109 C 
BRANCH  20  21
HETATM   21  C7  UNL     1      16.060  22.718  16.982  1.00  0.00     0.025 C 
BRANCH  21  22
HETATM   22  C6  UNL     1      16.991  22.977  15.889  1.00  0.00     0.146 C 
BRANCH  22  23
HETATM   23  N2  UNL     1      17.962  23.999  15.774  1.00  0.00    -0.358 N 
HETATM   24  C5  UNL     1      17.568  25.322  15.356  1.00  0.00     0.145 C 
HETATM   25  C4  UNL     1      18.777  26.143  14.926  1.00  0.00     0.148 C 
HETATM   26  N1  UNL     1      19.772  26.177  15.982  1.00  0.00    -0.325 N 
HETATM   27  C3  UNL     1      20.471  27.370  16.220  1.00  0.00     0.362 C 
HETATM   28  C29 UNL     1      19.986  24.960  16.741  1.00  0.00     0.148 C 
HETATM   29  O2  UNL     1      20.243  28.394  15.534  1.00  0.00    -0.238 OA
HETATM   30  C28 UNL     1      19.381  23.779  16.060  1.00  0.00     0.145 C 
BRANCH  27  31
HETATM   31  O1  UNL     1      21.437  27.487  17.210  1.00  0.00    -0.304 OA
BRANCH  31  32
HETATM   32  C2  UNL     1      22.785  27.822  16.862  1.00  0.00     0.176 C 
HETATM   33  C1  UNL     1      23.321  26.719  15.958  1.00  0.00     0.034 C 
ENDBRANCH  31  32
ENDBRANCH  27  31
ENDBRANCH  22  23
BRANCH  22  34
HETATM   34  O3  UNL     1      16.988  22.209  14.834  1.00  0.00    -0.346 OA
ATOM     35  H3  UNL     1      16.352  21.509  14.921  1.00  0.00     0.219 HD
ENDBRANCH  22  34
ENDBRANCH  21  22
BRANCH  21  36
HETATM   36  C8  UNL     1      16.288  23.579  18.189  1.00  0.00     0.050 C 
BRANCH  36  37
HETATM   37  C9  UNL     1      16.963  23.040  19.363  1.00  0.00    -0.011 C 
BRANCH  37  38
HETATM   38  C10 UNL     1      17.474  21.633  19.317  1.00  0.00     0.000 C 
HETATM   39  C11 UNL     1      18.975  21.517  19.355  1.00  0.00     0.005 C 
ENDBRANCH  37  38
BRANCH  37  40
HETATM   40  C12 UNL     1      18.200  23.931  19.609  1.00  0.00     0.000 C 
HETATM   41  C13 UNL     1      18.218  24.457  21.001  1.00  0.00     0.005 C 
ENDBRANCH  37  40
ENDBRANCH  36  37
ENDBRANCH  21  36
ENDBRANCH  20  21
BRANCH  20  42
HETATM   42  C27 UNL     1      14.010  22.575  15.536  1.00  0.00     0.282 C 
HETATM   43  N7  UNL     1      13.914  21.668  14.459  1.00  0.00    -0.056 NA
HETATM   44  O5  UNL     1      13.500  23.692  15.442  1.00  0.00    -0.269 OA
ENDBRANCH  20  42
ENDBRANCH  18  20
ENDBRANCH  13  18
ENDBRANCH   9  12
ENDBRANCH   1   8
TORSDOF 15
ENDMDL
MODEL 5
REMARK VINA RESULT: -8.718373240      2.283      4.259
REMARK  15 active torsions:
REMARK  status: ('A' for Active; 'I' for Inactive)
REMARK    1  A    between atoms: C2_2  and  O1_3 
REMARK    2  A    between atoms: O1_3  and  C3_4 
REMARK       I    between atoms: C3_4  and  N1_6 
REMARK    3  A    between atoms: N2_9  and  C6_10 
REMARK    4  A    between atoms: C6_10  and  O3_11 
REMARK    5  A    between atoms: C6_10  and  C7_13 
REMARK    6  A    between atoms: C7_13  and  C8_14 
REMARK    7  A    between atoms: C7_13  and  C14_20 
REMARK    8  A    between atoms: C8_14  and  C9_15 
REMARK    9  A    between atoms: C9_15  and  C10_16 
REMARK   10  A    between atoms: C9_15  and  C12_18 
REMARK   11  A    between atoms: C14_20  and  N3_21 
REMARK   12  A    between atoms: C14_20  and  C27_40 
REMARK   13  A    between atoms: N3_21  and  C15_23 
REMARK   14  A    between atoms: C19_28  and  C20_29 
REMARK       I    between atoms: C20_29  and  N5_31 
REMARK   15  A    between atoms: N5_31  and  C21_33 
ROOT
HETATM    1  C21 UNL     1      11.550  19.688  14.231  1.00  0.00     0.122 C 
HETATM    2  C22 UNL     1      10.830  20.941  14.091  1.00  0.00     0.091 C 
HETATM    3  N6  UNL     1      10.247  21.922  13.987  1.00  0.00    -0.195 NA
HETATM    4  C23 UNL     1      10.556  18.556  14.189  1.00  0.00     0.046 C 
HETATM    5  C24 UNL     1      10.203  18.496  12.718  1.00  0.00     0.004 C 
HETATM    6  C25 UNL     1      11.505  18.800  11.999  1.00  0.00     0.004 C 
HETATM    7  C26 UNL     1      12.431  19.387  13.039  1.00  0.00     0.046 C 
ENDROOT
BRANCH   1   8
HETATM    8  N5  UNL     1      12.370  19.645  15.432  1.00  0.00    -0.335 N 
HETATM    9  C20 UNL     1      11.834  19.910  16.723  1.00  0.00     0.256 C 
HETATM   10  O4  UNL     1      10.615  20.184  16.746  1.00  0.00    -0.267 OA
ATOM     11  H5  UNL     1      13.360  19.417  15.347  1.00  0.00     0.164 HD
BRANCH   9  12
HETATM   12  C19 UNL     1      12.716  19.847  17.884  1.00  0.00     0.075 A 
HETATM   13  C15 UNL     1      13.670  20.750  18.342  1.00  0.00     0.065 A 
HETATM   14  C16 UNL     1      14.231  20.205  19.484  1.00  0.00     0.120 A 
HETATM   15  N4  UNL     1      13.671  19.035  19.736  1.00  0.00    -0.367 N 
HETATM   16  C17 UNL     1      13.986  18.157  20.841  1.00  0.00     0.154 C 
HETATM   17  C18 UNL     1      12.762  18.794  18.797  1.00  0.00     0.109 A 
BRANCH  13  18
HETATM   18  N3  UNL     1      13.946  22.018  17.726  1.00  0.00    -0.350 N 
ATOM     19  H3  UNL     1      13.433  22.817  18.100  1.00  0.00     0.166 HD
BRANCH  18  20
HETATM   20  C14 UNL     1      14.837  22.296  16.670  1.00  0.00     0.109 C 
BRANCH  20  21
HETATM   21  C7  UNL     1      16.194  22.803  16.887  1.00  0.00     0.025 C 
BRANCH  21  22
HETATM   22  C6  UNL     1      17.115  23.083  15.791  1.00  0.00     0.146 C 
BRANCH  22  23
HETATM   23  N2  UNL     1      18.056  24.132  15.669  1.00  0.00    -0.358 N 
HETATM   24  C5  UNL     1      17.625  25.440  15.240  1.00  0.00     0.145 C 
HETATM   25  C4  UNL     1      18.811  26.293  14.806  1.00  0.00     0.148 C 
HETATM   26  N1  UNL     1      19.802  26.363  15.863  1.00  0.00    -0.325 N 
HETATM   27  C3  UNL     1      20.466  27.578  16.094  1.00  0.00     0.362 C 
HETATM   28  C29 UNL     1      20.050  25.159  16.633  1.00  0.00     0.148 C 
HETATM   29  O2  UNL     1      20.210  28.589  15.399  1.00  0.00    -0.238 OA
HETATM   30  C28 UNL     1      19.480  23.956  15.960  1.00  0.00     0.145 C 
BRANCH  27  31
HETATM   31  O1  UNL     1      21.426  27.731  17.084  1.00  0.00    -0.304 OA
BRANCH  31  32
HETATM   32  C2  UNL     1      22.768  28.088  16.735  1.00  0.00     0.176 C 
HETATM   33  C1  UNL     1      23.400  26.896  16.027  1.00  0.00     0.034 C 
ENDBRANCH  31  32
ENDBRANCH  27  31
ENDBRANCH  22  23
BRANCH  22  34
HETATM   34  O3  UNL     1      17.131  22.312  14.739  1.00  0.00    -0.346 OA
ATOM     35  H3  UNL     1      18.019  22.071  14.504  1.00  0.00     0.219 HD
ENDBRANCH  22  34
ENDBRANCH  21  22
BRANCH  21  36
HETATM   36  C8  UNL     1      16.476  23.591  18.132  1.00  0.00     0.050 C 
BRANCH  36  37
HETATM   37  C9  UNL     1      17.155  22.969  19.261  1.00  0.00    -0.011 C 
BRANCH  37  38
HETATM   38  C10 UNL     1      17.682  21.575  19.106  1.00  0.00     0.000 C 
HETATM   39  C11 UNL     1      18.721  21.188  20.123  1.00  0.00     0.005 C 
ENDBRANCH  37  38
BRANCH  37  40
HETATM   40  C12 UNL     1      18.382  23.851  19.578  1.00  0.00     0.000 C 
HETATM   41  C13 UNL     1      18.248  24.506  20.907  1.00  0.00     0.005 C 
ENDBRANCH  37  40
ENDBRANCH  36  37
ENDBRANCH  21  36
ENDBRANCH  20  21
BRANCH  20  42
HETATM   42  C27 UNL     1      14.116  22.810  15.476  1.00  0.00     0.282 C 
HETATM   43  N7  UNL     1      14.206  22.092  14.264  1.00  0.00    -0.056 NA
HETATM   44  O5  UNL     1      13.442  23.841  15.526  1.00  0.00    -0.269 OA
ENDBRANCH  20  42
ENDBRANCH  18  20
ENDBRANCH  13  18
ENDBRANCH   9  12
ENDBRANCH   1   8
TORSDOF 15
ENDMDL
