MODEL 1
REMARK VINA RESULT: -7.937036315      0.000      0.000
REMARK  9 active torsions:
REMARK  status: ('A' for Active; 'I' for Inactive)
REMARK    1  A    between atoms: C2_2  and  N1_3 
REMARK    2  A    between atoms: C2_2  and  C3_7 
REMARK    3  A    between atoms: C2_2  and  C19_40 
REMARK    4  A    between atoms: C4_8  and  C5_9 
REMARK    5  A    between atoms: C7_11  and  N2_12 
REMARK    6  A    between atoms: C9_17  and  N3_18 
REMARK    7  A    between atoms: C10_22  and  N4_23 
REMARK    8  A    between atoms: N4_23  and  C11_25 
REMARK    9  A    between atoms: C14_30  and  N6_31 
ROOT
HETATM    1  C5  UNL     1      -3.748   5.482  11.687  1.00  0.00     0.091 C 
HETATM    2  C6  UNL     1      -2.433   6.209  11.901  1.00  0.00     0.052 C 
HETATM    3  C7  UNL     1      -1.354   5.299  12.387  1.00  0.00     0.186 C 
HETATM    4  C8  UNL     1      -1.727   3.896  11.967  1.00  0.00     0.067 C 
HETATM    5  C9  UNL     1      -2.244   3.929  10.518  1.00  0.00     0.209 C 
HETATM    6  C10 UNL     1      -3.650   4.552  10.493  1.00  0.00     0.129 C 
ENDROOT
BRANCH   6   7
HETATM    7  N4  UNL     1      -4.656   3.527  10.636  1.00  0.00    -0.368 N 
ATOM      8  H4  UNL     1      -5.468   3.570  10.021  1.00  0.00     0.161 HD
BRANCH   7   9
HETATM    9  C11 UNL     1      -4.594   2.460  11.576  1.00  0.00     0.118 A 
HETATM   10  C12 UNL     1      -4.266   1.196  11.139  1.00  0.00     0.066 A 
HETATM   11  C13 UNL     1      -4.210   0.196  12.087  1.00  0.00     0.110 A 
HETATM   12  N5  UNL     1      -4.469   0.461  13.378  1.00  0.00    -0.202 N 
HETATM   13  C14 UNL     1      -4.791   1.690  13.816  1.00  0.00     0.681 A 
ATOM     14  H5  UNL     1      -4.420  -0.302  14.053  1.00  0.00     0.183 HD
HETATM   15  N7  UNL     1      -4.843   2.656  12.886  1.00  0.00    -0.177 N 
ATOM     16  H7  UNL     1      -5.086   3.600  13.190  1.00  0.00     0.185 HD
BRANCH  13  17
HETATM   17  N6  UNL     1      -5.065   1.952  15.196  1.00  0.00    -0.212 N 
HETATM   18  C15 UNL     1      -4.445   1.303  16.329  1.00  0.00     0.147 C 
HETATM   19  C16 UNL     1      -5.414   1.448  17.477  1.00  0.00     0.101 C 
HETATM   20  C17 UNL     1      -6.616   2.197  16.944  1.00  0.00     0.261 C 
HETATM   21  F1  UNL     1      -7.073   3.075  17.878  1.00  0.00    -0.204 F 
HETATM   22  F2  UNL     1      -7.545   1.290  16.514  1.00  0.00    -0.204 F 
HETATM   23  C18 UNL     1      -6.006   2.908  15.739  1.00  0.00     0.220 C 
ENDBRANCH  13  17
ENDBRANCH   7   9
ENDBRANCH   6   7
BRANCH   1  24
HETATM   24  C4  UNL     1      -4.837   6.423  11.414  1.00  0.00    -0.097 C 
HETATM   25  C3  UNL     1      -5.745   7.187  11.189  1.00  0.00    -0.058 C 
BRANCH  25  26
HETATM   26  C2  UNL     1      -6.872   8.113  10.932  1.00  0.00     0.278 C 
HETATM   27  C1  UNL     1      -6.341   9.543  10.846  1.00  0.00     0.071 C 
BRANCH  26  28
HETATM   28  N1  UNL     1      -7.856   8.007  11.992  1.00  0.00    -0.051 N 
ATOM     29  H13 UNL     1      -8.095   8.918  12.382  1.00  0.00     0.276 HD
ATOM     30  H12 UNL     1      -8.776   7.750  11.633  1.00  0.00     0.276 HD
ATOM     31  H11 UNL     1      -7.533   7.357  12.709  1.00  0.00     0.276 HD
ENDBRANCH  26  28
BRANCH  26  32
HETATM   32  C19 UNL     1      -7.433   7.753   9.595  1.00  0.00     0.431 C 
HETATM   33  F3  UNL     1      -7.152   8.787   8.720  1.00  0.00    -0.167 F 
HETATM   34  F4  UNL     1      -8.827   7.728   9.723  1.00  0.00    -0.167 F 
HETATM   35  F5  UNL     1      -7.057   6.532   9.131  1.00  0.00    -0.167 F 
ENDBRANCH  26  32
ENDBRANCH  25  26
ENDBRANCH   1  24
BRANCH   5  36
HETATM   36  N3  UNL     1      -1.290   4.698   9.781  1.00  0.00    -0.073 N 
ATOM     37  H33 UNL     1      -1.553   4.851   8.808  1.00  0.00     0.274 HD
ATOM     38  H32 UNL     1      -1.259   5.680  10.055  1.00  0.00     0.274 HD
ATOM     39  H31 UNL     1      -0.399   4.215   9.892  1.00  0.00     0.274 HD
ENDBRANCH   5  36
BRANCH   3  40
HETATM   40  N2  UNL     1      -1.316   5.302  13.847  1.00  0.00    -0.075 N 
ATOM     41  H23 UNL     1      -2.040   5.900  14.246  1.00  0.00     0.274 HD
ATOM     42  H22 UNL     1      -1.624   4.412  14.239  1.00  0.00     0.274 HD
ATOM     43  H21 UNL     1      -0.386   5.562  14.172  1.00  0.00     0.274 HD
ENDBRANCH   3  40
TORSDOF 9
ENDMDL
MODEL 2
REMARK VINA RESULT: -7.835115903      1.574      1.970
REMARK  9 active torsions:
REMARK  status: ('A' for Active; 'I' for Inactive)
REMARK    1  A    between atoms: C2_2  and  N1_3 
REMARK    2  A    between atoms: C2_2  and  C3_7 
REMARK    3  A    between atoms: C2_2  and  C19_40 
REMARK    4  A    between atoms: C4_8  and  C5_9 
REMARK    5  A    between atoms: C7_11  and  N2_12 
REMARK    6  A    between atoms: C9_17  and  N3_18 
REMARK    7  A    between atoms: C10_22  and  N4_23 
REMARK    8  A    between atoms: N4_23  and  C11_25 
REMARK    9  A    between atoms: C14_30  and  N6_31 
ROOT
HETATM    1  C5  UNL     1      -4.182   7.080  12.590  1.00  0.00     0.091 C 
HETATM    2  C6  UNL     1      -3.009   7.975  12.947  1.00  0.00     0.052 C 
HETATM    3  C7  UNL     1      -2.267   7.486  14.147  1.00  0.00     0.186 C 
HETATM    4  C8  UNL     1      -2.538   6.004  14.269  1.00  0.00     0.067 C 
HETATM    5  C9  UNL     1      -2.447   5.362  12.874  1.00  0.00     0.209 C 
HETATM    6  C10 UNL     1      -3.688   5.751  12.053  1.00  0.00     0.129 C 
ENDROOT
BRANCH   6   7
HETATM    7  N4  UNL     1      -4.736   4.774  12.234  1.00  0.00    -0.368 N 
ATOM      8  H4  UNL     1      -5.686   5.046  11.986  1.00  0.00     0.161 HD
BRANCH   7   9
HETATM    9  C11 UNL     1      -4.534   3.456  12.734  1.00  0.00     0.118 A 
HETATM   10  C12 UNL     1      -3.958   2.507  11.919  1.00  0.00     0.066 A 
HETATM   11  C13 UNL     1      -3.775   1.248  12.450  1.00  0.00     0.110 A 
HETATM   12  N5  UNL     1      -4.150   0.975  13.711  1.00  0.00    -0.202 N 
HETATM   13  C14 UNL     1      -4.714   1.893  14.515  1.00  0.00     0.681 A 
ATOM     14  H5  UNL     1      -4.001   0.033  14.072  1.00  0.00     0.183 HD
HETATM   15  N7  UNL     1      -4.887   3.115  13.989  1.00  0.00    -0.177 N 
ATOM     16  H7  UNL     1      -5.314   3.832  14.577  1.00  0.00     0.185 HD
BRANCH  13  17
HETATM   17  N6  UNL     1      -5.107   1.582  15.855  1.00  0.00    -0.212 N 
HETATM   18  C15 UNL     1      -4.925   0.316  16.528  1.00  0.00     0.147 C 
HETATM   19  C16 UNL     1      -5.966   0.267  17.620  1.00  0.00     0.101 C 
HETATM   20  C17 UNL     1      -6.756   1.555  17.529  1.00  0.00     0.261 C 
HETATM   21  F1  UNL     1      -7.048   2.014  18.777  1.00  0.00    -0.204 F 
HETATM   22  F2  UNL     1      -7.847   1.348  16.730  1.00  0.00    -0.204 F 
HETATM   23  C18 UNL     1      -5.761   2.457  16.804  1.00  0.00     0.220 C 
ENDBRANCH  13  17
ENDBRANCH   7   9
ENDBRANCH   6   7
BRANCH   1  24
HETATM   24  C4  UNL     1      -5.015   7.686  11.548  1.00  0.00    -0.097 C 
HETATM   25  C3  UNL     1      -5.714   8.178  10.696  1.00  0.00    -0.058 C 
BRANCH  25  26
HETATM   26  C2  UNL     1      -6.587   8.788   9.667  1.00  0.00     0.278 C 
HETATM   27  C1  UNL     1      -5.981   8.553   8.285  1.00  0.00     0.071 C 
BRANCH  26  28
HETATM   28  N1  UNL     1      -6.732  10.209   9.917  1.00  0.00    -0.051 N 
ATOM     29  H13 UNL     1      -5.990  10.568  10.517  1.00  0.00     0.276 HD
ATOM     30  H12 UNL     1      -6.534  10.765   9.084  1.00  0.00     0.276 HD
ATOM     31  H11 UNL     1      -7.658  10.408  10.295  1.00  0.00     0.276 HD
ENDBRANCH  26  28
BRANCH  26  32
HETATM   32  C19 UNL     1      -7.893   8.064   9.723  1.00  0.00     0.431 C 
HETATM   33  F3  UNL     1      -8.230   7.891  11.054  1.00  0.00    -0.167 F 
HETATM   34  F4  UNL     1      -7.677   6.778   9.213  1.00  0.00    -0.167 F 
HETATM   35  F5  UNL     1      -8.886   8.621   8.980  1.00  0.00    -0.167 F 
ENDBRANCH  26  32
ENDBRANCH  25  26
ENDBRANCH   1  24
BRANCH   5  36
HETATM   36  N3  UNL     1      -1.233   5.852  12.299  1.00  0.00    -0.073 N 
ATOM     37  H33 UNL     1      -0.455   5.890  12.957  1.00  0.00     0.274 HD
ATOM     38  H32 UNL     1      -0.804   5.204  11.639  1.00  0.00     0.274 HD
ATOM     39  H31 UNL     1      -1.466   6.757  11.889  1.00  0.00     0.274 HD
ENDBRANCH   5  36
BRANCH   3  40
HETATM   40  N2  UNL     1      -2.800   8.110  15.355  1.00  0.00    -0.075 N 
ATOM     41  H23 UNL     1      -2.112   8.709  15.811  1.00  0.00     0.274 HD
ATOM     42  H22 UNL     1      -3.499   8.822  15.141  1.00  0.00     0.274 HD
ATOM     43  H21 UNL     1      -3.163   7.397  15.986  1.00  0.00     0.274 HD
ENDBRANCH   3  40
TORSDOF 9
ENDMDL
MODEL 3
REMARK VINA RESULT: -7.776086631      1.168      1.452
REMARK  9 active torsions:
REMARK  status: ('A' for Active; 'I' for Inactive)
REMARK    1  A    between atoms: C2_2  and  N1_3 
REMARK    2  A    between atoms: C2_2  and  C3_7 
REMARK    3  A    between atoms: C2_2  and  C19_40 
REMARK    4  A    between atoms: C4_8  and  C5_9 
REMARK    5  A    between atoms: C7_11  and  N2_12 
REMARK    6  A    between atoms: C9_17  and  N3_18 
REMARK    7  A    between atoms: C10_22  and  N4_23 
REMARK    8  A    between atoms: N4_23  and  C11_25 
REMARK    9  A    between atoms: C14_30  and  N6_31 
ROOT
HETATM    1  C5  UNL     1      -3.997   5.523  11.301  1.00  0.00     0.091 C 
HETATM    2  C6  UNL     1      -2.775   6.380  11.573  1.00  0.00     0.052 C 
HETATM    3  C7  UNL     1      -1.865   5.767  12.586  1.00  0.00     0.186 C 
HETATM    4  C8  UNL     1      -2.131   4.279  12.585  1.00  0.00     0.067 C 
HETATM    5  C9  UNL     1      -2.258   3.794  11.130  1.00  0.00     0.209 C 
HETATM    6  C10 UNL     1      -3.604   4.263  10.553  1.00  0.00     0.129 C 
ENDROOT
BRANCH   6   7
HETATM    7  N4  UNL     1      -4.623   3.266  10.782  1.00  0.00    -0.368 N 
ATOM      8  H4  UNL     1      -5.457   3.297  10.196  1.00  0.00     0.161 HD
BRANCH   7   9
HETATM    9  C11 UNL     1      -4.545   2.243  11.769  1.00  0.00     0.118 A 
HETATM   10  C12 UNL     1      -4.148   0.978  11.397  1.00  0.00     0.066 A 
HETATM   11  C13 UNL     1      -4.079   0.022  12.388  1.00  0.00     0.110 A 
HETATM   12  N5  UNL     1      -4.391   0.329  13.659  1.00  0.00    -0.202 N 
HETATM   13  C14 UNL     1      -4.780   1.560  14.033  1.00  0.00     0.681 A 
ATOM     14  H5  UNL     1      -4.330  -0.402  14.367  1.00  0.00     0.183 HD
HETATM   15  N7  UNL     1      -4.843   2.483  13.061  1.00  0.00    -0.177 N 
ATOM     16  H7  UNL     1      -5.137   3.427  13.316  1.00  0.00     0.185 HD
BRANCH  13  17
HETATM   17  N6  UNL     1      -5.109   1.867  15.391  1.00  0.00    -0.212 N 
HETATM   18  C15 UNL     1      -4.568   1.226  16.568  1.00  0.00     0.147 C 
HETATM   19  C16 UNL     1      -5.583   1.435  17.665  1.00  0.00     0.101 C 
HETATM   20  C17 UNL     1      -6.730   2.213  17.057  1.00  0.00     0.261 C 
HETATM   21  F1  UNL     1      -7.198   3.131  17.946  1.00  0.00    -0.204 F 
HETATM   22  F2  UNL     1      -7.671   1.329  16.604  1.00  0.00    -0.204 F 
HETATM   23  C18 UNL     1      -6.038   2.870  15.866  1.00  0.00     0.220 C 
ENDBRANCH  13  17
ENDBRANCH   7   9
ENDBRANCH   6   7
BRANCH   1  24
HETATM   24  C4  UNL     1      -4.971   6.234  10.469  1.00  0.00    -0.097 C 
HETATM   25  C3  UNL     1      -5.779   6.806   9.778  1.00  0.00    -0.058 C 
BRANCH  25  26
HETATM   26  C2  UNL     1      -6.788   7.494   8.940  1.00  0.00     0.278 C 
HETATM   27  C1  UNL     1      -7.556   6.459   8.121  1.00  0.00     0.071 C 
BRANCH  26  28
HETATM   28  N1  UNL     1      -6.140   8.448   8.062  1.00  0.00    -0.051 N 
ATOM     29  H13 UNL     1      -5.208   8.699   8.394  1.00  0.00     0.276 HD
ATOM     30  H12 UNL     1      -5.874   8.028   7.171  1.00  0.00     0.276 HD
ATOM     31  H11 UNL     1      -6.732   9.269   7.934  1.00  0.00     0.276 HD
ENDBRANCH  26  28
BRANCH  26  32
HETATM   32  C19 UNL     1      -7.755   8.146   9.875  1.00  0.00     0.431 C 
HETATM   33  F3  UNL     1      -9.006   8.119   9.284  1.00  0.00    -0.167 F 
HETATM   34  F4  UNL     1      -7.402   9.498   9.961  1.00  0.00    -0.167 F 
HETATM   35  F5  UNL     1      -7.743   7.654  11.142  1.00  0.00    -0.167 F 
ENDBRANCH  26  32
ENDBRANCH  25  26
ENDBRANCH   1  24
BRANCH   5  36
HETATM   36  N3  UNL     1      -1.140   4.351  10.435  1.00  0.00    -0.073 N 
ATOM     37  H33 UNL     1      -1.033   5.356  10.572  1.00  0.00     0.274 HD
ATOM     38  H32 UNL     1      -0.238   4.078  10.827  1.00  0.00     0.274 HD
ATOM     39  H31 UNL     1      -1.258   4.084   9.458  1.00  0.00     0.274 HD
ENDBRANCH   5  36
BRANCH   3  40
HETATM   40  N2  UNL     1      -2.204   6.252  13.921  1.00  0.00    -0.075 N 
ATOM     41  H23 UNL     1      -3.123   6.694  13.945  1.00  0.00     0.274 HD
ATOM     42  H22 UNL     1      -2.389   5.486  14.570  1.00  0.00     0.274 HD
ATOM     43  H21 UNL     1      -1.473   6.874  14.263  1.00  0.00     0.274 HD
ENDBRANCH   3  40
TORSDOF 9
ENDMDL
MODEL 4
REMARK VINA RESULT: -7.726577770      1.738      1.959
REMARK  9 active torsions:
REMARK  status: ('A' for Active; 'I' for Inactive)
REMARK    1  A    between atoms: C2_2  and  N1_3 
REMARK    2  A    between atoms: C2_2  and  C3_7 
REMARK    3  A    between atoms: C2_2  and  C19_40 
REMARK    4  A    between atoms: C4_8  and  C5_9 
REMARK    5  A    between atoms: C7_11  and  N2_12 
REMARK    6  A    between atoms: C9_17  and  N3_18 
REMARK    7  A    between atoms: C10_22  and  N4_23 
REMARK    8  A    between atoms: N4_23  and  C11_25 
REMARK    9  A    between atoms: C14_30  and  N6_31 
ROOT
HETATM    1  C5  UNL     1      -4.136   5.449  10.892  1.00  0.00     0.091 C 
HETATM    2  C6  UNL     1      -2.960   6.376  11.138  1.00  0.00     0.052 C 
HETATM    3  C7  UNL     1      -2.179   5.992  12.351  1.00  0.00     0.186 C 
HETATM    4  C8  UNL     1      -2.435   4.523  12.603  1.00  0.00     0.067 C 
HETATM    5  C9  UNL     1      -2.381   3.769  11.263  1.00  0.00     0.209 C 
HETATM    6  C10 UNL     1      -3.649   4.083  10.451  1.00  0.00     0.129 C 
ENDROOT
BRANCH   6   7
HETATM    7  N4  UNL     1      -4.684   3.119  10.744  1.00  0.00    -0.368 N 
ATOM      8  H4  UNL     1      -5.542   3.162  10.195  1.00  0.00     0.161 HD
BRANCH   7   9
HETATM    9  C11 UNL     1      -4.590   2.112  11.745  1.00  0.00     0.118 A 
HETATM   10  C12 UNL     1      -4.199   0.841  11.388  1.00  0.00     0.066 A 
HETATM   11  C13 UNL     1      -4.114  -0.099  12.393  1.00  0.00     0.110 A 
HETATM   12  N5  UNL     1      -4.405   0.228  13.663  1.00  0.00    -0.202 N 
HETATM   13  C14 UNL     1      -4.788   1.465  14.024  1.00  0.00     0.681 A 
ATOM     14  H5  UNL     1      -4.333  -0.491  14.382  1.00  0.00     0.183 HD
HETATM   15  N7  UNL     1      -4.867   2.372  13.038  1.00  0.00    -0.177 N 
ATOM     16  H7  UNL     1      -5.156   3.320  13.283  1.00  0.00     0.185 HD
BRANCH  13  17
HETATM   17  N6  UNL     1      -5.095   1.794  15.382  1.00  0.00    -0.212 N 
HETATM   18  C15 UNL     1      -4.560   1.149  16.560  1.00  0.00     0.147 C 
HETATM   19  C16 UNL     1      -5.559   1.397  17.664  1.00  0.00     0.101 C 
HETATM   20  C17 UNL     1      -6.690   2.201  17.059  1.00  0.00     0.261 C 
HETATM   21  F1  UNL     1      -7.123   3.140  17.945  1.00  0.00    -0.204 F 
HETATM   22  F2  UNL     1      -7.659   1.339  16.624  1.00  0.00    -0.204 F 
HETATM   23  C18 UNL     1      -5.991   2.827  15.855  1.00  0.00     0.220 C 
ENDBRANCH  13  17
ENDBRANCH   7   9
ENDBRANCH   6   7
BRANCH   1  24
HETATM   24  C4  UNL     1      -5.005   5.963   9.829  1.00  0.00    -0.097 C 
HETATM   25  C3  UNL     1      -5.733   6.378   8.961  1.00  0.00    -0.058 C 
BRANCH  25  26
HETATM   26  C2  UNL     1      -6.641   6.896   7.912  1.00  0.00     0.278 C 
HETATM   27  C1  UNL     1      -8.027   7.123   8.511  1.00  0.00     0.071 C 
BRANCH  26  28
HETATM   28  N1  UNL     1      -6.718   5.955   6.811  1.00  0.00    -0.051 N 
ATOM     29  H13 UNL     1      -5.821   5.849   6.338  1.00  0.00     0.276 HD
ATOM     30  H12 UNL     1      -6.832   4.995   7.137  1.00  0.00     0.276 HD
ATOM     31  H11 UNL     1      -7.459   6.228   6.165  1.00  0.00     0.276 HD
ENDBRANCH  26  28
BRANCH  26  32
HETATM   32  C19 UNL     1      -6.102   8.224   7.489  1.00  0.00     0.431 C 
HETATM   33  F3  UNL     1      -7.146   8.958   6.953  1.00  0.00    -0.167 F 
HETATM   34  F4  UNL     1      -5.214   7.995   6.432  1.00  0.00    -0.167 F 
HETATM   35  F5  UNL     1      -5.409   8.889   8.450  1.00  0.00    -0.167 F 
ENDBRANCH  26  32
ENDBRANCH  25  26
ENDBRANCH   1  24
BRANCH   5  36
HETATM   36  N3  UNL     1      -1.189   4.215  10.613  1.00  0.00    -0.073 N 
ATOM     37  H33 UNL     1      -1.202   4.085   9.601  1.00  0.00     0.274 HD
ATOM     38  H32 UNL     1      -1.085   5.230  10.604  1.00  0.00     0.274 HD
ATOM     39  H31 UNL     1      -0.421   3.730  11.076  1.00  0.00     0.274 HD
ENDBRANCH   5  36
BRANCH   3  40
HETATM   40  N2  UNL     1      -2.680   6.711  13.519  1.00  0.00    -0.075 N 
ATOM     41  H23 UNL     1      -2.795   7.707  13.334  1.00  0.00     0.274 HD
ATOM     42  H22 UNL     1      -3.654   6.483  13.719  1.00  0.00     0.274 HD
ATOM     43  H21 UNL     1      -2.076   6.539  14.321  1.00  0.00     0.274 HD
ENDBRANCH   3  40
TORSDOF 9
ENDMDL
MODEL 5
REMARK VINA RESULT: -7.687170648      1.729      2.224
REMARK  9 active torsions:
REMARK  status: ('A' for Active; 'I' for Inactive)
REMARK    1  A    between atoms: C2_2  and  N1_3 
REMARK    2  A    between atoms: C2_2  and  C3_7 
REMARK    3  A    between atoms: C2_2  and  C19_40 
REMARK    4  A    between atoms: C4_8  and  C5_9 
REMARK    5  A    between atoms: C7_11  and  N2_12 
REMARK    6  A    between atoms: C9_17  and  N3_18 
REMARK    7  A    between atoms: C10_22  and  N4_23 
REMARK    8  A    between atoms: N4_23  and  C11_25 
REMARK    9  A    between atoms: C14_30  and  N6_31 
ROOT
HETATM    1  C5  UNL     1      -4.174   7.358  11.227  1.00  0.00     0.091 C 
HETATM    2  C6  UNL     1      -2.991   8.201  10.789  1.00  0.00     0.052 C 
HETATM    3  C7  UNL     1      -1.955   8.324  11.858  1.00  0.00     0.186 C 
HETATM    4  C8  UNL     1      -2.123   7.139  12.783  1.00  0.00     0.067 C 
HETATM    5  C9  UNL     1      -2.349   5.873  11.938  1.00  0.00     0.209 C 
HETATM    6  C10 UNL     1      -3.770   5.901  11.350  1.00  0.00     0.129 C 
ENDROOT
BRANCH   6   7
HETATM    7  N4  UNL     1      -4.697   5.249  12.244  1.00  0.00    -0.368 N 
ATOM      8  H4  UNL     1      -5.455   5.810  12.633  1.00  0.00     0.161 HD
BRANCH   7   9
HETATM    9  C11 UNL     1      -4.627   3.879  12.622  1.00  0.00     0.118 A 
HETATM   10  C12 UNL     1      -4.262   2.939  11.683  1.00  0.00     0.066 A 
HETATM   11  C13 UNL     1      -4.200   1.626  12.097  1.00  0.00     0.110 A 
HETATM   12  N5  UNL     1      -4.487   1.293  13.367  1.00  0.00    -0.202 N 
HETATM   13  C14 UNL     1      -4.844   2.201  14.291  1.00  0.00     0.681 A 
ATOM     14  H5  UNL     1      -4.431   0.312  13.640  1.00  0.00     0.183 HD
HETATM   15  N7  UNL     1      -4.901   3.477  13.878  1.00  0.00    -0.177 N 
ATOM     16  H7  UNL     1      -5.171   4.188  14.559  1.00  0.00     0.185 HD
BRANCH  13  17
HETATM   17  N6  UNL     1      -5.146   1.827  15.639  1.00  0.00    -0.212 N 
HETATM   18  C15 UNL     1      -4.797   0.579  16.279  1.00  0.00     0.147 C 
HETATM   19  C16 UNL     1      -5.782   0.396  17.408  1.00  0.00     0.101 C 
HETATM   20  C17 UNL     1      -6.714   1.589  17.374  1.00  0.00     0.261 C 
HETATM   21  F1  UNL     1      -7.005   1.993  18.641  1.00  0.00    -0.204 F 
HETATM   22  F2  UNL     1      -7.805   1.273  16.612  1.00  0.00    -0.204 F 
HETATM   23  C18 UNL     1      -5.855   2.608  16.630  1.00  0.00     0.220 C 
ENDBRANCH  13  17
ENDBRANCH   7   9
ENDBRANCH   6   7
BRANCH   1  24
HETATM   24  C4  UNL     1      -5.264   7.423  10.249  1.00  0.00    -0.097 C 
HETATM   25  C3  UNL     1      -6.172   7.477   9.455  1.00  0.00    -0.058 C 
BRANCH  25  26
HETATM   26  C2  UNL     1      -7.296   7.560   8.495  1.00  0.00     0.278 C 
HETATM   27  C1  UNL     1      -7.791   6.152   8.172  1.00  0.00     0.071 C 
BRANCH  26  28
HETATM   28  N1  UNL     1      -6.868   8.232   7.284  1.00  0.00    -0.051 N 
ATOM     29  H13 UNL     1      -7.294   9.154   7.189  1.00  0.00     0.276 HD
ATOM     30  H12 UNL     1      -5.891   8.523   7.334  1.00  0.00     0.276 HD
ATOM     31  H11 UNL     1      -7.048   7.643   6.471  1.00  0.00     0.276 HD
ENDBRANCH  26  28
BRANCH  26  32
HETATM   32  C19 UNL     1      -8.404   8.286   9.188  1.00  0.00     0.431 C 
HETATM   33  F3  UNL     1      -8.112   9.639   9.160  1.00  0.00    -0.167 F 
HETATM   34  F4  UNL     1      -8.364   7.914  10.537  1.00  0.00    -0.167 F 
HETATM   35  F5  UNL     1      -9.650   7.991   8.733  1.00  0.00    -0.167 F 
ENDBRANCH  26  32
ENDBRANCH  25  26
ENDBRANCH   1  24
BRANCH   5  36
HETATM   36  N3  UNL     1      -1.337   5.892  10.929  1.00  0.00    -0.073 N 
ATOM     37  H33 UNL     1      -0.849   6.785  10.856  1.00  0.00     0.274 HD
ATOM     38  H32 UNL     1      -0.521   5.325  11.158  1.00  0.00     0.274 HD
ATOM     39  H31 UNL     1      -1.800   5.610  10.065  1.00  0.00     0.274 HD
ENDBRANCH   5  36
BRANCH   3  40
HETATM   40  N2  UNL     1      -2.202   9.518  12.660  1.00  0.00    -0.075 N 
ATOM     41  H23 UNL     1      -2.407  10.332  12.080  1.00  0.00     0.274 HD
ATOM     42  H22 UNL     1      -3.089   9.466  13.162  1.00  0.00     0.274 HD
ATOM     43  H21 UNL     1      -1.418   9.686  13.289  1.00  0.00     0.274 HD
ENDBRANCH   3  40
TORSDOF 9
ENDMDL
