MODEL 1
REMARK VINA RESULT: -7.836920628      0.000      0.000
REMARK  6 active torsions:
REMARK  status: ('A' for Active; 'I' for Inactive)
REMARK    1  A    between atoms: C7_11  and  O1_12 
REMARK    2  A    between atoms: N1_15  and  N2_17 
REMARK    3  A    between atoms: N2_17  and  C9_19 
REMARK    4  A    between atoms: C9_19  and  C10_20 
REMARK    5  A    between atoms: C15_27  and  O2_29 
REMARK    6  A    between atoms: C17_31  and  O3_32 
ROOT
HETATM    1  C1  UNL     1      -6.472   6.135  13.839  1.00  0.00     0.012 C 
HETATM    2  C2  UNL     1      -5.047   6.443  13.921  1.00  0.00     0.016 C 
HETATM    3  C3  UNL     1      -4.463   5.698  15.130  1.00  0.00     0.087 C 
HETATM    4  C4  UNL     1      -4.201   4.330  14.504  1.00  0.00     0.272 C 
HETATM    5  F1  UNL     1      -3.287   3.703  15.332  1.00  0.00    -0.204 F 
HETATM    6  F2  UNL     1      -5.337   3.600  14.505  1.00  0.00    -0.204 F 
HETATM    7  C5  UNL     1      -3.646   4.642  13.143  1.00  0.00     0.190 C 
HETATM    8 CL1  UNL     1      -1.851   4.564  13.354  1.00  0.00    -0.104 Cl
HETATM    9  C6  UNL     1      -4.130   6.003  12.830  1.00  0.00     0.104 C 
HETATM   10 CL2  UNL     1      -2.693   7.094  13.057  1.00  0.00    -0.113 Cl
HETATM   11  C7  UNL     1      -4.599   6.256  11.447  1.00  0.00     0.194 C 
HETATM   12  C8  UNL     1      -4.191   5.239  10.453  1.00  0.00     0.073 C 
HETATM   13  N1  UNL     1      -4.412   5.523   9.205  1.00  0.00    -0.307 N 
ATOM     14  H1  UNL     1      -4.140   4.840   8.499  1.00  0.00     0.186 HD
HETATM   15  C15 UNL     1      -3.567   3.958  10.761  1.00  0.00     0.159 C 
HETATM   16  C16 UNL     1      -2.065   3.953  10.538  1.00  0.00     0.059 C 
HETATM   17  C17 UNL     1      -3.954   3.571  12.150  1.00  0.00     0.268 C 
HETATM   18  F3  UNL     1      -3.135   2.479  12.492  1.00  0.00    -0.205 F 
ENDROOT
BRANCH  11  19
HETATM   19  O1  UNL     1      -5.991   6.388  11.318  1.00  0.00    -0.388 OA
ATOM     20  H1  UNL     1      -6.270   7.145  10.815  1.00  0.00     0.210 HD
ENDBRANCH  11  19
BRANCH  13  21
HETATM   21  N2  UNL     1      -5.003   6.716   8.777  1.00  0.00    -0.331 N 
ATOM     22  H2  UNL     1      -4.782   7.579   9.273  1.00  0.00     0.180 HD
BRANCH  21  23
HETATM   23  C9  UNL     1      -5.917   6.772   7.657  1.00  0.00     0.196 C 
BRANCH  23  24
HETATM   24  C10 UNL     1      -7.077   7.626   7.839  1.00  0.00     0.028 A 
HETATM   25  C11 UNL     1      -8.122   7.276   8.641  1.00  0.00     0.027 A 
HETATM   26  C12 UNL     1      -9.224   8.129   8.782  1.00  0.00     0.003 A 
HETATM   27  C13 UNL     1      -9.240   9.326   8.102  1.00  0.00     0.017 A 
HETATM   28  C14 UNL     1      -8.152   9.635   7.299  1.00  0.00     0.088 A 
HETATM   29  N3  UNL     1      -7.116   8.808   7.180  1.00  0.00    -0.368 N 
ATOM     30  H3  UNL     1      -6.334   9.070   6.579  1.00  0.00     0.165 HD
ENDBRANCH  23  24
ENDBRANCH  21  23
ENDBRANCH  13  21
BRANCH  15  31
HETATM   31  O2  UNL     1      -4.138   2.996   9.895  1.00  0.00    -0.378 OA
ATOM     32  H2  UNL     1      -3.684   2.176  10.049  1.00  0.00     0.211 HD
ENDBRANCH  15  31
BRANCH  17  33
HETATM   33  O3  UNL     1      -5.236   3.100  12.159  1.00  0.00    -0.357 OA
ATOM     34  H3  UNL     1      -5.793   3.399  11.450  1.00  0.00     0.213 HD
ENDBRANCH  17  33
TORSDOF 6
ENDMDL
MODEL 2
REMARK VINA RESULT: -7.402866280      4.943      6.826
REMARK  6 active torsions:
REMARK  status: ('A' for Active; 'I' for Inactive)
REMARK    1  A    between atoms: C7_11  and  O1_12 
REMARK    2  A    between atoms: N1_15  and  N2_17 
REMARK    3  A    between atoms: N2_17  and  C9_19 
REMARK    4  A    between atoms: C9_19  and  C10_20 
REMARK    5  A    between atoms: C15_27  and  O2_29 
REMARK    6  A    between atoms: C17_31  and  O3_32 
ROOT
HETATM    1  C1  UNL     1      -2.059   7.862  14.975  1.00  0.00     0.012 C 
HETATM    2  C2  UNL     1      -2.806   7.984  13.726  1.00  0.00     0.016 C 
HETATM    3  C3  UNL     1      -2.119   9.045  12.855  1.00  0.00     0.087 C 
HETATM    4  C4  UNL     1      -1.031   8.195  12.202  1.00  0.00     0.272 C 
HETATM    5  F1  UNL     1      -0.622   8.898  11.083  1.00  0.00    -0.204 F 
HETATM    6  F2  UNL     1       0.026   8.082  13.035  1.00  0.00    -0.204 F 
HETATM    7  C5  UNL     1      -1.718   6.901  11.867  1.00  0.00     0.190 C 
HETATM    8 CL1  UNL     1      -2.209   7.082  10.134  1.00  0.00    -0.104 Cl
HETATM    9  C6  UNL     1      -2.872   6.826  12.787  1.00  0.00     0.104 C 
HETATM   10 CL2  UNL     1      -4.329   7.222  11.774  1.00  0.00    -0.113 Cl
HETATM   11  C7  UNL     1      -3.167   5.509  13.400  1.00  0.00     0.194 C 
HETATM   12  C8  UNL     1      -2.512   4.355  12.747  1.00  0.00     0.073 C 
HETATM   13  N1  UNL     1      -2.898   3.175  13.127  1.00  0.00    -0.307 N 
ATOM     14  H1  UNL     1      -2.463   2.361  12.692  1.00  0.00     0.186 HD
HETATM   15  C15 UNL     1      -1.480   4.438  11.721  1.00  0.00     0.159 C 
HETATM   16  C16 UNL     1      -2.009   4.205  10.316  1.00  0.00     0.059 C 
HETATM   17  C17 UNL     1      -0.774   5.745  11.871  1.00  0.00     0.268 C 
HETATM   18  F3  UNL     1       0.023   5.891  10.721  1.00  0.00    -0.205 F 
ENDROOT
BRANCH  11  19
HETATM   19  O1  UNL     1      -2.849   5.416  14.764  1.00  0.00    -0.388 OA
ATOM     20  H1  UNL     1      -3.524   5.018  15.301  1.00  0.00     0.210 HD
ENDBRANCH  11  19
BRANCH  13  21
HETATM   21  N2  UNL     1      -3.878   2.959  14.101  1.00  0.00    -0.331 N 
ATOM     22  H2  UNL     1      -4.325   3.766  14.535  1.00  0.00     0.180 HD
BRANCH  21  23
HETATM   23  C9  UNL     1      -4.283   1.633  14.515  1.00  0.00     0.196 C 
BRANCH  23  24
HETATM   24  C10 UNL     1      -5.181   1.581  15.655  1.00  0.00     0.028 A 
HETATM   25  C11 UNL     1      -6.068   2.578  15.930  1.00  0.00     0.027 A 
HETATM   26  C12 UNL     1      -6.913   2.489  17.045  1.00  0.00     0.003 A 
HETATM   27  C13 UNL     1      -6.836   1.382  17.859  1.00  0.00     0.017 A 
HETATM   28  C14 UNL     1      -5.916   0.395  17.535  1.00  0.00     0.088 A 
HETATM   29  N3  UNL     1      -5.124   0.502  16.471  1.00  0.00    -0.368 N 
ATOM     30  H3  UNL     1      -4.459  -0.244  16.266  1.00  0.00     0.165 HD
ENDBRANCH  23  24
ENDBRANCH  21  23
ENDBRANCH  13  21
BRANCH  15  31
HETATM   31  O2  UNL     1      -0.531   3.427  12.000  1.00  0.00    -0.378 OA
ATOM     32  H2  UNL     1      -0.244   3.552  12.897  1.00  0.00     0.211 HD
ENDBRANCH  15  31
BRANCH  17  33
HETATM   33  O3  UNL     1       0.091   5.685  12.926  1.00  0.00    -0.357 OA
ATOM     34  H3  UNL     1       0.159   4.843  13.359  1.00  0.00     0.213 HD
ENDBRANCH  17  33
TORSDOF 6
ENDMDL
MODEL 3
REMARK VINA RESULT: -7.356544602      1.245      1.506
REMARK  6 active torsions:
REMARK  status: ('A' for Active; 'I' for Inactive)
REMARK    1  A    between atoms: C7_11  and  O1_12 
REMARK    2  A    between atoms: N1_15  and  N2_17 
REMARK    3  A    between atoms: N2_17  and  C9_19 
REMARK    4  A    between atoms: C9_19  and  C10_20 
REMARK    5  A    between atoms: C15_27  and  O2_29 
REMARK    6  A    between atoms: C17_31  and  O3_32 
ROOT
HETATM    1  C1  UNL     1      -7.137   6.026  13.556  1.00  0.00     0.012 C 
HETATM    2  C2  UNL     1      -5.859   6.185  14.244  1.00  0.00     0.016 C 
HETATM    3  C3  UNL     1      -5.841   5.236  15.451  1.00  0.00     0.087 C 
HETATM    4  C4  UNL     1      -5.393   3.943  14.772  1.00  0.00     0.272 C 
HETATM    5  F1  UNL     1      -4.915   3.130  15.784  1.00  0.00    -0.204 F 
HETATM    6  F2  UNL     1      -6.455   3.329  14.207  1.00  0.00    -0.204 F 
HETATM    7  C5  UNL     1      -4.323   4.377  13.811  1.00  0.00     0.190 C 
HETATM    8 CL1  UNL     1      -2.772   4.103  14.701  1.00  0.00    -0.104 Cl
HETATM    9  C6  UNL     1      -4.593   5.807  13.551  1.00  0.00     0.104 C 
HETATM   10 CL2  UNL     1      -3.337   6.719  14.499  1.00  0.00    -0.113 Cl
HETATM   11  C7  UNL     1      -4.452   6.283  12.154  1.00  0.00     0.194 C 
HETATM   12  C8  UNL     1      -3.709   5.371  11.256  1.00  0.00     0.073 C 
HETATM   13  N1  UNL     1      -3.395   5.837  10.085  1.00  0.00    -0.307 N 
ATOM     14  H1  UNL     1      -2.883   5.229   9.446  1.00  0.00     0.186 HD
HETATM   15  C15 UNL     1      -3.307   4.008  11.580  1.00  0.00     0.159 C 
HETATM   16  C16 UNL     1      -1.845   3.891  11.973  1.00  0.00     0.059 C 
HETATM   17  C17 UNL     1      -4.237   3.480  12.621  1.00  0.00     0.268 C 
HETATM   18  F3  UNL     1      -3.664   2.280  13.082  1.00  0.00    -0.205 F 
ENDROOT
BRANCH  11  19
HETATM   19  O1  UNL     1      -5.666   6.561  11.508  1.00  0.00    -0.388 OA
ATOM     20  H1  UNL     1      -5.682   7.388  11.039  1.00  0.00     0.210 HD
ENDBRANCH  11  19
BRANCH  13  21
HETATM   21  N2  UNL     1      -3.722   7.125   9.652  1.00  0.00    -0.331 N 
ATOM     22  H2  UNL     1      -3.498   7.917  10.255  1.00  0.00     0.180 HD
BRANCH  21  23
HETATM   23  C9  UNL     1      -4.365   7.379   8.381  1.00  0.00     0.196 C 
BRANCH  23  24
HETATM   24  C10 UNL     1      -5.813   7.483   8.424  1.00  0.00     0.028 A 
HETATM   25  C11 UNL     1      -6.456   8.678   8.540  1.00  0.00     0.027 A 
HETATM   26  C12 UNL     1      -7.855   8.731   8.583  1.00  0.00     0.003 A 
HETATM   27  C13 UNL     1      -8.574   7.559   8.507  1.00  0.00     0.017 A 
HETATM   28  C14 UNL     1      -7.872   6.368   8.390  1.00  0.00     0.088 A 
HETATM   29  N3  UNL     1      -6.542   6.344   8.352  1.00  0.00    -0.368 N 
ATOM     30  H3  UNL     1      -6.061   5.448   8.266  1.00  0.00     0.165 HD
ENDBRANCH  23  24
ENDBRANCH  21  23
ENDBRANCH  13  21
BRANCH  15  31
HETATM   31  O2  UNL     1      -3.508   3.226  10.418  1.00  0.00    -0.378 OA
ATOM     32  H2  UNL     1      -2.985   3.613   9.726  1.00  0.00     0.211 HD
ENDBRANCH  15  31
BRANCH  17  33
HETATM   33  O3  UNL     1      -5.427   3.135  12.047  1.00  0.00    -0.357 OA
ATOM     34  H3  UNL     1      -5.595   3.502  11.187  1.00  0.00     0.213 HD
ENDBRANCH  17  33
TORSDOF 6
ENDMDL
MODEL 4
REMARK VINA RESULT: -7.310988494      4.011      7.043
REMARK  6 active torsions:
REMARK  status: ('A' for Active; 'I' for Inactive)
REMARK    1  A    between atoms: C7_11  and  O1_12 
REMARK    2  A    between atoms: N1_15  and  N2_17 
REMARK    3  A    between atoms: N2_17  and  C9_19 
REMARK    4  A    between atoms: C9_19  and  C10_20 
REMARK    5  A    between atoms: C15_27  and  O2_29 
REMARK    6  A    between atoms: C17_31  and  O3_32 
ROOT
HETATM    1  C1  UNL     1       0.649   3.778  11.155  1.00  0.00     0.012 C 
HETATM    2  C2  UNL     1       0.226   5.119  11.549  1.00  0.00     0.016 C 
HETATM    3  C3  UNL     1       0.623   6.096  10.434  1.00  0.00     0.087 C 
HETATM    4  C4  UNL     1      -0.564   5.925   9.489  1.00  0.00     0.272 C 
HETATM    5  F1  UNL     1      -0.563   7.043   8.674  1.00  0.00    -0.204 F 
HETATM    6  F2  UNL     1      -0.377   4.838   8.709  1.00  0.00    -0.204 F 
HETATM    7  C5  UNL     1      -1.759   5.858  10.397  1.00  0.00     0.190 C 
HETATM    8 CL1  UNL     1      -2.402   7.549  10.428  1.00  0.00    -0.104 Cl
HETATM    9  C6  UNL     1      -1.227   5.421  11.705  1.00  0.00     0.104 C 
HETATM   10 CL2  UNL     1      -1.211   6.911  12.747  1.00  0.00    -0.113 Cl
HETATM   11  C7  UNL     1      -2.020   4.422  12.461  1.00  0.00     0.194 C 
HETATM   12  C8  UNL     1      -3.416   4.256  12.002  1.00  0.00     0.073 C 
HETATM   13  N1  UNL     1      -4.196   3.542  12.756  1.00  0.00    -0.307 N 
ATOM     14  H1  UNL     1      -5.164   3.411  12.463  1.00  0.00     0.186 HD
HETATM   15  C15 UNL     1      -3.979   4.824  10.783  1.00  0.00     0.159 C 
HETATM   16  C16 UNL     1      -4.811   6.071  11.030  1.00  0.00     0.059 C 
HETATM   17  C17 UNL     1      -2.866   5.046   9.812  1.00  0.00     0.268 C 
HETATM   18  F3  UNL     1      -3.408   5.822   8.771  1.00  0.00    -0.205 F 
ENDROOT
BRANCH  11  19
HETATM   19  O1  UNL     1      -1.463   3.134  12.487  1.00  0.00    -0.388 OA
ATOM     20  H1  UNL     1      -1.413   2.744  13.352  1.00  0.00     0.210 HD
ENDBRANCH  11  19
BRANCH  13  21
HETATM   21  N2  UNL     1      -3.780   2.942  13.949  1.00  0.00    -0.331 N 
ATOM     22  H2  UNL     1      -3.126   3.444  14.548  1.00  0.00     0.180 HD
BRANCH  21  23
HETATM   23  C9  UNL     1      -4.243   1.636  14.364  1.00  0.00     0.196 C 
BRANCH  23  24
HETATM   24  C10 UNL     1      -5.111   1.621  15.529  1.00  0.00     0.028 A 
HETATM   25  C11 UNL     1      -5.980   2.634  15.803  1.00  0.00     0.027 A 
HETATM   26  C12 UNL     1      -6.794   2.581  16.942  1.00  0.00     0.003 A 
HETATM   27  C13 UNL     1      -6.706   1.493  17.781  1.00  0.00     0.017 A 
HETATM   28  C14 UNL     1      -5.805   0.489  17.456  1.00  0.00     0.088 A 
HETATM   29  N3  UNL     1      -5.041   0.562  16.369  1.00  0.00    -0.368 N 
ATOM     30  H3  UNL     1      -4.390  -0.196  16.164  1.00  0.00     0.165 HD
ENDBRANCH  23  24
ENDBRANCH  21  23
ENDBRANCH  13  21
BRANCH  15  31
HETATM   31  O2  UNL     1      -4.826   3.843  10.217  1.00  0.00    -0.378 OA
ATOM     32  H2  UNL     1      -4.292   3.313   9.636  1.00  0.00     0.211 HD
ENDBRANCH  15  31
BRANCH  17  33
HETATM   33  O3  UNL     1      -2.501   3.857   9.249  1.00  0.00    -0.357 OA
ATOM     34  H3  UNL     1      -3.165   3.424   8.726  1.00  0.00     0.213 HD
ENDBRANCH  17  33
TORSDOF 6
ENDMDL
MODEL 5
REMARK VINA RESULT: -7.232833782      3.979      6.747
REMARK  6 active torsions:
REMARK  status: ('A' for Active; 'I' for Inactive)
REMARK    1  A    between atoms: C7_11  and  O1_12 
REMARK    2  A    between atoms: N1_15  and  N2_17 
REMARK    3  A    between atoms: N2_17  and  C9_19 
REMARK    4  A    between atoms: C9_19  and  C10_20 
REMARK    5  A    between atoms: C15_27  and  O2_29 
REMARK    6  A    between atoms: C17_31  and  O3_32 
ROOT
HETATM    1  C1  UNL     1      -5.833   7.164  12.166  1.00  0.00     0.012 C 
HETATM    2  C2  UNL     1      -5.189   6.632  10.969  1.00  0.00     0.016 C 
HETATM    3  C3  UNL     1      -4.502   7.792  10.235  1.00  0.00     0.087 C 
HETATM    4  C4  UNL     1      -3.182   7.853  11.001  1.00  0.00     0.272 C 
HETATM    5  F1  UNL     1      -2.302   8.541  10.185  1.00  0.00    -0.204 F 
HETATM    6  F2  UNL     1      -3.343   8.564  12.138  1.00  0.00    -0.204 F 
HETATM    7  C5  UNL     1      -2.798   6.413  11.200  1.00  0.00     0.190 C 
HETATM    8 CL1  UNL     1      -1.657   6.054   9.843  1.00  0.00    -0.104 Cl
HETATM    9  C6  UNL     1      -4.066   5.659  11.102  1.00  0.00     0.104 C 
HETATM   10 CL2  UNL     1      -4.034   4.865   9.466  1.00  0.00    -0.113 Cl
HETATM   11  C7  UNL     1      -4.275   4.555  12.069  1.00  0.00     0.194 C 
HETATM   12  C8  UNL     1      -3.055   4.099  12.771  1.00  0.00     0.073 C 
HETATM   13  N1  UNL     1      -3.160   3.012  13.474  1.00  0.00    -0.307 N 
ATOM     14  H1  UNL     1      -2.334   2.676  13.968  1.00  0.00     0.186 HD
HETATM   15  C15 UNL     1      -1.760   4.768  12.736  1.00  0.00     0.159 C 
HETATM   16  C16 UNL     1      -0.771   4.111  11.789  1.00  0.00     0.059 C 
HETATM   17  C17 UNL     1      -1.987   6.213  12.437  1.00  0.00     0.268 C 
HETATM   18  F3  UNL     1      -0.719   6.756  12.159  1.00  0.00    -0.205 F 
ENDROOT
BRANCH  11  19
HETATM   19  O1  UNL     1      -5.221   4.827  13.069  1.00  0.00    -0.388 OA
ATOM     20  H1  UNL     1      -5.027   5.594  13.597  1.00  0.00     0.210 HD
ENDBRANCH  11  19
BRANCH  13  21
HETATM   21  N2  UNL     1      -4.344   2.278  13.590  1.00  0.00    -0.331 N 
ATOM     22  H2  UNL     1      -5.150   2.554  13.029  1.00  0.00     0.180 HD
BRANCH  21  23
HETATM   23  C9  UNL     1      -4.469   1.140  14.475  1.00  0.00     0.196 C 
BRANCH  23  24
HETATM   24  C10 UNL     1      -5.247   1.369  15.680  1.00  0.00     0.028 A 
HETATM   25  C11 UNL     1      -5.991   2.495  15.866  1.00  0.00     0.027 A 
HETATM   26  C12 UNL     1      -6.721   2.676  17.048  1.00  0.00     0.003 A 
HETATM   27  C13 UNL     1      -6.679   1.702  18.020  1.00  0.00     0.017 A 
HETATM   28  C14 UNL     1      -5.906   0.575  17.782  1.00  0.00     0.088 A 
HETATM   29  N3  UNL     1      -5.221   0.425  16.651  1.00  0.00    -0.368 N 
ATOM     30  H3  UNL     1      -4.664  -0.418  16.513  1.00  0.00     0.165 HD
ENDBRANCH  23  24
ENDBRANCH  21  23
ENDBRANCH  13  21
BRANCH  15  31
HETATM   31  O2  UNL     1      -1.220   4.701  14.042  1.00  0.00    -0.378 OA
ATOM     32  H2  UNL     1      -0.285   4.848  13.966  1.00  0.00     0.211 HD
ENDBRANCH  15  31
BRANCH  17  33
HETATM   33  O3  UNL     1      -2.437   6.852  13.556  1.00  0.00    -0.357 OA
ATOM     34  H3  UNL     1      -2.093   6.534  14.382  1.00  0.00     0.213 HD
ENDBRANCH  17  33
TORSDOF 6
ENDMDL
