MODEL 1
REMARK VINA RESULT: -8.502118788      0.000      0.000
REMARK  8 active torsions:
REMARK  status: ('A' for Active; 'I' for Inactive)
REMARK    1  A    between atoms: C2_2  and  C3_3 
REMARK    2  A    between atoms: C3_3  and  N1_4 
REMARK    3  A    between atoms: N1_4  and  C4_6 
REMARK    4  A    between atoms: C4_6  and  C6_8 
REMARK    5  A    between atoms: C6_8  and  N2_9 
REMARK    6  A    between atoms: N2_9  and  C7_11 
REMARK    7  A    between atoms: C8_14  and  C9_15 
REMARK    8  A    between atoms: C12_18  and  C13_19 
ROOT
HETATM    1  C7  UNL     1      14.338  10.308  13.679  1.00  0.00     0.117 A 
HETATM    2  N3  UNL     1      14.835   9.049  13.513  1.00  0.00    -0.331 N 
ATOM      3  H3  UNL     1      15.276   8.823  12.622  1.00  0.00     0.168 HD
HETATM    4  C8  UNL     1      14.779   8.092  14.446  1.00  0.00     0.092 A 
HETATM    5  N4  UNL     1      14.181   8.433  15.617  1.00  0.00    -0.331 N 
ATOM      6  H4  UNL     1      14.119   7.725  16.349  1.00  0.00     0.168 HD
HETATM    7  C18 UNL     1      13.671   9.636  15.862  1.00  0.00     0.121 A 
HETATM    8  N5  UNL     1      13.041  10.198  16.913  1.00  0.00    -0.351 N 
ATOM      9  H5  UNL     1      12.840   9.719  17.791  1.00  0.00     0.166 HD
HETATM   10  C19 UNL     1      12.717  11.467  16.650  1.00  0.00     0.097 A 
HETATM   11  C20 UNL     1      13.152  11.767  15.359  1.00  0.00    -0.029 A 
HETATM   12  C21 UNL     1      12.979  13.079  14.758  1.00  0.00     0.050 C 
HETATM   13  C22 UNL     1      13.736  10.625  14.890  1.00  0.00     0.059 A 
ENDROOT
BRANCH   4  14
HETATM   14  C9  UNL     1      15.279   6.719  14.355  1.00  0.00     0.016 C 
HETATM   15  C10 UNL     1      15.006   6.029  15.673  1.00  0.00     0.023 C 
HETATM   16  C11 UNL     1      14.893   5.937  13.160  1.00  0.00     0.031 C 
HETATM   17  C12 UNL     1      15.975   4.851  13.112  1.00  0.00     0.102 C 
HETATM   18  C14 UNL     1      17.215   5.606  13.349  1.00  0.00    -0.035 C 
HETATM   19  C15 UNL     1      18.027   6.020  12.170  1.00  0.00     0.015 C 
HETATM   20  C16 UNL     1      18.173   4.822  14.275  1.00  0.00     0.015 C 
HETATM   21  C17 UNL     1      16.804   6.841  14.142  1.00  0.00     0.026 C 
BRANCH  17  22
HETATM   22  C13 UNL     1      15.888   3.968  11.923  1.00  0.00     0.392 C 
HETATM   23  F1  UNL     1      14.766   3.129  12.142  1.00  0.00    -0.171 F 
HETATM   24  F2  UNL     1      16.951   3.137  11.756  1.00  0.00    -0.171 F 
HETATM   25  F3  UNL     1      15.544   4.663  10.760  1.00  0.00    -0.171 F 
ENDBRANCH  17  22
ENDBRANCH   4  14
BRANCH   1  26
HETATM   26  N2  UNL     1      14.309  11.170  12.746  1.00  0.00    -0.373 N 
ATOM     27  H2  UNL     1      14.715  12.081  12.964  1.00  0.00     0.161 HD
BRANCH  26  28
HETATM   28  C6  UNL     1      13.778  11.017  11.428  1.00  0.00     0.146 C 
BRANCH  28  29
HETATM   29  C4  UNL     1      14.837  10.690  10.377  1.00  0.00     0.094 C 
HETATM   30  C5  UNL     1      14.829   9.208  10.146  1.00  0.00     0.034 C 
BRANCH  29  31
HETATM   31  N1  UNL     1      16.122  11.156  10.866  1.00  0.00    -0.396 N 
ATOM     32  H1  UNL     1      16.252  12.115  11.191  1.00  0.00     0.159 HD
BRANCH  31  33
HETATM   33  C3  UNL     1      17.176  10.234  10.872  1.00  0.00     0.055 C 
BRANCH  33  34
HETATM   34  C2  UNL     1      18.200  10.277   9.780  1.00  0.00     0.039 C 
HETATM   35  C1  UNL     1      18.342   8.912   9.123  1.00  0.00     0.010 C 
ENDBRANCH  33  34
ENDBRANCH  31  33
ENDBRANCH  29  31
ENDBRANCH  28  29
ENDBRANCH  26  28
ENDBRANCH   1  26
TORSDOF 8
ENDMDL
MODEL 2
REMARK VINA RESULT: -8.470845876      1.836      4.806
REMARK  8 active torsions:
REMARK  status: ('A' for Active; 'I' for Inactive)
REMARK    1  A    between atoms: C2_2  and  C3_3 
REMARK    2  A    between atoms: C3_3  and  N1_4 
REMARK    3  A    between atoms: N1_4  and  C4_6 
REMARK    4  A    between atoms: C4_6  and  C6_8 
REMARK    5  A    between atoms: C6_8  and  N2_9 
REMARK    6  A    between atoms: N2_9  and  C7_11 
REMARK    7  A    between atoms: C8_14  and  C9_15 
REMARK    8  A    between atoms: C12_18  and  C13_19 
ROOT
HETATM    1  C7  UNL     1      13.723  10.032  15.883  1.00  0.00     0.117 A 
HETATM    2  N3  UNL     1      14.237   8.768  15.874  1.00  0.00    -0.331 N 
ATOM      3  H3  UNL     1      14.343   8.289  16.768  1.00  0.00     0.168 HD
HETATM    4  C8  UNL     1      14.611   8.119  14.766  1.00  0.00     0.092 A 
HETATM    5  N4  UNL     1      14.457   8.793  13.597  1.00  0.00    -0.331 N 
ATOM      6  H4  UNL     1      14.735   8.327  12.733  1.00  0.00     0.168 HD
HETATM    7  C18 UNL     1      13.965  10.025  13.515  1.00  0.00     0.121 A 
HETATM    8  N5  UNL     1      13.726  10.881  12.502  1.00  0.00    -0.351 N 
ATOM      9  H5  UNL     1      13.911  10.680  11.519  1.00  0.00     0.166 HD
HETATM   10  C19 UNL     1      13.215  12.028  12.958  1.00  0.00     0.097 A 
HETATM   11  C20 UNL     1      13.107  11.932  14.346  1.00  0.00    -0.029 A 
HETATM   12  C21 UNL     1      12.564  13.003  15.165  1.00  0.00     0.050 C 
HETATM   13  C22 UNL     1      13.576  10.692  14.670  1.00  0.00     0.059 A 
ENDROOT
BRANCH   4  14
HETATM   14  C9  UNL     1      15.174   6.771  14.662  1.00  0.00     0.016 C 
HETATM   15  C10 UNL     1      15.014   6.088  16.002  1.00  0.00     0.023 C 
HETATM   16  C11 UNL     1      14.759   5.953  13.502  1.00  0.00     0.031 C 
HETATM   17  C12 UNL     1      15.891   4.922  13.403  1.00  0.00     0.102 C 
HETATM   18  C14 UNL     1      17.103   5.742  13.557  1.00  0.00    -0.035 C 
HETATM   19  C15 UNL     1      17.822   6.179  12.328  1.00  0.00     0.015 C 
HETATM   20  C16 UNL     1      18.151   5.022  14.435  1.00  0.00     0.015 C 
HETATM   21  C17 UNL     1      16.676   6.967  14.359  1.00  0.00     0.026 C 
BRANCH  17  22
HETATM   22  C13 UNL     1      15.781   4.018  12.232  1.00  0.00     0.392 C 
HETATM   23  F1  UNL     1      14.615   3.241  12.449  1.00  0.00    -0.171 F 
HETATM   24  F2  UNL     1      16.803   3.133  12.102  1.00  0.00    -0.171 F 
HETATM   25  F3  UNL     1      15.490   4.703  11.048  1.00  0.00    -0.171 F 
ENDBRANCH  17  22
ENDBRANCH   4  14
BRANCH   1  26
HETATM   26  N2  UNL     1      13.470  10.669  16.952  1.00  0.00    -0.373 N 
ATOM     27  H2  UNL     1      14.235  11.224  17.336  1.00  0.00     0.161 HD
BRANCH  26  28
HETATM   28  C6  UNL     1      12.241  10.701  17.682  1.00  0.00     0.146 C 
BRANCH  28  29
HETATM   29  C4  UNL     1      12.353  11.401  19.035  1.00  0.00     0.094 C 
HETATM   30  C5  UNL     1      11.019  11.326  19.716  1.00  0.00     0.034 C 
BRANCH  29  31
HETATM   31  N1  UNL     1      12.768  12.773  18.803  1.00  0.00    -0.396 N 
ATOM     32  H1  UNL     1      12.212  13.408  18.231  1.00  0.00     0.159 HD
BRANCH  31  33
HETATM   33  C3  UNL     1      13.966  13.187  19.399  1.00  0.00     0.055 C 
BRANCH  33  34
HETATM   34  C2  UNL     1      15.271  12.698  18.848  1.00  0.00     0.039 C 
HETATM   35  C1  UNL     1      16.159  13.868  18.451  1.00  0.00     0.010 C 
ENDBRANCH  33  34
ENDBRANCH  31  33
ENDBRANCH  29  31
ENDBRANCH  28  29
ENDBRANCH  26  28
ENDBRANCH   1  26
TORSDOF 8
ENDMDL
MODEL 3
REMARK VINA RESULT: -8.451558389      3.420      5.140
REMARK  8 active torsions:
REMARK  status: ('A' for Active; 'I' for Inactive)
REMARK    1  A    between atoms: C2_2  and  C3_3 
REMARK    2  A    between atoms: C3_3  and  N1_4 
REMARK    3  A    between atoms: N1_4  and  C4_6 
REMARK    4  A    between atoms: C4_6  and  C6_8 
REMARK    5  A    between atoms: C6_8  and  N2_9 
REMARK    6  A    between atoms: N2_9  and  C7_11 
REMARK    7  A    between atoms: C8_14  and  C9_15 
REMARK    8  A    between atoms: C12_18  and  C13_19 
ROOT
HETATM    1  C7  UNL     1      16.011   7.045  11.868  1.00  0.00     0.117 A 
HETATM    2  N3  UNL     1      16.658   6.403  10.853  1.00  0.00    -0.331 N 
ATOM      3  H3  UNL     1      17.142   6.973  10.159  1.00  0.00     0.168 HD
HETATM    4  C8  UNL     1      16.699   5.074  10.711  1.00  0.00     0.092 A 
HETATM    5  N4  UNL     1      16.041   4.352  11.655  1.00  0.00    -0.331 N 
ATOM      6  H4  UNL     1      16.049   3.335  11.575  1.00  0.00     0.168 HD
HETATM    7  C18 UNL     1      15.385   4.896  12.676  1.00  0.00     0.121 A 
HETATM    8  N5  UNL     1      14.672   4.405  13.709  1.00  0.00    -0.351 N 
ATOM      9  H5  UNL     1      14.512   3.412  13.881  1.00  0.00     0.166 HD
HETATM   10  C19 UNL     1      14.204   5.393  14.476  1.00  0.00     0.097 A 
HETATM   11  C20 UNL     1      14.626   6.605  13.928  1.00  0.00    -0.029 A 
HETATM   12  C21 UNL     1      14.309   7.889  14.528  1.00  0.00     0.050 C 
HETATM   13  C22 UNL     1      15.351   6.276  12.818  1.00  0.00     0.059 A 
ENDROOT
BRANCH   4  14
HETATM   14  C9  UNL     1      17.361   4.303   9.657  1.00  0.00     0.016 C 
HETATM   15  C10 UNL     1      17.692   2.935  10.210  1.00  0.00     0.023 C 
HETATM   16  C11 UNL     1      16.717   4.289   8.325  1.00  0.00     0.031 C 
HETATM   17  C12 UNL     1      17.882   3.911   7.400  1.00  0.00     0.102 C 
HETATM   18  C14 UNL     1      18.977   4.769   7.877  1.00  0.00    -0.035 C 
HETATM   19  C15 UNL     1      19.238   6.048   7.158  1.00  0.00     0.015 C 
HETATM   20  C16 UNL     1      20.319   4.002   7.886  1.00  0.00     0.015 C 
HETATM   21  C17 UNL     1      18.668   5.062   9.340  1.00  0.00     0.026 C 
BRANCH  17  22
HETATM   22  C13 UNL     1      17.533   3.927   5.958  1.00  0.00     0.392 C 
HETATM   23  F1  UNL     1      16.969   2.656   5.680  1.00  0.00    -0.171 F 
HETATM   24  F2  UNL     1      18.596   4.057   5.120  1.00  0.00    -0.171 F 
HETATM   25  F3  UNL     1      16.489   4.809   5.665  1.00  0.00    -0.171 F 
ENDBRANCH  17  22
ENDBRANCH   4  14
BRANCH   1  26
HETATM   26  N2  UNL     1      15.899   8.308  11.929  1.00  0.00    -0.373 N 
ATOM     27  H2  UNL     1      14.996   8.664  12.244  1.00  0.00     0.161 HD
BRANCH  26  28
HETATM   28  C6  UNL     1      16.885   9.292  11.607  1.00  0.00     0.146 C 
BRANCH  28  29
HETATM   29  C4  UNL     1      16.301  10.568  11.005  1.00  0.00     0.094 C 
HETATM   30  C5  UNL     1      14.853  10.325  10.700  1.00  0.00     0.034 C 
BRANCH  29  31
HETATM   31  N1  UNL     1      17.060  10.896   9.811  1.00  0.00    -0.396 N 
ATOM     32  H1  UNL     1      17.028  11.829   9.399  1.00  0.00     0.159 HD
BRANCH  31  33
HETATM   33  C3  UNL     1      17.838   9.877   9.249  1.00  0.00     0.055 C 
BRANCH  33  34
HETATM   34  C2  UNL     1      17.499   9.355   7.886  1.00  0.00     0.039 C 
HETATM   35  C1  UNL     1      16.499   8.213   7.982  1.00  0.00     0.010 C 
ENDBRANCH  33  34
ENDBRANCH  31  33
ENDBRANCH  29  31
ENDBRANCH  28  29
ENDBRANCH  26  28
ENDBRANCH   1  26
TORSDOF 8
ENDMDL
MODEL 4
REMARK VINA RESULT: -8.301343330      0.957      1.242
REMARK  8 active torsions:
REMARK  status: ('A' for Active; 'I' for Inactive)
REMARK    1  A    between atoms: C2_2  and  C3_3 
REMARK    2  A    between atoms: C3_3  and  N1_4 
REMARK    3  A    between atoms: N1_4  and  C4_6 
REMARK    4  A    between atoms: C4_6  and  C6_8 
REMARK    5  A    between atoms: C6_8  and  N2_9 
REMARK    6  A    between atoms: N2_9  and  C7_11 
REMARK    7  A    between atoms: C8_14  and  C9_15 
REMARK    8  A    between atoms: C12_18  and  C13_19 
ROOT
HETATM    1  C7  UNL     1      14.435  10.076  13.275  1.00  0.00     0.117 A 
HETATM    2  N3  UNL     1      14.907   8.801  13.160  1.00  0.00    -0.331 N 
ATOM      3  H3  UNL     1      15.325   8.524  12.272  1.00  0.00     0.168 HD
HETATM    4  C8  UNL     1      14.856   7.892  14.139  1.00  0.00     0.092 A 
HETATM    5  N4  UNL     1      14.290   8.299  15.305  1.00  0.00    -0.331 N 
ATOM      6  H4  UNL     1      14.232   7.629  16.072  1.00  0.00     0.168 HD
HETATM    7  C18 UNL     1      13.805   9.522  15.502  1.00  0.00     0.121 A 
HETATM    8  N5  UNL     1      13.209  10.145  16.537  1.00  0.00    -0.351 N 
ATOM      9  H5  UNL     1      13.018   9.713  17.441  1.00  0.00     0.166 HD
HETATM   10  C19 UNL     1      12.900  11.406  16.219  1.00  0.00     0.097 A 
HETATM   11  C20 UNL     1      13.312  11.635  14.906  1.00  0.00    -0.029 A 
HETATM   12  C21 UNL     1      13.148  12.919  14.246  1.00  0.00     0.050 C 
HETATM   13  C22 UNL     1      13.866  10.461  14.481  1.00  0.00     0.059 A 
ENDROOT
BRANCH   4  14
HETATM   14  C9  UNL     1      15.330   6.507  14.104  1.00  0.00     0.016 C 
HETATM   15  C10 UNL     1      14.984   5.856  15.426  1.00  0.00     0.023 C 
HETATM   16  C11 UNL     1      14.981   5.703  12.913  1.00  0.00     0.031 C 
HETATM   17  C12 UNL     1      16.042   4.594  12.941  1.00  0.00     0.102 C 
HETATM   18  C14 UNL     1      17.286   5.330  13.214  1.00  0.00    -0.035 C 
HETATM   19  C15 UNL     1      18.158   5.698  12.064  1.00  0.00     0.015 C 
HETATM   20  C16 UNL     1      18.184   4.552  14.202  1.00  0.00     0.015 C 
HETATM   21  C17 UNL     1      16.866   6.593  13.958  1.00  0.00     0.026 C 
BRANCH  17  22
HETATM   22  C13 UNL     1      15.989   3.683  11.771  1.00  0.00     0.392 C 
HETATM   23  F1  UNL     1      14.859   2.851  11.976  1.00  0.00    -0.171 F 
HETATM   24  F2  UNL     1      17.055   2.847  11.657  1.00  0.00    -0.171 F 
HETATM   25  F3  UNL     1      15.681   4.350  10.582  1.00  0.00    -0.171 F 
ENDBRANCH  17  22
ENDBRANCH   4  14
BRANCH   1  26
HETATM   26  N2  UNL     1      14.401  10.892  12.302  1.00  0.00    -0.373 N 
ATOM     27  H2  UNL     1      14.236  11.870  12.542  1.00  0.00     0.161 HD
BRANCH  26  28
HETATM   28  C6  UNL     1      14.567  10.605  10.911  1.00  0.00     0.146 C 
BRANCH  28  29
HETATM   29  C4  UNL     1      15.802   9.759  10.606  1.00  0.00     0.094 C 
HETATM   30  C5  UNL     1      16.978  10.679  10.459  1.00  0.00     0.034 C 
BRANCH  29  31
HETATM   31  N1  UNL     1      15.548   9.005   9.392  1.00  0.00    -0.396 N 
ATOM     32  H1  UNL     1      14.810   9.276   8.742  1.00  0.00     0.159 HD
BRANCH  31  33
HETATM   33  C3  UNL     1      16.359   7.889   9.152  1.00  0.00     0.055 C 
BRANCH  33  34
HETATM   34  C2  UNL     1      16.900   7.653   7.775  1.00  0.00     0.039 C 
HETATM   35  C1  UNL     1      17.605   8.896   7.254  1.00  0.00     0.010 C 
ENDBRANCH  33  34
ENDBRANCH  31  33
ENDBRANCH  29  31
ENDBRANCH  28  29
ENDBRANCH  26  28
ENDBRANCH   1  26
TORSDOF 8
ENDMDL
MODEL 5
REMARK VINA RESULT: -8.274387659      4.929      7.799
REMARK  8 active torsions:
REMARK  status: ('A' for Active; 'I' for Inactive)
REMARK    1  A    between atoms: C2_2  and  C3_3 
REMARK    2  A    between atoms: C3_3  and  N1_4 
REMARK    3  A    between atoms: N1_4  and  C4_6 
REMARK    4  A    between atoms: C4_6  and  C6_8 
REMARK    5  A    between atoms: C6_8  and  N2_9 
REMARK    6  A    between atoms: N2_9  and  C7_11 
REMARK    7  A    between atoms: C8_14  and  C9_15 
REMARK    8  A    between atoms: C12_18  and  C13_19 
ROOT
HETATM    1  C7  UNL     1      15.204   4.168  14.691  1.00  0.00     0.117 A 
HETATM    2  N3  UNL     1      15.287   4.168  16.053  1.00  0.00    -0.331 N 
ATOM      3  H3  UNL     1      14.758   4.875  16.564  1.00  0.00     0.168 HD
HETATM    4  C8  UNL     1      16.017   3.300  16.760  1.00  0.00     0.092 A 
HETATM    5  N4  UNL     1      16.709   2.376  16.042  1.00  0.00    -0.331 N 
ATOM      6  H4  UNL     1      17.279   1.700  16.550  1.00  0.00     0.168 HD
HETATM    7  C18 UNL     1      16.685   2.305  14.715  1.00  0.00     0.121 A 
HETATM    8  N5  UNL     1      17.272   1.506  13.801  1.00  0.00    -0.351 N 
ATOM      9  H5  UNL     1      17.902   0.736  14.026  1.00  0.00     0.166 HD
HETATM   10  C19 UNL     1      16.916   1.859  12.563  1.00  0.00     0.097 A 
HETATM   11  C20 UNL     1      16.049   2.948  12.654  1.00  0.00    -0.029 A 
HETATM   12  C21 UNL     1      15.451   3.574  11.486  1.00  0.00     0.050 C 
HETATM   13  C22 UNL     1      15.921   3.209  13.988  1.00  0.00     0.059 A 
ENDROOT
BRANCH   4  14
HETATM   14  C9  UNL     1      16.169   3.228  18.214  1.00  0.00     0.016 C 
HETATM   15  C10 UNL     1      17.606   2.873  18.522  1.00  0.00     0.023 C 
HETATM   16  C11 UNL     1      15.631   4.355  19.006  1.00  0.00     0.031 C 
HETATM   17  C12 UNL     1      15.451   3.727  20.395  1.00  0.00     0.102 C 
HETATM   18  C14 UNL     1      14.815   2.435  20.095  1.00  0.00    -0.035 C 
HETATM   19  C15 UNL     1      13.332   2.334  20.207  1.00  0.00     0.015 C 
HETATM   20  C16 UNL     1      15.389   1.314  20.991  1.00  0.00     0.015 C 
HETATM   21  C17 UNL     1      15.244   2.080  18.676  1.00  0.00     0.026 C 
BRANCH  17  22
HETATM   22  C13 UNL     1      14.811   4.630  21.384  1.00  0.00     0.392 C 
HETATM   23  F1  UNL     1      15.819   4.946  22.331  1.00  0.00    -0.171 F 
HETATM   24  F2  UNL     1      13.796   4.066  22.091  1.00  0.00    -0.171 F 
HETATM   25  F3  UNL     1      14.482   5.876  20.843  1.00  0.00    -0.171 F 
ENDBRANCH  17  22
ENDBRANCH   4  14
BRANCH   1  26
HETATM   26  N2  UNL     1      14.587   5.063  14.035  1.00  0.00    -0.373 N 
ATOM     27  H2  UNL     1      14.162   4.763  13.157  1.00  0.00     0.161 HD
BRANCH  26  28
HETATM   28  C6  UNL     1      14.415   6.440  14.379  1.00  0.00     0.146 C 
BRANCH  28  29
HETATM   29  C4  UNL     1      15.056   7.403  13.382  1.00  0.00     0.094 C 
HETATM   30  C5  UNL     1      16.543   7.357  13.574  1.00  0.00     0.034 C 
BRANCH  29  31
HETATM   31  N1  UNL     1      14.518   8.730  13.620  1.00  0.00    -0.396 N 
ATOM     32  H1  UNL     1      14.422   9.409  12.865  1.00  0.00     0.159 HD
BRANCH  31  33
HETATM   33  C3  UNL     1      14.137   9.038  14.932  1.00  0.00     0.055 C 
BRANCH  33  34
HETATM   34  C2  UNL     1      13.438  10.333  15.213  1.00  0.00     0.039 C 
HETATM   35  C1  UNL     1      13.261  10.535  16.710  1.00  0.00     0.010 C 
ENDBRANCH  33  34
ENDBRANCH  31  33
ENDBRANCH  29  31
ENDBRANCH  28  29
ENDBRANCH  26  28
ENDBRANCH   1  26
TORSDOF 8
ENDMDL
