MODEL 1
REMARK VINA RESULT: -6.413455774      0.000      0.000
REMARK  7 active torsions:
REMARK  status: ('A' for Active; 'I' for Inactive)
REMARK    1  A    between atoms: C3_3  and  O1_4 
REMARK    2  A    between atoms: O1_4  and  C4_5 
REMARK    3  A    between atoms: C4_5  and  C5_6 
REMARK    4  A    between atoms: C5_6  and  C6_7 
REMARK    5  A    between atoms: C16_22  and  O2_23 
REMARK    6  A    between atoms: C17_25  and  O3_27 
REMARK    7  A    between atoms: C19_29  and  O4_30 
ROOT
HETATM    1  C1  UNL     1      -4.490   7.821  15.617  1.00  0.00     0.024 C 
HETATM    2  C2  UNL     1      -3.567   7.304  14.845  1.00  0.00    -0.008 C 
HETATM    3  C3  UNL     1      -2.469   8.189  14.402  1.00  0.00     0.162 C 
HETATM    4  N1  UNL     1      -1.907   7.910  13.288  1.00  0.00    -0.283 N 
ATOM      5  H1  UNL     1      -1.145   8.501  12.955  1.00  0.00     0.188 HD
HETATM    6  N2  UNL     1      -2.305   6.831  12.526  1.00  0.00    -0.326 N 
ATOM      7  H2  UNL     1      -1.942   6.785  11.574  1.00  0.00     0.180 HD
HETATM    8  C10 UNL     1      -3.185   5.757  12.938  1.00  0.00     0.140 C 
HETATM    9  C11 UNL     1      -3.516   5.896  14.376  1.00  0.00     0.057 C 
HETATM   10  C12 UNL     1      -4.758   5.188  14.808  1.00  0.00     0.023 C 
HETATM   11  C13 UNL     1      -6.007   5.610  14.102  1.00  0.00     0.015 C 
HETATM   12  C14 UNL     1      -4.606   3.687  14.703  1.00  0.00    -0.053 C 
HETATM   13  C15 UNL     1      -5.578   3.011  15.306  1.00  0.00     0.017 C 
HETATM   14  C16 UNL     1      -3.593   2.842  14.068  1.00  0.00     0.183 C 
HETATM   15  C17 UNL     1      -3.240   3.245  12.646  1.00  0.00     0.111 C 
HETATM   16  C18 UNL     1      -4.398   3.218  11.711  1.00  0.00     0.051 C 
HETATM   17  C19 UNL     1      -2.433   4.487  12.628  1.00  0.00     0.179 C 
ENDROOT
BRANCH   3  18
HETATM   18  O1  UNL     1      -2.051   9.282  15.147  1.00  0.00    -0.334 OA
BRANCH  18  19
HETATM   19  C4  UNL     1      -1.906  10.570  14.579  1.00  0.00     0.183 C 
BRANCH  19  20
HETATM   20  C5  UNL     1      -3.292  11.059  14.228  1.00  0.00     0.078 C 
BRANCH  20  21
HETATM   21  C6  UNL     1      -3.425  11.421  12.808  1.00  0.00     0.015 C 
HETATM   22 CL1  UNL     1      -2.405  12.688  12.164  1.00  0.00    -0.089 Cl
HETATM   23  C7  UNL     1      -4.284  10.817  12.024  1.00  0.00    -0.070 C 
HETATM   24  C8  UNL     1      -4.391  11.211  10.587  1.00  0.00     0.044 C 
HETATM   25  C9  UNL     1      -5.191   9.723  12.495  1.00  0.00     0.044 C 
ENDBRANCH  20  21
ENDBRANCH  19  20
ENDBRANCH  18  19
ENDBRANCH   3  18
BRANCH  17  26
HETATM   26  O4  UNL     1      -1.427   4.371  13.593  1.00  0.00    -0.390 OA
ATOM     27  H4  UNL     1      -0.813   5.079  13.433  1.00  0.00     0.210 HD
ENDBRANCH  17  26
BRANCH  15  28
HETATM   28  O3  UNL     1      -2.363   2.216  12.205  1.00  0.00    -0.385 OA
ATOM     29  H3  UNL     1      -1.560   2.675  11.991  1.00  0.00     0.210 HD
ENDBRANCH  15  28
BRANCH  14  30
HETATM   30  O2  UNL     1      -4.077   1.538  13.980  1.00  0.00    -0.388 OA
ATOM     31  H2  UNL     1      -3.935   1.213  13.099  1.00  0.00     0.210 HD
ENDBRANCH  14  30
TORSDOF 7
ENDMDL
MODEL 2
REMARK VINA RESULT: -6.298915302      3.363      6.948
REMARK  7 active torsions:
REMARK  status: ('A' for Active; 'I' for Inactive)
REMARK    1  A    between atoms: C3_3  and  O1_4 
REMARK    2  A    between atoms: O1_4  and  C4_5 
REMARK    3  A    between atoms: C4_5  and  C5_6 
REMARK    4  A    between atoms: C5_6  and  C6_7 
REMARK    5  A    between atoms: C16_22  and  O2_23 
REMARK    6  A    between atoms: C17_25  and  O3_27 
REMARK    7  A    between atoms: C19_29  and  O4_30 
ROOT
HETATM    1  C1  UNL     1      -1.452   3.699  12.168  1.00  0.00     0.024 C 
HETATM    2  C2  UNL     1      -2.540   4.275  11.721  1.00  0.00    -0.008 C 
HETATM    3  C3  UNL     1      -3.348   3.537  10.727  1.00  0.00     0.162 C 
HETATM    4  N1  UNL     1      -4.044   4.230   9.909  1.00  0.00    -0.283 N 
ATOM      5  H1  UNL     1      -4.614   3.750   9.212  1.00  0.00     0.188 HD
HETATM    6  N2  UNL     1      -4.045   5.609   9.945  1.00  0.00    -0.326 N 
ATOM      7  H2  UNL     1      -4.471   6.087   9.152  1.00  0.00     0.180 HD
HETATM    8  C10 UNL     1      -3.503   6.448  10.995  1.00  0.00     0.140 C 
HETATM    9  C11 UNL     1      -3.046   5.611  12.129  1.00  0.00     0.057 C 
HETATM   10  C12 UNL     1      -2.049   6.261  13.030  1.00  0.00     0.023 C 
HETATM   11  C13 UNL     1      -0.783   6.700  12.365  1.00  0.00     0.015 C 
HETATM   12  C14 UNL     1      -2.653   7.430  13.775  1.00  0.00    -0.053 C 
HETATM   13  C15 UNL     1      -1.891   7.880  14.766  1.00  0.00     0.017 C 
HETATM   14  C16 UNL     1      -3.916   8.153  13.615  1.00  0.00     0.183 C 
HETATM   15  C17 UNL     1      -4.230   8.559  12.184  1.00  0.00     0.111 C 
HETATM   16  C18 UNL     1      -3.202   9.448  11.575  1.00  0.00     0.051 C 
HETATM   17  C19 UNL     1      -4.623   7.385  11.370  1.00  0.00     0.179 C 
ENDROOT
BRANCH   3  18
HETATM   18  O1  UNL     1      -3.363   2.150  10.667  1.00  0.00    -0.334 OA
BRANCH  18  19
HETATM   19  C4  UNL     1      -4.330   1.378  11.352  1.00  0.00     0.183 C 
BRANCH  19  20
HETATM   20  C5  UNL     1      -4.875   2.238  12.469  1.00  0.00     0.078 C 
BRANCH  20  21
HETATM   21  C6  UNL     1      -4.533   1.722  13.804  1.00  0.00     0.015 C 
HETATM   22 CL1  UNL     1      -4.155   0.023  13.978  1.00  0.00    -0.089 Cl
HETATM   23  C7  UNL     1      -4.505   2.505  14.855  1.00  0.00    -0.070 C 
HETATM   24  C8  UNL     1      -4.153   1.946  16.194  1.00  0.00     0.044 C 
HETATM   25  C9  UNL     1      -4.814   3.968  14.792  1.00  0.00     0.044 C 
ENDBRANCH  20  21
ENDBRANCH  19  20
ENDBRANCH  18  19
ENDBRANCH   3  18
BRANCH  17  26
HETATM   26  O4  UNL     1      -5.548   6.633  12.102  1.00  0.00    -0.390 OA
ATOM     27  H4  UNL     1      -5.737   7.127  12.892  1.00  0.00     0.210 HD
ENDBRANCH  17  26
BRANCH  15  28
HETATM   28  O3  UNL     1      -5.405   9.351  12.301  1.00  0.00    -0.385 OA
ATOM     29  H3  UNL     1      -5.119  10.223  12.059  1.00  0.00     0.210 HD
ENDBRANCH  15  28
BRANCH  14  30
HETATM   30  O2  UNL     1      -3.856   9.342  14.339  1.00  0.00    -0.388 OA
ATOM     31  H2  UNL     1      -4.739   9.638  14.523  1.00  0.00     0.210 HD
ENDBRANCH  14  30
TORSDOF 7
ENDMDL
MODEL 3
REMARK VINA RESULT: -6.231309126      3.731      7.210
REMARK  7 active torsions:
REMARK  status: ('A' for Active; 'I' for Inactive)
REMARK    1  A    between atoms: C3_3  and  O1_4 
REMARK    2  A    between atoms: O1_4  and  C4_5 
REMARK    3  A    between atoms: C4_5  and  C5_6 
REMARK    4  A    between atoms: C5_6  and  C6_7 
REMARK    5  A    between atoms: C16_22  and  O2_23 
REMARK    6  A    between atoms: C17_25  and  O3_27 
REMARK    7  A    between atoms: C19_29  and  O4_30 
ROOT
HETATM    1  C1  UNL     1      -3.019   5.602  13.118  1.00  0.00     0.024 C 
HETATM    2  C2  UNL     1      -3.649   5.520  11.974  1.00  0.00    -0.008 C 
HETATM    3  C3  UNL     1      -3.698   4.201  11.310  1.00  0.00     0.162 C 
HETATM    4  N1  UNL     1      -3.797   4.190  10.036  1.00  0.00    -0.283 N 
ATOM      5  H1  UNL     1      -3.835   3.295   9.548  1.00  0.00     0.188 HD
HETATM    6  N2  UNL     1      -3.856   5.358   9.304  1.00  0.00    -0.326 N 
ATOM      7  H2  UNL     1      -3.746   5.271   8.294  1.00  0.00     0.180 HD
HETATM    8  C10 UNL     1      -4.058   6.696   9.823  1.00  0.00     0.140 C 
HETATM    9  C11 UNL     1      -4.334   6.640  11.278  1.00  0.00     0.057 C 
HETATM   10  C12 UNL     1      -4.075   7.911  12.017  1.00  0.00     0.023 C 
HETATM   11  C13 UNL     1      -2.673   8.423  11.929  1.00  0.00     0.015 C 
HETATM   12  C14 UNL     1      -5.033   9.003  11.596  1.00  0.00    -0.053 C 
HETATM   13  C15 UNL     1      -5.012  10.065  12.394  1.00  0.00     0.017 C 
HETATM   14  C16 UNL     1      -5.978   9.108  10.483  1.00  0.00     0.183 C 
HETATM   15  C17 UNL     1      -5.401   8.724   9.130  1.00  0.00     0.111 C 
HETATM   16  C18 UNL     1      -4.235   9.556   8.720  1.00  0.00     0.051 C 
HETATM   17  C19 UNL     1      -5.208   7.260   9.028  1.00  0.00     0.179 C 
ENDROOT
BRANCH   3  18
HETATM   18  O1  UNL     1      -3.638   3.010  12.021  1.00  0.00    -0.334 OA
BRANCH  18  19
HETATM   19  C4  UNL     1      -4.769   2.466  12.674  1.00  0.00     0.183 C 
BRANCH  19  20
HETATM   20  C5  UNL     1      -4.371   2.203  14.108  1.00  0.00     0.078 C 
BRANCH  20  21
HETATM   21  C6  UNL     1      -5.328   2.762  15.076  1.00  0.00     0.015 C 
HETATM   22 CL1  UNL     1      -6.054   4.318  14.739  1.00  0.00    -0.089 Cl
HETATM   23  C7  UNL     1      -5.645   2.122  16.175  1.00  0.00    -0.070 C 
HETATM   24  C8  UNL     1      -6.621   2.719  17.134  1.00  0.00     0.044 C 
HETATM   25  C9  UNL     1      -5.070   0.788  16.537  1.00  0.00     0.044 C 
ENDBRANCH  20  21
ENDBRANCH  19  20
ENDBRANCH  18  19
ENDBRANCH   3  18
BRANCH  17  26
HETATM   26  O4  UNL     1      -6.367   6.631   9.497  1.00  0.00    -0.390 OA
ATOM     27  H4  UNL     1      -7.088   6.964   8.975  1.00  0.00     0.210 HD
ENDBRANCH  17  26
BRANCH  15  28
HETATM   28  O3  UNL     1      -6.440   9.037   8.212  1.00  0.00    -0.385 OA
ATOM     29  H3  UNL     1      -6.618   9.956   8.371  1.00  0.00     0.210 HD
ENDBRANCH  15  28
BRANCH  14  30
HETATM   30  O2  UNL     1      -6.387  10.434  10.356  1.00  0.00    -0.388 OA
ATOM     31  H2  UNL     1      -6.742  10.567   9.485  1.00  0.00     0.210 HD
ENDBRANCH  14  30
TORSDOF 7
ENDMDL
MODEL 4
REMARK VINA RESULT: -6.201936403      1.105      1.327
REMARK  7 active torsions:
REMARK  status: ('A' for Active; 'I' for Inactive)
REMARK    1  A    between atoms: C3_3  and  O1_4 
REMARK    2  A    between atoms: O1_4  and  C4_5 
REMARK    3  A    between atoms: C4_5  and  C5_6 
REMARK    4  A    between atoms: C5_6  and  C6_7 
REMARK    5  A    between atoms: C16_22  and  O2_23 
REMARK    6  A    between atoms: C17_25  and  O3_27 
REMARK    7  A    between atoms: C19_29  and  O4_30 
ROOT
HETATM    1  C1  UNL     1      -4.065   8.058  15.588  1.00  0.00     0.024 C 
HETATM    2  C2  UNL     1      -3.125   7.452  14.907  1.00  0.00    -0.008 C 
HETATM    3  C3  UNL     1      -1.877   8.199  14.646  1.00  0.00     0.162 C 
HETATM    4  N1  UNL     1      -1.219   7.890  13.595  1.00  0.00    -0.283 N 
ATOM      5  H1  UNL     1      -0.352   8.386  13.388  1.00  0.00     0.188 HD
HETATM    6  N2  UNL     1      -1.651   6.902  12.735  1.00  0.00    -0.326 N 
ATOM      7  H2  UNL     1      -1.179   6.842  11.833  1.00  0.00     0.180 HD
HETATM    8  C10 UNL     1      -2.706   5.939  12.981  1.00  0.00     0.140 C 
HETATM    9  C11 UNL     1      -3.195   6.068  14.374  1.00  0.00     0.057 C 
HETATM   10  C12 UNL     1      -4.561   5.515  14.614  1.00  0.00     0.023 C 
HETATM   11  C13 UNL     1      -5.648   6.124  13.786  1.00  0.00     0.015 C 
HETATM   12  C14 UNL     1      -4.589   4.012  14.449  1.00  0.00    -0.053 C 
HETATM   13  C15 UNL     1      -5.708   3.449  14.894  1.00  0.00     0.017 C 
HETATM   14  C16 UNL     1      -3.620   3.064  13.898  1.00  0.00     0.183 C 
HETATM   15  C17 UNL     1      -3.041   3.469  12.551  1.00  0.00     0.111 C 
HETATM   16  C18 UNL     1      -4.066   3.630  11.483  1.00  0.00     0.051 C 
HETATM   17  C19 UNL     1      -2.088   4.593  12.697  1.00  0.00     0.179 C 
ENDROOT
BRANCH   3  18
HETATM   18  O1  UNL     1      -1.421   9.200  15.493  1.00  0.00    -0.334 OA
BRANCH  18  19
HETATM   19  C4  UNL     1      -0.292   9.993  15.182  1.00  0.00     0.183 C 
BRANCH  19  20
HETATM   20  C5  UNL     1      -0.797  11.384  14.876  1.00  0.00     0.078 C 
BRANCH  20  21
HETATM   21  C6  UNL     1      -1.237  11.535  13.479  1.00  0.00     0.015 C 
HETATM   22 CL1  UNL     1      -0.032  11.520  12.212  1.00  0.00    -0.089 Cl
HETATM   23  C7  UNL     1      -2.503  11.678  13.171  1.00  0.00    -0.070 C 
HETATM   24  C8  UNL     1      -2.913  11.827  11.743  1.00  0.00     0.044 C 
HETATM   25  C9  UNL     1      -3.596  11.700  14.194  1.00  0.00     0.044 C 
ENDBRANCH  20  21
ENDBRANCH  19  20
ENDBRANCH  18  19
ENDBRANCH   3  18
BRANCH  17  26
HETATM   26  O4  UNL     1      -1.234   4.309  13.768  1.00  0.00    -0.390 OA
ATOM     27  H4  UNL     1      -1.171   3.363  13.823  1.00  0.00     0.210 HD
ENDBRANCH  17  26
BRANCH  15  28
HETATM   28  O3  UNL     1      -2.254   2.350  12.166  1.00  0.00    -0.385 OA
ATOM     29  H3  UNL     1      -1.371   2.591  12.421  1.00  0.00     0.210 HD
ENDBRANCH  15  28
BRANCH  14  30
HETATM   30  O2  UNL     1      -4.250   1.840  13.683  1.00  0.00    -0.388 OA
ATOM     31  H2  UNL     1      -5.101   1.994  13.289  1.00  0.00     0.210 HD
ENDBRANCH  14  30
TORSDOF 7
ENDMDL
MODEL 5
REMARK VINA RESULT: -6.186844482      3.745      6.457
REMARK  7 active torsions:
REMARK  status: ('A' for Active; 'I' for Inactive)
REMARK    1  A    between atoms: C3_3  and  O1_4 
REMARK    2  A    between atoms: O1_4  and  C4_5 
REMARK    3  A    between atoms: C4_5  and  C5_6 
REMARK    4  A    between atoms: C5_6  and  C6_7 
REMARK    5  A    between atoms: C16_22  and  O2_23 
REMARK    6  A    between atoms: C17_25  and  O3_27 
REMARK    7  A    between atoms: C19_29  and  O4_30 
ROOT
HETATM    1  C1  UNL     1      -4.549   6.464  13.156  1.00  0.00     0.024 C 
HETATM    2  C2  UNL     1      -3.573   5.597  13.263  1.00  0.00    -0.008 C 
HETATM    3  C3  UNL     1      -3.489   4.810  14.511  1.00  0.00     0.162 C 
HETATM    4  N1  UNL     1      -2.332   4.400  14.867  1.00  0.00    -0.283 N 
ATOM      5  H1  UNL     1      -2.240   3.854  15.723  1.00  0.00     0.188 HD
HETATM    6  N2  UNL     1      -1.204   4.679  14.123  1.00  0.00    -0.326 N 
ATOM      7  H2  UNL     1      -0.305   4.483  14.563  1.00  0.00     0.180 HD
HETATM    8  C10 UNL     1      -1.165   5.222  12.780  1.00  0.00     0.140 C 
HETATM    9  C11 UNL     1      -2.538   5.324  12.233  1.00  0.00     0.057 C 
HETATM   10  C12 UNL     1      -2.697   6.290  11.106  1.00  0.00     0.023 C 
HETATM   11  C13 UNL     1      -2.323   7.703  11.423  1.00  0.00     0.015 C 
HETATM   12  C14 UNL     1      -1.943   5.837   9.876  1.00  0.00    -0.053 C 
HETATM   13  C15 UNL     1      -2.253   6.521   8.780  1.00  0.00     0.017 C 
HETATM   14  C16 UNL     1      -0.943   4.789   9.665  1.00  0.00     0.183 C 
HETATM   15  C17 UNL     1       0.183   4.780  10.686  1.00  0.00     0.111 C 
HETATM   16  C18 UNL     1       0.963   6.048  10.727  1.00  0.00     0.051 C 
HETATM   17  C19 UNL     1      -0.289   4.277  11.997  1.00  0.00     0.179 C 
ENDROOT
BRANCH   3  18
HETATM   18  O1  UNL     1      -4.607   4.518  15.280  1.00  0.00    -0.334 OA
BRANCH  18  19
HETATM   19  C4  UNL     1      -5.253   3.261  15.221  1.00  0.00     0.183 C 
BRANCH  19  20
HETATM   20  C5  UNL     1      -5.332   2.870  13.763  1.00  0.00     0.078 C 
BRANCH  20  21
HETATM   21  C6  UNL     1      -4.690   1.575  13.485  1.00  0.00     0.015 C 
HETATM   22 CL1  UNL     1      -4.286   0.531  14.830  1.00  0.00    -0.089 Cl
HETATM   23  C7  UNL     1      -4.420   1.192  12.261  1.00  0.00    -0.070 C 
HETATM   24  C8  UNL     1      -3.770  -0.129  12.017  1.00  0.00     0.044 C 
HETATM   25  C9  UNL     1      -4.735   2.024  11.057  1.00  0.00     0.044 C 
ENDBRANCH  20  21
ENDBRANCH  19  20
ENDBRANCH  18  19
ENDBRANCH   3  18
BRANCH  17  26
HETATM   26  O4  UNL     1      -1.042   3.119  11.777  1.00  0.00    -0.390 OA
ATOM     27  H4  UNL     1      -1.532   2.957  12.576  1.00  0.00     0.210 HD
ENDBRANCH  17  26
BRANCH  15  28
HETATM   28  O3  UNL     1       1.080   3.790  10.199  1.00  0.00    -0.385 OA
ATOM     29  H3  UNL     1       1.939   4.136  10.409  1.00  0.00     0.210 HD
ENDBRANCH  15  28
BRANCH  14  30
HETATM   30  O2  UNL     1      -0.330   4.986   8.429  1.00  0.00    -0.388 OA
ATOM     31  H2  UNL     1       0.507   4.537   8.423  1.00  0.00     0.210 HD
ENDBRANCH  14  30
TORSDOF 7
ENDMDL
