MODEL 1
REMARK VINA RESULT: -7.633418550      0.000      0.000
REMARK  6 active torsions:
REMARK  status: ('A' for Active; 'I' for Inactive)
REMARK    1  A    between atoms: C2_2  and  C3_3 
REMARK    2  A    between atoms: C3_3  and  C4_4 
REMARK    3  A    between atoms: C4_4  and  O1_5 
REMARK    4  A    between atoms: C11_13  and  O2_14 
REMARK    5  A    between atoms: C11_13  and  C12_16 
REMARK    6  A    between atoms: C12_16  and  N1_17 
ROOT
HETATM    1  C4  UNL     1     -31.073 -13.358 -24.833  1.00  0.00     0.068 C 
HETATM    2  C5  UNL     1     -30.002 -13.023 -23.820  1.00  0.00     0.039 C 
HETATM    3  C6  UNL     1     -30.353 -11.573 -23.504  1.00  0.00     0.009 C 
HETATM    4  C7  UNL     1     -31.861 -11.540 -23.536  1.00  0.00     0.001 C 
HETATM    5  C8  UNL     1     -32.406 -10.441 -24.380  1.00  0.00    -0.005 C 
HETATM    6  C9  UNL     1     -31.935  -9.072 -23.881  1.00  0.00     0.008 C 
HETATM    7  C10 UNL     1     -32.254  -8.129 -25.011  1.00  0.00     0.040 C 
HETATM    8  C11 UNL     1     -33.643  -8.201 -25.534  1.00  0.00     0.074 C 
HETATM    9  C20 UNL     1     -34.527  -9.262 -25.001  1.00  0.00     0.044 C 
HETATM   10  C21 UNL     1     -33.893 -10.407 -24.279  1.00  0.00    -0.007 C 
HETATM   11  C22 UNL     1     -34.446 -11.738 -24.716  1.00  0.00     0.006 C 
HETATM   12  C23 UNL     1     -33.422 -12.751 -25.098  1.00  0.00     0.013 C 
HETATM   13  C24 UNL     1     -32.304 -12.871 -24.106  1.00  0.00    -0.009 C 
HETATM   14  C25 UNL     1     -32.739 -13.801 -22.989  1.00  0.00     0.019 C 
ENDROOT
BRANCH   8  15
HETATM   15  O2  UNL     1     -33.535  -8.333 -26.927  1.00  0.00    -0.388 OA
ATOM     16  H2  UNL     1     -34.395  -8.143 -27.281  1.00  0.00     0.210 HD
ENDBRANCH   8  15
BRANCH   8  17
HETATM   17  C12 UNL     1     -34.293  -6.845 -25.177  1.00  0.00     0.155 C 
BRANCH  17  18
HETATM   18  N1  UNL     1     -33.517  -5.724 -25.514  1.00  0.00    -0.398 N 
HETATM   19  C13 UNL     1     -32.779  -5.177 -24.439  1.00  0.00     0.148 C 
HETATM   20  C14 UNL     1     -32.448  -3.729 -24.489  1.00  0.00     0.291 C 
HETATM   21  N2  UNL     1     -33.281  -2.872 -25.240  1.00  0.00     0.088 N 
HETATM   22  C15 UNL     1     -33.809  -1.750 -24.496  1.00  0.00     0.310 C 
HETATM   23  C16 UNL     1     -34.316  -3.465 -26.001  1.00  0.00     0.301 C 
HETATM   24  C17 UNL     1     -33.957  -4.846 -26.519  1.00  0.00     0.047 C 
HETATM   25  C18 UNL     1     -32.786  -4.635 -27.491  1.00  0.00     0.039 C 
HETATM   26  C19 UNL     1     -35.114  -5.321 -27.339  1.00  0.00     0.039 C 
ENDBRANCH  17  18
ENDBRANCH   8  17
BRANCH   1  27
HETATM   27  C3  UNL     1     -31.113 -14.797 -25.232  1.00  0.00     0.065 C 
BRANCH  27  28
HETATM   28  C2  UNL     1     -29.734 -15.404 -25.122  1.00  0.00    -0.034 C 
HETATM   29  C1  UNL     1     -29.357 -16.383 -25.935  1.00  0.00     0.007 C 
ENDBRANCH  27  28
ENDBRANCH   1  27
BRANCH   1  30
HETATM   30  O1  UNL     1     -30.885 -12.516 -25.934  1.00  0.00    -0.389 OA
ATOM     31  H1  UNL     1     -30.047 -12.069 -25.902  1.00  0.00     0.210 HD
ENDBRANCH   1  30
TORSDOF 6
ENDMDL
MODEL 2
REMARK VINA RESULT: -7.512541574      3.454      5.304
REMARK  6 active torsions:
REMARK  status: ('A' for Active; 'I' for Inactive)
REMARK    1  A    between atoms: C2_2  and  C3_3 
REMARK    2  A    between atoms: C3_3  and  C4_4 
REMARK    3  A    between atoms: C4_4  and  O1_5 
REMARK    4  A    between atoms: C11_13  and  O2_14 
REMARK    5  A    between atoms: C11_13  and  C12_16 
REMARK    6  A    between atoms: C12_16  and  N1_17 
ROOT
HETATM    1  C4  UNL     1     -34.458 -11.063 -24.633  1.00  0.00     0.068 C 
HETATM    2  C5  UNL     1     -35.117 -11.841 -25.749  1.00  0.00     0.039 C 
HETATM    3  C6  UNL     1     -34.697 -11.014 -26.959  1.00  0.00     0.009 C 
HETATM    4  C7  UNL     1     -33.294 -10.566 -26.635  1.00  0.00     0.001 C 
HETATM    5  C8  UNL     1     -33.089  -9.102 -26.818  1.00  0.00    -0.005 C 
HETATM    6  C9  UNL     1     -33.375  -8.677 -28.260  1.00  0.00     0.008 C 
HETATM    7  C10 UNL     1     -33.480  -7.176 -28.197  1.00  0.00     0.040 C 
HETATM    8  C11 UNL     1     -32.356  -6.484 -27.515  1.00  0.00     0.074 C 
HETATM    9  C20 UNL     1     -31.329  -7.320 -26.855  1.00  0.00     0.044 C 
HETATM   10  C21 UNL     1     -31.658  -8.752 -26.582  1.00  0.00    -0.007 C 
HETATM   11  C22 UNL     1     -31.273  -9.174 -25.188  1.00  0.00     0.006 C 
HETATM   12  C23 UNL     1     -32.353  -9.847 -24.412  1.00  0.00     0.013 C 
HETATM   13  C24 UNL     1     -33.057 -10.923 -25.183  1.00  0.00    -0.009 C 
HETATM   14  C25 UNL     1     -32.251 -12.204 -25.082  1.00  0.00     0.019 C 
ENDROOT
BRANCH   8  15
HETATM   15  O2  UNL     1     -32.937  -5.620 -26.572  1.00  0.00    -0.388 OA
ATOM     16  H2  UNL     1     -32.219  -5.177 -26.137  1.00  0.00     0.210 HD
ENDBRANCH   8  15
BRANCH   8  17
HETATM   17  C12 UNL     1     -31.640  -5.667 -28.615  1.00  0.00     0.155 C 
BRANCH  17  18
HETATM   18  N1  UNL     1     -30.391  -6.183 -28.998  1.00  0.00    -0.398 N 
HETATM   19  C13 UNL     1     -29.281  -5.459 -28.507  1.00  0.00     0.148 C 
HETATM   20  C14 UNL     1     -28.020  -5.501 -29.293  1.00  0.00     0.291 C 
HETATM   21  N2  UNL     1     -28.097  -5.758 -30.679  1.00  0.00     0.088 N 
HETATM   22  C15 UNL     1     -27.461  -4.759 -31.508  1.00  0.00     0.310 C 
HETATM   23  C16 UNL     1     -29.366  -6.081 -31.216  1.00  0.00     0.301 C 
HETATM   24  C17 UNL     1     -30.253  -6.831 -30.238  1.00  0.00     0.047 C 
HETATM   25  C18 UNL     1     -29.550  -8.172 -29.982  1.00  0.00     0.039 C 
HETATM   26  C19 UNL     1     -31.527  -7.145 -30.955  1.00  0.00     0.039 C 
ENDBRANCH  17  18
ENDBRANCH   8  17
BRANCH   1  27
HETATM   27  C3  UNL     1     -34.539 -11.720 -23.294  1.00  0.00     0.065 C 
BRANCH  27  28
HETATM   28  C2  UNL     1     -35.733 -12.645 -23.242  1.00  0.00    -0.034 C 
HETATM   29  C1  UNL     1     -36.022 -13.317 -22.135  1.00  0.00     0.007 C 
ENDBRANCH  27  28
ENDBRANCH   1  27
BRANCH   1  30
HETATM   30  O1  UNL     1     -35.025  -9.784 -24.623  1.00  0.00    -0.389 OA
ATOM     31  H1  UNL     1     -35.009  -9.382 -25.483  1.00  0.00     0.210 HD
ENDBRANCH   1  30
TORSDOF 6
ENDMDL
MODEL 3
REMARK VINA RESULT: -7.510865500      1.253      1.614
REMARK  6 active torsions:
REMARK  status: ('A' for Active; 'I' for Inactive)
REMARK    1  A    between atoms: C2_2  and  C3_3 
REMARK    2  A    between atoms: C3_3  and  C4_4 
REMARK    3  A    between atoms: C4_4  and  O1_5 
REMARK    4  A    between atoms: C11_13  and  O2_14 
REMARK    5  A    between atoms: C11_13  and  C12_16 
REMARK    6  A    between atoms: C12_16  and  N1_17 
ROOT
HETATM    1  C4  UNL     1     -31.556 -12.746 -24.617  1.00  0.00     0.068 C 
HETATM    2  C5  UNL     1     -30.761 -12.137 -23.485  1.00  0.00     0.039 C 
HETATM    3  C6  UNL     1     -31.060 -10.656 -23.692  1.00  0.00     0.009 C 
HETATM    4  C7  UNL     1     -32.500 -10.627 -24.141  1.00  0.00     0.001 C 
HETATM    5  C8  UNL     1     -32.715  -9.817 -25.372  1.00  0.00    -0.005 C 
HETATM    6  C9  UNL     1     -32.278  -8.364 -25.164  1.00  0.00     0.008 C 
HETATM    7  C10 UNL     1     -32.213  -7.788 -26.554  1.00  0.00     0.040 C 
HETATM    8  C11 UNL     1     -33.420  -8.002 -27.394  1.00  0.00     0.074 C 
HETATM    9  C20 UNL     1     -34.497  -8.859 -26.849  1.00  0.00     0.044 C 
HETATM   10  C21 UNL     1     -34.170  -9.748 -25.693  1.00  0.00    -0.007 C 
HETATM   11  C22 UNL     1     -34.699 -11.147 -25.877  1.00  0.00     0.006 C 
HETATM   12  C23 UNL     1     -33.699 -12.231 -25.670  1.00  0.00     0.013 C 
HETATM   13  C24 UNL     1     -32.890 -12.063 -24.417  1.00  0.00    -0.009 C 
HETATM   14  C25 UNL     1     -33.675 -12.628 -23.249  1.00  0.00     0.019 C 
ENDROOT
BRANCH   8  15
HETATM   15  O2  UNL     1     -32.966  -8.533 -28.612  1.00  0.00    -0.388 OA
ATOM     16  H2  UNL     1     -32.020  -8.570 -28.551  1.00  0.00     0.210 HD
ENDBRANCH   8  15
BRANCH   8  17
HETATM   17  C12 UNL     1     -34.026  -6.598 -27.618  1.00  0.00     0.155 C 
BRANCH  17  18
HETATM   18  N1  UNL     1     -33.335  -5.559 -26.973  1.00  0.00    -0.398 N 
HETATM   19  C13 UNL     1     -33.991  -5.035 -25.836  1.00  0.00     0.148 C 
HETATM   20  C14 UNL     1     -33.715  -3.623 -25.463  1.00  0.00     0.291 C 
HETATM   21  N2  UNL     1     -33.298  -2.728 -26.472  1.00  0.00     0.088 N 
HETATM   22  C15 UNL     1     -34.111  -1.539 -26.590  1.00  0.00     0.310 C 
HETATM   23  C16 UNL     1     -33.050  -3.261 -27.759  1.00  0.00     0.301 C 
HETATM   24  C17 UNL     1     -32.527  -4.686 -27.722  1.00  0.00     0.047 C 
HETATM   25  C18 UNL     1     -31.160  -4.611 -27.026  1.00  0.00     0.039 C 
HETATM   26  C19 UNL     1     -32.265  -5.093 -29.137  1.00  0.00     0.039 C 
ENDBRANCH  17  18
ENDBRANCH   8  17
BRANCH   1  27
HETATM   27  C3  UNL     1     -31.612 -14.239 -24.596  1.00  0.00     0.065 C 
BRANCH  27  28
HETATM   28  C2  UNL     1     -30.257 -14.813 -24.941  1.00  0.00    -0.034 C 
HETATM   29  C1  UNL     1     -30.154 -15.909 -25.681  1.00  0.00     0.007 C 
ENDBRANCH  27  28
ENDBRANCH   1  27
BRANCH   1  30
HETATM   30  O1  UNL     1     -31.021 -12.260 -25.815  1.00  0.00    -0.389 OA
ATOM     31  H1  UNL     1     -31.499 -11.505 -26.138  1.00  0.00     0.210 HD
ENDBRANCH   1  30
TORSDOF 6
ENDMDL
MODEL 4
REMARK VINA RESULT: -7.422627029      3.676      5.475
REMARK  6 active torsions:
REMARK  status: ('A' for Active; 'I' for Inactive)
REMARK    1  A    between atoms: C2_2  and  C3_3 
REMARK    2  A    between atoms: C3_3  and  C4_4 
REMARK    3  A    between atoms: C4_4  and  O1_5 
REMARK    4  A    between atoms: C11_13  and  O2_14 
REMARK    5  A    between atoms: C11_13  and  C12_16 
REMARK    6  A    between atoms: C12_16  and  N1_17 
ROOT
HETATM    1  C4  UNL     1     -34.208 -10.943 -25.635  1.00  0.00     0.068 C 
HETATM    2  C5  UNL     1     -33.007 -11.642 -25.040  1.00  0.00     0.039 C 
HETATM    3  C6  UNL     1     -31.883 -11.030 -25.869  1.00  0.00     0.009 C 
HETATM    4  C7  UNL     1     -32.310  -9.598 -26.074  1.00  0.00     0.001 C 
HETATM    5  C8  UNL     1     -32.244  -9.164 -27.497  1.00  0.00    -0.005 C 
HETATM    6  C9  UNL     1     -30.823  -9.295 -28.052  1.00  0.00     0.008 C 
HETATM    7  C10 UNL     1     -30.989  -9.176 -29.545  1.00  0.00     0.040 C 
HETATM    8  C11 UNL     1     -31.776  -8.005 -30.011  1.00  0.00     0.074 C 
HETATM    9  C20 UNL     1     -32.425  -7.157 -28.986  1.00  0.00     0.044 C 
HETATM   10  C21 UNL     1     -32.577  -7.714 -27.607  1.00  0.00    -0.007 C 
HETATM   11  C22 UNL     1     -33.954  -7.483 -27.043  1.00  0.00     0.006 C 
HETATM   12  C23 UNL     1     -34.624  -8.696 -26.496  1.00  0.00     0.013 C 
HETATM   13  C24 UNL     1     -33.741  -9.507 -25.593  1.00  0.00    -0.009 C 
HETATM   14  C25 UNL     1     -33.790  -8.909 -24.199  1.00  0.00     0.019 C 
ENDROOT
BRANCH   8  15
HETATM   15  O2  UNL     1     -32.748  -8.506 -30.891  1.00  0.00    -0.388 OA
ATOM     16  H2  UNL     1     -32.330  -9.204 -31.382  1.00  0.00     0.210 HD
ENDBRANCH   8  15
BRANCH   8  17
HETATM   17  C12 UNL     1     -30.776  -7.109 -30.776  1.00  0.00     0.155 C 
BRANCH  17  18
HETATM   18  N1  UNL     1     -30.289  -6.020 -30.033  1.00  0.00    -0.398 N 
HETATM   19  C13 UNL     1     -30.852  -4.772 -30.384  1.00  0.00     0.148 C 
HETATM   20  C14 UNL     1     -30.035  -3.552 -30.152  1.00  0.00     0.291 C 
HETATM   21  N2  UNL     1     -28.629  -3.674 -30.130  1.00  0.00     0.088 N 
HETATM   22  C15 UNL     1     -27.939  -2.804 -31.055  1.00  0.00     0.310 C 
HETATM   23  C16 UNL     1     -28.084  -4.978 -30.210  1.00  0.00     0.301 C 
HETATM   24  C17 UNL     1     -28.964  -6.032 -29.563  1.00  0.00     0.047 C 
HETATM   25  C18 UNL     1     -29.003  -5.682 -28.068  1.00  0.00     0.039 C 
HETATM   26  C19 UNL     1     -28.243  -7.337 -29.679  1.00  0.00     0.039 C 
ENDBRANCH  17  18
ENDBRANCH   8  17
BRANCH   1  27
HETATM   27  C3  UNL     1     -35.491 -11.203 -24.914  1.00  0.00     0.065 C 
BRANCH  27  28
HETATM   28  C2  UNL     1     -35.375 -12.465 -24.091  1.00  0.00    -0.034 C 
HETATM   29  C1  UNL     1     -35.873 -12.522 -22.862  1.00  0.00     0.007 C 
ENDBRANCH  27  28
ENDBRANCH   1  27
BRANCH   1  30
HETATM   30  O1  UNL     1     -34.282 -11.312 -26.983  1.00  0.00    -0.389 OA
ATOM     31  H1  UNL     1     -34.086 -10.584 -27.561  1.00  0.00     0.210 HD
ENDBRANCH   1  30
TORSDOF 6
ENDMDL
MODEL 5
REMARK VINA RESULT: -7.396433166      3.932      7.658
REMARK  6 active torsions:
REMARK  status: ('A' for Active; 'I' for Inactive)
REMARK    1  A    between atoms: C2_2  and  C3_3 
REMARK    2  A    between atoms: C3_3  and  C4_4 
REMARK    3  A    between atoms: C4_4  and  O1_5 
REMARK    4  A    between atoms: C11_13  and  O2_14 
REMARK    5  A    between atoms: C11_13  and  C12_16 
REMARK    6  A    between atoms: C12_16  and  N1_17 
ROOT
HETATM    1  C4  UNL     1     -29.418  -6.332 -29.686  1.00  0.00     0.068 C 
HETATM    2  C5  UNL     1     -28.193  -5.925 -28.899  1.00  0.00     0.039 C 
HETATM    3  C6  UNL     1     -28.548  -6.468 -27.519  1.00  0.00     0.009 C 
HETATM    4  C7  UNL     1     -29.270  -7.761 -27.803  1.00  0.00     0.001 C 
HETATM    5  C8  UNL     1     -30.568  -7.878 -27.082  1.00  0.00    -0.005 C 
HETATM    6  C9  UNL     1     -30.371  -7.796 -25.566  1.00  0.00     0.008 C 
HETATM    7  C10 UNL     1     -31.755  -7.566 -25.018  1.00  0.00     0.040 C 
HETATM    8  C11 UNL     1     -32.799  -8.507 -25.498  1.00  0.00     0.074 C 
HETATM    9  C20 UNL     1     -32.423  -9.477 -26.551  1.00  0.00     0.044 C 
HETATM   10  C21 UNL     1     -31.171  -9.220 -27.327  1.00  0.00    -0.007 C 
HETATM   11  C22 UNL     1     -31.366  -9.408 -28.809  1.00  0.00     0.006 C 
HETATM   12  C23 UNL     1     -30.899  -8.273 -29.655  1.00  0.00     0.013 C 
HETATM   13  C24 UNL     1     -29.526  -7.788 -29.294  1.00  0.00    -0.009 C 
HETATM   14  C25 UNL     1     -28.501  -8.665 -29.987  1.00  0.00     0.019 C 
ENDROOT
BRANCH   8  15
HETATM   15  O2  UNL     1     -33.868  -7.716 -25.947  1.00  0.00    -0.388 OA
ATOM     16  H2  UNL     1     -34.050  -7.993 -26.837  1.00  0.00     0.210 HD
ENDBRANCH   8  15
BRANCH   8  17
HETATM   17  C12 UNL     1     -33.225  -9.325 -24.258  1.00  0.00     0.155 C 
BRANCH  17  18
HETATM   18  N1  UNL     1     -33.730 -10.602 -24.553  1.00  0.00    -0.398 N 
HETATM   19  C13 UNL     1     -35.137 -10.663 -24.674  1.00  0.00     0.148 C 
HETATM   20  C14 UNL     1     -35.806 -11.956 -24.369  1.00  0.00     0.291 C 
HETATM   21  N2  UNL     1     -35.165 -12.856 -23.490  1.00  0.00     0.088 N 
HETATM   22  C15 UNL     1     -35.972 -13.264 -22.362  1.00  0.00     0.310 C 
HETATM   23  C16 UNL     1     -33.864 -12.523 -23.046  1.00  0.00     0.301 C 
HETATM   24  C17 UNL     1     -33.064 -11.744 -24.075  1.00  0.00     0.047 C 
HETATM   25  C18 UNL     1     -32.874 -12.698 -25.264  1.00  0.00     0.039 C 
HETATM   26  C19 UNL     1     -31.708 -11.511 -23.491  1.00  0.00     0.039 C 
ENDBRANCH  17  18
ENDBRANCH   8  17
BRANCH   1  27
HETATM   27  C3  UNL     1     -29.314  -6.089 -31.156  1.00  0.00     0.065 C 
BRANCH  27  28
HETATM   28  C2  UNL     1     -28.042  -5.336 -31.467  1.00  0.00    -0.034 C 
HETATM   29  C1  UNL     1     -27.945  -4.590 -32.561  1.00  0.00     0.007 C 
ENDBRANCH  27  28
ENDBRANCH   1  27
BRANCH   1  30
HETATM   30  O1  UNL     1     -30.516  -5.673 -29.123  1.00  0.00    -0.389 OA
ATOM     31  H1  UNL     1     -30.386  -5.492 -28.199  1.00  0.00     0.210 HD
ENDBRANCH   1  30
TORSDOF 6
ENDMDL
