MODEL 1
REMARK VINA RESULT: -8.968288371      0.000      0.000
REMARK  7 active torsions:
REMARK  status: ('A' for Active; 'I' for Inactive)
REMARK    1  A    between atoms: C2_2  and  C3_3 
REMARK    2  A    between atoms: C3_3  and  O1_4 
REMARK    3  A    between atoms: C7_9  and  O2_10 
REMARK    4  A    between atoms: C11_15  and  O3_16 
REMARK    5  A    between atoms: O3_16  and  C12_17 
REMARK    6  A    between atoms: C16_22  and  C17_23 
REMARK    7  A    between atoms: C17_23  and  C18_24 
ROOT
HETATM    1  C3  UNL     1     -33.361  -8.321 -25.573  1.00  0.00     0.095 C 
HETATM    2  C4  UNL     1     -32.103  -7.540 -25.618  1.00  0.00     0.085 C 
HETATM    3  C5  UNL     1     -31.344  -7.702 -26.898  1.00  0.00    -0.051 C 
HETATM    4  C6  UNL     1     -31.113  -6.733 -27.757  1.00  0.00     0.017 C 
HETATM    5  C7  UNL     1     -30.836  -9.075 -27.156  1.00  0.00     0.152 C 
HETATM    6  C8  UNL     1     -31.823 -10.043 -26.615  1.00  0.00     0.037 C 
HETATM    7  C9  UNL     1     -31.485 -10.806 -25.416  1.00  0.00     0.001 C 
HETATM    8  C10 UNL     1     -32.830 -11.491 -25.109  1.00  0.00     0.039 C 
HETATM    9  C11 UNL     1     -33.891 -10.753 -25.870  1.00  0.00     0.144 C 
HETATM   10  C14 UNL     1     -33.234  -9.514 -26.448  1.00  0.00     0.025 C 
HETATM   11  C15 UNL     1     -33.884  -9.335 -27.829  1.00  0.00     0.022 C 
HETATM   12  C16 UNL     1     -30.952 -10.200 -24.219  1.00  0.00     0.007 C 
HETATM   13  C22 UNL     1     -30.421  -8.854 -24.175  1.00  0.00     0.019 A 
HETATM   14  C23 UNL     1     -29.156  -8.522 -23.325  1.00  0.00     0.048 A 
HETATM   15  C24 UNL     1     -30.439  -8.207 -22.748  1.00  0.00     0.134 A 
HETATM   16  O5  UNL     1     -31.440  -7.416 -23.241  1.00  0.00    -0.378 OA
HETATM   17  C25 UNL     1     -31.102  -7.654 -24.554  1.00  0.00     0.145 C 
ENDROOT
BRANCH  12  18
HETATM   18  C17 UNL     1     -29.859 -11.151 -23.658  1.00  0.00     0.033 C 
BRANCH  18  19
HETATM   19  C18 UNL     1     -29.981 -12.520 -24.123  1.00  0.00    -0.024 C 
HETATM   20  C19 UNL     1     -28.950 -13.355 -24.205  1.00  0.00    -0.091 C 
HETATM   21  C20 UNL     1     -29.130 -14.769 -24.693  1.00  0.00     0.042 C 
HETATM   22  C21 UNL     1     -27.557 -12.976 -23.844  1.00  0.00     0.042 C 
ENDBRANCH  18  19
ENDBRANCH  12  18
BRANCH   5  23
HETATM   23  O2  UNL     1     -30.684  -9.161 -28.556  1.00  0.00    -0.391 OA
ATOM     24  H2  UNL     1     -30.685 -10.091 -28.753  1.00  0.00     0.210 HD
ENDBRANCH   5  23
BRANCH   9  25
HETATM   25  O3  UNL     1     -35.025 -10.464 -25.089  1.00  0.00    -0.315 OA
BRANCH  25  26
HETATM   26  C12 UNL     1     -35.973 -11.443 -24.833  1.00  0.00     0.255 C 
HETATM   27  C13 UNL     1     -36.097 -12.091 -23.487  1.00  0.00     0.126 C 
HETATM   28  O4  UNL     1     -36.742 -11.795 -25.746  1.00  0.00    -0.266 OA
ENDBRANCH  25  26
ENDBRANCH   9  25
BRANCH   1  29
HETATM   29  C2  UNL     1     -34.505  -7.516 -26.113  1.00  0.00     0.002 C 
HETATM   30  C1  UNL     1     -34.481  -6.169 -26.060  1.00  0.00     0.010 C 
ENDBRANCH   1  29
BRANCH   1  31
HETATM   31  O1  UNL     1     -33.780  -8.613 -24.272  1.00  0.00    -0.384 OA
ATOM     32  H1  UNL     1     -32.958  -8.703 -23.804  1.00  0.00     0.211 HD
ENDBRANCH   1  31
TORSDOF 7
ENDMDL
MODEL 2
REMARK VINA RESULT: -8.562767376      0.923      1.131
REMARK  7 active torsions:
REMARK  status: ('A' for Active; 'I' for Inactive)
REMARK    1  A    between atoms: C2_2  and  C3_3 
REMARK    2  A    between atoms: C3_3  and  O1_4 
REMARK    3  A    between atoms: C7_9  and  O2_10 
REMARK    4  A    between atoms: C11_15  and  O3_16 
REMARK    5  A    between atoms: O3_16  and  C12_17 
REMARK    6  A    between atoms: C16_22  and  C17_23 
REMARK    7  A    between atoms: C17_23  and  C18_24 
ROOT
HETATM    1  C3  UNL     1     -33.448  -7.906 -25.637  1.00  0.00     0.095 C 
HETATM    2  C4  UNL     1     -32.336  -6.928 -25.678  1.00  0.00     0.085 C 
HETATM    3  C5  UNL     1     -31.399  -7.135 -26.826  1.00  0.00    -0.051 C 
HETATM    4  C6  UNL     1     -31.214  -6.275 -27.804  1.00  0.00     0.017 C 
HETATM    5  C7  UNL     1     -30.648  -8.418 -26.801  1.00  0.00     0.152 C 
HETATM    6  C8  UNL     1     -31.531  -9.458 -26.214  1.00  0.00     0.037 C 
HETATM    7  C9  UNL     1     -31.237  -9.968 -24.877  1.00  0.00     0.001 C 
HETATM    8  C10 UNL     1     -32.483 -10.830 -24.605  1.00  0.00     0.039 C 
HETATM    9  C11 UNL     1     -33.539 -10.411 -25.584  1.00  0.00     0.144 C 
HETATM   10  C14 UNL     1     -33.018  -9.170 -26.286  1.00  0.00     0.025 C 
HETATM   11  C15 UNL     1     -33.500  -9.312 -27.739  1.00  0.00     0.022 C 
HETATM   12  C16 UNL     1     -30.970  -9.110 -23.747  1.00  0.00     0.007 C 
HETATM   13  C22 UNL     1     -30.671  -7.699 -23.869  1.00  0.00     0.019 A 
HETATM   14  C23 UNL     1     -29.599  -7.028 -22.957  1.00  0.00     0.048 A 
HETATM   15  C24 UNL     1     -30.980  -6.867 -22.579  1.00  0.00     0.134 A 
HETATM   16  O5  UNL     1     -32.021  -6.346 -23.298  1.00  0.00    -0.378 OA
HETATM   17  C25 UNL     1     -31.479  -6.707 -24.511  1.00  0.00     0.145 C 
ENDROOT
BRANCH  12  18
HETATM   18  C17 UNL     1     -29.823  -9.760 -22.925  1.00  0.00     0.033 C 
BRANCH  18  19
HETATM   19  C18 UNL     1     -29.464 -11.093 -23.374  1.00  0.00    -0.024 C 
HETATM   20  C19 UNL     1     -28.209 -11.526 -23.438  1.00  0.00    -0.091 C 
HETATM   21  C20 UNL     1     -27.890 -12.921 -23.911  1.00  0.00     0.042 C 
HETATM   22  C21 UNL     1     -27.034 -10.690 -23.073  1.00  0.00     0.042 C 
ENDBRANCH  18  19
ENDBRANCH  12  18
BRANCH   5  23
HETATM   23  O2  UNL     1     -30.302  -8.677 -28.143  1.00  0.00    -0.391 OA
ATOM     24  H2  UNL     1     -29.747  -9.448 -28.117  1.00  0.00     0.210 HD
ENDBRANCH   5  23
BRANCH   9  25
HETATM   25  O3  UNL     1     -34.798 -10.218 -24.986  1.00  0.00    -0.315 OA
BRANCH  25  26
HETATM   26  C12 UNL     1     -35.677 -11.281 -24.836  1.00  0.00     0.255 C 
HETATM   27  C13 UNL     1     -35.860 -11.975 -23.519  1.00  0.00     0.126 C 
HETATM   28  O4  UNL     1     -36.330 -11.670 -25.820  1.00  0.00    -0.266 OA
ENDBRANCH  25  26
ENDBRANCH   9  25
BRANCH   1  29
HETATM   29  C2  UNL     1     -34.624  -7.404 -26.420  1.00  0.00     0.002 C 
HETATM   30  C1  UNL     1     -34.811  -6.082 -26.604  1.00  0.00     0.010 C 
ENDBRANCH   1  29
BRANCH   1  31
HETATM   31  O1  UNL     1     -33.982  -8.077 -24.358  1.00  0.00    -0.384 OA
ATOM     32  H1  UNL     1     -34.064  -9.022 -24.291  1.00  0.00     0.211 HD
ENDBRANCH   1  31
TORSDOF 7
ENDMDL
MODEL 3
REMARK VINA RESULT: -8.420027665      1.520      4.270
REMARK  7 active torsions:
REMARK  status: ('A' for Active; 'I' for Inactive)
REMARK    1  A    between atoms: C2_2  and  C3_3 
REMARK    2  A    between atoms: C3_3  and  O1_4 
REMARK    3  A    between atoms: C7_9  and  O2_10 
REMARK    4  A    between atoms: C11_15  and  O3_16 
REMARK    5  A    between atoms: O3_16  and  C12_17 
REMARK    6  A    between atoms: C16_22  and  C17_23 
REMARK    7  A    between atoms: C17_23  and  C18_24 
ROOT
HETATM    1  C3  UNL     1     -33.337  -8.415 -26.492  1.00  0.00     0.095 C 
HETATM    2  C4  UNL     1     -33.940  -8.552 -25.145  1.00  0.00     0.085 C 
HETATM    3  C5  UNL     1     -33.067  -8.036 -24.044  1.00  0.00    -0.051 C 
HETATM    4  C6  UNL     1     -33.368  -7.017 -23.268  1.00  0.00     0.017 C 
HETATM    5  C7  UNL     1     -31.788  -8.772 -23.860  1.00  0.00     0.152 C 
HETATM    6  C8  UNL     1     -31.314  -9.216 -25.195  1.00  0.00     0.037 C 
HETATM    7  C9  UNL     1     -31.371 -10.636 -25.533  1.00  0.00     0.001 C 
HETATM    8  C10 UNL     1     -30.998 -10.603 -27.027  1.00  0.00     0.039 C 
HETATM    9  C11 UNL     1     -31.178  -9.192 -27.501  1.00  0.00     0.144 C 
HETATM   10  C14 UNL     1     -31.858  -8.435 -26.376  1.00  0.00     0.025 C 
HETATM   11  C15 UNL     1     -31.219  -7.036 -26.405  1.00  0.00     0.022 C 
HETATM   12  C16 UNL     1     -32.548 -11.448 -25.332  1.00  0.00     0.007 C 
HETATM   13  C22 UNL     1     -33.672 -11.037 -24.517  1.00  0.00     0.019 A 
HETATM   14  C23 UNL     1     -34.418 -12.063 -23.611  1.00  0.00     0.048 A 
HETATM   15  C24 UNL     1     -35.019 -11.748 -24.883  1.00  0.00     0.134 A 
HETATM   16  O5  UNL     1     -35.395 -10.534 -25.387  1.00  0.00    -0.378 OA
HETATM   17  C25 UNL     1     -34.445  -9.842 -24.670  1.00  0.00     0.145 C 
ENDROOT
BRANCH  12  18
HETATM   18  C17 UNL     1     -32.078 -12.835 -24.813  1.00  0.00     0.033 C 
BRANCH  18  19
HETATM   19  C18 UNL     1     -30.673 -12.879 -24.454  1.00  0.00    -0.024 C 
HETATM   20  C19 UNL     1     -29.897 -13.935 -24.680  1.00  0.00    -0.091 C 
HETATM   21  C20 UNL     1     -28.442 -13.930 -24.290  1.00  0.00     0.042 C 
HETATM   22  C21 UNL     1     -30.386 -15.191 -25.309  1.00  0.00     0.042 C 
ENDBRANCH  18  19
ENDBRANCH  12  18
BRANCH   5  23
HETATM   23  O2  UNL     1     -30.915  -7.856 -23.238  1.00  0.00    -0.391 OA
ATOM     24  H2  UNL     1     -30.198  -7.734 -23.849  1.00  0.00     0.210 HD
ENDBRANCH   5  23
BRANCH   9  25
HETATM   25  O3  UNL     1     -31.874  -9.108 -28.722  1.00  0.00    -0.315 OA
BRANCH  25  26
HETATM   26  C12 UNL     1     -31.328  -8.424 -29.798  1.00  0.00     0.255 C 
HETATM   27  C13 UNL     1     -29.851  -8.194 -29.922  1.00  0.00     0.126 C 
HETATM   28  O4  UNL     1     -32.084  -7.987 -30.685  1.00  0.00    -0.266 OA
ENDBRANCH  25  26
ENDBRANCH   9  25
BRANCH   1  29
HETATM   29  C2  UNL     1     -33.699  -7.094 -27.103  1.00  0.00     0.002 C 
HETATM   30  C1  UNL     1     -34.866  -6.494 -26.795  1.00  0.00     0.010 C 
ENDBRANCH   1  29
BRANCH   1  31
HETATM   31  O1  UNL     1     -33.846  -9.330 -27.417  1.00  0.00    -0.384 OA
ATOM     32  H1  UNL     1     -34.263  -8.767 -28.059  1.00  0.00     0.211 HD
ENDBRANCH   1  31
TORSDOF 7
ENDMDL
MODEL 4
REMARK VINA RESULT: -8.407237067      1.807      5.069
REMARK  7 active torsions:
REMARK  status: ('A' for Active; 'I' for Inactive)
REMARK    1  A    between atoms: C2_2  and  C3_3 
REMARK    2  A    between atoms: C3_3  and  O1_4 
REMARK    3  A    between atoms: C7_9  and  O2_10 
REMARK    4  A    between atoms: C11_15  and  O3_16 
REMARK    5  A    between atoms: O3_16  and  C12_17 
REMARK    6  A    between atoms: C16_22  and  C17_23 
REMARK    7  A    between atoms: C17_23  and  C18_24 
ROOT
HETATM    1  C3  UNL     1     -32.674  -7.755 -28.359  1.00  0.00     0.095 C 
HETATM    2  C4  UNL     1     -34.018  -7.731 -27.735  1.00  0.00     0.085 C 
HETATM    3  C5  UNL     1     -34.231  -6.567 -26.819  1.00  0.00    -0.051 C 
HETATM    4  C6  UNL     1     -35.115  -5.612 -27.016  1.00  0.00     0.017 C 
HETATM    5  C7  UNL     1     -33.358  -6.547 -25.615  1.00  0.00     0.152 C 
HETATM    6  C8  UNL     1     -32.038  -7.112 -25.993  1.00  0.00     0.037 C 
HETATM    7  C9  UNL     1     -31.660  -8.431 -25.490  1.00  0.00     0.001 C 
HETATM    8  C10 UNL     1     -30.363  -8.691 -26.279  1.00  0.00     0.039 C 
HETATM    9  C11 UNL     1     -30.344  -7.736 -27.436  1.00  0.00     0.144 C 
HETATM   10  C14 UNL     1     -31.705  -7.065 -27.472  1.00  0.00     0.025 C 
HETATM   11  C15 UNL     1     -31.414  -5.614 -27.888  1.00  0.00     0.022 C 
HETATM   12  C16 UNL     1     -32.527  -9.582 -25.566  1.00  0.00     0.007 C 
HETATM   13  C22 UNL     1     -33.942  -9.498 -25.861  1.00  0.00     0.019 A 
HETATM   14  C23 UNL     1     -34.966 -10.417 -25.129  1.00  0.00     0.048 A 
HETATM   15  C24 UNL     1     -34.550 -10.815 -26.451  1.00  0.00     0.134 A 
HETATM   16  O5  UNL     1     -34.624 -10.123 -27.628  1.00  0.00    -0.378 OA
HETATM   17  C25 UNL     1     -34.539  -8.894 -27.013  1.00  0.00     0.145 C 
ENDROOT
BRANCH  12  18
HETATM   18  C17 UNL     1     -32.375 -10.372 -24.236  1.00  0.00     0.033 C 
BRANCH  18  19
HETATM   19  C18 UNL     1     -31.581 -11.580 -24.363  1.00  0.00    -0.024 C 
HETATM   20  C19 UNL     1     -30.349 -11.695 -23.876  1.00  0.00    -0.091 C 
HETATM   21  C20 UNL     1     -29.566 -12.973 -24.032  1.00  0.00     0.042 C 
HETATM   22  C21 UNL     1     -29.643 -10.596 -23.164  1.00  0.00     0.042 C 
ENDBRANCH  18  19
ENDBRANCH  12  18
BRANCH   5  23
HETATM   23  O2  UNL     1     -33.290  -5.194 -25.223  1.00  0.00    -0.391 OA
ATOM     24  H2  UNL     1     -32.378  -4.948 -25.321  1.00  0.00     0.210 HD
ENDBRANCH   5  23
BRANCH   9  25
HETATM   25  O3  UNL     1     -30.001  -8.353 -28.653  1.00  0.00    -0.315 OA
BRANCH  25  26
HETATM   26  C12 UNL     1     -28.724  -8.216 -29.176  1.00  0.00     0.255 C 
HETATM   27  C13 UNL     1     -27.894  -6.993 -28.925  1.00  0.00     0.126 C 
HETATM   28  O4  UNL     1     -28.255  -9.133 -29.875  1.00  0.00    -0.266 OA
ENDBRANCH  25  26
ENDBRANCH   9  25
BRANCH   1  29
HETATM   29  C2  UNL     1     -32.679  -6.999 -29.654  1.00  0.00     0.002 C 
HETATM   30  C1  UNL     1     -32.739  -7.655 -30.831  1.00  0.00     0.010 C 
ENDBRANCH   1  29
BRANCH   1  31
HETATM   31  O1  UNL     1     -32.275  -9.034 -28.752  1.00  0.00    -0.384 OA
ATOM     32  H1  UNL     1     -31.337  -8.933 -28.868  1.00  0.00     0.211 HD
ENDBRANCH   1  31
TORSDOF 7
ENDMDL
MODEL 5
REMARK VINA RESULT: -7.660935594      2.233      5.307
REMARK  7 active torsions:
REMARK  status: ('A' for Active; 'I' for Inactive)
REMARK    1  A    between atoms: C2_2  and  C3_3 
REMARK    2  A    between atoms: C3_3  and  O1_4 
REMARK    3  A    between atoms: C7_9  and  O2_10 
REMARK    4  A    between atoms: C11_15  and  O3_16 
REMARK    5  A    between atoms: O3_16  and  C12_17 
REMARK    6  A    between atoms: C16_22  and  C17_23 
REMARK    7  A    between atoms: C17_23  and  C18_24 
ROOT
HETATM    1  C3  UNL     1     -30.139  -7.555 -24.829  1.00  0.00     0.095 C 
HETATM    2  C4  UNL     1     -31.307  -6.994 -25.548  1.00  0.00     0.085 C 
HETATM    3  C5  UNL     1     -32.403  -6.531 -24.640  1.00  0.00    -0.051 C 
HETATM    4  C6  UNL     1     -32.803  -5.283 -24.528  1.00  0.00     0.017 C 
HETATM    5  C7  UNL     1     -33.050  -7.604 -23.840  1.00  0.00     0.152 C 
HETATM    6  C8  UNL     1     -32.014  -8.610 -23.494  1.00  0.00     0.037 C 
HETATM    7  C9  UNL     1     -32.050  -9.919 -24.142  1.00  0.00     0.001 C 
HETATM    8  C10 UNL     1     -30.721 -10.528 -23.660  1.00  0.00     0.039 C 
HETATM    9  C11 UNL     1     -29.870  -9.401 -23.155  1.00  0.00     0.144 C 
HETATM   10  C14 UNL     1     -30.582  -8.114 -23.528  1.00  0.00     0.025 C 
HETATM   11  C15 UNL     1     -30.335  -7.172 -22.337  1.00  0.00     0.022 C 
HETATM   12  C16 UNL     1     -32.187 -10.089 -25.569  1.00  0.00     0.007 C 
HETATM   13  C22 UNL     1     -32.598  -9.027 -26.463  1.00  0.00     0.019 A 
HETATM   14  C23 UNL     1     -33.549  -9.318 -27.664  1.00  0.00     0.048 A 
HETATM   15  C24 UNL     1     -32.139  -9.230 -27.947  1.00  0.00     0.134 A 
HETATM   16  O5  UNL     1     -31.268  -8.204 -27.701  1.00  0.00    -0.378 OA
HETATM   17  C25 UNL     1     -31.975  -7.748 -26.612  1.00  0.00     0.145 C 
ENDROOT
BRANCH  12  18
HETATM   18  C17 UNL     1     -33.138 -11.294 -25.809  1.00  0.00     0.033 C 
BRANCH  18  19
HETATM   19  C18 UNL     1     -33.985 -11.606 -24.673  1.00  0.00    -0.024 C 
HETATM   20  C19 UNL     1     -33.915 -12.755 -24.007  1.00  0.00    -0.091 C 
HETATM   21  C20 UNL     1     -34.817 -13.029 -22.832  1.00  0.00     0.042 C 
HETATM   22  C21 UNL     1     -32.975 -13.852 -24.361  1.00  0.00     0.042 C 
ENDBRANCH  18  19
ENDBRANCH  12  18
BRANCH   5  23
HETATM   23  O2  UNL     1     -33.593  -6.956 -22.712  1.00  0.00    -0.391 OA
ATOM     24  H2  UNL     1     -33.501  -7.574 -21.996  1.00  0.00     0.210 HD
ENDBRANCH   5  23
BRANCH   9  25
HETATM   25  O3  UNL     1     -28.546  -9.456 -23.629  1.00  0.00    -0.315 OA
BRANCH  25  26
HETATM   26  C12 UNL     1     -27.620 -10.299 -23.034  1.00  0.00     0.255 C 
HETATM   27  C13 UNL     1     -26.536 -10.968 -23.826  1.00  0.00     0.126 C 
HETATM   28  O4  UNL     1     -27.689 -10.507 -21.809  1.00  0.00    -0.266 OA
ENDBRANCH  25  26
ENDBRANCH   9  25
BRANCH   1  29
HETATM   29  C2  UNL     1     -29.144  -6.479 -24.514  1.00  0.00     0.002 C 
HETATM   30  C1  UNL     1     -28.974  -5.435 -25.351  1.00  0.00     0.010 C 
ENDBRANCH   1  29
BRANCH   1  31
HETATM   31  O1  UNL     1     -29.392  -8.445 -25.605  1.00  0.00    -0.384 OA
ATOM     32  H1  UNL     1     -29.929  -9.229 -25.597  1.00  0.00     0.211 HD
ENDBRANCH   1  31
TORSDOF 7
ENDMDL
