MODEL 1
REMARK VINA RESULT: -8.251457022      0.000      0.000
REMARK  4 active torsions:
REMARK  status: ('A' for Active; 'I' for Inactive)
REMARK    1  A    between atoms: C2_2  and  C3_3 
REMARK       I    between atoms: C3_3  and  N1_5 
REMARK    2  A    between atoms: N1_5  and  C4_7 
REMARK    3  A    between atoms: C10_15  and  C11_16 
REMARK    4  A    between atoms: C11_16  and  O4_17 
ROOT
HETATM    1  C4  UNL     1       6.737  17.160 -45.248  1.00  0.00     0.126 C 
HETATM    2  C5  UNL     1       5.356  16.590 -45.398  1.00  0.00     0.191 C 
HETATM    3  O2  UNL     1       4.563  17.139 -46.319  1.00  0.00    -0.232 OA
HETATM    4  O3  UNL     1       4.323  18.346 -46.421  1.00  0.00    -0.233 OA
HETATM    5  C6  UNL     1       4.569  19.289 -45.510  1.00  0.00     0.181 C 
HETATM    6  C7  UNL     1       5.464  20.285 -46.283  1.00  0.00     0.005 C 
HETATM    7  C8  UNL     1       4.967  20.496 -47.673  1.00  0.00     0.022 C 
HETATM    8  C9  UNL     1       5.636  21.530 -45.551  1.00  0.00    -0.010 C 
HETATM    9  C10 UNL     1       5.681  21.516 -44.240  1.00  0.00    -0.059 C 
HETATM   10  C12 UNL     1       5.559  20.254 -43.512  1.00  0.00     0.049 C 
HETATM   11  C13 UNL     1       5.448  19.013 -44.365  1.00  0.00     0.004 C 
HETATM   12  C14 UNL     1       4.999  17.940 -43.415  1.00  0.00     0.025 C 
HETATM   13  C15 UNL     1       4.645  16.650 -44.051  1.00  0.00    -0.016 C 
HETATM   14  C16 UNL     1       5.050  15.453 -43.221  1.00  0.00     0.018 C 
HETATM   15  C17 UNL     1       3.152  16.583 -44.238  1.00  0.00     0.018 C 
HETATM   16  C18 UNL     1       6.748  18.647 -45.033  1.00  0.00    -0.009 C 
HETATM   17  C19 UNL     1       7.955  19.010 -44.206  1.00  0.00     0.018 C 
HETATM   18  C20 UNL     1       6.764  19.465 -46.278  1.00  0.00     0.028 C 
ENDROOT
BRANCH   1  19
HETATM   19  N1  UNL     1       7.618  16.696 -46.279  1.00  0.00    -0.353 N 
HETATM   20  C3  UNL     1       7.865  15.329 -46.545  1.00  0.00     0.217 C 
HETATM   21  O1  UNL     1       7.291  14.458 -45.851  1.00  0.00    -0.274 OA
ATOM     22  H1  UNL     1       8.095  17.392 -46.853  1.00  0.00     0.163 HD
BRANCH  20  23
HETATM   23  C2  UNL     1       8.785  14.947 -47.625  1.00  0.00     0.098 C 
HETATM   24  C1  UNL     1       8.206  13.765 -48.358  1.00  0.00     0.014 C 
ENDBRANCH  20  23
ENDBRANCH   1  19
BRANCH   9  25
HETATM   25  C11 UNL     1       5.856  22.784 -43.471  1.00  0.00     0.198 C 
BRANCH  25  26
HETATM   26  O4  UNL     1       7.204  22.844 -43.048  1.00  0.00    -0.397 OA
ATOM     27  H4  UNL     1       7.569  23.662 -43.366  1.00  0.00     0.209 HD
ENDBRANCH  25  26
ENDBRANCH   9  25
TORSDOF 4
ENDMDL
MODEL 2
REMARK VINA RESULT: -7.774986644      1.029      1.055
REMARK  4 active torsions:
REMARK  status: ('A' for Active; 'I' for Inactive)
REMARK    1  A    between atoms: C2_2  and  C3_3 
REMARK       I    between atoms: C3_3  and  N1_5 
REMARK    2  A    between atoms: N1_5  and  C4_7 
REMARK    3  A    between atoms: C10_15  and  C11_16 
REMARK    4  A    between atoms: C11_16  and  O4_17 
ROOT
HETATM    1  C4  UNL     1       6.466  17.239 -45.211  1.00  0.00     0.126 C 
HETATM    2  C5  UNL     1       4.977  17.142 -45.042  1.00  0.00     0.191 C 
HETATM    3  O2  UNL     1       4.216  17.814 -45.907  1.00  0.00    -0.232 OA
HETATM    4  O3  UNL     1       4.337  19.013 -46.177  1.00  0.00    -0.233 OA
HETATM    5  C6  UNL     1       5.037  19.919 -45.492  1.00  0.00     0.181 C 
HETATM    6  C7  UNL     1       6.014  20.471 -46.556  1.00  0.00     0.005 C 
HETATM    7  C8  UNL     1       5.332  20.675 -47.866  1.00  0.00     0.022 C 
HETATM    8  C9  UNL     1       6.700  21.664 -46.085  1.00  0.00    -0.010 C 
HETATM    9  C10 UNL     1       7.005  21.784 -44.815  1.00  0.00    -0.059 C 
HETATM   10  C12 UNL     1       6.659  20.723 -43.871  1.00  0.00     0.049 C 
HETATM   11  C13 UNL     1       6.006  19.500 -44.469  1.00  0.00     0.004 C 
HETATM   12  C14 UNL     1       5.457  18.749 -43.290  1.00  0.00     0.025 C 
HETATM   13  C15 UNL     1       4.608  17.584 -43.631  1.00  0.00    -0.016 C 
HETATM   14  C16 UNL     1       4.792  16.423 -42.681  1.00  0.00     0.018 C 
HETATM   15  C17 UNL     1       3.160  17.992 -43.567  1.00  0.00     0.018 C 
HETATM   16  C18 UNL     1       6.969  18.653 -45.260  1.00  0.00    -0.009 C 
HETATM   17  C19 UNL     1       8.372  18.690 -44.708  1.00  0.00     0.018 C 
HETATM   18  C20 UNL     1       6.977  19.275 -46.614  1.00  0.00     0.028 C 
ENDROOT
BRANCH   1  19
HETATM   19  N1  UNL     1       6.936  16.398 -46.272  1.00  0.00    -0.353 N 
HETATM   20  C3  UNL     1       7.067  14.993 -46.162  1.00  0.00     0.217 C 
HETATM   21  O1  UNL     1       6.762  14.434 -45.083  1.00  0.00    -0.274 OA
ATOM     22  H1  UNL     1       7.190  16.837 -47.157  1.00  0.00     0.163 HD
BRANCH  20  23
HETATM   23  C2  UNL     1       7.558  14.211 -47.305  1.00  0.00     0.098 C 
HETATM   24  C1  UNL     1       6.576  13.106 -47.591  1.00  0.00     0.014 C 
ENDBRANCH  20  23
ENDBRANCH   1  19
BRANCH   9  25
HETATM   25  C11 UNL     1       7.709  23.001 -44.314  1.00  0.00     0.198 C 
BRANCH  25  26
HETATM   26  O4  UNL     1       7.317  23.199 -42.970  1.00  0.00    -0.397 OA
ATOM     27  H4  UNL     1       8.107  23.237 -42.442  1.00  0.00     0.209 HD
ENDBRANCH  25  26
ENDBRANCH   9  25
TORSDOF 4
ENDMDL
MODEL 3
REMARK VINA RESULT: -7.579562198      2.172      3.939
REMARK  4 active torsions:
REMARK  status: ('A' for Active; 'I' for Inactive)
REMARK    1  A    between atoms: C2_2  and  C3_3 
REMARK       I    between atoms: C3_3  and  N1_5 
REMARK    2  A    between atoms: N1_5  and  C4_7 
REMARK    3  A    between atoms: C10_15  and  C11_16 
REMARK    4  A    between atoms: C11_16  and  O4_17 
ROOT
HETATM    1  C4  UNL     1       6.033  17.768 -45.493  1.00  0.00     0.126 C 
HETATM    2  C5  UNL     1       7.254  18.539 -45.904  1.00  0.00     0.191 C 
HETATM    3  O2  UNL     1       7.868  19.262 -44.965  1.00  0.00    -0.232 OA
HETATM    4  O3  UNL     1       7.315  20.085 -44.230  1.00  0.00    -0.233 OA
HETATM    5  C6  UNL     1       6.100  20.611 -44.390  1.00  0.00     0.181 C 
HETATM    6  C7  UNL     1       5.393  20.248 -43.064  1.00  0.00     0.005 C 
HETATM    7  C8  UNL     1       6.300  20.438 -41.896  1.00  0.00     0.022 C 
HETATM    8  C9  UNL     1       4.130  20.955 -42.919  1.00  0.00    -0.010 C 
HETATM    9  C10 UNL     1       3.403  21.217 -43.978  1.00  0.00    -0.059 C 
HETATM   10  C12 UNL     1       3.856  20.801 -45.305  1.00  0.00     0.049 C 
HETATM   11  C13 UNL     1       5.147  20.019 -45.341  1.00  0.00     0.004 C 
HETATM   12  C14 UNL     1       5.550  20.022 -46.787  1.00  0.00     0.025 C 
HETATM   13  C15 UNL     1       6.893  19.459 -47.063  1.00  0.00    -0.016 C 
HETATM   14  C16 UNL     1       6.950  18.678 -48.356  1.00  0.00     0.018 C 
HETATM   15  C17 UNL     1       7.888  20.585 -47.174  1.00  0.00     0.018 C 
HETATM   16  C18 UNL     1       4.993  18.615 -44.816  1.00  0.00    -0.009 C 
HETATM   17  C19 UNL     1       3.632  18.031 -45.096  1.00  0.00     0.018 C 
HETATM   18  C20 UNL     1       5.154  18.755 -43.341  1.00  0.00     0.028 C 
ENDROOT
BRANCH   1  19
HETATM   19  N1  UNL     1       6.374  16.564 -44.793  1.00  0.00    -0.353 N 
HETATM   20  C3  UNL     1       5.989  15.272 -45.219  1.00  0.00     0.217 C 
HETATM   21  O1  UNL     1       5.309  15.150 -46.265  1.00  0.00    -0.274 OA
ATOM     22  H1  UNL     1       6.926  16.645 -43.939  1.00  0.00     0.163 HD
BRANCH  20  23
HETATM   23  C2  UNL     1       6.386  14.093 -44.437  1.00  0.00     0.098 C 
HETATM   24  C1  UNL     1       5.816  14.219 -43.049  1.00  0.00     0.014 C 
ENDBRANCH  20  23
ENDBRANCH   1  19
BRANCH   9  25
HETATM   25  C11 UNL     1       2.104  21.941 -43.849  1.00  0.00     0.198 C 
BRANCH  25  26
HETATM   26  O4  UNL     1       1.736  21.921 -42.484  1.00  0.00    -0.397 OA
ATOM     27  H4  UNL     1       2.302  22.531 -42.025  1.00  0.00     0.209 HD
ENDBRANCH  25  26
ENDBRANCH   9  25
TORSDOF 4
ENDMDL
MODEL 4
REMARK VINA RESULT: -7.542663063      2.174      3.908
REMARK  4 active torsions:
REMARK  status: ('A' for Active; 'I' for Inactive)
REMARK    1  A    between atoms: C2_2  and  C3_3 
REMARK       I    between atoms: C3_3  and  N1_5 
REMARK    2  A    between atoms: N1_5  and  C4_7 
REMARK    3  A    between atoms: C10_15  and  C11_16 
REMARK    4  A    between atoms: C11_16  and  O4_17 
ROOT
HETATM    1  C4  UNL     1       6.759  17.003 -45.896  1.00  0.00     0.126 C 
HETATM    2  C5  UNL     1       8.070  17.686 -46.163  1.00  0.00     0.191 C 
HETATM    3  O2  UNL     1       8.553  18.481 -45.207  1.00  0.00    -0.232 OA
HETATM    4  O3  UNL     1       7.928  19.394 -44.660  1.00  0.00    -0.233 OA
HETATM    5  C6  UNL     1       6.785  19.941 -45.077  1.00  0.00     0.181 C 
HETATM    6  C7  UNL     1       5.848  19.741 -43.863  1.00  0.00     0.005 C 
HETATM    7  C8  UNL     1       6.555  20.021 -42.580  1.00  0.00     0.022 C 
HETATM    8  C9  UNL     1       4.616  20.502 -44.006  1.00  0.00    -0.010 C 
HETATM    9  C10 UNL     1       4.092  20.677 -45.195  1.00  0.00    -0.059 C 
HETATM   10  C12 UNL     1       4.739  20.111 -46.378  1.00  0.00     0.049 C 
HETATM   11  C13 UNL     1       5.976  19.287 -46.115  1.00  0.00     0.004 C 
HETATM   12  C14 UNL     1       6.616  19.126 -47.465  1.00  0.00     0.025 C 
HETATM   13  C15 UNL     1       7.956  18.493 -47.450  1.00  0.00    -0.016 C 
HETATM   14  C16 UNL     1       8.189  17.581 -48.633  1.00  0.00     0.018 C 
HETATM   15  C17 UNL     1       9.011  19.567 -47.495  1.00  0.00     0.018 C 
HETATM   16  C18 UNL     1       5.666  17.951 -45.493  1.00  0.00    -0.009 C 
HETATM   17  C19 UNL     1       4.342  17.386 -45.945  1.00  0.00     0.018 C 
HETATM   18  C20 UNL     1       5.584  18.237 -44.033  1.00  0.00     0.028 C 
ENDROOT
BRANCH   1  19
HETATM   19  N1  UNL     1       6.917  15.868 -45.035  1.00  0.00    -0.353 N 
HETATM   20  C3  UNL     1       6.421  14.578 -45.338  1.00  0.00     0.217 C 
HETATM   21  O1  UNL     1       5.805  14.397 -46.414  1.00  0.00    -0.274 OA
ATOM     22  H1  UNL     1       7.414  15.997 -44.154  1.00  0.00     0.163 HD
BRANCH  20  23
HETATM   23  C2  UNL     1       6.630  13.471 -44.394  1.00  0.00     0.098 C 
HETATM   24  C1  UNL     1       6.158  13.902 -43.031  1.00  0.00     0.014 C 
ENDBRANCH  20  23
ENDBRANCH   1  19
BRANCH   9  25
HETATM   25  C11 UNL     1       2.828  21.455 -45.362  1.00  0.00     0.198 C 
BRANCH  25  26
HETATM   26  O4  UNL     1       2.158  21.455 -44.117  1.00  0.00    -0.397 OA
ATOM     27  H4  UNL     1       1.239  21.282 -44.285  1.00  0.00     0.209 HD
ENDBRANCH  25  26
ENDBRANCH   9  25
TORSDOF 4
ENDMDL
MODEL 5
REMARK VINA RESULT: -7.508789099      2.116      2.734
REMARK  4 active torsions:
REMARK  status: ('A' for Active; 'I' for Inactive)
REMARK    1  A    between atoms: C2_2  and  C3_3 
REMARK       I    between atoms: C3_3  and  N1_5 
REMARK    2  A    between atoms: N1_5  and  C4_7 
REMARK    3  A    between atoms: C10_15  and  C11_16 
REMARK    4  A    between atoms: C11_16  and  O4_17 
ROOT
HETATM    1  C4  UNL     1       6.187  17.826 -45.160  1.00  0.00     0.126 C 
HETATM    2  C5  UNL     1       4.787  18.178 -45.573  1.00  0.00     0.191 C 
HETATM    3  O2  UNL     1       4.589  18.513 -46.849  1.00  0.00    -0.232 OA
HETATM    4  O3  UNL     1       5.229  19.369 -47.465  1.00  0.00    -0.233 OA
HETATM    5  C6  UNL     1       6.031  20.298 -46.941  1.00  0.00     0.181 C 
HETATM    6  C7  UNL     1       7.378  20.026 -47.652  1.00  0.00     0.005 C 
HETATM    7  C8  UNL     1       7.178  19.734 -49.100  1.00  0.00     0.022 C 
HETATM    8  C9  UNL     1       8.333  21.099 -47.418  1.00  0.00    -0.010 C 
HETATM    9  C10 UNL     1       8.333  21.734 -46.271  1.00  0.00    -0.059 C 
HETATM   10  C12 UNL     1       7.378  21.370 -45.226  1.00  0.00     0.049 C 
HETATM   11  C13 UNL     1       6.473  20.203 -45.543  1.00  0.00     0.004 C 
HETATM   12  C14 UNL     1       5.401  20.260 -44.493  1.00  0.00     0.025 C 
HETATM   13  C15 UNL     1       4.279  19.312 -44.692  1.00  0.00    -0.016 C 
HETATM   14  C16 UNL     1       3.755  18.740 -43.395  1.00  0.00     0.018 C 
HETATM   15  C17 UNL     1       3.137  20.031 -45.361  1.00  0.00     0.018 C 
HETATM   16  C18 UNL     1       7.195  18.881 -45.518  1.00  0.00    -0.009 C 
HETATM   17  C19 UNL     1       8.316  18.844 -44.510  1.00  0.00     0.018 C 
HETATM   18  C20 UNL     1       7.782  18.758 -46.882  1.00  0.00     0.028 C 
ENDROOT
BRANCH   1  19
HETATM   19  N1  UNL     1       6.542  16.497 -45.562  1.00  0.00    -0.353 N 
HETATM   20  C3  UNL     1       6.118  15.332 -44.881  1.00  0.00     0.217 C 
HETATM   21  O1  UNL     1       5.391  15.447 -43.867  1.00  0.00    -0.274 OA
ATOM     22  H1  UNL     1       7.135  16.385 -46.384  1.00  0.00     0.163 HD
BRANCH  20  23
HETATM   23  C2  UNL     1       6.531  14.008 -45.365  1.00  0.00     0.098 C 
HETATM   24  C1  UNL     1       5.402  13.410 -46.162  1.00  0.00     0.014 C 
ENDBRANCH  20  23
ENDBRANCH   1  19
BRANCH   9  25
HETATM   25  C11 UNL     1       9.305  22.838 -46.013  1.00  0.00     0.198 C 
BRANCH  25  26
HETATM   26  O4  UNL     1      10.297  22.778 -47.019  1.00  0.00    -0.397 OA
ATOM     27  H4  UNL     1      11.098  23.136 -46.654  1.00  0.00     0.209 HD
ENDBRANCH  25  26
ENDBRANCH   9  25
TORSDOF 4
ENDMDL
