MODEL 1
REMARK VINA RESULT: -8.768594692      0.000      0.000
REMARK  5 active torsions:
REMARK  status: ('A' for Active; 'I' for Inactive)
REMARK    1  A    between atoms: C2_2  and  C3_3 
REMARK    2  A    between atoms: C3_3  and  C4_4 
REMARK    3  A    between atoms: C4_4  and  C5_5 
REMARK    4  A    between atoms: C5_5  and  O1_6 
REMARK    5  A    between atoms: C16_19  and  O3_20 
ROOT
HETATM    1  C4  UNL     1       4.587  15.334 -43.934  1.00  0.00    -0.015 C 
HETATM    2  C6  UNL     1       3.642  16.501 -43.761  1.00  0.00     0.012 C 
HETATM    3  C7  UNL     1       4.043  17.351 -44.985  1.00  0.00     0.007 C 
HETATM    4  C8  UNL     1       5.537  17.406 -44.656  1.00  0.00     0.006 C 
HETATM    5  C9  UNL     1       5.874  15.965 -44.464  1.00  0.00     0.001 C 
HETATM    6  C10 UNL     1       6.469  15.279 -45.625  1.00  0.00     0.006 C 
HETATM    7  C11 UNL     1       7.220  16.143 -46.573  1.00  0.00     0.007 C 
HETATM    8  C12 UNL     1       7.620  17.493 -46.020  1.00  0.00     0.013 C 
HETATM    9  C13 UNL     1       8.110  18.253 -47.238  1.00  0.00     0.072 C 
HETATM   10  C14 UNL     1       9.056  19.316 -46.940  1.00  0.00     0.134 C 
HETATM   11  O2  UNL     1       9.702  19.322 -45.917  1.00  0.00    -0.297 OA
HETATM   12  C15 UNL     1       9.257  20.440 -47.897  1.00  0.00     0.110 C 
HETATM   13  C16 UNL     1       8.286  20.283 -49.053  1.00  0.00     0.126 C 
HETATM   14  C17 UNL     1       6.889  20.037 -48.525  1.00  0.00     0.045 C 
HETATM   15  C18 UNL     1       6.831  18.687 -47.886  1.00  0.00     0.070 C 
HETATM   16  C19 UNL     1       5.758  18.566 -46.866  1.00  0.00     0.141 C 
HETATM   17  O4  UNL     1       4.588  18.753 -47.130  1.00  0.00    -0.297 OA
HETATM   18  C20 UNL     1       6.363  18.200 -45.562  1.00  0.00     0.025 C 
HETATM   19  C21 UNL     1       6.665  19.523 -44.882  1.00  0.00     0.024 C 
ENDROOT
BRANCH   1  20
HETATM   20  C3  UNL     1       3.995  14.353 -44.859  1.00  0.00     0.012 C 
BRANCH  20  21
HETATM   21  C2  UNL     1       2.654  13.868 -44.388  1.00  0.00    -0.004 C 
HETATM   22  C1  UNL     1       2.185  12.727 -45.331  1.00  0.00     0.005 C 
ENDBRANCH  20  21
ENDBRANCH   1  20
BRANCH   1  23
HETATM   23  C5  UNL     1       4.886  14.660 -42.599  1.00  0.00     0.173 C 
BRANCH  23  24
HETATM   24  O1  UNL     1       6.107  13.962 -42.680  1.00  0.00    -0.400 OA
ATOM     25  H1  UNL     1       6.769  14.411 -42.167  1.00  0.00     0.209 HD
ENDBRANCH  23  24
ENDBRANCH   1  23
BRANCH  13  26
HETATM   26  O3  UNL     1       8.742  19.247 -49.838  1.00  0.00    -0.395 OA
ATOM     27  H3  UNL     1       8.081  18.566 -49.824  1.00  0.00     0.210 HD
ENDBRANCH  13  26
TORSDOF 5
ENDMDL
MODEL 2
REMARK VINA RESULT: -8.465376286      2.867      6.551
REMARK  5 active torsions:
REMARK  status: ('A' for Active; 'I' for Inactive)
REMARK    1  A    between atoms: C2_2  and  C3_3 
REMARK    2  A    between atoms: C3_3  and  C4_4 
REMARK    3  A    between atoms: C4_4  and  C5_5 
REMARK    4  A    between atoms: C5_5  and  O1_6 
REMARK    5  A    between atoms: C16_19  and  O3_20 
ROOT
HETATM    1  C4  UNL     1       9.442  18.532 -48.561  1.00  0.00    -0.015 C 
HETATM    2  C6  UNL     1       8.375  18.766 -49.605  1.00  0.00     0.012 C 
HETATM    3  C7  UNL     1       7.343  19.544 -48.762  1.00  0.00     0.007 C 
HETATM    4  C8  UNL     1       7.233  18.501 -47.646  1.00  0.00     0.006 C 
HETATM    5  C9  UNL     1       8.661  18.284 -47.271  1.00  0.00     0.001 C 
HETATM    6  C10 UNL     1       9.144  19.036 -46.099  1.00  0.00     0.006 C 
HETATM    7  C11 UNL     1       8.113  19.400 -45.093  1.00  0.00     0.007 C 
HETATM    8  C12 UNL     1       6.825  18.612 -45.191  1.00  0.00     0.013 C 
HETATM    9  C13 UNL     1       5.878  19.348 -44.262  1.00  0.00     0.072 C 
HETATM   10  C14 UNL     1       4.803  18.527 -43.729  1.00  0.00     0.134 C 
HETATM   11  O2  UNL     1       4.891  17.321 -43.680  1.00  0.00    -0.297 OA
HETATM   12  C15 UNL     1       3.551  19.155 -43.224  1.00  0.00     0.110 C 
HETATM   13  C16 UNL     1       3.616  20.652 -43.467  1.00  0.00     0.126 C 
HETATM   14  C17 UNL     1       4.024  20.925 -44.899  1.00  0.00     0.045 C 
HETATM   15  C18 UNL     1       5.447  20.516 -45.096  1.00  0.00     0.070 C 
HETATM   16  C19 UNL     1       5.776  20.192 -46.508  1.00  0.00     0.141 C 
HETATM   17  O4  UNL     1       5.634  20.995 -47.407  1.00  0.00    -0.297 OA
HETATM   18  C20 UNL     1       6.271  18.797 -46.587  1.00  0.00     0.025 C 
HETATM   19  C21 UNL     1       5.035  17.952 -46.830  1.00  0.00     0.024 C 
ENDROOT
BRANCH   1  20
HETATM   20  C3  UNL     1      10.328  19.706 -48.489  1.00  0.00     0.012 C 
BRANCH  20  21
HETATM   21  C2  UNL     1      11.771  19.339 -48.693  1.00  0.00    -0.004 C 
HETATM   22  C1  UNL     1      12.649  20.546 -48.265  1.00  0.00     0.005 C 
ENDBRANCH  20  21
ENDBRANCH   1  20
BRANCH   1  23
HETATM   23  C5  UNL     1      10.267  17.289 -48.880  1.00  0.00     0.173 C 
BRANCH  23  24
HETATM   24  O1  UNL     1       9.647  16.558 -49.914  1.00  0.00    -0.400 OA
ATOM     25  H1  UNL     1      10.225  15.862 -50.206  1.00  0.00     0.209 HD
ENDBRANCH  23  24
ENDBRANCH   1  23
BRANCH  13  26
HETATM   26  O3  UNL     1       4.505  21.180 -42.557  1.00  0.00    -0.395 OA
ATOM     27  H3  UNL     1       5.115  21.726 -43.038  1.00  0.00     0.210 HD
ENDBRANCH  13  26
TORSDOF 5
ENDMDL
MODEL 3
REMARK VINA RESULT: -8.235574416      2.048      2.597
REMARK  5 active torsions:
REMARK  status: ('A' for Active; 'I' for Inactive)
REMARK    1  A    between atoms: C2_2  and  C3_3 
REMARK    2  A    between atoms: C3_3  and  C4_4 
REMARK    3  A    between atoms: C4_4  and  C5_5 
REMARK    4  A    between atoms: C5_5  and  O1_6 
REMARK    5  A    between atoms: C16_19  and  O3_20 
ROOT
HETATM    1  C4  UNL     1       5.021  15.099 -44.474  1.00  0.00    -0.015 C 
HETATM    2  C6  UNL     1       4.819  15.571 -43.053  1.00  0.00     0.012 C 
HETATM    3  C7  UNL     1       4.625  17.082 -43.299  1.00  0.00     0.007 C 
HETATM    4  C8  UNL     1       5.922  17.280 -44.089  1.00  0.00     0.006 C 
HETATM    5  C9  UNL     1       5.824  16.219 -45.134  1.00  0.00     0.001 C 
HETATM    6  C10 UNL     1       5.320  16.652 -46.450  1.00  0.00     0.006 C 
HETATM    7  C11 UNL     1       5.552  18.078 -46.795  1.00  0.00     0.007 C 
HETATM    8  C12 UNL     1       6.611  18.768 -45.964  1.00  0.00     0.013 C 
HETATM    9  C13 UNL     1       6.457  20.234 -46.323  1.00  0.00     0.072 C 
HETATM   10  C14 UNL     1       7.660  21.027 -46.134  1.00  0.00     0.134 C 
HETATM   11  O2  UNL     1       8.758  20.518 -46.109  1.00  0.00    -0.297 OA
HETATM   12  C15 UNL     1       7.574  22.504 -45.965  1.00  0.00     0.110 C 
HETATM   13  C16 UNL     1       6.112  22.913 -45.933  1.00  0.00     0.126 C 
HETATM   14  C17 UNL     1       5.352  22.037 -44.960  1.00  0.00     0.045 C 
HETATM   15  C18 UNL     1       5.274  20.647 -45.500  1.00  0.00     0.070 C 
HETATM   16  C19 UNL     1       5.090  19.616 -44.446  1.00  0.00     0.141 C 
HETATM   17  O4  UNL     1       4.145  19.627 -43.686  1.00  0.00    -0.297 OA
HETATM   18  C20 UNL     1       6.212  18.648 -44.509  1.00  0.00     0.025 C 
HETATM   19  C21 UNL     1       7.270  19.209 -43.577  1.00  0.00     0.024 C 
ENDROOT
BRANCH   1  20
HETATM   20  C3  UNL     1       3.713  14.868 -45.108  1.00  0.00     0.012 C 
BRANCH  20  21
HETATM   21  C2  UNL     1       2.812  14.020 -44.255  1.00  0.00    -0.004 C 
HETATM   22  C1  UNL     1       2.206  12.900 -45.143  1.00  0.00     0.005 C 
ENDBRANCH  20  21
ENDBRANCH   1  20
BRANCH   1  23
HETATM   23  C5  UNL     1       5.844  13.815 -44.519  1.00  0.00     0.173 C 
BRANCH  23  24
HETATM   24  O1  UNL     1       5.804  13.268 -45.818  1.00  0.00    -0.400 OA
ATOM     25  H1  UNL     1       5.333  12.443 -45.805  1.00  0.00     0.209 HD
ENDBRANCH  23  24
ENDBRANCH   1  23
BRANCH  13  26
HETATM   26  O3  UNL     1       5.628  22.814 -47.219  1.00  0.00    -0.395 OA
ATOM     27  H3  UNL     1       5.532  21.891 -47.417  1.00  0.00     0.210 HD
ENDBRANCH  13  26
TORSDOF 5
ENDMDL
MODEL 4
REMARK VINA RESULT: -8.166575768      1.788      3.056
REMARK  5 active torsions:
REMARK  status: ('A' for Active; 'I' for Inactive)
REMARK    1  A    between atoms: C2_2  and  C3_3 
REMARK    2  A    between atoms: C3_3  and  C4_4 
REMARK    3  A    between atoms: C4_4  and  C5_5 
REMARK    4  A    between atoms: C5_5  and  O1_6 
REMARK    5  A    between atoms: C16_19  and  O3_20 
ROOT
HETATM    1  C4  UNL     1       5.550  14.780 -45.608  1.00  0.00    -0.015 C 
HETATM    2  C6  UNL     1       6.953  14.449 -45.153  1.00  0.00     0.012 C 
HETATM    3  C7  UNL     1       7.567  15.865 -45.136  1.00  0.00     0.007 C 
HETATM    4  C8  UNL     1       7.198  16.214 -46.580  1.00  0.00     0.006 C 
HETATM    5  C9  UNL     1       5.737  15.912 -46.617  1.00  0.00     0.001 C 
HETATM    6  C10 UNL     1       4.833  17.062 -46.433  1.00  0.00     0.006 C 
HETATM    7  C11 UNL     1       5.375  18.383 -46.845  1.00  0.00     0.007 C 
HETATM    8  C12 UNL     1       6.578  18.319 -47.760  1.00  0.00     0.013 C 
HETATM    9  C13 UNL     1       7.080  19.750 -47.800  1.00  0.00     0.072 C 
HETATM   10  C14 UNL     1       7.833  20.087 -48.997  1.00  0.00     0.134 C 
HETATM   11  O2  UNL     1       7.712  19.454 -50.021  1.00  0.00    -0.297 OA
HETATM   12  C15 UNL     1       8.783  21.234 -48.995  1.00  0.00     0.110 C 
HETATM   13  C16 UNL     1       8.848  21.819 -47.596  1.00  0.00     0.126 C 
HETATM   14  C17 UNL     1       9.060  20.714 -46.583  1.00  0.00     0.045 C 
HETATM   15  C18 UNL     1       7.832  19.867 -46.509  1.00  0.00     0.070 C 
HETATM   16  C19 UNL     1       8.098  18.487 -46.029  1.00  0.00     0.141 C 
HETATM   17  O4  UNL     1       8.606  18.262 -44.949  1.00  0.00    -0.297 OA
HETATM   18  C20 UNL     1       7.653  17.517 -47.059  1.00  0.00     0.025 C 
HETATM   19  C21 UNL     1       8.867  17.293 -47.941  1.00  0.00     0.024 C 
ENDROOT
BRANCH   1  20
HETATM   20  C3  UNL     1       4.732  15.163 -44.447  1.00  0.00     0.012 C 
BRANCH  20  21
HETATM   21  C2  UNL     1       3.563  14.240 -44.248  1.00  0.00    -0.004 C 
HETATM   22  C1  UNL     1       2.597  14.885 -43.217  1.00  0.00     0.005 C 
ENDBRANCH  20  21
ENDBRANCH   1  20
BRANCH   1  23
HETATM   23  C5  UNL     1       4.905  13.594 -46.318  1.00  0.00     0.173 C 
BRANCH  23  24
HETATM   24  O1  UNL     1       5.902  12.775 -46.885  1.00  0.00    -0.400 OA
ATOM     25  H1  UNL     1       6.535  12.531 -46.219  1.00  0.00     0.209 HD
ENDBRANCH  23  24
ENDBRANCH   1  23
BRANCH  13  26
HETATM   26  O3  UNL     1       7.675  22.511 -47.383  1.00  0.00    -0.395 OA
ATOM     27  H3  UNL     1       7.872  23.231 -46.797  1.00  0.00     0.210 HD
ENDBRANCH  13  26
TORSDOF 5
ENDMDL
MODEL 5
REMARK VINA RESULT: -7.985233390      2.371      3.404
REMARK  5 active torsions:
REMARK  status: ('A' for Active; 'I' for Inactive)
REMARK    1  A    between atoms: C2_2  and  C3_3 
REMARK    2  A    between atoms: C3_3  and  C4_4 
REMARK    3  A    between atoms: C4_4  and  C5_5 
REMARK    4  A    between atoms: C5_5  and  O1_6 
REMARK    5  A    between atoms: C16_19  and  O3_20 
ROOT
HETATM    1  C4  UNL     1       6.138  15.276 -45.386  1.00  0.00    -0.015 C 
HETATM    2  C6  UNL     1       4.680  15.483 -45.722  1.00  0.00     0.012 C 
HETATM    3  C7  UNL     1       4.715  16.963 -46.158  1.00  0.00     0.007 C 
HETATM    4  C8  UNL     1       5.381  17.487 -44.882  1.00  0.00     0.006 C 
HETATM    5  C9  UNL     1       6.574  16.599 -44.758  1.00  0.00     0.001 C 
HETATM    6  C10 UNL     1       7.842  17.144 -45.274  1.00  0.00     0.006 C 
HETATM    7  C11 UNL     1       7.959  18.626 -45.272  1.00  0.00     0.007 C 
HETATM    8  C12 UNL     1       6.968  19.339 -44.378  1.00  0.00     0.013 C 
HETATM    9  C13 UNL     1       7.118  20.799 -44.763  1.00  0.00     0.072 C 
HETATM   10  C14 UNL     1       6.737  21.736 -43.719  1.00  0.00     0.134 C 
HETATM   11  O2  UNL     1       6.715  21.412 -42.553  1.00  0.00    -0.297 OA
HETATM   12  C15 UNL     1       6.359  23.136 -44.060  1.00  0.00     0.110 C 
HETATM   13  C16 UNL     1       6.364  23.294 -45.569  1.00  0.00     0.126 C 
HETATM   14  C17 UNL     1       5.581  22.168 -46.210  1.00  0.00     0.045 C 
HETATM   15  C18 UNL     1       6.323  20.884 -46.030  1.00  0.00     0.070 C 
HETATM   16  C19 UNL     1       5.446  19.686 -46.080  1.00  0.00     0.141 C 
HETATM   17  O4  UNL     1       4.755  19.427 -47.044  1.00  0.00    -0.297 OA
HETATM   18  C20 UNL     1       5.576  18.933 -44.810  1.00  0.00     0.025 C 
HETATM   19  C21 UNL     1       4.504  19.504 -43.900  1.00  0.00     0.024 C 
ENDROOT
BRANCH   1  20
HETATM   20  C3  UNL     1       6.884  14.939 -46.610  1.00  0.00     0.012 C 
BRANCH  20  21
HETATM   21  C2  UNL     1       6.539  13.570 -47.124  1.00  0.00    -0.004 C 
HETATM   22  C1  UNL     1       7.530  13.210 -48.264  1.00  0.00     0.005 C 
ENDBRANCH  20  21
ENDBRANCH   1  20
BRANCH   1  23
HETATM   23  C5  UNL     1       6.318  14.164 -44.358  1.00  0.00     0.173 C 
BRANCH  23  24
HETATM   24  O1  UNL     1       5.544  14.443 -43.213  1.00  0.00    -0.400 OA
ATOM     25  H1  UNL     1       4.707  14.809 -43.472  1.00  0.00     0.209 HD
ENDBRANCH  23  24
ENDBRANCH   1  23
BRANCH  13  26
HETATM   26  O3  UNL     1       7.679  23.320 -45.978  1.00  0.00    -0.395 OA
ATOM     27  H3  UNL     1       8.219  23.324 -45.198  1.00  0.00     0.210 HD
ENDBRANCH  13  26
TORSDOF 5
ENDMDL
