MODEL 1
REMARK VINA RESULT: -8.595457565      0.000      0.000
REMARK  14 active torsions:
REMARK  status: ('A' for Active; 'I' for Inactive)
REMARK    1  A    between atoms: C2_2  and  C3_3 
REMARK    2  A    between atoms: C3_3  and  C4_4 
REMARK    3  A    between atoms: C4_4  and  C5_5 
REMARK    4  A    between atoms: C6_6  and  C7_7 
REMARK    5  A    between atoms: C8_8  and  C9_9 
REMARK    6  A    between atoms: C9_9  and  C10_10 
REMARK    7  A    between atoms: C10_10  and  C11_11 
REMARK    8  A    between atoms: C11_11  and  C12_12 
REMARK    9  A    between atoms: C13_13  and  C14_14 
REMARK   10  A    between atoms: N1_16  and  C16_17 
REMARK   11  A    between atoms: C17_19  and  C18_20 
REMARK   12  A    between atoms: C18_20  and  O2_21 
REMARK   13  A    between atoms: C19_23  and  O3_24 
REMARK   14  A    between atoms: C20_26  and  O4_27 
ROOT
HETATM    1  C14 UNL     1       4.830 -27.578 -11.143  1.00  0.00     0.062 A 
HETATM    2  C15 UNL     1       4.666 -28.838 -10.618  1.00  0.00     0.117 A 
HETATM    3  N1  UNL     1       3.360 -28.971 -10.332  1.00  0.00    -0.323 N 
HETATM    4  C21 UNL     1       2.688 -27.851 -10.651  1.00  0.00     0.080 A 
HETATM    5  C22 UNL     1       1.353 -27.471 -10.560  1.00  0.00     0.121 A 
HETATM    6  N2  UNL     1       1.035 -26.238 -10.988  1.00  0.00    -0.360 N 
ATOM      7  H2  UNL     1       0.058 -25.952 -10.927  1.00  0.00     0.166 HD
HETATM    8  C23 UNL     1       1.903 -25.369 -11.485  1.00  0.00     0.180 A 
HETATM    9  N3  UNL     1       3.193 -25.726 -11.577  1.00  0.00    -0.349 N 
ATOM     10  H3  UNL     1       3.880 -25.075 -11.957  1.00  0.00     0.166 HD
HETATM   11  C24 UNL     1       3.581 -26.967 -11.158  1.00  0.00     0.082 A 
ENDROOT
BRANCH   1  12
HETATM   12  C13 UNL     1       6.075 -26.983 -11.600  1.00  0.00    -0.063 C 
HETATM   13  C12 UNL     1       7.098 -26.475 -11.990  1.00  0.00    -0.101 C 
BRANCH  13  14
HETATM   14  C11 UNL     1       8.325 -25.843 -12.478  1.00  0.00     0.095 C 
BRANCH  14  15
HETATM   15  C10 UNL     1       8.000 -24.496 -13.138  1.00  0.00     0.024 C 
BRANCH  15  16
HETATM   16  C9  UNL     1       7.658 -24.753 -14.613  1.00  0.00     0.096 C 
BRANCH  16  17
HETATM   17  C8  UNL     1       6.247 -25.116 -14.752  1.00  0.00    -0.092 C 
HETATM   18  C7  UNL     1       5.081 -25.428 -14.848  1.00  0.00    -0.015 C 
BRANCH  18  19
HETATM   19  C6  UNL     1       3.709 -25.803 -14.939  1.00  0.00    -0.015 C 
HETATM   20  C5  UNL     1       2.545 -26.133 -14.998  1.00  0.00    -0.092 C 
BRANCH  20  21
HETATM   21  C4  UNL     1       1.145 -26.555 -15.061  1.00  0.00     0.095 C 
BRANCH  21  22
HETATM   22  C3  UNL     1       1.025 -28.048 -15.272  1.00  0.00     0.012 C 
BRANCH  22  23
HETATM   23  C2  UNL     1       0.946 -28.805 -13.980  1.00  0.00    -0.004 C 
HETATM   24  C1  UNL     1       2.207 -29.570 -13.672  1.00  0.00     0.005 C 
ENDBRANCH  22  23
ENDBRANCH  21  22
ENDBRANCH  20  21
ENDBRANCH  18  19
ENDBRANCH  16  17
ENDBRANCH  15  16
ENDBRANCH  14  15
ENDBRANCH  13  14
ENDBRANCH   1  12
BRANCH   3  25
HETATM   25  C16 UNL     1       2.761 -30.147  -9.762  1.00  0.00     0.259 C 
HETATM   26  O1  UNL     1       3.492 -31.308 -10.000  1.00  0.00    -0.353 OA
HETATM   27  C17 UNL     1       2.862 -32.218  -9.162  1.00  0.00     0.179 C 
HETATM   28  C19 UNL     1       2.840 -31.495  -7.843  1.00  0.00     0.182 C 
HETATM   29  C20 UNL     1       2.566 -30.060  -8.273  1.00  0.00     0.198 C 
BRANCH  27  30
HETATM   30  C18 UNL     1       3.626 -33.523  -9.079  1.00  0.00     0.198 C 
BRANCH  30  31
HETATM   31  O2  UNL     1       4.496 -33.413  -7.974  1.00  0.00    -0.398 OA
ATOM     32  H2  UNL     1       4.296 -34.141  -7.397  1.00  0.00     0.209 HD
ENDBRANCH  30  31
ENDBRANCH  27  30
BRANCH  28  33
HETATM   33  O3  UNL     1       1.813 -31.998  -7.047  1.00  0.00    -0.390 OA
ATOM     34  H3  UNL     1       1.640 -31.401  -6.329  1.00  0.00     0.210 HD
ENDBRANCH  28  33
BRANCH  29  35
HETATM   35  O4  UNL     1       1.248 -29.780  -7.929  1.00  0.00    -0.388 OA
ATOM     36  H4  UNL     1       1.031 -30.086  -7.056  1.00  0.00     0.210 HD
ENDBRANCH  29  35
ENDBRANCH   3  25
TORSDOF 14
ENDMDL
MODEL 2
REMARK VINA RESULT: -8.252458172      0.764      1.505
REMARK  14 active torsions:
REMARK  status: ('A' for Active; 'I' for Inactive)
REMARK    1  A    between atoms: C2_2  and  C3_3 
REMARK    2  A    between atoms: C3_3  and  C4_4 
REMARK    3  A    between atoms: C4_4  and  C5_5 
REMARK    4  A    between atoms: C6_6  and  C7_7 
REMARK    5  A    between atoms: C8_8  and  C9_9 
REMARK    6  A    between atoms: C9_9  and  C10_10 
REMARK    7  A    between atoms: C10_10  and  C11_11 
REMARK    8  A    between atoms: C11_11  and  C12_12 
REMARK    9  A    between atoms: C13_13  and  C14_14 
REMARK   10  A    between atoms: N1_16  and  C16_17 
REMARK   11  A    between atoms: C17_19  and  C18_20 
REMARK   12  A    between atoms: C18_20  and  O2_21 
REMARK   13  A    between atoms: C19_23  and  O3_24 
REMARK   14  A    between atoms: C20_26  and  O4_27 
ROOT
HETATM    1  C14 UNL     1       4.792 -27.534 -11.192  1.00  0.00     0.062 A 
HETATM    2  C15 UNL     1       4.655 -28.801 -10.676  1.00  0.00     0.117 A 
HETATM    3  N1  UNL     1       3.357 -28.955 -10.367  1.00  0.00    -0.323 N 
HETATM    4  C21 UNL     1       2.664 -27.840 -10.660  1.00  0.00     0.080 A 
HETATM    5  C22 UNL     1       1.326 -27.479 -10.540  1.00  0.00     0.121 A 
HETATM    6  N2  UNL     1       0.984 -26.246 -10.949  1.00  0.00    -0.360 N 
ATOM      7  H2  UNL     1       0.004 -25.973 -10.865  1.00  0.00     0.166 HD
HETATM    8  C23 UNL     1       1.830 -25.361 -11.454  1.00  0.00     0.180 A 
HETATM    9  N3  UNL     1       3.123 -25.699 -11.574  1.00  0.00    -0.349 N 
ATOM     10  H3  UNL     1       3.793 -25.035 -11.961  1.00  0.00     0.166 HD
HETATM   11  C24 UNL     1       3.535 -26.940 -11.176  1.00  0.00     0.082 A 
ENDROOT
BRANCH   1  12
HETATM   12  C13 UNL     1       6.020 -26.918 -11.666  1.00  0.00    -0.063 C 
HETATM   13  C12 UNL     1       7.031 -26.404 -12.079  1.00  0.00    -0.101 C 
BRANCH  13  14
HETATM   14  C11 UNL     1       8.247 -25.780 -12.604  1.00  0.00     0.095 C 
BRANCH  14  15
HETATM   15  C10 UNL     1       7.904 -24.458 -13.305  1.00  0.00     0.024 C 
BRANCH  15  16
HETATM   16  C9  UNL     1       7.519 -24.769 -14.757  1.00  0.00     0.096 C 
BRANCH  16  17
HETATM   17  C8  UNL     1       6.123 -25.205 -14.831  1.00  0.00    -0.092 C 
HETATM   18  C7  UNL     1       4.971 -25.575 -14.872  1.00  0.00    -0.015 C 
BRANCH  18  19
HETATM   19  C6  UNL     1       3.616 -26.016 -14.897  1.00  0.00    -0.015 C 
HETATM   20  C5  UNL     1       2.470 -26.411 -14.918  1.00  0.00    -0.092 C 
BRANCH  20  21
HETATM   21  C4  UNL     1       1.095 -26.908 -14.956  1.00  0.00     0.095 C 
BRANCH  21  22
HETATM   22  C3  UNL     1       0.149 -25.876 -15.529  1.00  0.00     0.012 C 
BRANCH  22  23
HETATM   23  C2  UNL     1       0.128 -24.609 -14.728  1.00  0.00    -0.004 C 
HETATM   24  C1  UNL     1       0.369 -23.381 -15.566  1.00  0.00     0.005 C 
ENDBRANCH  22  23
ENDBRANCH  21  22
ENDBRANCH  20  21
ENDBRANCH  18  19
ENDBRANCH  16  17
ENDBRANCH  15  16
ENDBRANCH  14  15
ENDBRANCH  13  14
ENDBRANCH   1  12
BRANCH   3  25
HETATM   25  C16 UNL     1       2.785 -30.143  -9.797  1.00  0.00     0.259 C 
HETATM   26  O1  UNL     1       3.552 -31.284 -10.018  1.00  0.00    -0.353 OA
HETATM   27  C17 UNL     1       2.937 -32.207  -9.183  1.00  0.00     0.179 C 
HETATM   28  C19 UNL     1       2.877 -31.478  -7.869  1.00  0.00     0.182 C 
HETATM   29  C20 UNL     1       2.568 -30.054  -8.312  1.00  0.00     0.198 C 
BRANCH  27  30
HETATM   30  C18 UNL     1       3.737 -33.489  -9.082  1.00  0.00     0.198 C 
BRANCH  30  31
HETATM   31  O2  UNL     1       4.606 -33.338  -7.981  1.00  0.00    -0.398 OA
ATOM     32  H2  UNL     1       4.824 -32.415  -7.931  1.00  0.00     0.209 HD
ENDBRANCH  30  31
ENDBRANCH  27  30
BRANCH  28  33
HETATM   33  O3  UNL     1       1.854 -32.006  -7.083  1.00  0.00    -0.390 OA
ATOM     34  H3  UNL     1       1.025 -31.614  -7.329  1.00  0.00     0.210 HD
ENDBRANCH  28  33
BRANCH  29  35
HETATM   35  O4  UNL     1       1.238 -29.810  -7.986  1.00  0.00    -0.388 OA
ATOM     36  H4  UNL     1       0.652 -30.466  -8.346  1.00  0.00     0.210 HD
ENDBRANCH  29  35
ENDBRANCH   3  25
TORSDOF 14
ENDMDL
MODEL 3
REMARK VINA RESULT: -8.106379494      1.117      1.491
REMARK  14 active torsions:
REMARK  status: ('A' for Active; 'I' for Inactive)
REMARK    1  A    between atoms: C2_2  and  C3_3 
REMARK    2  A    between atoms: C3_3  and  C4_4 
REMARK    3  A    between atoms: C4_4  and  C5_5 
REMARK    4  A    between atoms: C6_6  and  C7_7 
REMARK    5  A    between atoms: C8_8  and  C9_9 
REMARK    6  A    between atoms: C9_9  and  C10_10 
REMARK    7  A    between atoms: C10_10  and  C11_11 
REMARK    8  A    between atoms: C11_11  and  C12_12 
REMARK    9  A    between atoms: C13_13  and  C14_14 
REMARK   10  A    between atoms: N1_16  and  C16_17 
REMARK   11  A    between atoms: C17_19  and  C18_20 
REMARK   12  A    between atoms: C18_20  and  O2_21 
REMARK   13  A    between atoms: C19_23  and  O3_24 
REMARK   14  A    between atoms: C20_26  and  O4_27 
ROOT
HETATM    1  C14 UNL     1       4.871 -28.121 -10.935  1.00  0.00     0.062 A 
HETATM    2  C15 UNL     1       4.770 -29.330 -10.287  1.00  0.00     0.117 A 
HETATM    3  N1  UNL     1       3.498 -29.440  -9.870  1.00  0.00    -0.323 N 
HETATM    4  C21 UNL     1       2.787 -28.354 -10.224  1.00  0.00     0.080 A 
HETATM    5  C22 UNL     1       1.461 -27.972 -10.044  1.00  0.00     0.121 A 
HETATM    6  N2  UNL     1       1.092 -26.783 -10.549  1.00  0.00    -0.360 N 
ATOM      7  H2  UNL     1       0.122 -26.494 -10.423  1.00  0.00     0.166 HD
HETATM    8  C23 UNL     1       1.902 -25.960 -11.200  1.00  0.00     0.180 A 
HETATM    9  N3  UNL     1       3.181 -26.320 -11.378  1.00  0.00    -0.349 N 
ATOM     10  H3  UNL     1       3.823 -25.704 -11.876  1.00  0.00     0.166 HD
HETATM   11  C24 UNL     1       3.620 -27.518 -10.889  1.00  0.00     0.082 A 
ENDROOT
BRANCH   1  12
HETATM   12  C13 UNL     1       6.062 -27.567 -11.556  1.00  0.00    -0.063 C 
HETATM   13  C12 UNL     1       7.043 -27.109 -12.090  1.00  0.00    -0.101 C 
BRANCH  13  14
HETATM   14  C11 UNL     1       8.222 -26.560 -12.762  1.00  0.00     0.095 C 
BRANCH  14  15
HETATM   15  C10 UNL     1       8.128 -25.029 -12.831  1.00  0.00     0.024 C 
BRANCH  15  16
HETATM   16  C9  UNL     1       7.661 -24.638 -14.240  1.00  0.00     0.096 C 
BRANCH  16  17
HETATM   17  C8  UNL     1       6.272 -25.054 -14.449  1.00  0.00    -0.092 C 
HETATM   18  C7  UNL     1       5.127 -25.414 -14.607  1.00  0.00    -0.015 C 
BRANCH  18  19
HETATM   19  C6  UNL     1       3.782 -25.852 -14.774  1.00  0.00    -0.015 C 
HETATM   20  C5  UNL     1       2.631 -26.208 -14.905  1.00  0.00    -0.092 C 
BRANCH  20  21
HETATM   21  C4  UNL     1       1.236 -26.629 -15.040  1.00  0.00     0.095 C 
BRANCH  21  22
HETATM   22  C3  UNL     1       1.112 -28.136 -15.076  1.00  0.00     0.012 C 
BRANCH  22  23
HETATM   23  C2  UNL     1       1.170 -28.749 -13.709  1.00  0.00    -0.004 C 
HETATM   24  C1  UNL     1       2.348 -29.671 -13.529  1.00  0.00     0.005 C 
ENDBRANCH  22  23
ENDBRANCH  21  22
ENDBRANCH  20  21
ENDBRANCH  18  19
ENDBRANCH  16  17
ENDBRANCH  15  16
ENDBRANCH  14  15
ENDBRANCH  13  14
ENDBRANCH   1  12
BRANCH   3  25
HETATM   25  C16 UNL     1       2.966 -30.561  -9.145  1.00  0.00     0.259 C 
HETATM   26  O1  UNL     1       1.777 -31.049  -9.679  1.00  0.00    -0.353 OA
HETATM   27  C17 UNL     1       1.616 -32.238  -8.980  1.00  0.00     0.179 C 
HETATM   28  C19 UNL     1       2.952 -32.908  -9.154  1.00  0.00     0.182 C 
HETATM   29  C20 UNL     1       3.912 -31.728  -9.066  1.00  0.00     0.198 C 
BRANCH  27  30
HETATM   30  C18 UNL     1       0.487 -33.071  -9.547  1.00  0.00     0.198 C 
BRANCH  30  31
HETATM   31  O2  UNL     1       1.078 -34.218 -10.119  1.00  0.00    -0.398 OA
ATOM     32  H2  UNL     1       1.897 -33.937 -10.508  1.00  0.00     0.209 HD
ENDBRANCH  30  31
ENDBRANCH  27  30
BRANCH  28  33
HETATM   33  O3  UNL     1       3.160 -33.819  -8.120  1.00  0.00    -0.390 OA
ATOM     34  H3  UNL     1       4.086 -34.018  -8.048  1.00  0.00     0.210 HD
ENDBRANCH  28  33
BRANCH  29  35
HETATM   35  O4  UNL     1       4.543 -31.814  -7.830  1.00  0.00    -0.388 OA
ATOM     36  H4  UNL     1       5.421 -32.172  -7.897  1.00  0.00     0.210 HD
ENDBRANCH  29  35
ENDBRANCH   3  25
TORSDOF 14
ENDMDL
MODEL 4
REMARK VINA RESULT: -8.041613604      3.855      7.738
REMARK  14 active torsions:
REMARK  status: ('A' for Active; 'I' for Inactive)
REMARK    1  A    between atoms: C2_2  and  C3_3 
REMARK    2  A    between atoms: C3_3  and  C4_4 
REMARK    3  A    between atoms: C4_4  and  C5_5 
REMARK    4  A    between atoms: C6_6  and  C7_7 
REMARK    5  A    between atoms: C8_8  and  C9_9 
REMARK    6  A    between atoms: C9_9  and  C10_10 
REMARK    7  A    between atoms: C10_10  and  C11_11 
REMARK    8  A    between atoms: C11_11  and  C12_12 
REMARK    9  A    between atoms: C13_13  and  C14_14 
REMARK   10  A    between atoms: N1_16  and  C16_17 
REMARK   11  A    between atoms: C17_19  and  C18_20 
REMARK   12  A    between atoms: C18_20  and  O2_21 
REMARK   13  A    between atoms: C19_23  and  O3_24 
REMARK   14  A    between atoms: C20_26  and  O4_27 
ROOT
HETATM    1  C14 UNL     1       1.605 -27.194 -11.081  1.00  0.00     0.062 A 
HETATM    2  C15 UNL     1       0.428 -26.836 -11.696  1.00  0.00     0.117 A 
HETATM    3  N1  UNL     1       0.747 -25.952 -12.656  1.00  0.00    -0.323 N 
HETATM    4  C21 UNL     1       2.074 -25.732 -12.677  1.00  0.00     0.080 A 
HETATM    5  C22 UNL     1       2.904 -24.930 -13.453  1.00  0.00     0.121 A 
HETATM    6  N2  UNL     1       4.220 -24.966 -13.183  1.00  0.00    -0.360 N 
ATOM      7  H2  UNL     1       4.836 -24.382 -13.748  1.00  0.00     0.166 HD
HETATM    8  C23 UNL     1       4.771 -25.709 -12.234  1.00  0.00     0.180 A 
HETATM    9  N3  UNL     1       3.979 -26.486 -11.480  1.00  0.00    -0.349 N 
ATOM     10  H3  UNL     1       4.380 -27.066 -10.745  1.00  0.00     0.166 HD
HETATM   11  C24 UNL     1       2.631 -26.494 -11.705  1.00  0.00     0.082 A 
ENDROOT
BRANCH   1  12
HETATM   12  C13 UNL     1       1.759 -28.129  -9.979  1.00  0.00    -0.063 C 
HETATM   13  C12 UNL     1       1.901 -28.916  -9.074  1.00  0.00    -0.101 C 
BRANCH  13  14
HETATM   14  C11 UNL     1       2.090 -29.884  -7.993  1.00  0.00     0.095 C 
BRANCH  14  15
HETATM   15  C10 UNL     1       3.584 -30.187  -7.809  1.00  0.00     0.024 C 
BRANCH  15  16
HETATM   16  C9  UNL     1       4.057 -31.021  -9.007  1.00  0.00     0.096 C 
BRANCH  16  17
HETATM   17  C8  UNL     1       4.955 -30.233  -9.853  1.00  0.00    -0.092 C 
HETATM   18  C7  UNL     1       5.702 -29.568 -10.536  1.00  0.00    -0.015 C 
BRANCH  18  19
HETATM   19  C6  UNL     1       6.588 -28.774 -11.319  1.00  0.00    -0.015 C 
HETATM   20  C5  UNL     1       7.327 -28.086 -11.990  1.00  0.00    -0.092 C 
BRANCH  20  21
HETATM   21  C4  UNL     1       8.199 -27.250 -12.815  1.00  0.00     0.095 C 
BRANCH  21  22
HETATM   22  C3  UNL     1       8.591 -25.979 -12.096  1.00  0.00     0.012 C 
BRANCH  22  23
HETATM   23  C2  UNL     1       8.266 -24.747 -12.888  1.00  0.00    -0.004 C 
HETATM   24  C1  UNL     1       7.694 -25.058 -14.246  1.00  0.00     0.005 C 
ENDBRANCH  22  23
ENDBRANCH  21  22
ENDBRANCH  20  21
ENDBRANCH  18  19
ENDBRANCH  16  17
ENDBRANCH  15  16
ENDBRANCH  14  15
ENDBRANCH  13  14
ENDBRANCH   1  12
BRANCH   3  25
HETATM   25  C16 UNL     1      -0.197 -25.325 -13.539  1.00  0.00     0.259 C 
HETATM   26  O1  UNL     1      -0.018 -23.948 -13.649  1.00  0.00    -0.353 OA
HETATM   27  C17 UNL     1      -0.854 -23.635 -14.712  1.00  0.00     0.179 C 
HETATM   28  C19 UNL     1      -0.434 -24.623 -15.766  1.00  0.00     0.182 C 
HETATM   29  C20 UNL     1      -0.166 -25.874 -14.939  1.00  0.00     0.198 C 
BRANCH  27  30
HETATM   30  C18 UNL     1      -0.665 -22.205 -15.169  1.00  0.00     0.198 C 
BRANCH  30  31
HETATM   31  O2  UNL     1      -0.017 -21.526 -14.115  1.00  0.00    -0.398 OA
ATOM     32  H2  UNL     1       0.023 -20.610 -14.365  1.00  0.00     0.209 HD
ENDBRANCH  30  31
ENDBRANCH  27  30
BRANCH  28  33
HETATM   33  O3  UNL     1      -1.476 -24.818 -16.671  1.00  0.00    -0.390 OA
ATOM     34  H3  UNL     1      -1.128 -25.120 -17.502  1.00  0.00     0.210 HD
ENDBRANCH  28  33
BRANCH  29  35
HETATM   35  O4  UNL     1      -1.215 -26.752 -15.186  1.00  0.00    -0.388 OA
ATOM     36  H4  UNL     1      -0.917 -27.645 -15.309  1.00  0.00     0.210 HD
ENDBRANCH  29  35
ENDBRANCH   3  25
TORSDOF 14
ENDMDL
MODEL 5
REMARK VINA RESULT: -8.035790387      4.211      8.112
REMARK  14 active torsions:
REMARK  status: ('A' for Active; 'I' for Inactive)
REMARK    1  A    between atoms: C2_2  and  C3_3 
REMARK    2  A    between atoms: C3_3  and  C4_4 
REMARK    3  A    between atoms: C4_4  and  C5_5 
REMARK    4  A    between atoms: C6_6  and  C7_7 
REMARK    5  A    between atoms: C8_8  and  C9_9 
REMARK    6  A    between atoms: C9_9  and  C10_10 
REMARK    7  A    between atoms: C10_10  and  C11_11 
REMARK    8  A    between atoms: C11_11  and  C12_12 
REMARK    9  A    between atoms: C13_13  and  C14_14 
REMARK   10  A    between atoms: N1_16  and  C16_17 
REMARK   11  A    between atoms: C17_19  and  C18_20 
REMARK   12  A    between atoms: C18_20  and  O2_21 
REMARK   13  A    between atoms: C19_23  and  O3_24 
REMARK   14  A    between atoms: C20_26  and  O4_27 
ROOT
HETATM    1  C14 UNL     1       1.642 -26.601 -11.809  1.00  0.00     0.062 A 
HETATM    2  C15 UNL     1       0.477 -25.912 -12.054  1.00  0.00     0.117 A 
HETATM    3  N1  UNL     1       0.668 -25.222 -13.191  1.00  0.00    -0.323 N 
HETATM    4  C21 UNL     1       1.902 -25.441 -13.678  1.00  0.00     0.080 A 
HETATM    5  C22 UNL     1       2.590 -24.985 -14.797  1.00  0.00     0.121 A 
HETATM    6  N2  UNL     1       3.846 -25.430 -14.970  1.00  0.00    -0.360 N 
ATOM      7  H2  UNL     1       4.357 -25.101 -15.789  1.00  0.00     0.166 HD
HETATM    8  C23 UNL     1       4.465 -26.266 -14.149  1.00  0.00     0.180 A 
HETATM    9  N3  UNL     1       3.810 -26.712 -13.067  1.00  0.00    -0.349 N 
ATOM     10  H3  UNL     1       4.265 -27.358 -12.422  1.00  0.00     0.166 HD
HETATM   11  C24 UNL     1       2.529 -26.297 -12.835  1.00  0.00     0.082 A 
ENDROOT
BRANCH   1  12
HETATM   12  C13 UNL     1       1.907 -27.485 -10.687  1.00  0.00    -0.063 C 
HETATM   13  C12 UNL     1       2.138 -28.232  -9.767  1.00  0.00    -0.101 C 
BRANCH  13  14
HETATM   14  C11 UNL     1       2.429 -29.155  -8.669  1.00  0.00     0.095 C 
BRANCH  14  15
HETATM   15  C10 UNL     1       2.571 -30.587  -9.203  1.00  0.00     0.024 C 
BRANCH  15  16
HETATM   16  C9  UNL     1       4.041 -31.007  -9.067  1.00  0.00     0.096 C 
BRANCH  16  17
HETATM   17  C8  UNL     1       4.886 -30.196  -9.946  1.00  0.00    -0.092 C 
HETATM   18  C7  UNL     1       5.579 -29.508 -10.661  1.00  0.00    -0.015 C 
BRANCH  18  19
HETATM   19  C6  UNL     1       6.393 -28.680 -11.486  1.00  0.00    -0.015 C 
HETATM   20  C5  UNL     1       7.099 -27.974 -12.174  1.00  0.00    -0.092 C 
BRANCH  20  21
HETATM   21  C4  UNL     1       7.961 -27.112 -12.983  1.00  0.00     0.095 C 
BRANCH  21  22
HETATM   22  C3  UNL     1       8.533 -25.975 -12.165  1.00  0.00     0.012 C 
BRANCH  22  23
HETATM   23  C2  UNL     1       8.328 -24.640 -12.817  1.00  0.00    -0.004 C 
HETATM   24  C1  UNL     1       7.666 -24.742 -14.167  1.00  0.00     0.005 C 
ENDBRANCH  22  23
ENDBRANCH  21  22
ENDBRANCH  20  21
ENDBRANCH  18  19
ENDBRANCH  16  17
ENDBRANCH  15  16
ENDBRANCH  14  15
ENDBRANCH  13  14
ENDBRANCH   1  12
BRANCH   3  25
HETATM   25  C16 UNL     1      -0.310 -24.365 -13.804  1.00  0.00     0.259 C 
HETATM   26  O1  UNL     1       0.198 -23.119 -14.160  1.00  0.00    -0.353 OA
HETATM   27  C17 UNL     1      -0.834 -22.601 -14.932  1.00  0.00     0.179 C 
HETATM   28  C19 UNL     1      -1.104 -23.709 -15.912  1.00  0.00     0.182 C 
HETATM   29  C20 UNL     1      -0.925 -24.949 -15.046  1.00  0.00     0.198 C 
BRANCH  27  30
HETATM   30  C18 UNL     1      -0.425 -21.319 -15.625  1.00  0.00     0.198 C 
BRANCH  30  31
HETATM   31  O2  UNL     1       0.020 -20.438 -14.616  1.00  0.00    -0.398 OA
ATOM     32  H2  UNL     1      -0.674 -19.804 -14.483  1.00  0.00     0.209 HD
ENDBRANCH  30  31
ENDBRANCH  27  30
BRANCH  28  33
HETATM   33  O3  UNL     1      -2.407 -23.603 -16.397  1.00  0.00    -0.390 OA
ATOM     34  H3  UNL     1      -2.393 -23.528 -17.343  1.00  0.00     0.210 HD
ENDBRANCH  28  33
BRANCH  29  35
HETATM   35  O4  UNL     1      -2.196 -25.464 -14.813  1.00  0.00    -0.388 OA
ATOM     36  H4  UNL     1      -2.678 -25.613 -15.619  1.00  0.00     0.210 HD
ENDBRANCH  29  35
ENDBRANCH   3  25
TORSDOF 14
ENDMDL
