MODEL 1
REMARK VINA RESULT: -7.778418196      0.000      0.000
REMARK  13 active torsions:
REMARK  status: ('A' for Active; 'I' for Inactive)
REMARK    1  A    between atoms: O1_2  and  C2_3 
REMARK    2  A    between atoms: C2_3  and  C3_5 
REMARK    3  A    between atoms: C8_10  and  O3_11 
REMARK    4  A    between atoms: C8_10  and  C9_13 
REMARK    5  A    between atoms: C10_14  and  C11_15 
REMARK    6  A    between atoms: C12_16  and  C13_17 
REMARK    7  A    between atoms: C13_17  and  C14_18 
REMARK    8  A    between atoms: C14_18  and  O5_20 
REMARK    9  A    between atoms: C21_27  and  O6_28 
REMARK   10  A    between atoms: C21_27  and  C22_30 
REMARK   11  A    between atoms: C22_30  and  O7_32 
REMARK   12  A    between atoms: C24_34  and  C25_35 
REMARK   13  A    between atoms: C25_35  and  C26_36 
ROOT
HETATM    1  C11 UNL     1      -5.809 105.259 275.301  1.00  0.00     0.075 C 
HETATM    2  C12 UNL     1      -5.867 104.200 274.278  1.00  0.00    -0.053 C 
HETATM    3  C19 UNL     1      -7.262 103.609 274.333  1.00  0.00     0.039 C 
HETATM    4  C20 UNL     1      -7.975 104.255 275.450  1.00  0.00     0.046 C 
HETATM    5  C21 UNL     1      -7.259 105.605 275.606  1.00  0.00     0.094 C 
ENDROOT
BRANCH   1   6
HETATM    6  C10 UNL     1      -5.002 106.387 274.775  1.00  0.00    -0.016 C 
HETATM    7  C9  UNL     1      -4.901 106.946 273.635  1.00  0.00     0.008 C 
BRANCH   7   8
HETATM    8  C8  UNL     1      -3.975 108.096 273.410  1.00  0.00     0.084 C 
HETATM    9  C7  UNL     1      -3.880 109.024 274.595  1.00  0.00     0.051 C 
HETATM   10  C5  UNL     1      -3.671 110.399 274.011  1.00  0.00     0.014 C 
HETATM   11  C4  UNL     1      -3.524 110.102 272.470  1.00  0.00    -0.062 C 
HETATM   12  C6  UNL     1      -2.412 110.967 274.550  1.00  0.00     0.015 C 
HETATM   13  C3  UNL     1      -2.658 110.745 271.815  1.00  0.00     0.086 C 
HETATM   14  C24 UNL     1      -4.535 109.085 272.371  1.00  0.00     0.063 C 
BRANCH  13  15
HETATM   15  C2  UNL     1      -2.184 110.805 270.468  1.00  0.00     0.282 C 
HETATM   16  O2  UNL     1      -2.867 111.138 269.496  1.00  0.00    -0.260 OA
BRANCH  15  17
HETATM   17  O1  UNL     1      -0.842 110.473 270.143  1.00  0.00    -0.323 OA
HETATM   18  C1  UNL     1       0.127 110.572 271.165  1.00  0.00     0.213 C 
ENDBRANCH  15  17
ENDBRANCH  13  15
BRANCH  14  19
HETATM   19  C25 UNL     1      -5.059 108.487 271.165  1.00  0.00     0.125 C 
BRANCH  19  20
HETATM   20  C26 UNL     1      -6.101 109.305 270.492  1.00  0.00     0.173 C 
HETATM   21  O8  UNL     1      -6.658 108.813 269.474  1.00  0.00    -0.648 OA
HETATM   22  O9  UNL     1      -6.479 110.550 270.918  1.00  0.00    -0.648 OA
ENDBRANCH  19  20
ENDBRANCH  14  19
BRANCH   8  23
HETATM   23  O3  UNL     1      -2.736 107.706 272.938  1.00  0.00    -0.385 OA
ATOM     24  H3  UNL     1      -2.723 106.801 272.647  1.00  0.00     0.211 HD
ENDBRANCH   8  23
ENDBRANCH   7   8
ENDBRANCH   1   6
BRANCH   2  25
HETATM   25  C13 UNL     1      -4.843 103.213 273.999  1.00  0.00     0.044 C 
HETATM   26  C16 UNL     1      -4.311 102.294 274.723  1.00  0.00    -0.071 C 
HETATM   27  C17 UNL     1      -3.236 101.382 274.180  1.00  0.00     0.044 C 
HETATM   28  C18 UNL     1      -4.694 101.991 276.116  1.00  0.00     0.044 C 
BRANCH  25  29
HETATM   29  C14 UNL     1      -4.333 103.320 272.572  1.00  0.00     0.293 C 
HETATM   30  O4  UNL     1      -4.974 102.682 271.656  1.00  0.00    -0.259 OA
BRANCH  29  31
HETATM   31  O5  UNL     1      -3.268 104.018 272.159  1.00  0.00    -0.323 OA
HETATM   32  C15 UNL     1      -3.251 104.910 271.064  1.00  0.00     0.213 C 
ENDBRANCH  29  31
ENDBRANCH  25  29
ENDBRANCH   2  25
BRANCH   5  33
HETATM   33  O6  UNL     1      -7.881 106.452 274.760  1.00  0.00    -0.386 OA
ATOM     34  H6  UNL     1      -8.094 106.124 273.895  1.00  0.00     0.210 HD
ENDBRANCH   5  33
BRANCH   5  35
HETATM   35  C22 UNL     1      -7.366 106.075 277.029  1.00  0.00     0.149 C 
HETATM   36  C23 UNL     1      -7.642 107.562 277.141  1.00  0.00     0.042 C 
BRANCH  35  37
HETATM   37  O7  UNL     1      -8.369 105.440 277.735  1.00  0.00    -0.393 OA
ATOM     38  H7  UNL     1      -9.066 106.028 278.002  1.00  0.00     0.210 HD
ENDBRANCH  35  37
ENDBRANCH   5  35
TORSDOF 13
ENDMDL
MODEL 2
REMARK VINA RESULT: -7.713125257      2.664      6.483
REMARK  13 active torsions:
REMARK  status: ('A' for Active; 'I' for Inactive)
REMARK    1  A    between atoms: O1_2  and  C2_3 
REMARK    2  A    between atoms: C2_3  and  C3_5 
REMARK    3  A    between atoms: C8_10  and  O3_11 
REMARK    4  A    between atoms: C8_10  and  C9_13 
REMARK    5  A    between atoms: C10_14  and  C11_15 
REMARK    6  A    between atoms: C12_16  and  C13_17 
REMARK    7  A    between atoms: C13_17  and  C14_18 
REMARK    8  A    between atoms: C14_18  and  O5_20 
REMARK    9  A    between atoms: C21_27  and  O6_28 
REMARK   10  A    between atoms: C21_27  and  C22_30 
REMARK   11  A    between atoms: C22_30  and  O7_32 
REMARK   12  A    between atoms: C24_34  and  C25_35 
REMARK   13  A    between atoms: C25_35  and  C26_36 
ROOT
HETATM    1  C11 UNL     1      -8.165 106.851 276.220  1.00  0.00     0.075 C 
HETATM    2  C12 UNL     1      -7.268 108.012 276.357  1.00  0.00    -0.053 C 
HETATM    3  C19 UNL     1      -7.717 108.774 277.589  1.00  0.00     0.039 C 
HETATM    4  C20 UNL     1      -8.929 108.111 278.103  1.00  0.00     0.046 C 
HETATM    5  C21 UNL     1      -8.801 106.669 277.590  1.00  0.00     0.094 C 
ENDROOT
BRANCH   1   6
HETATM    6  C10 UNL     1      -7.371 105.689 275.748  1.00  0.00    -0.016 C 
HETATM    7  C9  UNL     1      -7.267 105.084 274.633  1.00  0.00     0.008 C 
BRANCH   7   8
HETATM    8  C8  UNL     1      -6.355 103.913 274.463  1.00  0.00     0.084 C 
HETATM    9  C7  UNL     1      -6.410 102.944 275.618  1.00  0.00     0.051 C 
HETATM   10  C5  UNL     1      -5.014 102.386 275.738  1.00  0.00     0.014 C 
HETATM   11  C4  UNL     1      -4.281 103.016 274.493  1.00  0.00    -0.062 C 
HETATM   12  C6  UNL     1      -5.071 100.910 275.611  1.00  0.00     0.015 C 
HETATM   13  C3  UNL     1      -3.476 102.295 273.842  1.00  0.00     0.086 C 
HETATM   14  C24 UNL     1      -4.875 104.324 274.560  1.00  0.00     0.063 C 
BRANCH  13  15
HETATM   15  C2  UNL     1      -2.631 102.425 272.696  1.00  0.00     0.282 C 
HETATM   16  O2  UNL     1      -2.867 103.151 271.728  1.00  0.00    -0.260 OA
BRANCH  15  17
HETATM   17  O1  UNL     1      -1.416 101.698 272.591  1.00  0.00    -0.323 OA
HETATM   18  C1  UNL     1      -1.036 100.888 273.682  1.00  0.00     0.213 C 
ENDBRANCH  15  17
ENDBRANCH  13  15
BRANCH  14  19
HETATM   19  C25 UNL     1      -4.504 105.492 273.797  1.00  0.00     0.125 C 
BRANCH  19  20
HETATM   20  C26 UNL     1      -3.902 106.578 274.613  1.00  0.00     0.173 C 
HETATM   21  O8  UNL     1      -4.148 106.583 275.847  1.00  0.00    -0.648 OA
HETATM   22  O9  UNL     1      -3.103 107.561 274.092  1.00  0.00    -0.648 OA
ENDBRANCH  19  20
ENDBRANCH  14  19
BRANCH   8  23
HETATM   23  O3  UNL     1      -6.500 103.290 273.238  1.00  0.00    -0.385 OA
ATOM     24  H3  UNL     1      -6.854 103.868 272.572  1.00  0.00     0.211 HD
ENDBRANCH   8  23
ENDBRANCH   7   8
ENDBRANCH   1   6
BRANCH   2  25
HETATM   25  C13 UNL     1      -6.811 108.879 275.289  1.00  0.00     0.044 C 
HETATM   26  C16 UNL     1      -5.792 109.655 275.184  1.00  0.00    -0.071 C 
HETATM   27  C17 UNL     1      -5.543 110.471 273.938  1.00  0.00     0.044 C 
HETATM   28  C18 UNL     1      -4.746 109.815 276.214  1.00  0.00     0.044 C 
BRANCH  25  29
HETATM   29  C14 UNL     1      -7.740 108.829 274.087  1.00  0.00     0.293 C 
HETATM   30  O4  UNL     1      -8.682 109.704 274.020  1.00  0.00    -0.259 OA
BRANCH  29  31
HETATM   31  O5  UNL     1      -7.682 107.957 273.074  1.00  0.00    -0.323 OA
HETATM   32  C15 UNL     1      -6.656 107.898 272.104  1.00  0.00     0.213 C 
ENDBRANCH  29  31
ENDBRANCH  25  29
ENDBRANCH   2  25
BRANCH   5  33
HETATM   33  O6  UNL     1      -8.082 106.008 278.521  1.00  0.00    -0.386 OA
ATOM     34  H6  UNL     1      -7.940 105.079 278.381  1.00  0.00     0.210 HD
ENDBRANCH   5  33
BRANCH   5  35
HETATM   35  C22 UNL     1     -10.167 106.066 277.424  1.00  0.00     0.149 C 
HETATM   36  C23 UNL     1     -10.154 104.550 277.476  1.00  0.00     0.042 C 
BRANCH  35  37
HETATM   37  O7  UNL     1     -11.063 106.480 278.390  1.00  0.00    -0.393 OA
ATOM     38  H7  UNL     1     -11.967 106.303 278.159  1.00  0.00     0.210 HD
ENDBRANCH  35  37
ENDBRANCH   5  35
TORSDOF 13
ENDMDL
MODEL 3
REMARK VINA RESULT: -7.693729508      3.091      7.004
REMARK  13 active torsions:
REMARK  status: ('A' for Active; 'I' for Inactive)
REMARK    1  A    between atoms: O1_2  and  C2_3 
REMARK    2  A    between atoms: C2_3  and  C3_5 
REMARK    3  A    between atoms: C8_10  and  O3_11 
REMARK    4  A    between atoms: C8_10  and  C9_13 
REMARK    5  A    between atoms: C10_14  and  C11_15 
REMARK    6  A    between atoms: C12_16  and  C13_17 
REMARK    7  A    between atoms: C13_17  and  C14_18 
REMARK    8  A    between atoms: C14_18  and  O5_20 
REMARK    9  A    between atoms: C21_27  and  O6_28 
REMARK   10  A    between atoms: C21_27  and  C22_30 
REMARK   11  A    between atoms: C22_30  and  O7_32 
REMARK   12  A    between atoms: C24_34  and  C25_35 
REMARK   13  A    between atoms: C25_35  and  C26_36 
ROOT
HETATM    1  C11 UNL     1      -6.243 108.507 275.568  1.00  0.00     0.075 C 
HETATM    2  C12 UNL     1      -7.631 108.032 275.701  1.00  0.00    -0.053 C 
HETATM    3  C19 UNL     1      -8.528 109.249 275.582  1.00  0.00     0.039 C 
HETATM    4  C20 UNL     1      -7.657 110.434 275.483  1.00  0.00     0.046 C 
HETATM    5  C21 UNL     1      -6.346 109.874 274.910  1.00  0.00     0.094 C 
ENDROOT
BRANCH   1   6
HETATM    6  C10 UNL     1      -5.468 107.506 274.795  1.00  0.00    -0.016 C 
HETATM    7  C9  UNL     1      -5.066 106.321 275.034  1.00  0.00     0.008 C 
BRANCH   7   8
HETATM    8  C8  UNL     1      -4.285 105.544 274.026  1.00  0.00     0.084 C 
HETATM    9  C7  UNL     1      -4.618 105.914 272.602  1.00  0.00     0.051 C 
HETATM   10  C5  UNL     1      -4.468 104.639 271.811  1.00  0.00     0.014 C 
HETATM   11  C4  UNL     1      -3.904 103.630 272.884  1.00  0.00    -0.062 C 
HETATM   12  C6  UNL     1      -3.474 104.852 270.732  1.00  0.00     0.015 C 
HETATM   13  C3  UNL     1      -3.004 102.820 272.532  1.00  0.00     0.086 C 
HETATM   14  C24 UNL     1      -4.706 104.063 273.996  1.00  0.00     0.063 C 
BRANCH  13  15
HETATM   15  C2  UNL     1      -2.226 101.781 273.130  1.00  0.00     0.282 C 
HETATM   16  O2  UNL     1      -2.591 101.089 274.084  1.00  0.00    -0.260 OA
BRANCH  15  17
HETATM   17  O1  UNL     1      -0.929 101.462 272.648  1.00  0.00    -0.323 OA
HETATM   18  C1  UNL     1      -0.147 100.563 273.405  1.00  0.00     0.213 C 
ENDBRANCH  15  17
ENDBRANCH  13  15
BRANCH  14  19
HETATM   19  C25 UNL     1      -4.827 103.427 275.287  1.00  0.00     0.125 C 
BRANCH  19  20
HETATM   20  C26 UNL     1      -5.751 102.263 275.301  1.00  0.00     0.173 C 
HETATM   21  O8  UNL     1      -6.469 102.103 276.322  1.00  0.00    -0.648 OA
HETATM   22  O9  UNL     1      -5.855 101.367 274.270  1.00  0.00    -0.648 OA
ENDBRANCH  19  20
ENDBRANCH  14  19
BRANCH   8  23
HETATM   23  O3  UNL     1      -2.926 105.550 274.275  1.00  0.00    -0.385 OA
ATOM     24  H3  UNL     1      -2.516 104.712 274.095  1.00  0.00     0.211 HD
ENDBRANCH   8  23
ENDBRANCH   7   8
ENDBRANCH   1   6
BRANCH   2  25
HETATM   25  C13 UNL     1      -8.122 107.056 276.653  1.00  0.00     0.044 C 
HETATM   26  C16 UNL     1      -8.357 105.796 276.556  1.00  0.00    -0.071 C 
HETATM   27  C17 UNL     1      -8.881 104.995 277.723  1.00  0.00     0.044 C 
HETATM   28  C18 UNL     1      -8.118 104.987 275.344  1.00  0.00     0.044 C 
BRANCH  25  29
HETATM   29  C14 UNL     1      -8.394 107.683 278.010  1.00  0.00     0.293 C 
HETATM   30  O4  UNL     1      -7.382 108.027 278.727  1.00  0.00    -0.259 OA
BRANCH  29  31
HETATM   31  O5  UNL     1      -9.596 107.920 278.550  1.00  0.00    -0.323 OA
HETATM   32  C15 UNL     1     -10.005 109.141 279.130  1.00  0.00     0.213 C 
ENDBRANCH  29  31
ENDBRANCH  25  29
ENDBRANCH   2  25
BRANCH   5  33
HETATM   33  O6  UNL     1      -6.487 109.904 273.569  1.00  0.00    -0.386 OA
ATOM     34  H6  UNL     1      -6.914 110.665 273.193  1.00  0.00     0.210 HD
ENDBRANCH   5  33
BRANCH   5  35
HETATM   35  C22 UNL     1      -5.192 110.727 275.358  1.00  0.00     0.149 C 
HETATM   36  C23 UNL     1      -5.534 112.203 275.413  1.00  0.00     0.042 C 
BRANCH  35  37
HETATM   37  O7  UNL     1      -4.724 110.389 276.612  1.00  0.00    -0.393 OA
ATOM     38  H7  UNL     1      -4.732 111.118 277.221  1.00  0.00     0.210 HD
ENDBRANCH  35  37
ENDBRANCH   5  35
TORSDOF 13
ENDMDL
MODEL 4
REMARK VINA RESULT: -7.629862794      2.738      4.740
REMARK  13 active torsions:
REMARK  status: ('A' for Active; 'I' for Inactive)
REMARK    1  A    between atoms: O1_2  and  C2_3 
REMARK    2  A    between atoms: C2_3  and  C3_5 
REMARK    3  A    between atoms: C8_10  and  O3_11 
REMARK    4  A    between atoms: C8_10  and  C9_13 
REMARK    5  A    between atoms: C10_14  and  C11_15 
REMARK    6  A    between atoms: C12_16  and  C13_17 
REMARK    7  A    between atoms: C13_17  and  C14_18 
REMARK    8  A    between atoms: C14_18  and  O5_20 
REMARK    9  A    between atoms: C21_27  and  O6_28 
REMARK   10  A    between atoms: C21_27  and  C22_30 
REMARK   11  A    between atoms: C22_30  and  O7_32 
REMARK   12  A    between atoms: C24_34  and  C25_35 
REMARK   13  A    between atoms: C25_35  and  C26_36 
ROOT
HETATM    1  C11 UNL     1      -6.246 104.019 275.047  1.00  0.00     0.075 C 
HETATM    2  C12 UNL     1      -5.795 103.401 273.788  1.00  0.00    -0.053 C 
HETATM    3  C19 UNL     1      -6.655 102.172 273.567  1.00  0.00     0.039 C 
HETATM    4  C20 UNL     1      -7.531 102.025 274.743  1.00  0.00     0.046 C 
HETATM    5  C21 UNL     1      -7.635 103.454 275.298  1.00  0.00     0.094 C 
ENDROOT
BRANCH   1   6
HETATM    6  C10 UNL     1      -6.197 105.495 274.897  1.00  0.00    -0.016 C 
HETATM    7  C9  UNL     1      -5.892 106.453 275.678  1.00  0.00     0.008 C 
BRANCH   7   8
HETATM    8  C8  UNL     1      -5.940 107.875 275.224  1.00  0.00     0.084 C 
HETATM    9  C7  UNL     1      -4.586 108.542 275.213  1.00  0.00     0.051 C 
HETATM   10  C5  UNL     1      -4.849 109.985 275.563  1.00  0.00     0.014 C 
HETATM   11  C4  UNL     1      -6.423 110.049 275.614  1.00  0.00    -0.062 C 
HETATM   12  C6  UNL     1      -4.332 110.849 274.475  1.00  0.00     0.015 C 
HETATM   13  C3  UNL     1      -6.999 111.063 275.133  1.00  0.00     0.086 C 
HETATM   14  C24 UNL     1      -6.648 108.779 276.250  1.00  0.00     0.063 C 
BRANCH  13  15
HETATM   15  C2  UNL     1      -8.337 111.534 274.958  1.00  0.00     0.282 C 
HETATM   16  O2  UNL     1      -8.818 111.902 273.883  1.00  0.00    -0.260 OA
BRANCH  15  17
HETATM   17  O1  UNL     1      -9.240 111.613 276.051  1.00  0.00    -0.323 OA
HETATM   18  C1  UNL     1      -8.968 112.558 277.063  1.00  0.00     0.213 C 
ENDBRANCH  15  17
ENDBRANCH  13  15
BRANCH  14  19
HETATM   19  C25 UNL     1      -7.896 108.269 276.767  1.00  0.00     0.125 C 
BRANCH  19  20
HETATM   20  C26 UNL     1      -8.033 108.397 278.241  1.00  0.00     0.173 C 
HETATM   21  O8  UNL     1      -7.912 107.349 278.929  1.00  0.00    -0.648 OA
HETATM   22  O9  UNL     1      -8.284 109.583 278.879  1.00  0.00    -0.648 OA
ENDBRANCH  19  20
ENDBRANCH  14  19
BRANCH   8  23
HETATM   23  O3  UNL     1      -6.623 108.038 274.033  1.00  0.00    -0.385 OA
ATOM     24  H3  UNL     1      -7.029 107.234 273.731  1.00  0.00     0.211 HD
ENDBRANCH   8  23
ENDBRANCH   7   8
ENDBRANCH   1   6
BRANCH   2  25
HETATM   25  C13 UNL     1      -4.422 103.217 273.361  1.00  0.00     0.044 C 
HETATM   26  C16 UNL     1      -3.507 102.391 273.727  1.00  0.00    -0.071 C 
HETATM   27  C17 UNL     1      -2.128 102.414 273.113  1.00  0.00     0.044 C 
HETATM   28  C18 UNL     1      -3.690 101.323 274.730  1.00  0.00     0.044 C 
BRANCH  25  29
HETATM   29  C14 UNL     1      -4.033 104.207 272.276  1.00  0.00     0.293 C 
HETATM   30  O4  UNL     1      -4.226 103.860 271.051  1.00  0.00    -0.259 OA
BRANCH  29  31
HETATM   31  O5  UNL     1      -3.502 105.421 272.460  1.00  0.00    -0.323 OA
HETATM   32  C15 UNL     1      -4.080 106.639 272.037  1.00  0.00     0.213 C 
ENDBRANCH  29  31
ENDBRANCH  25  29
ENDBRANCH   2  25
BRANCH   5  33
HETATM   33  O6  UNL     1      -8.664 104.030 274.643  1.00  0.00    -0.386 OA
ATOM     34  H6  UNL     1      -8.556 104.936 274.377  1.00  0.00     0.210 HD
ENDBRANCH   5  33
BRANCH   5  35
HETATM   35  C22 UNL     1      -7.889 103.405 276.779  1.00  0.00     0.149 C 
HETATM   36  C23 UNL     1      -8.919 104.421 277.236  1.00  0.00     0.042 C 
BRANCH  35  37
HETATM   37  O7  UNL     1      -8.340 102.174 277.211  1.00  0.00    -0.393 OA
ATOM     38  H7  UNL     1      -9.252 102.182 277.474  1.00  0.00     0.210 HD
ENDBRANCH  35  37
ENDBRANCH   5  35
TORSDOF 13
ENDMDL
MODEL 5
REMARK VINA RESULT: -7.587619438      1.785      2.721
REMARK  13 active torsions:
REMARK  status: ('A' for Active; 'I' for Inactive)
REMARK    1  A    between atoms: O1_2  and  C2_3 
REMARK    2  A    between atoms: C2_3  and  C3_5 
REMARK    3  A    between atoms: C8_10  and  O3_11 
REMARK    4  A    between atoms: C8_10  and  C9_13 
REMARK    5  A    between atoms: C10_14  and  C11_15 
REMARK    6  A    between atoms: C12_16  and  C13_17 
REMARK    7  A    between atoms: C13_17  and  C14_18 
REMARK    8  A    between atoms: C14_18  and  O5_20 
REMARK    9  A    between atoms: C21_27  and  O6_28 
REMARK   10  A    between atoms: C21_27  and  C22_30 
REMARK   11  A    between atoms: C22_30  and  O7_32 
REMARK   12  A    between atoms: C24_34  and  C25_35 
REMARK   13  A    between atoms: C25_35  and  C26_36 
ROOT
HETATM    1  C11 UNL     1      -5.996 104.894 274.838  1.00  0.00     0.075 C 
HETATM    2  C12 UNL     1      -5.896 103.711 273.966  1.00  0.00    -0.053 C 
HETATM    3  C19 UNL     1      -7.107 102.845 274.256  1.00  0.00     0.039 C 
HETATM    4  C20 UNL     1      -7.849 103.477 275.362  1.00  0.00     0.046 C 
HETATM    5  C21 UNL     1      -7.454 104.958 275.266  1.00  0.00     0.094 C 
ENDROOT
BRANCH   1   6
HETATM    6  C10 UNL     1      -5.519 106.081 274.087  1.00  0.00    -0.016 C 
HETATM    7  C9  UNL     1      -4.866 107.127 274.407  1.00  0.00     0.008 C 
BRANCH   7   8
HETATM    8  C8  UNL     1      -4.527 108.174 273.397  1.00  0.00     0.084 C 
HETATM    9  C7  UNL     1      -3.046 108.442 273.293  1.00  0.00     0.051 C 
HETATM   10  C5  UNL     1      -2.927 109.910 272.967  1.00  0.00     0.014 C 
HETATM   11  C4  UNL     1      -4.430 110.344 272.772  1.00  0.00    -0.062 C 
HETATM   12  C6  UNL     1      -2.176 110.065 271.698  1.00  0.00     0.015 C 
HETATM   13  C3  UNL     1      -4.707 111.145 271.838  1.00  0.00     0.086 C 
HETATM   14  C24 UNL     1      -4.996 109.571 273.844  1.00  0.00     0.063 C 
BRANCH  13  15
HETATM   15  C2  UNL     1      -5.869 111.781 271.301  1.00  0.00     0.282 C 
HETATM   16  O2  UNL     1      -6.948 111.219 271.100  1.00  0.00    -0.260 OA
BRANCH  15  17
HETATM   17  O1  UNL     1      -5.861 113.157 270.950  1.00  0.00    -0.323 OA
HETATM   18  C1  UNL     1      -4.667 113.696 270.427  1.00  0.00     0.213 C 
ENDBRANCH  15  17
ENDBRANCH  13  15
BRANCH  14  19
HETATM   19  C25 UNL     1      -6.346 109.638 274.352  1.00  0.00     0.125 C 
BRANCH  19  20
HETATM   20  C26 UNL     1      -6.445 110.205 275.722  1.00  0.00     0.173 C 
HETATM   21  O8  UNL     1      -5.552 109.885 276.550  1.00  0.00    -0.648 OA
HETATM   22  O9  UNL     1      -7.450 111.045 276.123  1.00  0.00    -0.648 OA
ENDBRANCH  19  20
ENDBRANCH  14  19
BRANCH   8  23
HETATM   23  O3  UNL     1      -5.115 107.948 272.167  1.00  0.00    -0.385 OA
ATOM     24  H3  UNL     1      -5.576 107.118 272.128  1.00  0.00     0.211 HD
ENDBRANCH   8  23
ENDBRANCH   7   8
ENDBRANCH   1   6
BRANCH   2  25
HETATM   25  C13 UNL     1      -4.700 102.939 273.691  1.00  0.00     0.044 C 
HETATM   26  C16 UNL     1      -3.993 102.154 274.422  1.00  0.00    -0.071 C 
HETATM   27  C17 UNL     1      -2.763 101.463 273.883  1.00  0.00     0.044 C 
HETATM   28  C18 UNL     1      -4.299 101.805 275.824  1.00  0.00     0.044 C 
BRANCH  25  29
HETATM   29  C14 UNL     1      -4.230 103.122 272.258  1.00  0.00     0.293 C 
HETATM   30  O4  UNL     1      -4.894 102.528 271.328  1.00  0.00    -0.259 OA
BRANCH  29  31
HETATM   31  O5  UNL     1      -3.181 103.846 271.851  1.00  0.00    -0.323 OA
HETATM   32  C15 UNL     1      -3.256 105.088 271.181  1.00  0.00     0.213 C 
ENDBRANCH  29  31
ENDBRANCH  25  29
ENDBRANCH   2  25
BRANCH   5  33
HETATM   33  O6  UNL     1      -8.326 105.518 274.403  1.00  0.00    -0.386 OA
ATOM     34  H6  UNL     1      -9.168 105.789 274.750  1.00  0.00     0.210 HD
ENDBRANCH   5  33
BRANCH   5  35
HETATM   35  C22 UNL     1      -7.543 105.595 276.625  1.00  0.00     0.149 C 
HETATM   36  C23 UNL     1      -7.961 107.052 276.567  1.00  0.00     0.042 C 
BRANCH  35  37
HETATM   37  O7  UNL     1      -8.442 104.965 277.461  1.00  0.00    -0.393 OA
ATOM     38  H7  UNL     1      -8.023 104.447 278.137  1.00  0.00     0.210 HD
ENDBRANCH  35  37
ENDBRANCH   5  35
TORSDOF 13
ENDMDL
