MODEL 1
REMARK VINA RESULT: -7.082758723      0.000      0.000
REMARK  6 active torsions:
REMARK  status: ('A' for Active; 'I' for Inactive)
REMARK    1  A    between atoms: C3_3  and  N1_4 
REMARK       I    between atoms: N1_4  and  C4_6 
REMARK       I    between atoms: C4_6  and  N2_8 
REMARK    2  A    between atoms: N2_8  and  C5_10 
REMARK    3  A    between atoms: N3_15  and  C10_16 
REMARK    4  A    between atoms: C10_16  and  O2_17 
REMARK    5  A    between atoms: C10_16  and  N4_19 
REMARK    6  A    between atoms: C16_26  and  C18_28 
ROOT
HETATM    1  C1  UNL     1     -19.389 -38.972  -7.591  1.00  0.00     0.013 C 
HETATM    2  C2  UNL     1     -18.883 -39.460  -8.932  1.00  0.00     0.022 C 
HETATM    3  C3  UNL     1     -17.497 -38.990  -9.241  1.00  0.00     0.109 C 
HETATM    4  C9  UNL     1     -16.426 -39.899  -8.635  1.00  0.00     0.152 C 
HETATM    5  N3  UNL     1     -16.705 -41.269  -8.846  1.00  0.00    -0.344 N 
HETATM    6  C15 UNL     1     -17.826 -41.543  -9.774  1.00  0.00     0.143 C 
HETATM    7  C16 UNL     1     -19.051 -40.954  -9.102  1.00  0.00     0.031 C 
HETATM    8  C17 UNL     1     -19.209 -41.594  -7.752  1.00  0.00     0.025 C 
ENDROOT
BRANCH   3   9
HETATM    9  N1  UNL     1     -17.316 -37.693  -8.609  1.00  0.00    -0.337 N 
HETATM   10  C4  UNL     1     -17.265 -36.503  -9.360  1.00  0.00     0.317 C 
HETATM   11  O1  UNL     1     -17.379 -36.568 -10.602  1.00  0.00    -0.247 OA
HETATM   12  N2  UNL     1     -17.089 -35.259  -8.726  1.00  0.00    -0.335 N 
ATOM     13  H2  UNL     1     -16.996 -35.210  -7.711  1.00  0.00     0.165 HD
ATOM     14  H1  UNL     1     -17.224 -37.643  -7.594  1.00  0.00     0.164 HD
BRANCH  12  15
HETATM   15  C5  UNL     1     -17.038 -34.030  -9.532  1.00  0.00     0.023 C 
HETATM   16  C6  UNL     1     -16.074 -34.267 -10.679  1.00  0.00     0.037 C 
HETATM   17  C7  UNL     1     -18.430 -33.711 -10.011  1.00  0.00     0.037 C 
HETATM   18  C8  UNL     1     -16.556 -32.916  -8.630  1.00  0.00     0.037 C 
ENDBRANCH  12  15
ENDBRANCH   3   9
BRANCH   7  19
HETATM   19  C18 UNL     1     -20.260 -41.283  -9.905  1.00  0.00     0.242 C 
HETATM   20  O3  UNL     1     -21.072 -40.438 -10.254  1.00  0.00    -0.306 OA
ENDBRANCH   7  19
BRANCH   5  21
HETATM   21  C10 UNL     1     -16.043 -42.357  -8.281  1.00  0.00     0.217 C 
BRANCH  21  22
HETATM   22  O2  UNL     1     -15.875 -42.235  -6.980  1.00  0.00    -0.333 OA
ATOM     23  H2  UNL     1     -15.632 -43.052  -6.561  1.00  0.00     0.220 HD
ENDBRANCH  21  22
BRANCH  21  24
HETATM   24  N4  UNL     1     -15.545 -43.528  -8.877  1.00  0.00    -0.346 N 
HETATM   25  C11 UNL     1     -16.175 -44.802  -8.451  1.00  0.00     0.136 C 
HETATM   26  C12 UNL     1     -17.143 -45.153  -9.587  1.00  0.00     0.093 C 
HETATM   27  S1  UNL     1     -16.069 -45.380 -11.059  1.00  0.00    -0.166 SA
HETATM   28  C13 UNL     1     -14.397 -44.916 -10.530  1.00  0.00     0.093 C 
HETATM   29  C14 UNL     1     -14.504 -43.554  -9.833  1.00  0.00     0.136 C 
ENDBRANCH  21  24
ENDBRANCH   5  21
TORSDOF 6
ENDMDL
MODEL 2
REMARK VINA RESULT: -7.015295228      3.748      6.639
REMARK  6 active torsions:
REMARK  status: ('A' for Active; 'I' for Inactive)
REMARK    1  A    between atoms: C3_3  and  N1_4 
REMARK       I    between atoms: N1_4  and  C4_6 
REMARK       I    between atoms: C4_6  and  N2_8 
REMARK    2  A    between atoms: N2_8  and  C5_10 
REMARK    3  A    between atoms: N3_15  and  C10_16 
REMARK    4  A    between atoms: C10_16  and  O2_17 
REMARK    5  A    between atoms: C10_16  and  N4_19 
REMARK    6  A    between atoms: C16_26  and  C18_28 
ROOT
HETATM    1  C1  UNL     1     -19.276 -37.871 -10.960  1.00  0.00     0.013 C 
HETATM    2  C2  UNL     1     -18.236 -37.776  -9.863  1.00  0.00     0.022 C 
HETATM    3  C3  UNL     1     -17.877 -39.106  -9.281  1.00  0.00     0.109 C 
HETATM    4  C9  UNL     1     -16.793 -39.822 -10.089  1.00  0.00     0.152 C 
HETATM    5  N3  UNL     1     -15.726 -38.960 -10.435  1.00  0.00    -0.344 N 
HETATM    6  C15 UNL     1     -15.759 -37.632  -9.779  1.00  0.00     0.143 C 
HETATM    7  C16 UNL     1     -17.027 -36.971 -10.284  1.00  0.00     0.031 C 
HETATM    8  C17 UNL     1     -16.968 -36.907 -11.784  1.00  0.00     0.025 C 
ENDROOT
BRANCH   3   9
HETATM    9  N1  UNL     1     -19.053 -39.958  -9.359  1.00  0.00    -0.337 N 
HETATM   10  C4  UNL     1     -19.835 -40.248  -8.225  1.00  0.00     0.317 C 
HETATM   11  O1  UNL     1     -19.508 -39.758  -7.124  1.00  0.00    -0.247 OA
HETATM   12  N2  UNL     1     -20.969 -41.076  -8.325  1.00  0.00    -0.335 N 
ATOM     13  H2  UNL     1     -21.234 -41.475  -9.226  1.00  0.00     0.165 HD
ATOM     14  H1  UNL     1     -19.319 -40.357 -10.260  1.00  0.00     0.164 HD
BRANCH  12  15
HETATM   15  C5  UNL     1     -21.771 -41.364  -7.127  1.00  0.00     0.023 C 
HETATM   16  C6  UNL     1     -20.975 -42.318  -6.255  1.00  0.00     0.037 C 
HETATM   17  C7  UNL     1     -22.073 -40.066  -6.425  1.00  0.00     0.037 C 
HETATM   18  C8  UNL     1     -23.066 -41.993  -7.587  1.00  0.00     0.037 C 
ENDBRANCH  12  15
ENDBRANCH   3   9
BRANCH   7  19
HETATM   19  C18 UNL     1     -17.092 -35.575  -9.772  1.00  0.00     0.242 C 
HETATM   20  O3  UNL     1     -17.789 -34.713 -10.288  1.00  0.00    -0.306 OA
ENDBRANCH   7  19
BRANCH   5  21
HETATM   21  C10 UNL     1     -14.676 -39.233 -11.309  1.00  0.00     0.217 C 
BRANCH  21  22
HETATM   22  O2  UNL     1     -14.904 -40.282 -12.071  1.00  0.00    -0.333 OA
ATOM     23  H2  UNL     1     -14.164 -40.505 -12.624  1.00  0.00     0.220 HD
ENDBRANCH  21  22
BRANCH  21  24
HETATM   24  N4  UNL     1     -13.449 -38.573 -11.490  1.00  0.00    -0.346 N 
HETATM   25  C11 UNL     1     -13.289 -37.817 -12.756  1.00  0.00     0.136 C 
HETATM   26  C12 UNL     1     -13.526 -36.354 -12.366  1.00  0.00     0.093 C 
HETATM   27  S1  UNL     1     -12.187 -35.971 -11.167  1.00  0.00    -0.166 SA
HETATM   28  C13 UNL     1     -11.322 -37.538 -10.872  1.00  0.00     0.093 C 
HETATM   29  C14 UNL     1     -12.390 -38.592 -10.554  1.00  0.00     0.136 C 
ENDBRANCH  21  24
ENDBRANCH   5  21
TORSDOF 6
ENDMDL
MODEL 3
REMARK VINA RESULT: -6.987965114      0.848      1.332
REMARK  6 active torsions:
REMARK  status: ('A' for Active; 'I' for Inactive)
REMARK    1  A    between atoms: C3_3  and  N1_4 
REMARK       I    between atoms: N1_4  and  C4_6 
REMARK       I    between atoms: C4_6  and  N2_8 
REMARK    2  A    between atoms: N2_8  and  C5_10 
REMARK    3  A    between atoms: N3_15  and  C10_16 
REMARK    4  A    between atoms: C10_16  and  O2_17 
REMARK    5  A    between atoms: C10_16  and  N4_19 
REMARK    6  A    between atoms: C16_26  and  C18_28 
ROOT
HETATM    1  C1  UNL     1     -19.575 -38.844  -7.603  1.00  0.00     0.013 C 
HETATM    2  C2  UNL     1     -19.143 -39.317  -8.975  1.00  0.00     0.022 C 
HETATM    3  C3  UNL     1     -17.753 -38.893  -9.329  1.00  0.00     0.109 C 
HETATM    4  C9  UNL     1     -16.695 -39.858  -8.788  1.00  0.00     0.152 C 
HETATM    5  N3  UNL     1     -17.036 -41.211  -9.021  1.00  0.00    -0.344 N 
HETATM    6  C15 UNL     1     -18.204 -41.417  -9.909  1.00  0.00     0.143 C 
HETATM    7  C16 UNL     1     -19.376 -40.798  -9.173  1.00  0.00     0.031 C 
HETATM    8  C17 UNL     1     -19.506 -41.466  -7.833  1.00  0.00     0.025 C 
ENDROOT
BRANCH   3   9
HETATM    9  N1  UNL     1     -17.495 -37.620  -8.674  1.00  0.00    -0.337 N 
HETATM   10  C4  UNL     1     -17.404 -36.418  -9.401  1.00  0.00     0.317 C 
HETATM   11  O1  UNL     1     -17.549 -36.449 -10.640  1.00  0.00    -0.247 OA
HETATM   12  N2  UNL     1     -17.153 -35.198  -8.744  1.00  0.00    -0.335 N 
ATOM     13  H2  UNL     1     -17.035 -35.176  -7.732  1.00  0.00     0.165 HD
ATOM     14  H1  UNL     1     -17.378 -37.598  -7.661  1.00  0.00     0.164 HD
BRANCH  12  15
HETATM   15  C5  UNL     1     -17.062 -33.955  -9.525  1.00  0.00     0.023 C 
HETATM   16  C6  UNL     1     -16.118 -34.205 -10.687  1.00  0.00     0.037 C 
HETATM   17  C7  UNL     1     -18.444 -33.572  -9.984  1.00  0.00     0.037 C 
HETATM   18  C8  UNL     1     -16.528 -32.880  -8.606  1.00  0.00     0.037 C 
ENDBRANCH  12  15
ENDBRANCH   3   9
BRANCH   7  19
HETATM   19  C18 UNL     1     -20.628 -41.059  -9.934  1.00  0.00     0.242 C 
HETATM   20  O3  UNL     1     -21.307 -40.165 -10.417  1.00  0.00    -0.306 OA
ENDBRANCH   7  19
BRANCH   5  21
HETATM   21  C10 UNL     1     -16.397 -42.337  -8.509  1.00  0.00     0.217 C 
BRANCH  21  22
HETATM   22  O2  UNL     1     -16.421 -42.387  -7.193  1.00  0.00    -0.333 OA
ATOM     23  H2  UNL     1     -16.411 -41.526  -6.791  1.00  0.00     0.220 HD
ENDBRANCH  21  22
BRANCH  21  24
HETATM   24  N4  UNL     1     -15.751 -43.395  -9.171  1.00  0.00    -0.346 N 
HETATM   25  C11 UNL     1     -14.873 -43.023 -10.307  1.00  0.00     0.136 C 
HETATM   26  C12 UNL     1     -13.452 -43.085  -9.735  1.00  0.00     0.093 C 
HETATM   27  S1  UNL     1     -13.227 -44.841  -9.243  1.00  0.00    -0.166 SA
HETATM   28  C13 UNL     1     -14.836 -45.639  -9.498  1.00  0.00     0.093 C 
HETATM   29  C14 UNL     1     -15.891 -44.758  -8.819  1.00  0.00     0.136 C 
ENDBRANCH  21  24
ENDBRANCH   5  21
TORSDOF 6
ENDMDL
MODEL 4
REMARK VINA RESULT: -6.948008795      3.172      4.917
REMARK  6 active torsions:
REMARK  status: ('A' for Active; 'I' for Inactive)
REMARK    1  A    between atoms: C3_3  and  N1_4 
REMARK       I    between atoms: N1_4  and  C4_6 
REMARK       I    between atoms: C4_6  and  N2_8 
REMARK    2  A    between atoms: N2_8  and  C5_10 
REMARK    3  A    between atoms: N3_15  and  C10_16 
REMARK    4  A    between atoms: C10_16  and  O2_17 
REMARK    5  A    between atoms: C10_16  and  N4_19 
REMARK    6  A    between atoms: C16_26  and  C18_28 
ROOT
HETATM    1  C1  UNL     1     -16.630 -39.713 -11.062  1.00  0.00     0.013 C 
HETATM    2  C2  UNL     1     -17.255 -39.279  -9.752  1.00  0.00     0.022 C 
HETATM    3  C3  UNL     1     -18.022 -38.000  -9.865  1.00  0.00     0.109 C 
HETATM    4  C9  UNL     1     -19.458 -38.223 -10.344  1.00  0.00     0.152 C 
HETATM    5  N3  UNL     1     -20.087 -39.295  -9.669  1.00  0.00    -0.344 N 
HETATM    6  C15 UNL     1     -19.334 -39.833  -8.512  1.00  0.00     0.143 C 
HETATM    7  C16 UNL     1     -18.050 -40.387  -9.098  1.00  0.00     0.031 C 
HETATM    8  C17 UNL     1     -18.402 -41.423 -10.128  1.00  0.00     0.025 C 
ENDROOT
BRANCH   3   9
HETATM    9  N1  UNL     1     -17.386 -37.189 -10.891  1.00  0.00    -0.337 N 
HETATM   10  C4  UNL     1     -16.576 -36.085 -10.567  1.00  0.00     0.317 C 
HETATM   11  O1  UNL     1     -16.400 -35.797  -9.364  1.00  0.00    -0.247 OA
HETATM   12  N2  UNL     1     -15.971 -35.314 -11.578  1.00  0.00    -0.335 N 
ATOM     13  H2  UNL     1     -16.118 -35.552 -12.559  1.00  0.00     0.165 HD
ATOM     14  H1  UNL     1     -17.531 -37.427 -11.873  1.00  0.00     0.164 HD
BRANCH  12  15
HETATM   15  C5  UNL     1     -15.129 -34.165 -11.214  1.00  0.00     0.023 C 
HETATM   16  C6  UNL     1     -15.857 -33.378 -10.140  1.00  0.00     0.037 C 
HETATM   17  C7  UNL     1     -13.793 -34.677 -10.742  1.00  0.00     0.037 C 
HETATM   18  C8  UNL     1     -14.930 -33.336 -12.462  1.00  0.00     0.037 C 
ENDBRANCH  12  15
ENDBRANCH   3   9
BRANCH   7  19
HETATM   19  C18 UNL     1     -17.270 -41.062  -8.025  1.00  0.00     0.242 C 
HETATM   20  O3  UNL     1     -16.455 -40.473  -7.329  1.00  0.00    -0.306 OA
ENDBRANCH   7  19
BRANCH   5  21
HETATM   21  C10 UNL     1     -21.314 -39.878  -9.979  1.00  0.00     0.217 C 
BRANCH  21  22
HETATM   22  O2  UNL     1     -22.175 -39.019 -10.484  1.00  0.00    -0.333 OA
ATOM     23  H2  UNL     1     -22.323 -39.147 -11.414  1.00  0.00     0.220 HD
ENDBRANCH  21  22
BRANCH  21  24
HETATM   24  N4  UNL     1     -21.752 -41.205  -9.836  1.00  0.00    -0.346 N 
HETATM   25  C11 UNL     1     -22.165 -41.618  -8.473  1.00  0.00     0.136 C 
HETATM   26  C12 UNL     1     -23.697 -41.571  -8.502  1.00  0.00     0.093 C 
HETATM   27  S1  UNL     1     -24.176 -42.813  -9.767  1.00  0.00    -0.166 SA
HETATM   28  C13 UNL     1     -22.624 -43.386 -10.512  1.00  0.00     0.093 C 
HETATM   29  C14 UNL     1     -21.818 -42.139 -10.895  1.00  0.00     0.136 C 
ENDBRANCH  21  24
ENDBRANCH   5  21
TORSDOF 6
ENDMDL
MODEL 5
REMARK VINA RESULT: -6.871725641      2.940      5.358
REMARK  6 active torsions:
REMARK  status: ('A' for Active; 'I' for Inactive)
REMARK    1  A    between atoms: C3_3  and  N1_4 
REMARK       I    between atoms: N1_4  and  C4_6 
REMARK       I    between atoms: C4_6  and  N2_8 
REMARK    2  A    between atoms: N2_8  and  C5_10 
REMARK    3  A    between atoms: N3_15  and  C10_16 
REMARK    4  A    between atoms: C10_16  and  O2_17 
REMARK    5  A    between atoms: C10_16  and  N4_19 
REMARK    6  A    between atoms: C16_26  and  C18_28 
ROOT
HETATM    1  C1  UNL     1     -18.673 -41.555 -10.313  1.00  0.00     0.013 C 
HETATM    2  C2  UNL     1     -18.150 -40.342  -9.570  1.00  0.00     0.022 C 
HETATM    3  C3  UNL     1     -17.963 -40.588  -8.106  1.00  0.00     0.109 C 
HETATM    4  C9  UNL     1     -16.607 -41.223  -7.792  1.00  0.00     0.152 C 
HETATM    5  N3  UNL     1     -15.547 -40.589  -8.480  1.00  0.00    -0.344 N 
HETATM    6  C15 UNL     1     -15.916 -39.334  -9.176  1.00  0.00     0.143 C 
HETATM    7  C16 UNL     1     -16.926 -39.747 -10.229  1.00  0.00     0.031 C 
HETATM    8  C17 UNL     1     -16.292 -40.775 -11.123  1.00  0.00     0.025 C 
ENDROOT
BRANCH   3   9
HETATM    9  N1  UNL     1     -18.960 -41.561  -7.688  1.00  0.00    -0.337 N 
HETATM   10  C4  UNL     1     -20.202 -41.168  -7.156  1.00  0.00     0.317 C 
HETATM   11  O1  UNL     1     -20.452 -39.949  -7.043  1.00  0.00    -0.247 OA
HETATM   12  N2  UNL     1     -21.151 -42.128  -6.757  1.00  0.00    -0.335 N 
ATOM     13  H2  UNL     1     -20.944 -43.122  -6.851  1.00  0.00     0.165 HD
ATOM     14  H1  UNL     1     -18.753 -42.556  -7.783  1.00  0.00     0.164 HD
BRANCH  12  15
HETATM   15  C5  UNL     1     -22.442 -41.693  -6.204  1.00  0.00     0.023 C 
HETATM   16  C6  UNL     1     -22.161 -40.895  -4.944  1.00  0.00     0.037 C 
HETATM   17  C7  UNL     1     -23.163 -40.879  -7.247  1.00  0.00     0.037 C 
HETATM   18  C8  UNL     1     -23.247 -42.935  -5.899  1.00  0.00     0.037 C 
ENDBRANCH  12  15
ENDBRANCH   3   9
BRANCH   7  19
HETATM   19  C18 UNL     1     -17.273 -38.568 -11.067  1.00  0.00     0.242 C 
HETATM   20  O3  UNL     1     -18.398 -38.091 -11.106  1.00  0.00    -0.306 OA
ENDBRANCH   7  19
BRANCH   5  21
HETATM   21  C10 UNL     1     -14.225 -41.019  -8.563  1.00  0.00     0.217 C 
BRANCH  21  22
HETATM   22  O2  UNL     1     -13.408 -40.309  -7.813  1.00  0.00    -0.333 OA
ATOM     23  H2  UNL     1     -12.897 -40.843  -7.215  1.00  0.00     0.220 HD
ENDBRANCH  21  22
BRANCH  21  24
HETATM   24  N4  UNL     1     -13.653 -42.065  -9.307  1.00  0.00    -0.346 N 
HETATM   25  C11 UNL     1     -13.871 -43.437  -8.787  1.00  0.00     0.136 C 
HETATM   26  C12 UNL     1     -14.994 -44.008  -9.660  1.00  0.00     0.093 C 
HETATM   27  S1  UNL     1     -14.298 -44.024 -11.360  1.00  0.00    -0.166 SA
HETATM   28  C13 UNL     1     -12.686 -43.201 -11.244  1.00  0.00     0.093 C 
HETATM   29  C14 UNL     1     -12.903 -41.882 -10.491  1.00  0.00     0.136 C 
ENDBRANCH  21  24
ENDBRANCH   5  21
TORSDOF 6
ENDMDL
