MODEL 1
REMARK VINA RESULT: -8.227761068      0.000      0.000
REMARK  5 active torsions:
REMARK  status: ('A' for Active; 'I' for Inactive)
REMARK    1  A    between atoms: S1_2  and  C1_4 
REMARK    2  A    between atoms: S1_2  and  N1_10 
REMARK    3  A    between atoms: N2_15  and  C11_16 
REMARK    4  A    between atoms: C11_16  and  C12_17 
REMARK    5  A    between atoms: C16_21  and  O3_22 
ROOT
HETATM    1  N1  UNL     1      17.899 -12.717   6.648  1.00  0.00    -0.183 NA
HETATM    2  C7  UNL     1      16.998 -13.427   5.692  1.00  0.00     0.188 C 
HETATM    3  C8  UNL     1      17.401 -14.772   5.616  1.00  0.00    -0.167 C 
HETATM    4  C9  UNL     1      17.929 -16.073   5.722  1.00  0.00     0.096 C 
HETATM    5  C10 UNL     1      19.058 -16.002   6.816  1.00  0.00     0.107 C 
HETATM    6  N2  UNL     1      19.458 -14.621   7.035  1.00  0.00    -0.278 NA
HETATM    7  C18 UNL     1      18.611 -13.656   7.535  1.00  0.00     0.203 C 
ENDROOT
BRANCH   1   8
HETATM    8  S1  UNL     1      17.032 -11.652   7.652  1.00  0.00     0.245 S 
HETATM    9  O1  UNL     1      16.119 -12.449   8.561  1.00  0.00    -0.206 OA
HETATM   10  O2  UNL     1      18.019 -10.965   8.553  1.00  0.00    -0.206 OA
BRANCH   8  11
HETATM   11  C1  UNL     1      16.138 -10.451   6.808  1.00  0.00     0.074 A 
HETATM   12  C2  UNL     1      16.742  -9.328   6.300  1.00  0.00     0.025 A 
HETATM   13  C3  UNL     1      16.010  -8.363   5.620  1.00  0.00     0.002 A 
HETATM   14  C4  UNL     1      14.651  -8.533   5.452  1.00  0.00     0.000 A 
HETATM   15  C5  UNL     1      14.022  -9.653   5.953  1.00  0.00     0.002 A 
HETATM   16  C6  UNL     1      14.784 -10.607   6.633  1.00  0.00     0.025 A 
ENDBRANCH   8  11
ENDBRANCH   1   8
BRANCH   6  17
HETATM   17  C11 UNL     1      20.698 -14.647   7.775  1.00  0.00     0.072 C 
BRANCH  17  18
HETATM   18  C12 UNL     1      21.893 -14.208   7.081  1.00  0.00    -0.023 A 
HETATM   19  C13 UNL     1      21.812 -13.339   6.029  1.00  0.00     0.012 A 
HETATM   20  C14 UNL     1      22.956 -12.936   5.385  1.00  0.00     0.004 A 
HETATM   21  C15 UNL     1      24.203 -13.384   5.765  1.00  0.00     0.036 A 
HETATM   22  C16 UNL     1      24.271 -14.261   6.826  1.00  0.00     0.066 A 
HETATM   23  C17 UNL     1      23.125 -14.668   7.476  1.00  0.00     0.048 A 
BRANCH  22  24
HETATM   24  O3  UNL     1      25.538 -14.723   7.221  1.00  0.00    -0.361 OA
ATOM     25  H3  UNL     1      25.855 -15.535   6.843  1.00  0.00     0.217 HD
ENDBRANCH  22  24
ENDBRANCH  17  18
ENDBRANCH   6  17
TORSDOF 5
ENDMDL
MODEL 2
REMARK VINA RESULT: -7.953712038      0.938      1.655
REMARK  5 active torsions:
REMARK  status: ('A' for Active; 'I' for Inactive)
REMARK    1  A    between atoms: S1_2  and  C1_4 
REMARK    2  A    between atoms: S1_2  and  N1_10 
REMARK    3  A    between atoms: N2_15  and  C11_16 
REMARK    4  A    between atoms: C11_16  and  C12_17 
REMARK    5  A    between atoms: C16_21  and  O3_22 
ROOT
HETATM    1  N1  UNL     1      18.159 -12.784   6.718  1.00  0.00    -0.183 NA
HETATM    2  C7  UNL     1      17.286 -13.348   5.646  1.00  0.00     0.188 C 
HETATM    3  C8  UNL     1      17.592 -14.712   5.493  1.00  0.00    -0.167 C 
HETATM    4  C9  UNL     1      18.012 -16.055   5.535  1.00  0.00     0.096 C 
HETATM    5  C10 UNL     1      19.052 -16.156   6.711  1.00  0.00     0.107 C 
HETATM    6  N2  UNL     1      19.536 -14.831   7.067  1.00  0.00    -0.278 NA
HETATM    7  C18 UNL     1      18.726 -13.841   7.579  1.00  0.00     0.203 C 
ENDROOT
BRANCH   1   8
HETATM    8  S1  UNL     1      17.297 -11.729   7.737  1.00  0.00     0.245 S 
HETATM    9  O1  UNL     1      16.430 -12.537   8.680  1.00  0.00    -0.206 OA
HETATM   10  O2  UNL     1      18.294 -11.010   8.601  1.00  0.00    -0.206 OA
BRANCH   8  11
HETATM   11  C1  UNL     1      16.351 -10.559   6.908  1.00  0.00     0.074 A 
HETATM   12  C2  UNL     1      14.992 -10.698   6.769  1.00  0.00     0.025 A 
HETATM   13  C3  UNL     1      14.236  -9.747   6.097  1.00  0.00     0.002 A 
HETATM   14  C4  UNL     1      14.860  -8.641   5.557  1.00  0.00     0.000 A 
HETATM   15  C5  UNL     1      16.223  -8.478   5.684  1.00  0.00     0.002 A 
HETATM   16  C6  UNL     1      16.957  -9.451   6.365  1.00  0.00     0.025 A 
ENDBRANCH   8  11
ENDBRANCH   1   8
BRANCH   6  17
HETATM   17  C11 UNL     1      20.707 -15.011   7.892  1.00  0.00     0.072 C 
BRANCH  17  18
HETATM   18  C12 UNL     1      21.965 -14.511   7.373  1.00  0.00    -0.023 A 
HETATM   19  C13 UNL     1      23.152 -15.074   7.752  1.00  0.00     0.012 A 
HETATM   20  C14 UNL     1      24.332 -14.584   7.249  1.00  0.00     0.004 A 
HETATM   21  C15 UNL     1      24.365 -13.529   6.363  1.00  0.00     0.036 A 
HETATM   22  C16 UNL     1      23.163 -12.970   5.990  1.00  0.00     0.066 A 
HETATM   23  C17 UNL     1      21.976 -13.457   6.492  1.00  0.00     0.048 A 
BRANCH  22  24
HETATM   24  O3  UNL     1      23.187 -11.893   5.087  1.00  0.00    -0.361 OA
ATOM     25  H3  UNL     1      22.480 -11.260   5.128  1.00  0.00     0.217 HD
ENDBRANCH  22  24
ENDBRANCH  17  18
ENDBRANCH   6  17
TORSDOF 5
ENDMDL
MODEL 3
REMARK VINA RESULT: -7.908684455      1.009      1.302
REMARK  5 active torsions:
REMARK  status: ('A' for Active; 'I' for Inactive)
REMARK    1  A    between atoms: S1_2  and  C1_4 
REMARK    2  A    between atoms: S1_2  and  N1_10 
REMARK    3  A    between atoms: N2_15  and  C11_16 
REMARK    4  A    between atoms: C11_16  and  C12_17 
REMARK    5  A    between atoms: C16_21  and  O3_22 
ROOT
HETATM    1  N1  UNL     1      17.478 -14.053   6.511  1.00  0.00    -0.183 NA
HETATM    2  C7  UNL     1      16.938 -15.227   5.764  1.00  0.00     0.188 C 
HETATM    3  C8  UNL     1      17.776 -16.331   6.004  1.00  0.00    -0.167 C 
HETATM    4  C9  UNL     1      18.703 -17.310   6.409  1.00  0.00     0.096 C 
HETATM    5  C10 UNL     1      19.663 -16.608   7.440  1.00  0.00     0.107 C 
HETATM    6  N2  UNL     1      19.557 -15.163   7.319  1.00  0.00    -0.278 NA
HETATM    7  C18 UNL     1      18.402 -14.461   7.587  1.00  0.00     0.203 C 
ENDROOT
BRANCH   1   8
HETATM    8  S1  UNL     1      16.235 -13.152   7.245  1.00  0.00     0.245 S 
HETATM    9  O1  UNL     1      14.899 -13.798   6.940  1.00  0.00    -0.206 OA
HETATM   10  O2  UNL     1      16.415 -13.250   8.733  1.00  0.00    -0.206 OA
BRANCH   8  11
HETATM   11  C1  UNL     1      16.211 -11.491   6.808  1.00  0.00     0.074 A 
HETATM   12  C2  UNL     1      17.355 -10.732   6.796  1.00  0.00     0.025 A 
HETATM   13  C3  UNL     1      17.325  -9.389   6.442  1.00  0.00     0.002 A 
HETATM   14  C4  UNL     1      16.124  -8.804   6.097  1.00  0.00     0.000 A 
HETATM   15  C5  UNL     1      14.961  -9.546   6.100  1.00  0.00     0.002 A 
HETATM   16  C6  UNL     1      15.023 -10.894   6.461  1.00  0.00     0.025 A 
ENDBRANCH   8  11
ENDBRANCH   1   8
BRANCH   6  17
HETATM   17  C11 UNL     1      20.678 -14.591   8.027  1.00  0.00     0.072 C 
BRANCH  17  18
HETATM   18  C12 UNL     1      21.825 -14.189   7.237  1.00  0.00    -0.023 A 
HETATM   19  C13 UNL     1      21.679 -13.360   6.160  1.00  0.00     0.012 A 
HETATM   20  C14 UNL     1      22.779 -12.992   5.426  1.00  0.00     0.004 A 
HETATM   21  C15 UNL     1      24.046 -13.435   5.738  1.00  0.00     0.036 A 
HETATM   22  C16 UNL     1      24.180 -14.271   6.824  1.00  0.00     0.066 A 
HETATM   23  C17 UNL     1      23.080 -14.643   7.565  1.00  0.00     0.048 A 
BRANCH  22  24
HETATM   24  O3  UNL     1      25.469 -14.728   7.150  1.00  0.00    -0.361 OA
ATOM     25  H3  UNL     1      25.544 -15.505   7.693  1.00  0.00     0.217 HD
ENDBRANCH  22  24
ENDBRANCH  17  18
ENDBRANCH   6  17
TORSDOF 5
ENDMDL
MODEL 4
REMARK VINA RESULT: -7.803178986      2.100      2.823
REMARK  5 active torsions:
REMARK  status: ('A' for Active; 'I' for Inactive)
REMARK    1  A    between atoms: S1_2  and  C1_4 
REMARK    2  A    between atoms: S1_2  and  N1_10 
REMARK    3  A    between atoms: N2_15  and  C11_16 
REMARK    4  A    between atoms: C11_16  and  C12_17 
REMARK    5  A    between atoms: C16_21  and  O3_22 
ROOT
HETATM    1  N1  UNL     1      17.985 -12.916   6.295  1.00  0.00    -0.183 NA
HETATM    2  C7  UNL     1      17.129 -13.819   5.470  1.00  0.00     0.188 C 
HETATM    3  C8  UNL     1      17.565 -15.143   5.660  1.00  0.00    -0.167 C 
HETATM    4  C9  UNL     1      18.119 -16.385   6.024  1.00  0.00     0.096 C 
HETATM    5  C10 UNL     1      19.213 -16.077   7.113  1.00  0.00     0.107 C 
HETATM    6  N2  UNL     1      19.575 -14.669   7.075  1.00  0.00    -0.278 NA
HETATM    7  C18 UNL     1      18.692 -13.650   7.362  1.00  0.00     0.203 C 
ENDROOT
BRANCH   1   8
HETATM    8  S1  UNL     1      17.066 -11.705   7.057  1.00  0.00     0.245 S 
HETATM    9  O1  UNL     1      17.935 -10.487   7.292  1.00  0.00    -0.206 OA
HETATM   10  O2  UNL     1      15.993 -11.271   6.098  1.00  0.00    -0.206 OA
BRANCH   8  11
HETATM   11  C1  UNL     1      16.317 -12.199   8.523  1.00  0.00     0.074 A 
HETATM   12  C2  UNL     1      15.534 -13.325   8.589  1.00  0.00     0.025 A 
HETATM   13  C3  UNL     1      14.933 -13.715   9.778  1.00  0.00     0.002 A 
HETATM   14  C4  UNL     1      15.124 -12.958  10.916  1.00  0.00     0.000 A 
HETATM   15  C5  UNL     1      15.907 -11.824  10.876  1.00  0.00     0.002 A 
HETATM   16  C6  UNL     1      16.499 -11.456   9.665  1.00  0.00     0.025 A 
ENDBRANCH   8  11
ENDBRANCH   1   8
BRANCH   6  17
HETATM   17  C11 UNL     1      20.792 -14.519   7.837  1.00  0.00     0.072 C 
BRANCH  17  18
HETATM   18  C12 UNL     1      21.981 -14.112   7.113  1.00  0.00    -0.023 A 
HETATM   19  C13 UNL     1      21.887 -13.322   6.001  1.00  0.00     0.012 A 
HETATM   20  C14 UNL     1      23.025 -12.948   5.331  1.00  0.00     0.004 A 
HETATM   21  C15 UNL     1      24.279 -13.346   5.743  1.00  0.00     0.036 A 
HETATM   22  C16 UNL     1      24.360 -14.141   6.864  1.00  0.00     0.066 A 
HETATM   23  C17 UNL     1      23.220 -14.520   7.541  1.00  0.00     0.048 A 
BRANCH  22  24
HETATM   24  O3  UNL     1      25.634 -14.552   7.292  1.00  0.00    -0.361 OA
ATOM     25  H3  UNL     1      26.177 -13.919   7.749  1.00  0.00     0.217 HD
ENDBRANCH  22  24
ENDBRANCH  17  18
ENDBRANCH   6  17
TORSDOF 5
ENDMDL
MODEL 5
REMARK VINA RESULT: -7.800573364      0.986      1.501
REMARK  5 active torsions:
REMARK  status: ('A' for Active; 'I' for Inactive)
REMARK    1  A    between atoms: S1_2  and  C1_4 
REMARK    2  A    between atoms: S1_2  and  N1_10 
REMARK    3  A    between atoms: N2_15  and  C11_16 
REMARK    4  A    between atoms: C11_16  and  C12_17 
REMARK    5  A    between atoms: C16_21  and  O3_22 
ROOT
HETATM    1  N1  UNL     1      18.174 -12.174   6.475  1.00  0.00    -0.183 NA
HETATM    2  C7  UNL     1      17.167 -12.798   5.566  1.00  0.00     0.188 C 
HETATM    3  C8  UNL     1      17.378 -14.189   5.557  1.00  0.00    -0.167 C 
HETATM    4  C9  UNL     1      17.721 -15.544   5.727  1.00  0.00     0.096 C 
HETATM    5  C10 UNL     1      18.866 -15.577   6.806  1.00  0.00     0.107 C 
HETATM    6  N2  UNL     1      19.458 -14.256   6.948  1.00  0.00    -0.278 NA
HETATM    7  C18 UNL     1      18.763 -13.157   7.405  1.00  0.00     0.203 C 
ENDROOT
BRANCH   1   8
HETATM    8  S1  UNL     1      17.481 -10.948   7.430  1.00  0.00     0.245 S 
HETATM    9  O1  UNL     1      18.002 -11.061   8.848  1.00  0.00    -0.206 OA
HETATM   10  O2  UNL     1      17.974  -9.628   6.909  1.00  0.00    -0.206 OA
BRANCH   8  11
HETATM   11  C1  UNL     1      15.763 -10.929   7.422  1.00  0.00     0.074 A 
HETATM   12  C2  UNL     1      15.054 -10.207   6.494  1.00  0.00     0.025 A 
HETATM   13  C3  UNL     1      13.666 -10.198   6.497  1.00  0.00     0.002 A 
HETATM   14  C4  UNL     1      12.983 -10.926   7.450  1.00  0.00     0.000 A 
HETATM   15  C5  UNL     1      13.673 -11.660   8.392  1.00  0.00     0.002 A 
HETATM   16  C6  UNL     1      15.069 -11.650   8.365  1.00  0.00     0.025 A 
ENDBRANCH   8  11
ENDBRANCH   1   8
BRANCH   6  17
HETATM   17  C11 UNL     1      20.694 -14.417   7.678  1.00  0.00     0.072 C 
BRANCH  17  18
HETATM   18  C12 UNL     1      21.918 -14.040   6.998  1.00  0.00    -0.023 A 
HETATM   19  C13 UNL     1      21.884 -13.269   5.870  1.00  0.00     0.012 A 
HETATM   20  C14 UNL     1      23.055 -12.924   5.242  1.00  0.00     0.004 A 
HETATM   21  C15 UNL     1      24.284 -13.333   5.714  1.00  0.00     0.036 A 
HETATM   22  C16 UNL     1      24.305 -14.110   6.850  1.00  0.00     0.066 A 
HETATM   23  C17 UNL     1      23.132 -14.460   7.485  1.00  0.00     0.048 A 
BRANCH  22  24
HETATM   24  O3  UNL     1      25.554 -14.533   7.339  1.00  0.00    -0.361 OA
ATOM     25  H3  UNL     1      25.572 -15.267   7.942  1.00  0.00     0.217 HD
ENDBRANCH  22  24
ENDBRANCH  17  18
ENDBRANCH   6  17
TORSDOF 5
ENDMDL
