MODEL 1
REMARK VINA RESULT: -6.683790848      0.000      0.000
REMARK  7 active torsions:
REMARK  status: ('A' for Active; 'I' for Inactive)
REMARK    1  A    between atoms: C2_5  and  C3_6 
REMARK    2  A    between atoms: C4_10  and  N3_11 
REMARK    3  A    between atoms: C5_14  and  C6_15 
REMARK    4  A    between atoms: C6_15  and  N5_19 
REMARK    5  A    between atoms: N5_19  and  C7_21 
REMARK    6  A    between atoms: C10_25  and  C11_26 
REMARK    7  A    between atoms: C14_31  and  C15_32 
ROOT
HETATM    1  C6  UNL     1     -10.965   8.162  -0.570  1.00  0.00     0.148 C 
HETATM    2  N4  UNL     1     -10.551   9.019  -1.462  1.00  0.00    -0.282 N 
ATOM      3  H4  UNL     1     -11.059   9.899  -1.549  1.00  0.00     0.182 HD
HETATM    4 CL1  UNL     1      -9.207   8.765  -2.501  1.00  0.00     0.012 Cl
ENDROOT
BRANCH   1   5
HETATM    5  C5  UNL     1     -12.107   8.527   0.222  1.00  0.00     0.130 A 
HETATM    6  N1  UNL     1     -12.062   8.758   1.578  1.00  0.00    -0.290 N 
HETATM    7  C1  UNL     1     -10.842   8.650   2.353  1.00  0.00     0.178 C 
HETATM    8  N2  UNL     1     -13.274   9.079   1.962  1.00  0.00    -0.292 N 
HETATM    9  C2  UNL     1     -14.127   9.075   0.932  1.00  0.00     0.168 A 
ATOM     10  H2  UNL     1     -13.533   9.304   2.923  1.00  0.00     0.187 HD
HETATM   11  C4  UNL     1     -13.394   8.719  -0.215  1.00  0.00     0.167 A 
BRANCH   9  12
HETATM   12  C3  UNL     1     -15.587   9.381   0.962  1.00  0.00     0.436 C 
HETATM   13  F1  UNL     1     -15.914  10.308  -0.000  1.00  0.00    -0.165 F 
HETATM   14  F2  UNL     1     -16.305   8.202   0.816  1.00  0.00    -0.165 F 
HETATM   15  F3  UNL     1     -15.889   9.895   2.211  1.00  0.00    -0.165 F 
ENDBRANCH   9  12
BRANCH  11  16
HETATM   16  N3  UNL     1     -13.979   8.613  -1.499  1.00  0.00    -0.111 N 
HETATM   17  O1  UNL     1     -13.728   9.414  -2.420  1.00  0.00    -0.532 OA
HETATM   18  O2  UNL     1     -14.858   7.610  -1.781  1.00  0.00    -0.532 OA
ENDBRANCH  11  16
ENDBRANCH   1   5
BRANCH   1  19
HETATM   19  N5  UNL     1     -10.211   6.961  -0.497  1.00  0.00    -0.333 N 
ATOM     20  H5  UNL     1      -9.530   6.821   0.249  1.00  0.00     0.168 HD
BRANCH  19  21
HETATM   21  C7  UNL     1     -10.427   5.944  -1.499  1.00  0.00     0.092 A 
HETATM   22  S1  UNL     1     -11.941   5.603  -2.263  1.00  0.00    -0.075 SA
HETATM   23  C8  UNL     1     -11.454   4.356  -3.277  1.00  0.00    -0.007 A 
HETATM   24  C9  UNL     1     -10.095   4.212  -3.005  1.00  0.00    -0.027 A 
HETATM   25  C16 UNL     1     -12.087   3.453  -4.317  1.00  0.00     0.062 C 
HETATM   26  C10 UNL     1      -9.579   5.042  -2.084  1.00  0.00     0.070 A 
HETATM   27  C12 UNL     1      -9.522   3.104  -3.854  1.00  0.00     0.042 C 
HETATM   28  C13 UNL     1      -9.783   3.508  -5.293  1.00  0.00     0.020 C 
HETATM   29  C14 UNL     1     -11.261   3.472  -5.587  1.00  0.00     0.092 C 
BRANCH  26  30
HETATM   30  C11 UNL     1      -8.153   5.009  -1.686  1.00  0.00     0.268 C 
HETATM   31  N6  UNL     1      -7.554   3.994  -0.902  1.00  0.00    -0.057 NA
HETATM   32  O3  UNL     1      -7.394   5.926  -2.050  1.00  0.00    -0.271 OA
ENDBRANCH  26  30
BRANCH  29  33
HETATM   33  C15 UNL     1     -11.564   2.215  -6.317  1.00  0.00     0.177 C 
HETATM   34  O4  UNL     1     -12.775   1.860  -6.440  1.00  0.00    -0.648 OA
HETATM   35  O5  UNL     1     -10.521   1.474  -6.840  1.00  0.00    -0.648 OA
ENDBRANCH  29  33
ENDBRANCH  19  21
ENDBRANCH   1  19
TORSDOF 7
ENDMDL
MODEL 2
REMARK VINA RESULT: -6.668625522      7.855     10.891
REMARK  7 active torsions:
REMARK  status: ('A' for Active; 'I' for Inactive)
REMARK    1  A    between atoms: C2_5  and  C3_6 
REMARK    2  A    between atoms: C4_10  and  N3_11 
REMARK    3  A    between atoms: C5_14  and  C6_15 
REMARK    4  A    between atoms: C6_15  and  N5_19 
REMARK    5  A    between atoms: N5_19  and  C7_21 
REMARK    6  A    between atoms: C10_25  and  C11_26 
REMARK    7  A    between atoms: C14_31  and  C15_32 
ROOT
HETATM    1  C6  UNL     1     -19.186   9.095  -2.984  1.00  0.00     0.148 C 
HETATM    2  N4  UNL     1     -18.443   8.782  -4.009  1.00  0.00    -0.282 N 
ATOM      3  H4  UNL     1     -18.295   7.791  -4.204  1.00  0.00     0.182 HD
HETATM    4 CL1  UNL     1     -17.698   9.923  -5.054  1.00  0.00     0.012 Cl
ENDROOT
BRANCH   1   5
HETATM    5  C5  UNL     1     -19.738   8.019  -2.208  1.00  0.00     0.130 A 
HETATM    6  N1  UNL     1     -21.025   7.552  -2.346  1.00  0.00    -0.290 N 
HETATM    7  C1  UNL     1     -21.965   8.109  -3.297  1.00  0.00     0.178 C 
HETATM    8  N2  UNL     1     -21.177   6.566  -1.495  1.00  0.00    -0.292 N 
HETATM    9  C2  UNL     1     -20.058   6.350  -0.796  1.00  0.00     0.168 A 
ATOM     10  H2  UNL     1     -22.039   6.032  -1.381  1.00  0.00     0.187 HD
HETATM   11  C4  UNL     1     -19.103   7.282  -1.240  1.00  0.00     0.167 A 
BRANCH   9  12
HETATM   12  C3  UNL     1     -19.834   5.325   0.265  1.00  0.00     0.436 C 
HETATM   13  F1  UNL     1     -18.998   4.329  -0.184  1.00  0.00    -0.165 F 
HETATM   14  F2  UNL     1     -19.343   5.945   1.405  1.00  0.00    -0.165 F 
HETATM   15  F3  UNL     1     -21.062   4.775   0.591  1.00  0.00    -0.165 F 
ENDBRANCH   9  12
BRANCH  11  16
HETATM   16  N3  UNL     1     -17.790   7.347  -0.715  1.00  0.00    -0.111 N 
HETATM   17  O1  UNL     1     -16.867   6.616  -1.122  1.00  0.00    -0.532 OA
HETATM   18  O2  UNL     1     -17.481   8.229   0.277  1.00  0.00    -0.532 OA
ENDBRANCH  11  16
ENDBRANCH   1   5
BRANCH   1  19
HETATM   19  N5  UNL     1     -19.356  10.489  -2.772  1.00  0.00    -0.333 N 
ATOM     20  H5  UNL     1     -19.900  11.051  -3.426  1.00  0.00     0.168 HD
BRANCH  19  21
HETATM   21  C7  UNL     1     -18.744  11.095  -1.613  1.00  0.00     0.092 A 
HETATM   22  S1  UNL     1     -17.067  11.495  -1.466  1.00  0.00    -0.075 SA
HETATM   23  C8  UNL     1     -17.081  12.145   0.082  1.00  0.00    -0.007 A 
HETATM   24  C9  UNL     1     -18.413  12.041   0.478  1.00  0.00    -0.027 A 
HETATM   25  C16 UNL     1     -16.083  12.762   1.041  1.00  0.00     0.062 C 
HETATM   26  C10 UNL     1     -19.260  11.497  -0.410  1.00  0.00     0.070 A 
HETATM   27  C12 UNL     1     -18.571  12.590   1.876  1.00  0.00     0.042 C 
HETATM   28  C13 UNL     1     -18.099  14.030   1.811  1.00  0.00     0.020 C 
HETATM   29  C14 UNL     1     -16.614  14.084   1.558  1.00  0.00     0.092 C 
BRANCH  26  30
HETATM   30  C11 UNL     1     -20.704  11.317  -0.134  1.00  0.00     0.268 C 
HETATM   31  N6  UNL     1     -21.630  12.373   0.054  1.00  0.00    -0.057 NA
HETATM   32  O3  UNL     1     -21.175  10.168  -0.055  1.00  0.00    -0.271 OA
ENDBRANCH  26  30
BRANCH  29  33
HETATM   33  C15 UNL     1     -15.929  14.349   2.848  1.00  0.00     0.177 C 
HETATM   34  O4  UNL     1     -15.916  15.534   3.297  1.00  0.00    -0.648 OA
HETATM   35  O5  UNL     1     -15.328  13.300   3.519  1.00  0.00    -0.648 OA
ENDBRANCH  29  33
ENDBRANCH  19  21
ENDBRANCH   1  19
TORSDOF 7
ENDMDL
MODEL 3
REMARK VINA RESULT: -6.651765028      7.490     10.020
REMARK  7 active torsions:
REMARK  status: ('A' for Active; 'I' for Inactive)
REMARK    1  A    between atoms: C2_5  and  C3_6 
REMARK    2  A    between atoms: C4_10  and  N3_11 
REMARK    3  A    between atoms: C5_14  and  C6_15 
REMARK    4  A    between atoms: C6_15  and  N5_19 
REMARK    5  A    between atoms: N5_19  and  C7_21 
REMARK    6  A    between atoms: C10_25  and  C11_26 
REMARK    7  A    between atoms: C14_31  and  C15_32 
ROOT
HETATM    1  C6  UNL     1     -19.092   9.116  -3.013  1.00  0.00     0.148 C 
HETATM    2  N4  UNL     1     -18.428   8.778  -4.084  1.00  0.00    -0.282 N 
ATOM      3  H4  UNL     1     -18.344   7.783  -4.297  1.00  0.00     0.182 HD
HETATM    4 CL1  UNL     1     -17.687   9.892  -5.160  1.00  0.00     0.012 Cl
ENDROOT
BRANCH   1   5
HETATM    5  C5  UNL     1     -19.653   8.059  -2.217  1.00  0.00     0.130 A 
HETATM    6  N1  UNL     1     -20.954   7.625  -2.321  1.00  0.00    -0.290 N 
HETATM    7  C1  UNL     1     -21.903   8.200  -3.253  1.00  0.00     0.178 C 
HETATM    8  N2  UNL     1     -21.111   6.648  -1.460  1.00  0.00    -0.292 N 
HETATM    9  C2  UNL     1     -19.982   6.408  -0.786  1.00  0.00     0.168 A 
ATOM     10  H2  UNL     1     -21.983   6.138  -1.321  1.00  0.00     0.187 HD
HETATM   11  C4  UNL     1     -19.014   7.313  -1.259  1.00  0.00     0.167 A 
BRANCH   9  12
HETATM   12  C3  UNL     1     -19.759   5.384   0.277  1.00  0.00     0.436 C 
HETATM   13  F1  UNL     1     -18.910   4.396  -0.165  1.00  0.00    -0.165 F 
HETATM   14  F2  UNL     1     -19.282   6.008   1.421  1.00  0.00    -0.165 F 
HETATM   15  F3  UNL     1     -20.985   4.825   0.592  1.00  0.00    -0.165 F 
ENDBRANCH   9  12
BRANCH  11  16
HETATM   16  N3  UNL     1     -17.688   7.347  -0.766  1.00  0.00    -0.111 N 
HETATM   17  O1  UNL     1     -16.780   6.630  -1.230  1.00  0.00    -0.532 OA
HETATM   18  O2  UNL     1     -17.348   8.181   0.256  1.00  0.00    -0.532 OA
ENDBRANCH  11  16
ENDBRANCH   1   5
BRANCH   1  19
HETATM   19  N5  UNL     1     -19.177  10.513  -2.778  1.00  0.00    -0.333 N 
ATOM     20  H5  UNL     1     -19.680  11.119  -3.427  1.00  0.00     0.168 HD
BRANCH  19  21
HETATM   21  C7  UNL     1     -18.538  11.060  -1.604  1.00  0.00     0.092 A 
HETATM   22  S1  UNL     1     -19.360  11.578  -0.173  1.00  0.00    -0.075 SA
HETATM   23  C8  UNL     1     -18.034  12.070   0.733  1.00  0.00    -0.007 A 
HETATM   24  C9  UNL     1     -16.946  11.825  -0.101  1.00  0.00    -0.027 A 
HETATM   25  C16 UNL     1     -17.778  12.650   2.110  1.00  0.00     0.062 C 
HETATM   26  C10 UNL     1     -17.223  11.302  -1.307  1.00  0.00     0.070 A 
HETATM   27  C12 UNL     1     -15.670  12.234   0.594  1.00  0.00     0.042 C 
HETATM   28  C13 UNL     1     -15.614  11.415   1.870  1.00  0.00     0.020 C 
HETATM   29  C14 UNL     1     -16.705  11.846   2.817  1.00  0.00     0.092 C 
BRANCH  26  30
HETATM   30  C11 UNL     1     -16.175  10.988  -2.305  1.00  0.00     0.268 C 
HETATM   31  N6  UNL     1     -15.497  11.947  -3.096  1.00  0.00    -0.057 NA
HETATM   32  O3  UNL     1     -15.838   9.804  -2.488  1.00  0.00    -0.271 OA
ENDBRANCH  26  30
BRANCH  29  33
HETATM   33  C15 UNL     1     -16.109  12.734   3.846  1.00  0.00     0.177 C 
HETATM   34  O4  UNL     1     -15.808  12.240   4.975  1.00  0.00    -0.648 OA
HETATM   35  O5  UNL     1     -15.899  14.066   3.545  1.00  0.00    -0.648 OA
ENDBRANCH  29  33
ENDBRANCH  19  21
ENDBRANCH   1  19
TORSDOF 7
ENDMDL
MODEL 4
REMARK VINA RESULT: -6.470490585      5.443      8.891
REMARK  7 active torsions:
REMARK  status: ('A' for Active; 'I' for Inactive)
REMARK    1  A    between atoms: C2_5  and  C3_6 
REMARK    2  A    between atoms: C4_10  and  N3_11 
REMARK    3  A    between atoms: C5_14  and  C6_15 
REMARK    4  A    between atoms: C6_15  and  N5_19 
REMARK    5  A    between atoms: N5_19  and  C7_21 
REMARK    6  A    between atoms: C10_25  and  C11_26 
REMARK    7  A    between atoms: C14_31  and  C15_32 
ROOT
HETATM    1  C6  UNL     1      -8.129   3.160  -5.239  1.00  0.00     0.148 C 
HETATM    2  N4  UNL     1      -8.585   2.066  -5.782  1.00  0.00    -0.282 N 
ATOM      3  H4  UNL     1      -8.020   1.220  -5.695  1.00  0.00     0.182 HD
HETATM    4 CL1  UNL     1     -10.072   1.950  -6.633  1.00  0.00     0.012 Cl
ENDROOT
BRANCH   1   5
HETATM    5  C5  UNL     1      -6.864   3.090  -4.560  1.00  0.00     0.130 A 
HETATM    6  N1  UNL     1      -5.679   3.544  -5.091  1.00  0.00    -0.290 N 
HETATM    7  C1  UNL     1      -5.585   4.143  -6.407  1.00  0.00     0.178 C 
HETATM    8  N2  UNL     1      -4.743   3.333  -4.197  1.00  0.00    -0.292 N 
HETATM    9  C2  UNL     1      -5.243   2.761  -3.096  1.00  0.00     0.168 A 
ATOM     10  H2  UNL     1      -3.760   3.574  -4.324  1.00  0.00     0.187 HD
HETATM   11  C4  UNL     1      -6.623   2.590  -3.304  1.00  0.00     0.167 A 
BRANCH   9  12
HETATM   12  C3  UNL     1      -4.501   2.361  -1.865  1.00  0.00     0.436 C 
HETATM   13  F1  UNL     1      -5.115   2.859  -0.739  1.00  0.00    -0.165 F 
HETATM   14  F2  UNL     1      -4.385   0.979  -1.827  1.00  0.00    -0.165 F 
HETATM   15  F3  UNL     1      -3.220   2.880  -1.952  1.00  0.00    -0.165 F 
ENDBRANCH   9  12
BRANCH  11  16
HETATM   16  N3  UNL     1      -7.480   2.009  -2.340  1.00  0.00    -0.111 N 
HETATM   17  O1  UNL     1      -7.558   0.777  -2.166  1.00  0.00    -0.532 OA
HETATM   18  O2  UNL     1      -8.270   2.791  -1.551  1.00  0.00    -0.532 OA
ENDBRANCH  11  16
ENDBRANCH   1   5
BRANCH   1  19
HETATM   19  N5  UNL     1      -8.965   4.297  -5.392  1.00  0.00    -0.333 N 
ATOM     20  H5  UNL     1      -9.215   4.638  -6.320  1.00  0.00     0.168 HD
BRANCH  19  21
HETATM   21  C7  UNL     1      -9.456   4.962  -4.207  1.00  0.00     0.092 A 
HETATM   22  S1  UNL     1      -8.579   6.136  -3.288  1.00  0.00    -0.075 SA
HETATM   23  C8  UNL     1      -9.727   6.464  -2.107  1.00  0.00    -0.007 A 
HETATM   24  C9  UNL     1     -10.800   5.641  -2.443  1.00  0.00    -0.027 A 
HETATM   25  C16 UNL     1      -9.853   7.363  -0.893  1.00  0.00     0.062 C 
HETATM   26  C10 UNL     1     -10.644   4.871  -3.533  1.00  0.00     0.070 A 
HETATM   27  C12 UNL     1     -11.917   5.830  -1.446  1.00  0.00     0.042 C 
HETATM   28  C13 UNL     1     -12.279   7.303  -1.505  1.00  0.00     0.020 C 
HETATM   29  C14 UNL     1     -11.151   8.141  -0.960  1.00  0.00     0.092 C 
BRANCH  26  30
HETATM   30  C11 UNL     1     -11.693   3.943  -4.015  1.00  0.00     0.268 C 
HETATM   31  N6  UNL     1     -12.670   4.262  -4.990  1.00  0.00    -0.057 NA
HETATM   32  O3  UNL     1     -11.751   2.790  -3.552  1.00  0.00    -0.271 OA
ENDBRANCH  26  30
BRANCH  29  33
HETATM   33  C15 UNL     1     -11.489   8.536   0.430  1.00  0.00     0.177 C 
HETATM   34  O4  UNL     1     -10.703   8.199   1.366  1.00  0.00    -0.648 OA
HETATM   35  O5  UNL     1     -12.645   9.257   0.662  1.00  0.00    -0.648 OA
ENDBRANCH  29  33
ENDBRANCH  19  21
ENDBRANCH   1  19
TORSDOF 7
ENDMDL
MODEL 5
REMARK VINA RESULT: -6.445371426      5.763      9.129
REMARK  7 active torsions:
REMARK  status: ('A' for Active; 'I' for Inactive)
REMARK    1  A    between atoms: C2_5  and  C3_6 
REMARK    2  A    between atoms: C4_10  and  N3_11 
REMARK    3  A    between atoms: C5_14  and  C6_15 
REMARK    4  A    between atoms: C6_15  and  N5_19 
REMARK    5  A    between atoms: N5_19  and  C7_21 
REMARK    6  A    between atoms: C10_25  and  C11_26 
REMARK    7  A    between atoms: C14_31  and  C15_32 
ROOT
HETATM    1  C6  UNL     1     -15.843   8.326  -2.708  1.00  0.00     0.148 C 
HETATM    2  N4  UNL     1     -15.246   7.187  -2.927  1.00  0.00    -0.282 N 
ATOM      3  H4  UNL     1     -15.829   6.379  -3.146  1.00  0.00     0.182 HD
HETATM    4 CL1  UNL     1     -13.545   6.955  -2.871  1.00  0.00     0.012 Cl
ENDROOT
BRANCH   1   5
HETATM    5  C5  UNL     1     -17.277   8.353  -2.794  1.00  0.00     0.130 A 
HETATM    6  N1  UNL     1     -17.976   8.948  -3.818  1.00  0.00    -0.290 N 
HETATM    7  C1  UNL     1     -17.327   9.621  -4.925  1.00  0.00     0.178 C 
HETATM    8  N2  UNL     1     -19.253   8.768  -3.578  1.00  0.00    -0.292 N 
HETATM    9  C2  UNL     1     -19.442   8.083  -2.446  1.00  0.00     0.168 A 
ATOM     10  H2  UNL     1     -20.005   9.108  -4.177  1.00  0.00     0.187 HD
HETATM   11  C4  UNL     1     -18.172   7.798  -1.913  1.00  0.00     0.167 A 
BRANCH   9  12
HETATM   12  C3  UNL     1     -20.743   7.683  -1.833  1.00  0.00     0.436 C 
HETATM   13  F1  UNL     1     -20.819   6.317  -1.691  1.00  0.00    -0.165 F 
HETATM   14  F2  UNL     1     -20.901   8.344  -0.623  1.00  0.00    -0.165 F 
HETATM   15  F3  UNL     1     -21.758   8.111  -2.672  1.00  0.00    -0.165 F 
ENDBRANCH   9  12
BRANCH  11  16
HETATM   16  N3  UNL     1     -17.986   7.080  -0.708  1.00  0.00    -0.111 N 
HETATM   17  O1  UNL     1     -18.237   5.863  -0.606  1.00  0.00    -0.532 OA
HETATM   18  O2  UNL     1     -17.518   7.705   0.408  1.00  0.00    -0.532 OA
ENDBRANCH  11  16
ENDBRANCH   1   5
BRANCH   1  19
HETATM   19  N5  UNL     1     -14.974   9.410  -2.415  1.00  0.00    -0.333 N 
ATOM     20  H5  UNL     1     -14.168   9.605  -3.009  1.00  0.00     0.168 HD
BRANCH  19  21
HETATM   21  C7  UNL     1     -15.254  10.232  -1.261  1.00  0.00     0.092 A 
HETATM   22  S1  UNL     1     -16.299  11.611  -1.250  1.00  0.00    -0.075 SA
HETATM   23  C8  UNL     1     -16.153  12.043   0.367  1.00  0.00    -0.007 A 
HETATM   24  C9  UNL     1     -15.277  11.095   0.891  1.00  0.00    -0.027 A 
HETATM   25  C16 UNL     1     -16.707  13.110   1.290  1.00  0.00     0.062 C 
HETATM   26  C10 UNL     1     -14.821  10.165   0.036  1.00  0.00     0.070 A 
HETATM   27  C12 UNL     1     -15.047  11.372   2.357  1.00  0.00     0.042 C 
HETATM   28  C13 UNL     1     -16.416  11.313   3.008  1.00  0.00     0.020 C 
HETATM   29  C14 UNL     1     -17.267  12.468   2.543  1.00  0.00     0.092 C 
BRANCH  26  30
HETATM   30  C11 UNL     1     -13.882   9.094   0.443  1.00  0.00     0.268 C 
HETATM   31  N6  UNL     1     -14.170   8.083   1.392  1.00  0.00    -0.057 NA
HETATM   32  O3  UNL     1     -12.748   9.047  -0.067  1.00  0.00    -0.271 OA
ENDBRANCH  26  30
BRANCH  29  33
HETATM   33  C15 UNL     1     -17.262  13.509   3.600  1.00  0.00     0.177 C 
HETATM   34  O4  UNL     1     -18.259  13.589   4.380  1.00  0.00    -0.648 OA
HETATM   35  O5  UNL     1     -16.176  14.358   3.704  1.00  0.00    -0.648 OA
ENDBRANCH  29  33
ENDBRANCH  19  21
ENDBRANCH   1  19
TORSDOF 7
ENDMDL
