MODEL 1
REMARK VINA RESULT: -9.794388890      0.000      0.000
REMARK  8 active torsions:
REMARK  status: ('A' for Active; 'I' for Inactive)
REMARK    1  A    between atoms: N1_1  and  C1_4 
REMARK    2  A    between atoms: N3_9  and  O2_10 
REMARK    3  A    between atoms: C3_12  and  C4_13 
REMARK    4  A    between atoms: C4_13  and  N4_14 
REMARK    5  A    between atoms: C4_13  and  C5_18 
REMARK       I    between atoms: C5_18  and  N5_20 
REMARK    6  A    between atoms: N5_20  and  N6_22 
REMARK    7  A    between atoms: N6_22  and  C6_24 
REMARK    8  A    between atoms: C9_35  and  O6_36 
ROOT
HETATM    1  C4  UNL     1     137.073   6.072  75.376  1.00  0.00     0.331 C 
ENDROOT
BRANCH   1   2
HETATM    2  C3  UNL     1     138.114   6.646  76.226  1.00  0.00     0.122 A 
HETATM    3  N3  UNL     1     138.080   6.613  77.560  1.00  0.00    -0.171 N 
HETATM    4  C2  UNL     1     139.063   7.211  78.285  1.00  0.00     0.352 A 
HETATM    5  N2  UNL     1     140.088   7.847  77.709  1.00  0.00    -0.291 N 
HETATM    6  O1  UNL     1     139.025   7.174  79.541  1.00  0.00    -0.244 OA
HETATM    7  C1  UNL     1     140.183   7.919  76.373  1.00  0.00     0.139 A 
ATOM      8  H2  UNL     1     140.805   8.282  78.291  1.00  0.00     0.172 HD
HETATM    9  C9  UNL     1     139.194   7.317  75.641  1.00  0.00     0.138 A 
BRANCH   3  10
HETATM   10  O2  UNL     1     137.026   6.025  78.263  1.00  0.00    -0.279 OA
ATOM     11  H2  UNL     1     136.156   6.097  77.891  1.00  0.00     0.245 HD
ENDBRANCH   3  10
BRANCH   7  12
HETATM   12  N1  UNL     1     141.183   8.541  75.802  1.00  0.00    -0.383 N 
ATOM     13  H12 UNL     1     141.520   9.442  76.141  1.00  0.00     0.157 HD
ATOM     14  H11 UNL     1     141.658   8.139  74.994  1.00  0.00     0.157 HD
ENDBRANCH   7  12
BRANCH   9  15
HETATM   15  O6  UNL     1     139.270   7.380  74.260  1.00  0.00    -0.355 OA
ATOM     16  H6  UNL     1     138.510   7.116  73.755  1.00  0.00     0.218 HD
ENDBRANCH   9  15
ENDBRANCH   1   2
BRANCH   1  17
HETATM   17  N4  UNL     1     136.750   4.689  75.742  1.00  0.00    -0.061 N 
ATOM     18  H43 UNL     1     136.472   4.147  74.923  1.00  0.00     0.275 HD
ATOM     19  H42 UNL     1     137.589   4.172  76.003  1.00  0.00     0.275 HD
ATOM     20  H41 UNL     1     136.042   4.635  76.475  1.00  0.00     0.275 HD
ENDBRANCH   1  17
BRANCH   1  21
HETATM   21  C5  UNL     1     135.845   6.817  75.133  1.00  0.00     0.273 C 
HETATM   22  O3  UNL     1     135.732   8.034  75.334  1.00  0.00    -0.269 OA
HETATM   23  N5  UNL     1     134.714   6.134  74.640  1.00  0.00    -0.254 N 
ATOM     24  H5  UNL     1     134.750   5.132  74.453  1.00  0.00     0.190 HD
BRANCH  23  25
HETATM   25  N6  UNL     1     133.554   6.855  74.417  1.00  0.00    -0.129 N 
ATOM     26  H6  UNL     1     133.428   7.709  74.960  1.00  0.00     0.205 HD
BRANCH  25  27
HETATM   27  C6  UNL     1     132.634   6.551  73.598  1.00  0.00     0.705 A 
HETATM   28  N7  UNL     1     132.232   7.385  72.632  1.00  0.00    -0.139 N 
HETATM   29  C7  UNL     1     131.257   6.986  71.812  1.00  0.00     0.342 A 
ATOM     30  H7  UNL     1     132.660   8.305  72.526  1.00  0.00     0.189 HD
HETATM   31  O4  UNL     1     130.858   7.732  70.904  1.00  0.00    -0.246 OA
HETATM   32  N8  UNL     1     130.700   5.778  71.960  1.00  0.00    -0.260 N 
HETATM   33  C8  UNL     1     131.087   4.917  72.926  1.00  0.00     0.342 A 
ATOM     34  H8  UNL     1     129.958   5.498  71.320  1.00  0.00     0.175 HD
HETATM   35  O5  UNL     1     130.559   3.782  73.061  1.00  0.00    -0.246 OA
HETATM   36  N9  UNL     1     132.063   5.321  73.745  1.00  0.00    -0.139 N 
ATOM     37  H9  UNL     1     132.385   4.703  74.489  1.00  0.00     0.189 HD
ENDBRANCH  25  27
ENDBRANCH  23  25
ENDBRANCH   1  21
TORSDOF 8
ENDMDL
MODEL 2
REMARK VINA RESULT: -9.701331221      1.120      1.787
REMARK  8 active torsions:
REMARK  status: ('A' for Active; 'I' for Inactive)
REMARK    1  A    between atoms: N1_1  and  C1_4 
REMARK    2  A    between atoms: N3_9  and  O2_10 
REMARK    3  A    between atoms: C3_12  and  C4_13 
REMARK    4  A    between atoms: C4_13  and  N4_14 
REMARK    5  A    between atoms: C4_13  and  C5_18 
REMARK       I    between atoms: C5_18  and  N5_20 
REMARK    6  A    between atoms: N5_20  and  N6_22 
REMARK    7  A    between atoms: N6_22  and  C6_24 
REMARK    8  A    between atoms: C9_35  and  O6_36 
ROOT
HETATM    1  C4  UNL     1     137.103   6.180  75.276  1.00  0.00     0.331 C 
ENDROOT
BRANCH   1   2
HETATM    2  C3  UNL     1     138.147   6.708  76.153  1.00  0.00     0.122 A 
HETATM    3  N3  UNL     1     138.096   6.643  77.485  1.00  0.00    -0.171 N 
HETATM    4  C2  UNL     1     139.085   7.199  78.236  1.00  0.00     0.352 A 
HETATM    5  N2  UNL     1     140.132   7.823  77.687  1.00  0.00    -0.291 N 
HETATM    6  O1  UNL     1     139.031   7.132  79.490  1.00  0.00    -0.244 OA
HETATM    7  C1  UNL     1     140.244   7.926  76.355  1.00  0.00     0.139 A 
ATOM      8  H2  UNL     1     140.852   8.226  78.287  1.00  0.00     0.172 HD
HETATM    9  C9  UNL     1     139.251   7.366  75.597  1.00  0.00     0.138 A 
BRANCH   3  10
HETATM   10  O2  UNL     1     137.021   6.064  78.162  1.00  0.00    -0.279 OA
ATOM     11  H2  UNL     1     136.501   6.628  78.722  1.00  0.00     0.245 HD
ENDBRANCH   3  10
BRANCH   7  12
HETATM   12  N1  UNL     1     141.266   8.537  75.810  1.00  0.00    -0.383 N 
ATOM     13  H12 UNL     1     141.448   9.528  75.971  1.00  0.00     0.157 HD
ATOM     14  H11 UNL     1     141.915   8.035  75.204  1.00  0.00     0.157 HD
ENDBRANCH   7  12
BRANCH   9  15
HETATM   15  O6  UNL     1     139.344   7.461  74.219  1.00  0.00    -0.355 OA
ATOM     16  H6  UNL     1     139.026   6.735  73.695  1.00  0.00     0.218 HD
ENDBRANCH   9  15
ENDBRANCH   1   2
BRANCH   1  17
HETATM   17  N4  UNL     1     136.648   4.847  75.686  1.00  0.00    -0.061 N 
ATOM     18  H43 UNL     1     137.406   4.166  75.628  1.00  0.00     0.275 HD
ATOM     19  H42 UNL     1     136.473   4.811  76.690  1.00  0.00     0.275 HD
ATOM     20  H41 UNL     1     135.832   4.534  75.159  1.00  0.00     0.275 HD
ENDBRANCH   1  17
BRANCH   1  21
HETATM   21  C5  UNL     1     135.955   7.010  74.939  1.00  0.00     0.273 C 
HETATM   22  O3  UNL     1     135.565   7.956  75.638  1.00  0.00    -0.269 OA
HETATM   23  N5  UNL     1     135.235   6.739  73.757  1.00  0.00    -0.254 N 
ATOM     24  H5  UNL     1     135.512   5.974  73.141  1.00  0.00     0.190 HD
BRANCH  23  25
HETATM   25  N6  UNL     1     134.145   7.535  73.452  1.00  0.00    -0.129 N 
ATOM     26  H6  UNL     1     134.056   8.413  73.962  1.00  0.00     0.205 HD
BRANCH  25  27
HETATM   27  C6  UNL     1     133.247   7.271  72.594  1.00  0.00     0.705 A 
HETATM   28  N7  UNL     1     132.039   6.815  72.943  1.00  0.00    -0.139 N 
HETATM   29  C7  UNL     1     131.151   6.564  71.977  1.00  0.00     0.342 A 
ATOM     30  H7  UNL     1     131.802   6.662  73.923  1.00  0.00     0.189 HD
HETATM   31  O4  UNL     1     130.020   6.139  72.262  1.00  0.00    -0.246 OA
HETATM   32  N8  UNL     1     131.472   6.765  70.694  1.00  0.00    -0.260 N 
HETATM   33  C8  UNL     1     132.684   7.225  70.315  1.00  0.00     0.342 A 
ATOM     34  H8  UNL     1     130.776   6.565  69.976  1.00  0.00     0.175 HD
HETATM   35  O5  UNL     1     132.981   7.412  69.106  1.00  0.00    -0.246 OA
HETATM   36  N9  UNL     1     133.569   7.475  71.286  1.00  0.00    -0.139 N 
ATOM     37  H9  UNL     1     134.497   7.823  71.044  1.00  0.00     0.189 HD
ENDBRANCH  25  27
ENDBRANCH  23  25
ENDBRANCH   1  21
TORSDOF 8
ENDMDL
MODEL 3
REMARK VINA RESULT: -9.688976456      1.172      1.354
REMARK  8 active torsions:
REMARK  status: ('A' for Active; 'I' for Inactive)
REMARK    1  A    between atoms: N1_1  and  C1_4 
REMARK    2  A    between atoms: N3_9  and  O2_10 
REMARK    3  A    between atoms: C3_12  and  C4_13 
REMARK    4  A    between atoms: C4_13  and  N4_14 
REMARK    5  A    between atoms: C4_13  and  C5_18 
REMARK       I    between atoms: C5_18  and  N5_20 
REMARK    6  A    between atoms: N5_20  and  N6_22 
REMARK    7  A    between atoms: N6_22  and  C6_24 
REMARK    8  A    between atoms: C9_35  and  O6_36 
ROOT
HETATM    1  C4  UNL     1     137.032   6.195  75.256  1.00  0.00     0.331 C 
ENDROOT
BRANCH   1   2
HETATM    2  C3  UNL     1     138.087   6.709  76.126  1.00  0.00     0.122 A 
HETATM    3  N3  UNL     1     138.059   6.615  77.457  1.00  0.00    -0.171 N 
HETATM    4  C2  UNL     1     139.058   7.160  78.203  1.00  0.00     0.352 A 
HETATM    5  N2  UNL     1     140.092   7.802  77.651  1.00  0.00    -0.291 N 
HETATM    6  O1  UNL     1     139.025   7.066  79.456  1.00  0.00    -0.244 OA
HETATM    7  C1  UNL     1     140.181   7.934  76.319  1.00  0.00     0.139 A 
ATOM      8  H2  UNL     1     140.820   8.196  78.247  1.00  0.00     0.172 HD
HETATM    9  C9  UNL     1     139.178   7.386  75.566  1.00  0.00     0.138 A 
BRANCH   3  10
HETATM   10  O2  UNL     1     136.999   6.016  78.139  1.00  0.00    -0.279 OA
ATOM     11  H2  UNL     1     136.552   5.296  77.710  1.00  0.00     0.245 HD
ENDBRANCH   3  10
BRANCH   7  12
HETATM   12  N1  UNL     1     141.191   8.563  75.771  1.00  0.00    -0.383 N 
ATOM     13  H12 UNL     1     142.122   8.550  76.188  1.00  0.00     0.157 HD
ATOM     14  H11 UNL     1     141.074   9.087  74.904  1.00  0.00     0.157 HD
ENDBRANCH   7  12
BRANCH   9  15
HETATM   15  O6  UNL     1     139.248   7.511  74.189  1.00  0.00    -0.355 OA
ATOM     16  H6  UNL     1     138.497   7.870  73.731  1.00  0.00     0.218 HD
ENDBRANCH   9  15
ENDBRANCH   1   2
BRANCH   1  17
HETATM   17  N4  UNL     1     136.598   4.847  75.637  1.00  0.00    -0.061 N 
ATOM     18  H43 UNL     1     135.770   4.565  75.112  1.00  0.00     0.275 HD
ATOM     19  H42 UNL     1     137.253   4.141  75.302  1.00  0.00     0.275 HD
ATOM     20  H41 UNL     1     136.443   4.756  76.642  1.00  0.00     0.275 HD
ENDBRANCH   1  17
BRANCH   1  21
HETATM   21  C5  UNL     1     135.869   7.023  74.964  1.00  0.00     0.273 C 
HETATM   22  O3  UNL     1     135.581   8.047  75.598  1.00  0.00    -0.269 OA
HETATM   23  N5  UNL     1     135.013   6.655  73.905  1.00  0.00    -0.254 N 
ATOM     24  H5  UNL     1     135.201   5.823  73.346  1.00  0.00     0.190 HD
BRANCH  23  25
HETATM   25  N6  UNL     1     133.911   7.449  73.642  1.00  0.00    -0.129 N 
ATOM     26  H6  UNL     1     133.711   8.198  74.305  1.00  0.00     0.205 HD
BRANCH  25  27
HETATM   27  C6  UNL     1     133.127   7.332  72.651  1.00  0.00     0.705 A 
HETATM   28  N7  UNL     1     133.565   7.357  71.387  1.00  0.00    -0.139 N 
HETATM   29  C7  UNL     1     132.673   7.225  70.402  1.00  0.00     0.342 A 
ATOM     30  H7  UNL     1     134.557   7.476  71.181  1.00  0.00     0.189 HD
HETATM   31  O4  UNL     1     133.042   7.244  69.217  1.00  0.00    -0.246 OA
HETATM   32  N8  UNL     1     131.374   7.072  70.682  1.00  0.00    -0.260 N 
HETATM   33  C8  UNL     1     130.905   7.043  71.948  1.00  0.00     0.342 A 
ATOM     34  H8  UNL     1     130.713   6.974  69.911  1.00  0.00     0.175 HD
HETATM   35  O5  UNL     1     129.682   6.899  72.206  1.00  0.00    -0.246 OA
HETATM   36  N9  UNL     1     131.802   7.175  72.931  1.00  0.00    -0.139 N 
ATOM     37  H9  UNL     1     131.492   7.160  73.902  1.00  0.00     0.189 HD
ENDBRANCH  25  27
ENDBRANCH  23  25
ENDBRANCH   1  21
TORSDOF 8
ENDMDL
MODEL 4
REMARK VINA RESULT: -9.685165578      0.651      1.685
REMARK  8 active torsions:
REMARK  status: ('A' for Active; 'I' for Inactive)
REMARK    1  A    between atoms: N1_1  and  C1_4 
REMARK    2  A    between atoms: N3_9  and  O2_10 
REMARK    3  A    between atoms: C3_12  and  C4_13 
REMARK    4  A    between atoms: C4_13  and  N4_14 
REMARK    5  A    between atoms: C4_13  and  C5_18 
REMARK       I    between atoms: C5_18  and  N5_20 
REMARK    6  A    between atoms: N5_20  and  N6_22 
REMARK    7  A    between atoms: N6_22  and  C6_24 
REMARK    8  A    between atoms: C9_35  and  O6_36 
ROOT
HETATM    1  C4  UNL     1     136.949   6.200  75.336  1.00  0.00     0.331 C 
ENDROOT
BRANCH   1   2
HETATM    2  C3  UNL     1     138.030   6.698  76.185  1.00  0.00     0.122 A 
HETATM    3  N3  UNL     1     138.034   6.590  77.515  1.00  0.00    -0.171 N 
HETATM    4  C2  UNL     1     139.055   7.121  78.242  1.00  0.00     0.352 A 
HETATM    5  N2  UNL     1     140.079   7.763  77.671  1.00  0.00    -0.291 N 
HETATM    6  O1  UNL     1     139.052   7.013  79.494  1.00  0.00    -0.244 OA
HETATM    7  C1  UNL     1     140.136   7.908  76.339  1.00  0.00     0.139 A 
ATOM      8  H2  UNL     1     140.824   8.145  78.253  1.00  0.00     0.172 HD
HETATM    9  C9  UNL     1     139.110   7.374  75.605  1.00  0.00     0.138 A 
BRANCH   3  10
HETATM   10  O2  UNL     1     136.987   5.991  78.217  1.00  0.00    -0.279 OA
ATOM     11  H2  UNL     1     137.207   5.503  79.001  1.00  0.00     0.245 HD
ENDBRANCH   3  10
BRANCH   7  12
HETATM   12  N1  UNL     1     141.135   8.536  75.772  1.00  0.00    -0.383 N 
ATOM     13  H12 UNL     1     141.907   8.033  75.334  1.00  0.00     0.157 HD
ATOM     14  H11 UNL     1     141.171   9.555  75.753  1.00  0.00     0.157 HD
ENDBRANCH   7  12
BRANCH   9  15
HETATM   15  O6  UNL     1     139.147   7.514  74.228  1.00  0.00    -0.355 OA
ATOM     16  H6  UNL     1     138.323   7.524  73.755  1.00  0.00     0.218 HD
ENDBRANCH   9  15
ENDBRANCH   1   2
BRANCH   1  17
HETATM   17  N4  UNL     1     136.607   4.803  75.626  1.00  0.00    -0.061 N 
ATOM     18  H43 UNL     1     135.845   4.480  75.030  1.00  0.00     0.275 HD
ATOM     19  H42 UNL     1     137.342   4.172  75.309  1.00  0.00     0.275 HD
ATOM     20  H41 UNL     1     136.393   4.651  76.612  1.00  0.00     0.275 HD
ENDBRANCH   1  17
BRANCH   1  21
HETATM   21  C5  UNL     1     135.731   6.984  75.183  1.00  0.00     0.273 C 
HETATM   22  O3  UNL     1     135.687   8.214  75.315  1.00  0.00    -0.269 OA
HETATM   23  N5  UNL     1     134.525   6.324  74.865  1.00  0.00    -0.254 N 
ATOM     24  H5  UNL     1     134.502   5.311  74.741  1.00  0.00     0.190 HD
BRANCH  23  25
HETATM   25  N6  UNL     1     133.376   7.081  74.725  1.00  0.00    -0.129 N 
ATOM     26  H6  UNL     1     133.377   8.007  75.152  1.00  0.00     0.205 HD
BRANCH  25  27
HETATM   27  C6  UNL     1     132.322   6.728  74.113  1.00  0.00     0.705 A 
HETATM   28  N7  UNL     1     131.960   5.446  73.993  1.00  0.00    -0.139 N 
HETATM   29  C7  UNL     1     130.834   5.161  73.335  1.00  0.00     0.342 A 
ATOM     30  H7  UNL     1     132.532   4.703  74.396  1.00  0.00     0.189 HD
HETATM   31  O4  UNL     1     130.467   3.983  73.203  1.00  0.00    -0.246 OA
HETATM   32  N8  UNL     1     130.091   6.142  72.809  1.00  0.00    -0.260 N 
HETATM   33  C8  UNL     1     130.433   7.444  72.916  1.00  0.00     0.342 A 
ATOM     34  H8  UNL     1     129.236   5.898  72.311  1.00  0.00     0.175 HD
HETATM   35  O5  UNL     1     129.731   8.363  72.419  1.00  0.00    -0.246 OA
HETATM   36  N9  UNL     1     131.561   7.724  73.576  1.00  0.00    -0.139 N 
ATOM     37  H9  UNL     1     131.858   8.695  73.680  1.00  0.00     0.189 HD
ENDBRANCH  25  27
ENDBRANCH  23  25
ENDBRANCH   1  21
TORSDOF 8
ENDMDL
MODEL 5
REMARK VINA RESULT: -9.398084803      1.839      2.520
REMARK  8 active torsions:
REMARK  status: ('A' for Active; 'I' for Inactive)
REMARK    1  A    between atoms: N1_1  and  C1_4 
REMARK    2  A    between atoms: N3_9  and  O2_10 
REMARK    3  A    between atoms: C3_12  and  C4_13 
REMARK    4  A    between atoms: C4_13  and  N4_14 
REMARK    5  A    between atoms: C4_13  and  C5_18 
REMARK       I    between atoms: C5_18  and  N5_20 
REMARK    6  A    between atoms: N5_20  and  N6_22 
REMARK    7  A    between atoms: N6_22  and  C6_24 
REMARK    8  A    between atoms: C9_35  and  O6_36 
ROOT
HETATM    1  C4  UNL     1     137.225   6.217  75.170  1.00  0.00     0.331 C 
ENDROOT
BRANCH   1   2
HETATM    2  C3  UNL     1     138.240   6.756  76.072  1.00  0.00     0.122 A 
HETATM    3  N3  UNL     1     138.149   6.706  77.402  1.00  0.00    -0.171 N 
HETATM    4  C2  UNL     1     139.114   7.272  78.177  1.00  0.00     0.352 A 
HETATM    5  N2  UNL     1     140.176   7.892  77.654  1.00  0.00    -0.291 N 
HETATM    6  O1  UNL     1     139.021   7.218  79.429  1.00  0.00    -0.244 OA
HETATM    7  C1  UNL     1     140.329   7.979  76.324  1.00  0.00     0.139 A 
ATOM      8  H2  UNL     1     140.877   8.302  78.271  1.00  0.00     0.172 HD
HETATM    9  C9  UNL     1     139.359   7.410  75.542  1.00  0.00     0.138 A 
BRANCH   3  10
HETATM   10  O2  UNL     1     137.054   6.133  78.052  1.00  0.00    -0.279 OA
ATOM     11  H2  UNL     1     136.246   6.049  77.560  1.00  0.00     0.245 HD
ENDBRANCH   3  10
BRANCH   7  12
HETATM   12  N1  UNL     1     141.366   8.586  75.804  1.00  0.00    -0.383 N 
ATOM     13  H12 UNL     1     141.623   8.467  74.824  1.00  0.00     0.157 HD
ATOM     14  H11 UNL     1     141.953   9.200  76.370  1.00  0.00     0.157 HD
ENDBRANCH   7  12
BRANCH   9  15
HETATM   15  O6  UNL     1     139.495   7.490  74.167  1.00  0.00    -0.355 OA
ATOM     16  H6  UNL     1     139.925   8.253  73.801  1.00  0.00     0.218 HD
ENDBRANCH   9  15
ENDBRANCH   1   2
BRANCH   1  17
HETATM   17  N4  UNL     1     136.522   5.063  75.743  1.00  0.00    -0.061 N 
ATOM     18  H43 UNL     1     137.151   4.269  75.858  1.00  0.00     0.275 HD
ATOM     19  H42 UNL     1     136.283   5.227  76.720  1.00  0.00     0.275 HD
ATOM     20  H41 UNL     1     135.696   4.802  75.203  1.00  0.00     0.275 HD
ENDBRANCH   1  17
BRANCH   1  21
HETATM   21  C5  UNL     1     136.266   7.116  74.542  1.00  0.00     0.273 C 
HETATM   22  O3  UNL     1     136.461   8.330  74.393  1.00  0.00    -0.269 OA
HETATM   23  N5  UNL     1     135.043   6.594  74.069  1.00  0.00    -0.254 N 
ATOM     24  H5  UNL     1     134.829   5.601  74.162  1.00  0.00     0.190 HD
BRANCH  23  25
HETATM   25  N6  UNL     1     134.142   7.461  73.478  1.00  0.00    -0.129 N 
ATOM     26  H6  UNL     1     134.255   7.636  72.479  1.00  0.00     0.205 HD
BRANCH  25  27
HETATM   27  C6  UNL     1     133.187   8.057  74.064  1.00  0.00     0.705 A 
HETATM   28  N7  UNL     1     133.338   8.651  75.253  1.00  0.00    -0.139 N 
HETATM   29  C7  UNL     1     132.282   9.257  75.800  1.00  0.00     0.342 A 
ATOM     30  H7  UNL     1     134.240   8.640  75.731  1.00  0.00     0.189 HD
HETATM   31  O4  UNL     1     132.384   9.819  76.902  1.00  0.00    -0.246 OA
HETATM   32  N8  UNL     1     131.103   9.264  75.167  1.00  0.00    -0.260 N 
HETATM   33  C8  UNL     1     130.923   8.672  73.967  1.00  0.00     0.342 A 
ATOM     34  H8  UNL     1     130.312   9.734  75.607  1.00  0.00     0.175 HD
HETATM   35  O5  UNL     1     129.812   8.682  73.376  1.00  0.00    -0.246 OA
HETATM   36  N9  UNL     1     131.984   8.067  73.423  1.00  0.00    -0.139 N 
ATOM     37  H9  UNL     1     131.892   7.606  72.518  1.00  0.00     0.189 HD
ENDBRANCH  25  27
ENDBRANCH  23  25
ENDBRANCH   1  21
TORSDOF 8
ENDMDL
