MODEL 1
REMARK VINA RESULT: -9.142150384      0.000      0.000
REMARK  5 active torsions:
REMARK  status: ('A' for Active; 'I' for Inactive)
REMARK    1  A    between atoms: N1_1  and  N2_4 
REMARK    2  A    between atoms: N2_4  and  C1_6 
REMARK    3  A    between atoms: C2_7  and  C3_8 
REMARK       I    between atoms: C3_8  and  N3_10 
REMARK    4  A    between atoms: N3_10  and  N4_12 
REMARK    5  A    between atoms: N4_12  and  C4_14 
ROOT
HETATM    1  C1  UNL     1     132.901   7.933  74.774  1.00  0.00     0.115 C 
HETATM    2  C2  UNL     1     134.033   7.283  74.596  1.00  0.00     0.127 C 
HETATM    3  N8  UNL     1     133.738   5.920  74.229  1.00  0.00    -0.379 N 
ATOM      4  H8  UNL     1     134.343   5.107  74.344  1.00  0.00     0.160 HD
HETATM    5  C6  UNL     1     132.408   5.943  73.663  1.00  0.00     0.189 C 
HETATM    6  C7  UNL     1     131.767   7.002  74.568  1.00  0.00     0.210 C 
HETATM    7  N9  UNL     1     131.403   6.334  75.791  1.00  0.00    -0.321 N 
ATOM      8  H9  UNL     1     131.961   6.596  76.604  1.00  0.00     0.166 HD
HETATM    9  C8  UNL     1     130.405   5.381  76.044  1.00  0.00     0.238 C 
HETATM   10  O2  UNL     1     130.622   4.523  76.969  1.00  0.00    -0.272 OA
HETATM   11  C9  UNL     1     129.088   5.181  75.407  1.00  0.00     0.227 C 
HETATM   12  N10 UNL     1     128.906   5.840  74.158  1.00  0.00    -0.328 N 
ATOM     13  H10 UNL     1     128.208   5.391  73.565  1.00  0.00     0.165 HD
HETATM   14  C10 UNL     1     129.490   6.988  73.561  1.00  0.00     0.363 C 
HETATM   15  O3  UNL     1     128.882   7.518  72.583  1.00  0.00    -0.238 OA
HETATM   16  O4  UNL     1     130.671   7.599  73.940  1.00  0.00    -0.264 OA
ENDROOT
BRANCH   2  17
HETATM   17  C3  UNL     1     135.401   7.762  74.712  1.00  0.00     0.288 C 
HETATM   18  O1  UNL     1     135.694   8.953  74.473  1.00  0.00    -0.264 OA
HETATM   19  N3  UNL     1     136.480   6.902  75.107  1.00  0.00    -0.262 N 
ATOM     20  H3  UNL     1     136.290   5.921  75.305  1.00  0.00     0.190 HD
BRANCH  19  21
HETATM   21  N4  UNL     1     137.789   7.385  75.226  1.00  0.00    -0.267 N 
ATOM     22  H4  UNL     1     138.297   7.745  74.418  1.00  0.00     0.190 HD
BRANCH  21  23
HETATM   23  C4  UNL     1     138.382   7.356  76.520  1.00  0.00     0.207 C 
HETATM   24  N5  UNL     1     137.775   7.104  77.605  1.00  0.00    -0.345 N 
HETATM   25  C5  UNL     1     138.679   7.157  78.724  1.00  0.00     0.259 C 
ATOM     26  H5  UNL     1     136.780   6.891  77.674  1.00  0.00     0.164 HD
HETATM   27  N6  UNL     1     139.917   7.749  78.204  1.00  0.00    -0.119 NA
HETATM   28  N7  UNL     1     139.768   7.604  76.824  1.00  0.00    -0.273 N 
ATOM     29  H7  UNL     1     140.522   7.665  76.140  1.00  0.00     0.185 HD
ENDBRANCH  21  23
ENDBRANCH  19  21
ENDBRANCH   2  17
BRANCH   1  30
HETATM   30  N2  UNL     1     132.761   9.292  75.129  1.00  0.00    -0.304 N 
ATOM     31  H2  UNL     1     133.432   9.952  74.736  1.00  0.00     0.186 HD
BRANCH  30  32
HETATM   32  N1  UNL     1     131.773   9.804  75.977  1.00  0.00    -0.345 N 
ATOM     33  H12 UNL     1     131.084   9.137  76.325  1.00  0.00     0.176 HD
ATOM     34  H11 UNL     1     131.696  10.779  76.265  1.00  0.00     0.176 HD
ENDBRANCH  30  32
ENDBRANCH   1  30
TORSDOF 5
ENDMDL
MODEL 2
REMARK VINA RESULT: -9.102513279      1.815      3.172
REMARK  5 active torsions:
REMARK  status: ('A' for Active; 'I' for Inactive)
REMARK    1  A    between atoms: N1_1  and  N2_4 
REMARK    2  A    between atoms: N2_4  and  C1_6 
REMARK    3  A    between atoms: C2_7  and  C3_8 
REMARK       I    between atoms: C3_8  and  N3_10 
REMARK    4  A    between atoms: N3_10  and  N4_12 
REMARK    5  A    between atoms: N4_12  and  C4_14 
ROOT
HETATM    1  C1  UNL     1     133.816   5.882  75.087  1.00  0.00     0.115 C 
HETATM    2  C2  UNL     1     134.115   7.018  74.490  1.00  0.00     0.127 C 
HETATM    3  N8  UNL     1     132.958   7.879  74.513  1.00  0.00    -0.379 N 
ATOM      4  H8  UNL     1     132.752   8.649  73.877  1.00  0.00     0.160 HD
HETATM    5  C6  UNL     1     132.152   7.425  75.624  1.00  0.00     0.189 C 
HETATM    6  C7  UNL     1     132.398   5.916  75.515  1.00  0.00     0.210 C 
HETATM    7  N9  UNL     1     131.522   5.429  74.480  1.00  0.00    -0.321 N 
ATOM      8  H9  UNL     1     131.994   5.133  73.625  1.00  0.00     0.166 HD
HETATM    9  C8  UNL     1     130.126   5.296  74.458  1.00  0.00     0.238 C 
HETATM   10  O2  UNL     1     129.534   5.421  73.330  1.00  0.00    -0.272 OA
HETATM   11  C9  UNL     1     129.173   5.025  75.553  1.00  0.00     0.227 C 
HETATM   12  N10 UNL     1     129.680   5.222  76.869  1.00  0.00    -0.328 N 
ATOM     13  H10 UNL     1     128.951   5.428  77.553  1.00  0.00     0.165 HD
HETATM   14  C10 UNL     1     130.982   5.194  77.432  1.00  0.00     0.363 C 
HETATM   15  O3  UNL     1     131.078   5.075  78.690  1.00  0.00    -0.238 OA
HETATM   16  O4  UNL     1     132.177   5.284  76.741  1.00  0.00    -0.264 OA
ENDROOT
BRANCH   2  17
HETATM   17  C3  UNL     1     135.368   7.440  73.885  1.00  0.00     0.288 C 
HETATM   18  O1  UNL     1     135.405   7.907  72.727  1.00  0.00    -0.264 OA
HETATM   19  N3  UNL     1     136.620   7.348  74.580  1.00  0.00    -0.262 N 
ATOM     20  H3  UNL     1     136.640   6.966  75.525  1.00  0.00     0.190 HD
BRANCH  19  21
HETATM   21  N4  UNL     1     137.815   7.772  73.986  1.00  0.00    -0.267 N 
ATOM     22  H4  UNL     1     137.858   8.015  72.996  1.00  0.00     0.190 HD
BRANCH  21  23
HETATM   23  C4  UNL     1     138.968   7.852  74.817  1.00  0.00     0.207 C 
HETATM   24  N5  UNL     1     138.980   7.702  76.077  1.00  0.00    -0.345 N 
HETATM   25  C5  UNL     1     140.315   7.846  76.598  1.00  0.00     0.259 C 
ATOM     26  H5  UNL     1     138.156   7.506  76.645  1.00  0.00     0.164 HD
HETATM   27  N6  UNL     1     141.117   8.377  75.490  1.00  0.00    -0.119 NA
HETATM   28  N7  UNL     1     140.315   8.113  74.379  1.00  0.00    -0.273 N 
ATOM     29  H7  UNL     1     140.633   8.105  73.410  1.00  0.00     0.185 HD
ENDBRANCH  21  23
ENDBRANCH  19  21
ENDBRANCH   2  17
BRANCH   1  30
HETATM   30  N2  UNL     1     134.681   4.783  75.282  1.00  0.00    -0.304 N 
ATOM     31  H2  UNL     1     135.594   4.972  75.694  1.00  0.00     0.186 HD
BRANCH  30  32
HETATM   32  N1  UNL     1     134.381   3.457  74.954  1.00  0.00    -0.345 N 
ATOM     33  H12 UNL     1     133.819   2.938  75.630  1.00  0.00     0.176 HD
ATOM     34  H11 UNL     1     134.680   2.982  74.103  1.00  0.00     0.176 HD
ENDBRANCH  30  32
ENDBRANCH   1  30
TORSDOF 5
ENDMDL
MODEL 3
REMARK VINA RESULT: -8.992292745      2.703      4.134
REMARK  5 active torsions:
REMARK  status: ('A' for Active; 'I' for Inactive)
REMARK    1  A    between atoms: N1_1  and  N2_4 
REMARK    2  A    between atoms: N2_4  and  C1_6 
REMARK    3  A    between atoms: C2_7  and  C3_8 
REMARK       I    between atoms: C3_8  and  N3_10 
REMARK    4  A    between atoms: N3_10  and  N4_12 
REMARK    5  A    between atoms: N4_12  and  C4_14 
ROOT
HETATM    1  C1  UNL     1     133.221   6.152  72.965  1.00  0.00     0.115 C 
HETATM    2  C2  UNL     1     133.937   6.476  74.022  1.00  0.00     0.127 C 
HETATM    3  N8  UNL     1     133.773   7.884  74.286  1.00  0.00    -0.379 N 
ATOM      4  H8  UNL     1     134.415   8.494  74.792  1.00  0.00     0.160 HD
HETATM    5  C6  UNL     1     132.511   8.253  73.686  1.00  0.00     0.189 C 
HETATM    6  C7  UNL     1     132.556   7.367  72.436  1.00  0.00     0.210 C 
HETATM    7  N9  UNL     1     133.388   8.048  71.478  1.00  0.00    -0.321 N 
ATOM      8  H9  UNL     1     134.289   7.604  71.301  1.00  0.00     0.166 HD
HETATM    9  C8  UNL     1     133.158   9.224  70.748  1.00  0.00     0.238 C 
HETATM   10  O2  UNL     1     134.172   9.944  70.443  1.00  0.00    -0.272 OA
HETATM   11  C9  UNL     1     131.898   9.807  70.243  1.00  0.00     0.227 C 
HETATM   12  N10 UNL     1     130.707   9.285  70.823  1.00  0.00    -0.328 N 
ATOM     13  H10 UNL     1     129.923   9.936  70.784  1.00  0.00     0.165 HD
HETATM   14  C10 UNL     1     130.378   8.052  71.444  1.00  0.00     0.363 C 
HETATM   15  O3  UNL     1     129.150   7.757  71.555  1.00  0.00    -0.238 OA
HETATM   16  O4  UNL     1     131.270   7.123  71.948  1.00  0.00    -0.264 OA
ENDROOT
BRANCH   2  17
HETATM   17  C3  UNL     1     134.778   5.636  74.859  1.00  0.00     0.288 C 
HETATM   18  O1  UNL     1     134.370   4.539  75.296  1.00  0.00    -0.264 OA
HETATM   19  N3  UNL     1     136.113   6.015  75.224  1.00  0.00    -0.262 N 
ATOM     20  H3  UNL     1     136.487   6.906  74.897  1.00  0.00     0.190 HD
BRANCH  19  21
HETATM   21  N4  UNL     1     136.913   5.187  76.021  1.00  0.00    -0.267 N 
ATOM     22  H4  UNL     1     136.923   4.175  75.891  1.00  0.00     0.190 HD
BRANCH  21  23
HETATM   23  C4  UNL     1     137.712   5.812  77.020  1.00  0.00     0.207 C 
HETATM   24  N5  UNL     1     138.580   6.714  76.813  1.00  0.00    -0.345 N 
HETATM   25  C5  UNL     1     139.200   7.123  78.047  1.00  0.00     0.259 C 
ATOM     26  H5  UNL     1     138.808   7.098  75.896  1.00  0.00     0.164 HD
HETATM   27  N6  UNL     1     138.771   6.141  79.049  1.00  0.00    -0.119 NA
HETATM   28  N7  UNL     1     137.675   5.535  78.433  1.00  0.00    -0.273 N 
ATOM     29  H7  UNL     1     136.961   4.983  78.909  1.00  0.00     0.185 HD
ENDBRANCH  21  23
ENDBRANCH  19  21
ENDBRANCH   2  17
BRANCH   1  30
HETATM   30  N2  UNL     1     133.103   4.867  72.392  1.00  0.00    -0.304 N 
ATOM     31  H2  UNL     1     133.480   4.081  72.920  1.00  0.00     0.186 HD
BRANCH  30  32
HETATM   32  N1  UNL     1     132.510   4.590  71.155  1.00  0.00    -0.345 N 
ATOM     33  H12 UNL     1     131.595   4.141  71.182  1.00  0.00     0.176 HD
ATOM     34  H11 UNL     1     132.923   4.802  70.247  1.00  0.00     0.176 HD
ENDBRANCH  30  32
ENDBRANCH   1  30
TORSDOF 5
ENDMDL
MODEL 4
REMARK VINA RESULT: -8.910819575      1.922      3.237
REMARK  5 active torsions:
REMARK  status: ('A' for Active; 'I' for Inactive)
REMARK    1  A    between atoms: N1_1  and  N2_4 
REMARK    2  A    between atoms: N2_4  and  C1_6 
REMARK    3  A    between atoms: C2_7  and  C3_8 
REMARK       I    between atoms: C3_8  and  N3_10 
REMARK    4  A    between atoms: N3_10  and  N4_12 
REMARK    5  A    between atoms: N4_12  and  C4_14 
ROOT
HETATM    1  C1  UNL     1     133.891   5.262  73.969  1.00  0.00     0.115 C 
HETATM    2  C2  UNL     1     134.680   6.095  74.617  1.00  0.00     0.127 C 
HETATM    3  N8  UNL     1     133.915   7.252  75.013  1.00  0.00    -0.379 N 
ATOM      4  H8  UNL     1     134.272   8.185  75.219  1.00  0.00     0.160 HD
HETATM    5  C6  UNL     1     132.537   6.818  75.057  1.00  0.00     0.189 C 
HETATM    6  C7  UNL     1     132.537   5.855  73.864  1.00  0.00     0.210 C 
HETATM    7  N9  UNL     1     132.405   6.665  72.681  1.00  0.00    -0.321 N 
ATOM      8  H9  UNL     1     133.241   6.708  72.097  1.00  0.00     0.166 HD
HETATM    9  C8  UNL     1     131.314   7.404  72.202  1.00  0.00     0.238 C 
HETATM   10  O2  UNL     1     131.562   8.462  71.525  1.00  0.00    -0.272 OA
HETATM   11  C9  UNL     1     129.862   7.170  72.343  1.00  0.00     0.227 C 
HETATM   12  N10 UNL     1     129.488   6.242  73.357  1.00  0.00    -0.328 N 
ATOM     13  H10 UNL     1     128.542   6.392  73.709  1.00  0.00     0.165 HD
HETATM   14  C10 UNL     1     130.151   5.154  73.983  1.00  0.00     0.363 C 
HETATM   15  O3  UNL     1     129.440   4.311  74.607  1.00  0.00    -0.238 OA
HETATM   16  O4  UNL     1     131.512   4.912  73.982  1.00  0.00    -0.264 OA
ENDROOT
BRANCH   2  17
HETATM   17  C3  UNL     1     136.091   5.966  74.942  1.00  0.00     0.288 C 
HETATM   18  O1  UNL     1     136.568   4.882  75.340  1.00  0.00    -0.264 OA
HETATM   19  N3  UNL     1     137.005   7.065  74.822  1.00  0.00    -0.262 N 
ATOM     20  H3  UNL     1     136.659   7.971  74.508  1.00  0.00     0.190 HD
BRANCH  19  21
HETATM   21  N4  UNL     1     138.364   6.918  75.128  1.00  0.00    -0.267 N 
ATOM     22  H4  UNL     1     139.050   6.703  74.405  1.00  0.00     0.190 HD
BRANCH  21  23
HETATM   23  C4  UNL     1     138.750   7.080  76.489  1.00  0.00     0.207 C 
HETATM   24  N5  UNL     1     137.985   6.952  77.493  1.00  0.00    -0.345 N 
HETATM   25  C5  UNL     1     138.705   7.184  78.719  1.00  0.00     0.259 C 
ATOM     26  H5  UNL     1     136.995   6.717  77.439  1.00  0.00     0.164 HD
HETATM   27  N6  UNL     1     140.000   7.743  78.317  1.00  0.00    -0.119 NA
HETATM   28  N7  UNL     1     140.069   7.413  76.963  1.00  0.00    -0.273 N 
ATOM     29  H7  UNL     1     140.919   7.409  76.399  1.00  0.00     0.185 HD
ENDBRANCH  21  23
ENDBRANCH  19  21
ENDBRANCH   2  17
BRANCH   1  30
HETATM   30  N2  UNL     1     134.256   4.010  73.429  1.00  0.00    -0.304 N 
ATOM     31  H2  UNL     1     134.409   3.959  72.422  1.00  0.00     0.186 HD
BRANCH  30  32
HETATM   32  N1  UNL     1     134.424   2.834  74.168  1.00  0.00    -0.345 N 
ATOM     33  H12 UNL     1     135.148   2.193  73.843  1.00  0.00     0.176 HD
ATOM     34  H11 UNL     1     133.882   2.579  74.994  1.00  0.00     0.176 HD
ENDBRANCH  30  32
ENDBRANCH   1  30
TORSDOF 5
ENDMDL
MODEL 5
REMARK VINA RESULT: -8.852574130      2.679      3.385
REMARK  5 active torsions:
REMARK  status: ('A' for Active; 'I' for Inactive)
REMARK    1  A    between atoms: N1_1  and  N2_4 
REMARK    2  A    between atoms: N2_4  and  C1_6 
REMARK    3  A    between atoms: C2_7  and  C3_8 
REMARK       I    between atoms: C3_8  and  N3_10 
REMARK    4  A    between atoms: N3_10  and  N4_12 
REMARK    5  A    between atoms: N4_12  and  C4_14 
ROOT
HETATM    1  C1  UNL     1     134.653   6.423  73.332  1.00  0.00     0.115 C 
HETATM    2  C2  UNL     1     134.672   5.305  74.028  1.00  0.00     0.127 C 
HETATM    3  N8  UNL     1     133.470   4.559  73.748  1.00  0.00    -0.379 N 
ATOM      4  H8  UNL     1     133.031   3.854  74.341  1.00  0.00     0.160 HD
HETATM    5  C6  UNL     1     133.014   5.015  72.455  1.00  0.00     0.189 C 
HETATM    6  C7  UNL     1     133.388   6.498  72.564  1.00  0.00     0.210 C 
HETATM    7  N9  UNL     1     132.344   7.131  73.328  1.00  0.00    -0.321 N 
ATOM      8  H9  UNL     1     132.621   7.435  74.262  1.00  0.00     0.166 HD
HETATM    9  C8  UNL     1     131.008   7.398  72.994  1.00  0.00     0.238 C 
HETATM   10  O2  UNL     1     130.147   7.403  73.942  1.00  0.00    -0.272 OA
HETATM   11  C9  UNL     1     130.387   7.689  71.686  1.00  0.00     0.227 C 
HETATM   12  N10 UNL     1     131.176   7.361  70.548  1.00  0.00    -0.328 N 
ATOM     13  H10 UNL     1     130.620   7.183  69.711  1.00  0.00     0.165 HD
HETATM   14  C10 UNL     1     132.572   7.228  70.328  1.00  0.00     0.363 C 
HETATM   15  O3  UNL     1     132.986   7.258  69.130  1.00  0.00    -0.238 OA
HETATM   16  O4  UNL     1     133.544   7.069  71.298  1.00  0.00    -0.264 OA
ENDROOT
BRANCH   2  17
HETATM   17  C3  UNL     1     135.685   4.804  74.943  1.00  0.00     0.288 C 
HETATM   18  O1  UNL     1     136.069   3.616  74.898  1.00  0.00    -0.264 OA
HETATM   19  N3  UNL     1     136.296   5.640  75.936  1.00  0.00    -0.262 N 
ATOM     20  H3  UNL     1     136.009   6.615  76.014  1.00  0.00     0.190 HD
BRANCH  19  21
HETATM   21  N4  UNL     1     137.280   5.143  76.800  1.00  0.00    -0.267 N 
ATOM     22  H4  UNL     1     137.385   4.142  76.964  1.00  0.00     0.190 HD
BRANCH  21  23
HETATM   23  C4  UNL     1     138.128   6.090  77.441  1.00  0.00     0.207 C 
HETATM   24  N5  UNL     1     139.082   6.718  76.889  1.00  0.00    -0.345 N 
HETATM   25  C5  UNL     1     139.728   7.598  77.828  1.00  0.00     0.259 C 
ATOM     26  H5  UNL     1     139.354   6.614  75.912  1.00  0.00     0.164 HD
HETATM   27  N6  UNL     1     139.196   7.231  79.144  1.00  0.00    -0.119 NA
HETATM   28  N7  UNL     1     138.051   6.503  78.819  1.00  0.00    -0.273 N 
ATOM     29  H7  UNL     1     137.283   6.295  79.456  1.00  0.00     0.185 HD
ENDBRANCH  21  23
ENDBRANCH  19  21
ENDBRANCH   2  17
BRANCH   1  30
HETATM   30  N2  UNL     1     135.653   7.419  73.318  1.00  0.00    -0.304 N 
ATOM     31  H2  UNL     1     136.544   7.198  73.762  1.00  0.00     0.186 HD
BRANCH  30  32
HETATM   32  N1  UNL     1     135.516   8.687  72.742  1.00  0.00    -0.345 N 
ATOM     33  H12 UNL     1     134.935   8.745  71.906  1.00  0.00     0.176 HD
ATOM     34  H11 UNL     1     135.950   9.541  73.094  1.00  0.00     0.176 HD
ENDBRANCH  30  32
ENDBRANCH   1  30
TORSDOF 5
ENDMDL
