MODEL 1
REMARK VINA RESULT: -6.828607629      0.000      0.000
REMARK  7 active torsions:
REMARK  status: ('A' for Active; 'I' for Inactive)
REMARK    1  A    between atoms: O1_2  and  N1_3 
REMARK    2  A    between atoms: N1_3  and  C2_4 
REMARK    3  A    between atoms: C2_4  and  C3_5 
REMARK    4  A    between atoms: C2_4  and  C13_20 
REMARK    5  A    between atoms: C3_5  and  O2_6 
REMARK    6  A    between atoms: C3_5  and  N2_8 
REMARK    7  A    between atoms: C15_26  and  O4_27 
ROOT
HETATM    1  C3  UNL     1      19.540 -35.501  -9.546  1.00  0.00     0.142 C 
ENDROOT
BRANCH   1   2
HETATM    2  C2  UNL     1      19.884 -35.468  -8.145  1.00  0.00     0.225 C 
BRANCH   2   3
HETATM    3  N1  UNL     1      19.653 -34.073  -7.601  1.00  0.00    -0.083 NA
BRANCH   3   4
HETATM    4  O1  UNL     1      18.374 -33.800  -7.844  1.00  0.00    -0.290 OA
HETATM    5  C1  UNL     1      17.611 -33.728  -6.678  1.00  0.00     0.231 C 
ENDBRANCH   3   4
ENDBRANCH   2   3
BRANCH   2   6
HETATM    6  C13 UNL     1      21.383 -35.565  -7.891  1.00  0.00     0.068 A 
HETATM    7  S1  UNL     1      22.259 -36.833  -7.143  1.00  0.00    -0.027 SA
HETATM    8  C14 UNL     1      23.818 -36.163  -7.266  1.00  0.00     0.290 A 
HETATM    9  O3  UNL     1      24.942 -36.644  -6.876  1.00  0.00    -0.260 OA
HETATM   10  N3  UNL     1      23.603 -35.003  -7.871  1.00  0.00    -0.297 N 
HETATM   11  C15 UNL     1      22.375 -34.676  -8.199  1.00  0.00     0.159 A 
ATOM     12  H3  UNL     1      24.379 -34.374  -8.079  1.00  0.00     0.171 HD
BRANCH  11  13
HETATM   13  O4  UNL     1      22.076 -33.434  -8.851  1.00  0.00    -0.345 OA
ATOM     14  H4  UNL     1      22.452 -33.224  -9.699  1.00  0.00     0.219 HD
ENDBRANCH  11  13
ENDBRANCH   2   6
ENDBRANCH   1   2
BRANCH   1  15
HETATM   15  O2  UNL     1      19.789 -34.395 -10.189  1.00  0.00    -0.348 OA
ATOM     16  H2  UNL     1      19.720 -34.465 -11.134  1.00  0.00     0.219 HD
ENDBRANCH   1  15
BRANCH   1  17
HETATM   17  N2  UNL     1      18.976 -36.530 -10.358  1.00  0.00    -0.346 N 
HETATM   18  C4  UNL     1      17.492 -36.571 -10.349  1.00  0.00     0.032 C 
HETATM   19  C5  UNL     1      16.989 -35.179 -10.789  1.00  0.00     0.038 C 
HETATM   20  C6  UNL     1      17.001 -36.755  -8.929  1.00  0.00     0.038 C 
HETATM   21  C7  UNL     1      16.886 -37.577 -11.249  1.00  0.00     0.091 C 
HETATM   22  C8  UNL     1      17.536 -38.928 -11.209  1.00  0.00     0.183 C 
HETATM   23  F1  UNL     1      17.403 -39.486 -12.463  1.00  0.00    -0.225 F 
HETATM   24 CL1  UNL     1      16.665 -39.985 -10.072  1.00  0.00    -0.083 Cl
HETATM   25  C9  UNL     1      18.965 -38.876 -10.836  1.00  0.00     0.091 C 
HETATM   26  C10 UNL     1      19.630 -37.517 -11.125  1.00  0.00     0.032 C 
HETATM   27  C11 UNL     1      21.096 -37.741 -10.721  1.00  0.00     0.038 C 
HETATM   28  C12 UNL     1      19.628 -37.306 -12.597  1.00  0.00     0.038 C 
ENDBRANCH   1  17
TORSDOF 7
ENDMDL
MODEL 2
REMARK VINA RESULT: -6.605656835      2.241      3.160
REMARK  7 active torsions:
REMARK  status: ('A' for Active; 'I' for Inactive)
REMARK    1  A    between atoms: O1_2  and  N1_3 
REMARK    2  A    between atoms: N1_3  and  C2_4 
REMARK    3  A    between atoms: C2_4  and  C3_5 
REMARK    4  A    between atoms: C2_4  and  C13_20 
REMARK    5  A    between atoms: C3_5  and  O2_6 
REMARK    6  A    between atoms: C3_5  and  N2_8 
REMARK    7  A    between atoms: C15_26  and  O4_27 
ROOT
HETATM    1  C3  UNL     1      19.670 -34.735  -8.673  1.00  0.00     0.142 C 
ENDROOT
BRANCH   1   2
HETATM    2  C2  UNL     1      20.838 -34.554  -7.844  1.00  0.00     0.225 C 
BRANCH   2   3
HETATM    3  N1  UNL     1      21.783 -33.575  -8.509  1.00  0.00    -0.083 NA
BRANCH   3   4
HETATM    4  O1  UNL     1      21.657 -32.437  -7.830  1.00  0.00    -0.290 OA
HETATM    5  C1  UNL     1      21.143 -31.401  -8.612  1.00  0.00     0.231 C 
ENDBRANCH   3   4
ENDBRANCH   2   3
BRANCH   2   6
HETATM    6  C13 UNL     1      21.753 -35.772  -7.822  1.00  0.00     0.068 A 
HETATM    7  S1  UNL     1      21.328 -37.428  -7.925  1.00  0.00    -0.027 SA
HETATM    8  C14 UNL     1      22.892 -38.091  -7.833  1.00  0.00     0.290 A 
HETATM    9  O3  UNL     1      23.255 -39.323  -7.857  1.00  0.00    -0.260 OA
HETATM   10  N3  UNL     1      23.670 -37.023  -7.727  1.00  0.00    -0.297 N 
HETATM   11  C15 UNL     1      23.115 -35.833  -7.719  1.00  0.00     0.159 A 
ATOM     12  H3  UNL     1      24.682 -37.123  -7.653  1.00  0.00     0.171 HD
BRANCH  11  13
HETATM   13  O4  UNL     1      23.901 -34.639  -7.603  1.00  0.00    -0.345 OA
ATOM     14  H4  UNL     1      23.561 -33.800  -7.893  1.00  0.00     0.219 HD
ENDBRANCH  11  13
ENDBRANCH   2   6
ENDBRANCH   1   2
BRANCH   1  15
HETATM   15  O2  UNL     1      19.719 -34.115  -9.818  1.00  0.00    -0.348 OA
ATOM     16  H2  UNL     1      20.500 -34.295 -10.330  1.00  0.00     0.219 HD
ENDBRANCH   1  15
BRANCH   1  17
HETATM   17  N2  UNL     1      18.467 -35.474  -8.464  1.00  0.00    -0.346 N 
HETATM   18  C4  UNL     1      17.772 -35.161  -7.190  1.00  0.00     0.032 C 
HETATM   19  C5  UNL     1      17.499 -33.641  -7.173  1.00  0.00     0.038 C 
HETATM   20  C6  UNL     1      18.705 -35.424  -6.028  1.00  0.00     0.038 C 
HETATM   21  C7  UNL     1      16.479 -35.855  -6.993  1.00  0.00     0.091 C 
HETATM   22  C8  UNL     1      16.490 -37.313  -7.343  1.00  0.00     0.183 C 
HETATM   23  F1  UNL     1      15.226 -37.638  -7.789  1.00  0.00    -0.225 F 
HETATM   24 CL1  UNL     1      16.794 -38.284  -5.883  1.00  0.00    -0.083 Cl
HETATM   25  C9  UNL     1      17.488 -37.656  -8.378  1.00  0.00     0.091 C 
HETATM   26  C10 UNL     1      17.881 -36.468  -9.275  1.00  0.00     0.032 C 
HETATM   27  C11 UNL     1      18.855 -37.090 -10.289  1.00  0.00     0.038 C 
HETATM   28  C12 UNL     1      16.679 -36.054 -10.047  1.00  0.00     0.038 C 
ENDBRANCH   1  17
TORSDOF 7
ENDMDL
MODEL 3
REMARK VINA RESULT: -6.574690764      1.976      2.365
REMARK  7 active torsions:
REMARK  status: ('A' for Active; 'I' for Inactive)
REMARK    1  A    between atoms: O1_2  and  N1_3 
REMARK    2  A    between atoms: N1_3  and  C2_4 
REMARK    3  A    between atoms: C2_4  and  C3_5 
REMARK    4  A    between atoms: C2_4  and  C13_20 
REMARK    5  A    between atoms: C3_5  and  O2_6 
REMARK    6  A    between atoms: C3_5  and  N2_8 
REMARK    7  A    between atoms: C15_26  and  O4_27 
ROOT
HETATM    1  C3  UNL     1      19.505 -36.343  -9.756  1.00  0.00     0.142 C 
ENDROOT
BRANCH   1   2
HETATM    2  C2  UNL     1      19.967 -35.434  -8.734  1.00  0.00     0.225 C 
BRANCH   2   3
HETATM    3  N1  UNL     1      20.532 -34.189  -9.385  1.00  0.00    -0.083 NA
BRANCH   3   4
HETATM    4  O1  UNL     1      19.549 -33.700 -10.138  1.00  0.00    -0.290 OA
HETATM    5  C1  UNL     1      19.608 -32.311 -10.259  1.00  0.00     0.231 C 
ENDBRANCH   3   4
ENDBRANCH   2   3
BRANCH   2   6
HETATM    6  C13 UNL     1      21.230 -35.914  -8.030  1.00  0.00     0.068 A 
HETATM    7  S1  UNL     1      22.861 -35.533  -8.387  1.00  0.00    -0.027 SA
HETATM    8  C14 UNL     1      23.604 -36.451  -7.162  1.00  0.00     0.290 A 
HETATM    9  O3  UNL     1      24.851 -36.586  -6.892  1.00  0.00    -0.260 OA
HETATM   10  N3  UNL     1      22.577 -37.008  -6.535  1.00  0.00    -0.297 N 
HETATM   11  C15 UNL     1      21.361 -36.751  -6.957  1.00  0.00     0.159 A 
ATOM     12  H3  UNL     1      22.729 -37.626  -5.738  1.00  0.00     0.171 HD
BRANCH  11  13
HETATM   13  O4  UNL     1      20.209 -37.326  -6.324  1.00  0.00    -0.345 OA
ATOM     14  H4  UNL     1      20.296 -38.055  -5.720  1.00  0.00     0.219 HD
ENDBRANCH  11  13
ENDBRANCH   2   6
ENDBRANCH   1   2
BRANCH   1  15
HETATM   15  O2  UNL     1      20.185 -36.299 -10.866  1.00  0.00    -0.348 OA
ATOM     16  H2  UNL     1      20.212 -37.120 -11.345  1.00  0.00     0.219 HD
ENDBRANCH   1  15
BRANCH   1  17
HETATM   17  N2  UNL     1      18.433 -37.286  -9.768  1.00  0.00    -0.346 N 
HETATM   18  C4  UNL     1      17.081 -36.673  -9.773  1.00  0.00     0.032 C 
HETATM   19  C5  UNL     1      17.005 -35.730 -10.994  1.00  0.00     0.038 C 
HETATM   20  C6  UNL     1      16.925 -35.785  -8.557  1.00  0.00     0.038 C 
HETATM   21  C7  UNL     1      15.958 -37.632  -9.871  1.00  0.00     0.091 C 
HETATM   22  C8  UNL     1      16.081 -38.836  -8.987  1.00  0.00     0.183 C 
HETATM   23  F1  UNL     1      15.454 -39.884  -9.628  1.00  0.00    -0.225 F 
HETATM   24 CL1  UNL     1      15.206 -38.559  -7.462  1.00  0.00    -0.083 Cl
HETATM   25  C9  UNL     1      17.483 -39.200  -8.691  1.00  0.00     0.091 C 
HETATM   26  C10 UNL     1      18.488 -38.695  -9.743  1.00  0.00     0.032 C 
HETATM   27  C11 UNL     1      19.834 -39.252  -9.251  1.00  0.00     0.038 C 
HETATM   28  C12 UNL     1      18.194 -39.383 -11.028  1.00  0.00     0.038 C 
ENDBRANCH   1  17
TORSDOF 7
ENDMDL
MODEL 4
REMARK VINA RESULT: -6.452440115      1.354      1.550
REMARK  7 active torsions:
REMARK  status: ('A' for Active; 'I' for Inactive)
REMARK    1  A    between atoms: O1_2  and  N1_3 
REMARK    2  A    between atoms: N1_3  and  C2_4 
REMARK    3  A    between atoms: C2_4  and  C3_5 
REMARK    4  A    between atoms: C2_4  and  C13_20 
REMARK    5  A    between atoms: C3_5  and  O2_6 
REMARK    6  A    between atoms: C3_5  and  N2_8 
REMARK    7  A    between atoms: C15_26  and  O4_27 
ROOT
HETATM    1  C3  UNL     1      19.475 -35.689  -9.629  1.00  0.00     0.142 C 
ENDROOT
BRANCH   1   2
HETATM    2  C2  UNL     1      19.649 -35.859  -8.207  1.00  0.00     0.225 C 
BRANCH   2   3
HETATM    3  N1  UNL     1      19.645 -34.502  -7.532  1.00  0.00    -0.083 NA
BRANCH   3   4
HETATM    4  O1  UNL     1      18.468 -33.957  -7.830  1.00  0.00    -0.290 OA
HETATM    5  C1  UNL     1      17.597 -33.939  -6.740  1.00  0.00     0.231 C 
ENDBRANCH   3   4
ENDBRANCH   2   3
BRANCH   2   6
HETATM    6  C13 UNL     1      21.057 -36.298  -7.823  1.00  0.00     0.068 A 
HETATM    7  S1  UNL     1      22.503 -35.380  -7.839  1.00  0.00    -0.027 SA
HETATM    8  C14 UNL     1      23.567 -36.585  -7.282  1.00  0.00     0.290 A 
HETATM    9  O3  UNL     1      24.832 -36.518  -7.074  1.00  0.00    -0.260 OA
HETATM   10  N3  UNL     1      22.775 -37.633  -7.109  1.00  0.00    -0.297 N 
HETATM   11  C15 UNL     1      21.496 -37.513  -7.376  1.00  0.00     0.159 A 
ATOM     12  H3  UNL     1      23.153 -38.519  -6.773  1.00  0.00     0.171 HD
BRANCH  11  13
HETATM   13  O4  UNL     1      20.588 -38.612  -7.213  1.00  0.00    -0.345 OA
ATOM     14  H4  UNL     1      19.813 -38.529  -6.670  1.00  0.00     0.219 HD
ENDBRANCH  11  13
ENDBRANCH   2   6
ENDBRANCH   1   2
BRANCH   1  15
HETATM   15  O2  UNL     1      20.011 -34.605 -10.114  1.00  0.00    -0.348 OA
ATOM     16  H2  UNL     1      19.469 -33.828 -10.035  1.00  0.00     0.219 HD
ENDBRANCH   1  15
BRANCH   1  17
HETATM   17  N2  UNL     1      18.818 -36.499 -10.604  1.00  0.00    -0.346 N 
HETATM   18  C4  UNL     1      17.360 -36.249 -10.723  1.00  0.00     0.032 C 
HETATM   19  C5  UNL     1      17.171 -34.747 -11.031  1.00  0.00     0.038 C 
HETATM   20  C6  UNL     1      16.697 -36.480  -9.383  1.00  0.00     0.038 C 
HETATM   21  C7  UNL     1      16.676 -37.018 -11.787  1.00  0.00     0.091 C 
HETATM   22  C8  UNL     1      17.057 -38.466 -11.858  1.00  0.00     0.183 C 
HETATM   23  F1  UNL     1      16.955 -38.855 -13.178  1.00  0.00    -0.225 F 
HETATM   24 CL1  UNL     1      15.892 -39.445 -10.935  1.00  0.00    -0.083 Cl
HETATM   25  C9  UNL     1      18.424 -38.734 -11.364  1.00  0.00     0.091 C 
HETATM   26  C10 UNL     1      19.355 -37.509 -11.429  1.00  0.00     0.032 C 
HETATM   27  C11 UNL     1      20.705 -38.056 -10.936  1.00  0.00     0.038 C 
HETATM   28  C12 UNL     1      19.546 -37.150 -12.860  1.00  0.00     0.038 C 
ENDBRANCH   1  17
TORSDOF 7
ENDMDL
MODEL 5
REMARK VINA RESULT: -6.437265726      2.471      3.438
REMARK  7 active torsions:
REMARK  status: ('A' for Active; 'I' for Inactive)
REMARK    1  A    between atoms: O1_2  and  N1_3 
REMARK    2  A    between atoms: N1_3  and  C2_4 
REMARK    3  A    between atoms: C2_4  and  C3_5 
REMARK    4  A    between atoms: C2_4  and  C13_20 
REMARK    5  A    between atoms: C3_5  and  O2_6 
REMARK    6  A    between atoms: C3_5  and  N2_8 
REMARK    7  A    between atoms: C15_26  and  O4_27 
ROOT
HETATM    1  C3  UNL     1      19.623 -35.038  -8.813  1.00  0.00     0.142 C 
ENDROOT
BRANCH   1   2
HETATM    2  C2  UNL     1      20.899 -35.060  -8.139  1.00  0.00     0.225 C 
BRANCH   2   3
HETATM    3  N1  UNL     1      21.848 -34.098  -8.824  1.00  0.00    -0.083 NA
BRANCH   3   4
HETATM    4  O1  UNL     1      21.903 -33.027  -8.036  1.00  0.00    -0.290 OA
HETATM    5  C1  UNL     1      21.322 -31.901  -8.623  1.00  0.00     0.231 C 
ENDBRANCH   3   4
ENDBRANCH   2   3
BRANCH   2   6
HETATM    6  C13 UNL     1      21.678 -36.349  -8.370  1.00  0.00     0.068 A 
HETATM    7  S1  UNL     1      22.183 -37.039  -9.854  1.00  0.00    -0.027 SA
HETATM    8  C14 UNL     1      22.964 -38.417  -9.233  1.00  0.00     0.290 A 
HETATM    9  O3  UNL     1      23.566 -39.361  -9.861  1.00  0.00    -0.260 OA
HETATM   10  N3  UNL     1      22.806 -38.292  -7.923  1.00  0.00    -0.297 N 
HETATM   11  C15 UNL     1      22.156 -37.250  -7.460  1.00  0.00     0.159 A 
ATOM     12  H3  UNL     1      23.183 -38.993  -7.286  1.00  0.00     0.171 HD
BRANCH  11  13
HETATM   13  O4  UNL     1      21.948 -37.059  -6.053  1.00  0.00    -0.345 OA
ATOM     14  H4  UNL     1      22.602 -36.626  -5.516  1.00  0.00     0.219 HD
ENDBRANCH  11  13
ENDBRANCH   2   6
ENDBRANCH   1   2
BRANCH   1  15
HETATM   15  O2  UNL     1      19.582 -34.273  -9.867  1.00  0.00    -0.348 OA
ATOM     16  H2  UNL     1      18.708 -34.003 -10.124  1.00  0.00     0.219 HD
ENDBRANCH   1  15
BRANCH   1  17
HETATM   17  N2  UNL     1      18.394 -35.707  -8.533  1.00  0.00    -0.346 N 
HETATM   18  C4  UNL     1      17.750 -35.292  -7.261  1.00  0.00     0.032 C 
HETATM   19  C5  UNL     1      17.547 -33.763  -7.322  1.00  0.00     0.038 C 
HETATM   20  C6  UNL     1      18.702 -35.536  -6.110  1.00  0.00     0.038 C 
HETATM   21  C7  UNL     1      16.432 -35.913  -6.994  1.00  0.00     0.091 C 
HETATM   22  C8  UNL     1      16.367 -37.386  -7.262  1.00  0.00     0.183 C 
HETATM   23  F1  UNL     1      15.077 -37.676  -7.657  1.00  0.00    -0.225 F 
HETATM   24 CL1  UNL     1      16.666 -38.290  -5.758  1.00  0.00    -0.083 Cl
HETATM   25  C9  UNL     1      17.318 -37.832  -8.301  1.00  0.00     0.091 C 
HETATM   26  C10 UNL     1      17.740 -36.715  -9.273  1.00  0.00     0.032 C 
HETATM   27  C11 UNL     1      18.656 -37.436 -10.275  1.00  0.00     0.038 C 
HETATM   28  C12 UNL     1      16.537 -36.287 -10.036  1.00  0.00     0.038 C 
ENDBRANCH   1  17
TORSDOF 7
ENDMDL
