MODEL 1
REMARK VINA RESULT: -7.688220114      0.000      0.000
REMARK  4 active torsions:
REMARK  status: ('A' for Active; 'I' for Inactive)
REMARK    1  A    between atoms: C2_2  and  N1_4 
REMARK    2  A    between atoms: C5_6  and  C6_7 
REMARK    3  A    between atoms: C6_7  and  C7_8 
REMARK    4  A    between atoms: C13_19  and  C14_20 
ROOT
HETATM    1  C6  UNL     1      21.091 -36.891  -8.911  1.00  0.00     0.143 C 
HETATM    2  N2  UNL     1      21.921 -35.795  -9.281  1.00  0.00    -0.106 NA
HETATM    3  N3  UNL     1      22.880 -35.769  -8.287  1.00  0.00    -0.038 NA
HETATM    4  N4  UNL     1      22.335 -36.268  -7.125  1.00  0.00    -0.117 NA
HETATM    5  C13 UNL     1      20.940 -36.625  -7.455  1.00  0.00     0.166 C 
ENDROOT
BRANCH   1   6
HETATM    6  C5  UNL     1      19.856 -37.050  -9.684  1.00  0.00     0.077 A 
HETATM    7  C4  UNL     1      19.347 -36.297 -10.712  1.00  0.00     0.141 A 
HETATM    8  N1  UNL     1      18.181 -36.817 -11.128  1.00  0.00    -0.283 N 
HETATM    9  N6  UNL     1      17.959 -37.871 -10.382  1.00  0.00    -0.240 N 
HETATM   10  N5  UNL     1      18.933 -38.048  -9.505  1.00  0.00    -0.286 N 
ATOM     11  H6  UNL     1      17.142 -38.475 -10.467  1.00  0.00     0.208 HD
ATOM     12  H5  UNL     1      18.988 -38.798  -8.816  1.00  0.00     0.188 HD
BRANCH   8  13
HETATM   13  C2  UNL     1      17.372 -36.279 -12.190  1.00  0.00     0.101 C 
HETATM   14  C1  UNL     1      15.921 -36.693 -11.923  1.00  0.00     0.034 C 
HETATM   15  C3  UNL     1      17.409 -34.744 -12.160  1.00  0.00     0.034 C 
ENDBRANCH   8  13
ENDBRANCH   1   6
BRANCH   1  16
HETATM   16  C7  UNL     1      21.896 -38.151  -9.058  1.00  0.00    -0.022 A 
HETATM   17  C8  UNL     1      22.547 -38.403 -10.231  1.00  0.00     0.011 A 
HETATM   18  C9  UNL     1      23.295 -39.577 -10.389  1.00  0.00     0.026 A 
HETATM   19  C10 UNL     1      23.387 -40.497  -9.366  1.00  0.00     0.055 A 
HETATM   20 CL1  UNL     1      24.325 -41.989  -9.533  1.00  0.00    -0.083 Cl
HETATM   21  C11 UNL     1      22.718 -40.216  -8.192  1.00  0.00     0.056 A 
HETATM   22 CL2  UNL     1      22.858 -41.419  -6.899  1.00  0.00    -0.083 Cl
HETATM   23  C12 UNL     1      21.974 -39.055  -8.024  1.00  0.00     0.035 A 
ENDBRANCH   1  16
BRANCH   5  24
HETATM   24  C14 UNL     1      20.034 -35.540  -7.075  1.00  0.00    -0.035 A 
HETATM   25  C15 UNL     1      18.767 -35.805  -6.586  1.00  0.00     0.009 A 
HETATM   26  C16 UNL     1      17.910 -34.798  -6.211  1.00  0.00     0.001 A 
HETATM   27  C17 UNL     1      18.305 -33.479  -6.314  1.00  0.00     0.000 A 
HETATM   28  C18 UNL     1      19.555 -33.167  -6.794  1.00  0.00     0.001 A 
HETATM   29  C19 UNL     1      20.400 -34.214  -7.166  1.00  0.00     0.009 A 
ENDBRANCH   5  24
TORSDOF 4
ENDMDL
MODEL 2
REMARK VINA RESULT: -7.569331919      0.582      1.351
REMARK  4 active torsions:
REMARK  status: ('A' for Active; 'I' for Inactive)
REMARK    1  A    between atoms: C2_2  and  N1_4 
REMARK    2  A    between atoms: C5_6  and  C6_7 
REMARK    3  A    between atoms: C6_7  and  C7_8 
REMARK    4  A    between atoms: C13_19  and  C14_20 
ROOT
HETATM    1  C6  UNL     1      21.169 -36.963  -8.864  1.00  0.00     0.143 C 
HETATM    2  N2  UNL     1      22.037 -35.902  -9.252  1.00  0.00    -0.106 NA
HETATM    3  N3  UNL     1      22.994 -35.891  -8.255  1.00  0.00    -0.038 NA
HETATM    4  N4  UNL     1      22.429 -36.349  -7.086  1.00  0.00    -0.117 NA
HETATM    5  C13 UNL     1      21.023 -36.665  -7.414  1.00  0.00     0.166 C 
ENDROOT
BRANCH   1   6
HETATM    6  C5  UNL     1      19.932 -37.093  -9.638  1.00  0.00     0.077 A 
HETATM    7  C4  UNL     1      19.443 -36.331 -10.669  1.00  0.00     0.141 A 
HETATM    8  N1  UNL     1      18.264 -36.824 -11.085  1.00  0.00    -0.283 N 
HETATM    9  N6  UNL     1      18.016 -37.869 -10.337  1.00  0.00    -0.240 N 
HETATM   10  N5  UNL     1      18.984 -38.068  -9.458  1.00  0.00    -0.286 N 
ATOM     11  H6  UNL     1      17.184 -38.453 -10.421  1.00  0.00     0.208 HD
ATOM     12  H5  UNL     1      19.020 -38.817  -8.766  1.00  0.00     0.188 HD
BRANCH   8  13
HETATM   13  C2  UNL     1      17.471 -36.269 -12.151  1.00  0.00     0.101 C 
HETATM   14  C1  UNL     1      16.018 -36.700 -11.919  1.00  0.00     0.034 C 
HETATM   15  C3  UNL     1      17.495 -34.735 -12.087  1.00  0.00     0.034 C 
ENDBRANCH   8  13
ENDBRANCH   1   6
BRANCH   1  16
HETATM   16  C7  UNL     1      21.931 -38.252  -8.986  1.00  0.00    -0.022 A 
HETATM   17  C8  UNL     1      21.942 -39.130  -7.941  1.00  0.00     0.011 A 
HETATM   18  C9  UNL     1      22.655 -40.333  -8.034  1.00  0.00     0.026 A 
HETATM   19  C10 UNL     1      23.356 -40.650  -9.177  1.00  0.00     0.055 A 
HETATM   20 CL1  UNL     1      24.266 -42.162  -9.326  1.00  0.00    -0.083 Cl
HETATM   21  C11 UNL     1      23.327 -39.743 -10.217  1.00  0.00     0.056 A 
HETATM   22 CL2  UNL     1      24.239 -40.183 -11.670  1.00  0.00    -0.083 Cl
HETATM   23  C12 UNL     1      22.623 -38.548 -10.137  1.00  0.00     0.035 A 
ENDBRANCH   1  16
BRANCH   5  24
HETATM   24  C14 UNL     1      20.154 -35.542  -7.057  1.00  0.00    -0.035 A 
HETATM   25  C15 UNL     1      18.935 -35.752  -6.435  1.00  0.00     0.009 A 
HETATM   26  C16 UNL     1      18.115 -34.709  -6.081  1.00  0.00     0.001 A 
HETATM   27  C17 UNL     1      18.497 -33.408  -6.339  1.00  0.00     0.000 A 
HETATM   28  C18 UNL     1      19.700 -33.151  -6.954  1.00  0.00     0.001 A 
HETATM   29  C19 UNL     1      20.509 -34.234  -7.302  1.00  0.00     0.009 A 
ENDBRANCH   5  24
TORSDOF 4
ENDMDL
MODEL 3
REMARK VINA RESULT: -7.530091674      0.851      1.235
REMARK  4 active torsions:
REMARK  status: ('A' for Active; 'I' for Inactive)
REMARK    1  A    between atoms: C2_2  and  N1_4 
REMARK    2  A    between atoms: C5_6  and  C6_7 
REMARK    3  A    between atoms: C6_7  and  C7_8 
REMARK    4  A    between atoms: C13_19  and  C14_20 
ROOT
HETATM    1  C6  UNL     1      20.924 -36.970  -8.905  1.00  0.00     0.143 C 
HETATM    2  N2  UNL     1      21.407 -35.951  -9.774  1.00  0.00    -0.106 NA
HETATM    3  N3  UNL     1      22.659 -35.662  -9.266  1.00  0.00    -0.038 NA
HETATM    4  N4  UNL     1      22.661 -35.910  -7.912  1.00  0.00    -0.117 NA
HETATM    5  C13 UNL     1      21.302 -36.390  -7.588  1.00  0.00     0.166 C 
ENDROOT
BRANCH   1   6
HETATM    6  C5  UNL     1      19.520 -37.350  -9.080  1.00  0.00     0.077 A 
HETATM    7  C4  UNL     1      18.561 -36.846  -9.921  1.00  0.00     0.141 A 
HETATM    8  N1  UNL     1      17.404 -37.505  -9.745  1.00  0.00    -0.283 N 
HETATM    9  N6  UNL     1      17.626 -38.401  -8.817  1.00  0.00    -0.240 N 
HETATM   10  N5  UNL     1      18.877 -38.345  -8.390  1.00  0.00    -0.286 N 
ATOM     11  H6  UNL     1      16.927 -39.057  -8.468  1.00  0.00     0.208 HD
ATOM     12  H5  UNL     1      19.291 -38.939  -7.671  1.00  0.00     0.188 HD
BRANCH   8  13
HETATM   13  C2  UNL     1      16.185 -37.236 -10.463  1.00  0.00     0.101 C 
HETATM   14  C1  UNL     1      16.562 -36.501 -11.754  1.00  0.00     0.034 C 
HETATM   15  C3  UNL     1      15.513 -38.552 -10.880  1.00  0.00     0.034 C 
ENDBRANCH   8  13
ENDBRANCH   1   6
BRANCH   1  16
HETATM   16  C7  UNL     1      21.767 -38.196  -9.116  1.00  0.00    -0.022 A 
HETATM   17  C8  UNL     1      22.288 -38.452 -10.352  1.00  0.00     0.011 A 
HETATM   18  C9  UNL     1      23.068 -39.595 -10.570  1.00  0.00     0.026 A 
HETATM   19  C10 UNL     1      23.324 -40.480  -9.544  1.00  0.00     0.055 A 
HETATM   20 CL1  UNL     1      24.306 -41.932  -9.786  1.00  0.00    -0.083 Cl
HETATM   21  C11 UNL     1      22.784 -40.195  -8.305  1.00  0.00     0.056 A 
HETATM   22 CL2  UNL     1      23.132 -41.353  -7.011  1.00  0.00    -0.083 Cl
HETATM   23  C12 UNL     1      22.009 -39.065  -8.078  1.00  0.00     0.035 A 
ENDBRANCH   1  16
BRANCH   5  24
HETATM   24  C14 UNL     1      20.478 -35.286  -7.093  1.00  0.00    -0.035 A 
HETATM   25  C15 UNL     1      19.526 -35.490  -6.109  1.00  0.00     0.009 A 
HETATM   26  C16 UNL     1      18.754 -34.462  -5.625  1.00  0.00     0.001 A 
HETATM   27  C17 UNL     1      18.917 -33.183  -6.117  1.00  0.00     0.000 A 
HETATM   28  C18 UNL     1      19.851 -32.932  -7.094  1.00  0.00     0.001 A 
HETATM   29  C19 UNL     1      20.618 -33.999  -7.565  1.00  0.00     0.009 A 
ENDBRANCH   5  24
TORSDOF 4
ENDMDL
MODEL 4
REMARK VINA RESULT: -7.279978173      1.153      1.443
REMARK  4 active torsions:
REMARK  status: ('A' for Active; 'I' for Inactive)
REMARK    1  A    between atoms: C2_2  and  N1_4 
REMARK    2  A    between atoms: C5_6  and  C6_7 
REMARK    3  A    between atoms: C6_7  and  C7_8 
REMARK    4  A    between atoms: C13_19  and  C14_20 
ROOT
HETATM    1  C6  UNL     1      20.749 -36.713  -9.028  1.00  0.00     0.143 C 
HETATM    2  N2  UNL     1      21.583 -35.576  -9.219  1.00  0.00    -0.106 NA
HETATM    3  N3  UNL     1      22.422 -35.605  -8.122  1.00  0.00    -0.038 NA
HETATM    4  N4  UNL     1      21.764 -36.202  -7.070  1.00  0.00    -0.117 NA
HETATM    5  C13 UNL     1      20.426 -36.561  -7.584  1.00  0.00     0.166 C 
ENDROOT
BRANCH   1   6
HETATM    6  C5  UNL     1      19.614 -36.838  -9.947  1.00  0.00     0.077 A 
HETATM    7  C4  UNL     1      18.755 -37.885 -10.164  1.00  0.00     0.141 A 
HETATM    8  N1  UNL     1      17.854 -37.553 -11.103  1.00  0.00    -0.283 N 
HETATM    9  N6  UNL     1      18.137 -36.328 -11.470  1.00  0.00    -0.240 N 
HETATM   10  N5  UNL     1      19.181 -35.861 -10.807  1.00  0.00    -0.286 N 
ATOM     11  H6  UNL     1      17.620 -35.804 -12.176  1.00  0.00     0.208 HD
ATOM     12  H5  UNL     1      19.593 -34.934 -10.916  1.00  0.00     0.188 HD
BRANCH   8  13
HETATM   13  C2  UNL     1      16.804 -38.416 -11.578  1.00  0.00     0.101 C 
HETATM   14  C1  UNL     1      17.278 -39.863 -11.401  1.00  0.00     0.034 C 
HETATM   15  C3  UNL     1      15.548 -38.250 -10.710  1.00  0.00     0.034 C 
ENDBRANCH   8  13
ENDBRANCH   1   6
BRANCH   1  16
HETATM   16  C7  UNL     1      21.601 -37.942  -9.173  1.00  0.00    -0.022 A 
HETATM   17  C8  UNL     1      22.387 -38.091 -10.279  1.00  0.00     0.011 A 
HETATM   18  C9  UNL     1      23.182 -39.235 -10.435  1.00  0.00     0.026 A 
HETATM   19  C10 UNL     1      23.185 -40.227  -9.478  1.00  0.00     0.055 A 
HETATM   20 CL1  UNL     1      24.178 -41.682  -9.645  1.00  0.00    -0.083 Cl
HETATM   21  C11 UNL     1      22.380 -40.049  -8.370  1.00  0.00     0.056 A 
HETATM   22 CL2  UNL     1      22.408 -41.343  -7.162  1.00  0.00    -0.083 Cl
HETATM   23  C12 UNL     1      21.589 -38.919  -8.205  1.00  0.00     0.035 A 
ENDBRANCH   1  16
BRANCH   5  24
HETATM   24  C14 UNL     1      19.453 -35.526  -7.232  1.00  0.00    -0.035 A 
HETATM   25  C15 UNL     1      18.092 -35.753  -7.356  1.00  0.00     0.009 A 
HETATM   26  C16 UNL     1      17.166 -34.797  -7.016  1.00  0.00     0.001 A 
HETATM   27  C17 UNL     1      17.579 -33.572  -6.534  1.00  0.00     0.000 A 
HETATM   28  C18 UNL     1      18.920 -33.301  -6.393  1.00  0.00     0.001 A 
HETATM   29  C19 UNL     1      19.835 -34.294  -6.748  1.00  0.00     0.009 A 
ENDBRANCH   5  24
TORSDOF 4
ENDMDL
MODEL 5
REMARK VINA RESULT: -7.253423778      3.038      5.589
REMARK  4 active torsions:
REMARK  status: ('A' for Active; 'I' for Inactive)
REMARK    1  A    between atoms: C2_2  and  N1_4 
REMARK    2  A    between atoms: C5_6  and  C6_7 
REMARK    3  A    between atoms: C6_7  and  C7_8 
REMARK    4  A    between atoms: C13_19  and  C14_20 
ROOT
HETATM    1  C6  UNL     1      21.306 -37.332  -8.309  1.00  0.00     0.143 C 
HETATM    2  N2  UNL     1      21.402 -37.911  -7.012  1.00  0.00    -0.106 NA
HETATM    3  N3  UNL     1      22.632 -37.477  -6.557  1.00  0.00    -0.038 NA
HETATM    4  N4  UNL     1      23.467 -37.286  -7.636  1.00  0.00    -0.117 NA
HETATM    5  C13 UNL     1      22.667 -37.629  -8.829  1.00  0.00     0.166 C 
ENDROOT
BRANCH   1   6
HETATM    6  C5  UNL     1      20.175 -37.777  -9.127  1.00  0.00     0.077 A 
HETATM    7  C4  UNL     1      19.791 -37.407 -10.391  1.00  0.00     0.141 A 
HETATM    8  N1  UNL     1      18.686 -38.082 -10.751  1.00  0.00    -0.283 N 
HETATM    9  N6  UNL     1      18.382 -38.858  -9.741  1.00  0.00    -0.240 N 
HETATM   10  N5  UNL     1      19.243 -38.709  -8.749  1.00  0.00    -0.286 N 
ATOM     11  H6  UNL     1      17.584 -39.493  -9.723  1.00  0.00     0.208 HD
ATOM     12  H5  UNL     1      19.218 -39.203  -7.856  1.00  0.00     0.188 HD
BRANCH   8  13
HETATM   13  C2  UNL     1      18.009 -37.938 -12.014  1.00  0.00     0.101 C 
HETATM   14  C1  UNL     1      17.160 -36.665 -11.942  1.00  0.00     0.034 C 
HETATM   15  C3  UNL     1      19.030 -37.729 -13.142  1.00  0.00     0.034 C 
ENDBRANCH   8  13
ENDBRANCH   1   6
BRANCH   1  16
HETATM   16  C7  UNL     1      21.202 -35.842  -8.144  1.00  0.00    -0.022 A 
HETATM   17  C8  UNL     1      22.061 -35.026  -8.821  1.00  0.00     0.011 A 
HETATM   18  C9  UNL     1      21.985 -33.635  -8.672  1.00  0.00     0.026 A 
HETATM   19  C10 UNL     1      21.043 -33.066  -7.842  1.00  0.00     0.055 A 
HETATM   20 CL1  UNL     1      20.919 -31.313  -7.633  1.00  0.00    -0.083 Cl
HETATM   21  C11 UNL     1      20.187 -33.916  -7.170  1.00  0.00     0.056 A 
HETATM   22 CL2  UNL     1      18.990 -33.151  -6.112  1.00  0.00    -0.083 Cl
HETATM   23  C12 UNL     1      20.254 -35.296  -7.310  1.00  0.00     0.035 A 
ENDBRANCH   1  16
BRANCH   5  24
HETATM   24  C14 UNL     1      22.929 -39.011  -9.236  1.00  0.00    -0.035 A 
HETATM   25  C15 UNL     1      23.167 -39.333 -10.562  1.00  0.00     0.009 A 
HETATM   26  C16 UNL     1      23.429 -40.623 -10.957  1.00  0.00     0.001 A 
HETATM   27  C17 UNL     1      23.462 -41.640 -10.025  1.00  0.00     0.000 A 
HETATM   28  C18 UNL     1      23.232 -41.368  -8.696  1.00  0.00     0.001 A 
HETATM   29  C19 UNL     1      22.969 -40.047  -8.329  1.00  0.00     0.009 A 
ENDBRANCH   5  24
TORSDOF 4
ENDMDL
