MODEL 1
REMARK VINA RESULT: -7.552138997      0.000      0.000
REMARK  8 active torsions:
REMARK  status: ('A' for Active; 'I' for Inactive)
REMARK    1  A    between atoms: C2_2  and  S1_5 
REMARK    2  A    between atoms: S1_5  and  C5_6 
REMARK    3  A    between atoms: C5_6  and  C6_7 
REMARK    4  A    between atoms: C7_9  and  O2_10 
REMARK    5  A    between atoms: O2_10  and  C8_11 
REMARK    6  A    between atoms: C14_19  and  O3_20 
REMARK    7  A    between atoms: C15_22  and  O4_23 
REMARK    8  A    between atoms: C16_25  and  O5_26 
ROOT
HETATM    1  C6  UNL     1      20.855 -25.844  -7.669  1.00  0.00     0.165 C 
HETATM    2  O1  UNL     1      21.827 -25.574  -8.629  1.00  0.00    -0.349 OA
HETATM    3  C7  UNL     1      21.800 -24.199  -8.843  1.00  0.00     0.298 C 
HETATM    4  C14 UNL     1      20.417 -23.634  -9.016  1.00  0.00     0.205 C 
HETATM    5  C15 UNL     1      19.341 -24.657  -9.209  1.00  0.00     0.183 C 
HETATM    6  C16 UNL     1      19.538 -25.910  -8.410  1.00  0.00     0.179 C 
ENDROOT
BRANCH   3   7
HETATM    7  O2  UNL     1      22.453 -23.607  -7.752  1.00  0.00    -0.316 OA
BRANCH   7   8
HETATM    8  C8  UNL     1      23.567 -22.801  -7.784  1.00  0.00     0.095 A 
HETATM    9  C9  UNL     1      23.720 -21.666  -8.537  1.00  0.00     0.039 A 
HETATM   10  C10 UNL     1      24.874 -20.892  -8.524  1.00  0.00     0.005 A 
HETATM   11  C11 UNL     1      25.924 -21.280  -7.714  1.00  0.00     0.026 A 
HETATM   12  C12 UNL     1      25.813 -22.424  -6.935  1.00  0.00     0.058 A 
HETATM   13 CL1  UNL     1      27.181 -22.873  -5.921  1.00  0.00    -0.082 Cl
HETATM   14  C13 UNL     1      24.665 -23.145  -6.983  1.00  0.00     0.089 A 
HETATM   15 CL2  UNL     1      24.542 -24.585  -5.990  1.00  0.00    -0.080 Cl
ENDBRANCH   7   8
ENDBRANCH   3   7
BRANCH   4  16
HETATM   16  O3  UNL     1      20.452 -22.745 -10.091  1.00  0.00    -0.388 OA
ATOM     17  H3  UNL     1      19.696 -22.174 -10.020  1.00  0.00     0.210 HD
ENDBRANCH   4  16
BRANCH   1  18
HETATM   18  C5  UNL     1      21.134 -27.118  -6.916  1.00  0.00     0.109 C 
BRANCH  18  19
HETATM   19  S1  UNL     1      22.481 -28.071  -7.658  1.00  0.00    -0.158 SA
BRANCH  19  20
HETATM   20  C2  UNL     1      21.726 -29.368  -8.676  1.00  0.00    -0.003 C 
HETATM   21  C1  UNL     1      22.668 -30.541  -8.855  1.00  0.00     0.026 C 
HETATM   22  C3  UNL     1      21.449 -28.788 -10.044  1.00  0.00     0.026 C 
HETATM   23  C4  UNL     1      20.449 -29.822  -8.041  1.00  0.00     0.026 C 
ENDBRANCH  19  20
ENDBRANCH  18  19
ENDBRANCH   1  18
BRANCH   5  24
HETATM   24  O4  UNL     1      18.113 -24.046  -8.922  1.00  0.00    -0.390 OA
ATOM     25  H4  UNL     1      17.430 -24.560  -9.338  1.00  0.00     0.210 HD
ENDBRANCH   5  24
BRANCH   6  26
HETATM   26  O5  UNL     1      18.530 -26.132  -7.472  1.00  0.00    -0.390 OA
ATOM     27  H5  UNL     1      18.374 -27.068  -7.429  1.00  0.00     0.210 HD
ENDBRANCH   6  26
TORSDOF 8
ENDMDL
MODEL 2
REMARK VINA RESULT: -7.305049707      2.373      3.403
REMARK  8 active torsions:
REMARK  status: ('A' for Active; 'I' for Inactive)
REMARK    1  A    between atoms: C2_2  and  S1_5 
REMARK    2  A    between atoms: S1_5  and  C5_6 
REMARK    3  A    between atoms: C5_6  and  C6_7 
REMARK    4  A    between atoms: C7_9  and  O2_10 
REMARK    5  A    between atoms: O2_10  and  C8_11 
REMARK    6  A    between atoms: C14_19  and  O3_20 
REMARK    7  A    between atoms: C15_22  and  O4_23 
REMARK    8  A    between atoms: C16_25  and  O5_26 
ROOT
HETATM    1  C6  UNL     1      19.850 -25.279  -9.011  1.00  0.00     0.165 C 
HETATM    2  O1  UNL     1      20.026 -23.897  -9.045  1.00  0.00    -0.349 OA
HETATM    3  C7  UNL     1      20.559 -23.537  -7.811  1.00  0.00     0.298 C 
HETATM    4  C14 UNL     1      19.859 -24.162  -6.636  1.00  0.00     0.205 C 
HETATM    5  C15 UNL     1      18.557 -24.828  -6.962  1.00  0.00     0.183 C 
HETATM    6  C16 UNL     1      18.540 -25.519  -8.292  1.00  0.00     0.179 C 
ENDROOT
BRANCH   3   7
HETATM    7  O2  UNL     1      21.915 -23.894  -7.837  1.00  0.00    -0.316 OA
BRANCH   7   8
HETATM    8  C8  UNL     1      22.998 -23.050  -7.923  1.00  0.00     0.095 A 
HETATM    9  C9  UNL     1      23.090 -21.934  -8.713  1.00  0.00     0.039 A 
HETATM   10  C10 UNL     1      24.215 -21.120  -8.755  1.00  0.00     0.005 A 
HETATM   11  C11 UNL     1      25.300 -21.446  -7.963  1.00  0.00     0.026 A 
HETATM   12  C12 UNL     1      25.250 -22.568  -7.147  1.00  0.00     0.058 A 
HETATM   13 CL1  UNL     1      26.660 -22.938  -6.159  1.00  0.00    -0.082 Cl
HETATM   14  C13 UNL     1      24.128 -23.330  -7.143  1.00  0.00     0.089 A 
HETATM   15 CL2  UNL     1      24.084 -24.743  -6.104  1.00  0.00    -0.080 Cl
ENDBRANCH   7   8
ENDBRANCH   3   7
BRANCH   4  16
HETATM   16  O3  UNL     1      19.678 -23.170  -5.671  1.00  0.00    -0.388 OA
ATOM     17  H3  UNL     1      19.462 -23.599  -4.851  1.00  0.00     0.210 HD
ENDBRANCH   4  16
BRANCH   1  18
HETATM   18  C5  UNL     1      19.847 -25.887 -10.388  1.00  0.00     0.109 C 
BRANCH  18  19
HETATM   19  S1  UNL     1      21.458 -25.755 -11.201  1.00  0.00    -0.158 SA
BRANCH  19  20
HETATM   20  C2  UNL     1      21.266 -24.614 -12.596  1.00  0.00    -0.003 C 
HETATM   21  C1  UNL     1      22.356 -24.821 -13.627  1.00  0.00     0.026 C 
HETATM   22  C3  UNL     1      21.395 -23.203 -12.069  1.00  0.00     0.026 C 
HETATM   23  C4  UNL     1      19.919 -24.809 -13.220  1.00  0.00     0.026 C 
ENDBRANCH  19  20
ENDBRANCH  18  19
ENDBRANCH   1  18
BRANCH   5  24
HETATM   24  O4  UNL     1      18.252 -25.707  -5.916  1.00  0.00    -0.390 OA
ATOM     25  H4  UNL     1      17.518 -26.243  -6.192  1.00  0.00     0.210 HD
ENDBRANCH   5  24
BRANCH   6  26
HETATM   26  O5  UNL     1      18.353 -26.897  -8.196  1.00  0.00    -0.390 OA
ATOM     27  H5  UNL     1      18.665 -27.290  -9.003  1.00  0.00     0.210 HD
ENDBRANCH   6  26
TORSDOF 8
ENDMDL
MODEL 3
REMARK VINA RESULT: -7.300222717      2.795      3.950
REMARK  8 active torsions:
REMARK  status: ('A' for Active; 'I' for Inactive)
REMARK    1  A    between atoms: C2_2  and  S1_5 
REMARK    2  A    between atoms: S1_5  and  C5_6 
REMARK    3  A    between atoms: C5_6  and  C6_7 
REMARK    4  A    between atoms: C7_9  and  O2_10 
REMARK    5  A    between atoms: O2_10  and  C8_11 
REMARK    6  A    between atoms: C14_19  and  O3_20 
REMARK    7  A    between atoms: C15_22  and  O4_23 
REMARK    8  A    between atoms: C16_25  and  O5_26 
ROOT
HETATM    1  C6  UNL     1      17.406 -26.768  -8.689  1.00  0.00     0.165 C 
HETATM    2  O1  UNL     1      18.110 -25.669  -9.178  1.00  0.00    -0.349 OA
HETATM    3  C7  UNL     1      17.926 -24.642  -8.257  1.00  0.00     0.298 C 
HETATM    4  C14 UNL     1      16.499 -24.465  -7.814  1.00  0.00     0.205 C 
HETATM    5  C15 UNL     1      15.492 -25.217  -8.628  1.00  0.00     0.183 C 
HETATM    6  C16 UNL     1      15.964 -26.560  -9.098  1.00  0.00     0.179 C 
ENDROOT
BRANCH   3   7
HETATM    7  O2  UNL     1      18.761 -24.922  -7.166  1.00  0.00    -0.316 OA
BRANCH   7   8
HETATM    8  C8  UNL     1      20.127 -24.778  -7.103  1.00  0.00     0.095 A 
HETATM    9  C9  UNL     1      20.837 -23.655  -7.441  1.00  0.00     0.039 A 
HETATM   10  C10 UNL     1      22.221 -23.573  -7.353  1.00  0.00     0.005 A 
HETATM   11  C11 UNL     1      22.924 -24.674  -6.904  1.00  0.00     0.026 A 
HETATM   12  C12 UNL     1      22.246 -25.833  -6.551  1.00  0.00     0.058 A 
HETATM   13 CL1  UNL     1      23.191 -27.207  -5.984  1.00  0.00    -0.082 Cl
HETATM   14  C13 UNL     1      20.894 -25.862  -6.654  1.00  0.00     0.089 A 
HETATM   15 CL2  UNL     1      20.055 -27.334  -6.201  1.00  0.00    -0.080 Cl
ENDBRANCH   7   8
ENDBRANCH   3   7
BRANCH   4  16
HETATM   16  O3  UNL     1      16.218 -23.098  -7.820  1.00  0.00    -0.388 OA
ATOM     17  H3  UNL     1      15.276 -22.996  -7.895  1.00  0.00     0.210 HD
ENDBRANCH   4  16
BRANCH   1  18
HETATM   18  C5  UNL     1      17.949 -28.071  -9.212  1.00  0.00     0.109 C 
BRANCH  18  19
HETATM   19  S1  UNL     1      19.578 -27.878  -9.977  1.00  0.00    -0.158 SA
BRANCH  19  20
HETATM   20  C2  UNL     1      20.574 -29.313  -9.491  1.00  0.00    -0.003 C 
HETATM   21  C1  UNL     1      21.935 -28.887  -8.981  1.00  0.00     0.026 C 
HETATM   22  C3  UNL     1      20.791 -30.169 -10.718  1.00  0.00     0.026 C 
HETATM   23  C4  UNL     1      19.848 -30.094  -8.440  1.00  0.00     0.026 C 
ENDBRANCH  19  20
ENDBRANCH  18  19
ENDBRANCH   1  18
BRANCH   5  24
HETATM   24  O4  UNL     1      14.317 -25.315  -7.872  1.00  0.00    -0.390 OA
ATOM     25  H4  UNL     1      13.791 -26.014  -8.243  1.00  0.00     0.210 HD
ENDBRANCH   5  24
BRANCH   6  26
HETATM   26  O5  UNL     1      15.218 -27.619  -8.584  1.00  0.00    -0.390 OA
ATOM     27  H5  UNL     1      15.105 -27.470  -7.652  1.00  0.00     0.210 HD
ENDBRANCH   6  26
TORSDOF 8
ENDMDL
MODEL 4
REMARK VINA RESULT: -7.217272368      1.336      1.788
REMARK  8 active torsions:
REMARK  status: ('A' for Active; 'I' for Inactive)
REMARK    1  A    between atoms: C2_2  and  S1_5 
REMARK    2  A    between atoms: S1_5  and  C5_6 
REMARK    3  A    between atoms: C5_6  and  C6_7 
REMARK    4  A    between atoms: C7_9  and  O2_10 
REMARK    5  A    between atoms: O2_10  and  C8_11 
REMARK    6  A    between atoms: C14_19  and  O3_20 
REMARK    7  A    between atoms: C15_22  and  O4_23 
REMARK    8  A    between atoms: C16_25  and  O5_26 
ROOT
HETATM    1  C6  UNL     1      20.679 -25.902  -8.669  1.00  0.00     0.165 C 
HETATM    2  O1  UNL     1      20.797 -24.549  -8.981  1.00  0.00    -0.349 OA
HETATM    3  C7  UNL     1      20.991 -23.881  -7.775  1.00  0.00     0.298 C 
HETATM    4  C14 UNL     1      20.049 -24.306  -6.682  1.00  0.00     0.205 C 
HETATM    5  C15 UNL     1      18.899 -25.151  -7.138  1.00  0.00     0.183 C 
HETATM    6  C16 UNL     1      19.244 -26.110  -8.238  1.00  0.00     0.179 C 
ENDROOT
BRANCH   3   7
HETATM    7  O2  UNL     1      22.325 -24.099  -7.402  1.00  0.00    -0.316 OA
BRANCH   7   8
HETATM    8  C8  UNL     1      23.381 -23.226  -7.531  1.00  0.00     0.095 A 
HETATM    9  C9  UNL     1      23.414 -22.115  -8.332  1.00  0.00     0.039 A 
HETATM   10  C10 UNL     1      24.514 -21.270  -8.417  1.00  0.00     0.005 A 
HETATM   11  C11 UNL     1      25.634 -21.560  -7.661  1.00  0.00     0.026 A 
HETATM   12  C12 UNL     1      25.643 -22.676  -6.836  1.00  0.00     0.058 A 
HETATM   13 CL1  UNL     1      27.096 -22.998  -5.893  1.00  0.00    -0.082 Cl
HETATM   14  C13 UNL     1      24.544 -23.469  -6.787  1.00  0.00     0.089 A 
HETATM   15 CL2  UNL     1      24.574 -24.874  -5.738  1.00  0.00    -0.080 Cl
ENDBRANCH   7   8
ENDBRANCH   3   7
BRANCH   4  16
HETATM   16  O3  UNL     1      19.590 -23.152  -6.044  1.00  0.00    -0.388 OA
ATOM     17  H3  UNL     1      19.774 -22.413  -6.613  1.00  0.00     0.210 HD
ENDBRANCH   4  16
BRANCH   1  18
HETATM   18  C5  UNL     1      21.045 -26.789  -9.829  1.00  0.00     0.109 C 
BRANCH  18  19
HETATM   19  S1  UNL     1      22.264 -28.047  -9.373  1.00  0.00    -0.158 SA
BRANCH  19  20
HETATM   20  C2  UNL     1      21.547 -29.662  -9.778  1.00  0.00    -0.003 C 
HETATM   21  C1  UNL     1      21.053 -30.369  -8.533  1.00  0.00     0.026 C 
HETATM   22  C3  UNL     1      22.633 -30.517 -10.390  1.00  0.00     0.026 C 
HETATM   23  C4  UNL     1      20.423 -29.482 -10.751  1.00  0.00     0.026 C 
ENDBRANCH  19  20
ENDBRANCH  18  19
ENDBRANCH   1  18
BRANCH   5  24
HETATM   24  O4  UNL     1      18.382 -25.811  -6.017  1.00  0.00    -0.390 OA
ATOM     25  H4  UNL     1      17.689 -26.389  -6.314  1.00  0.00     0.210 HD
ENDBRANCH   5  24
BRANCH   6  26
HETATM   26  O5  UNL     1      19.099 -27.447  -7.870  1.00  0.00    -0.390 OA
ATOM     27  H5  UNL     1      18.193 -27.582  -7.616  1.00  0.00     0.210 HD
ENDBRANCH   6  26
TORSDOF 8
ENDMDL
MODEL 5
REMARK VINA RESULT: -7.206832186      1.139      1.607
REMARK  8 active torsions:
REMARK  status: ('A' for Active; 'I' for Inactive)
REMARK    1  A    between atoms: C2_2  and  S1_5 
REMARK    2  A    between atoms: S1_5  and  C5_6 
REMARK    3  A    between atoms: C5_6  and  C6_7 
REMARK    4  A    between atoms: C7_9  and  O2_10 
REMARK    5  A    between atoms: O2_10  and  C8_11 
REMARK    6  A    between atoms: C14_19  and  O3_20 
REMARK    7  A    between atoms: C15_22  and  O4_23 
REMARK    8  A    between atoms: C16_25  and  O5_26 
ROOT
HETATM    1  C6  UNL     1      21.061 -26.800  -7.726  1.00  0.00     0.165 C 
HETATM    2  O1  UNL     1      21.402 -26.091  -8.877  1.00  0.00    -0.349 OA
HETATM    3  C7  UNL     1      20.880 -24.811  -8.720  1.00  0.00     0.298 C 
HETATM    4  C14 UNL     1      19.457 -24.785  -8.234  1.00  0.00     0.205 C 
HETATM    5  C15 UNL     1      18.759 -26.109  -8.268  1.00  0.00     0.183 C 
HETATM    6  C16 UNL     1      19.640 -27.274  -7.930  1.00  0.00     0.179 C 
ENDROOT
BRANCH   3   7
HETATM    7  O2  UNL     1      21.728 -24.134  -7.832  1.00  0.00    -0.316 OA
BRANCH   7   8
HETATM    8  C8  UNL     1      22.605 -23.116  -8.128  1.00  0.00     0.095 A 
HETATM    9  C9  UNL     1      22.382 -22.089  -9.007  1.00  0.00     0.039 A 
HETATM   10  C10 UNL     1      23.311 -21.088  -9.262  1.00  0.00     0.005 A 
HETATM   11  C11 UNL     1      24.524 -21.124  -8.600  1.00  0.00     0.026 A 
HETATM   12  C12 UNL     1      24.792 -22.146  -7.701  1.00  0.00     0.058 A 
HETATM   13 CL1  UNL     1      26.353 -22.144  -6.885  1.00  0.00    -0.082 Cl
HETATM   14  C13 UNL     1      23.852 -23.100  -7.487  1.00  0.00     0.089 A 
HETATM   15 CL2  UNL     1      24.209 -24.383  -6.346  1.00  0.00    -0.080 Cl
ENDBRANCH   7   8
ENDBRANCH   3   7
BRANCH   4  16
HETATM   16  O3  UNL     1      18.764 -23.842  -8.994  1.00  0.00    -0.388 OA
ATOM     17  H3  UNL     1      17.924 -23.693  -8.577  1.00  0.00     0.210 HD
ENDBRANCH   4  16
BRANCH   1  18
HETATM   18  C5  UNL     1      21.999 -27.949  -7.465  1.00  0.00     0.109 C 
BRANCH  18  19
HETATM   19  S1  UNL     1      22.773 -28.560  -8.982  1.00  0.00    -0.158 SA
BRANCH  19  20
HETATM   20  C2  UNL     1      21.737 -29.909  -9.610  1.00  0.00    -0.003 C 
HETATM   21  C1  UNL     1      21.080 -30.668  -8.475  1.00  0.00     0.026 C 
HETATM   22  C3  UNL     1      22.628 -30.877 -10.353  1.00  0.00     0.026 C 
HETATM   23  C4  UNL     1      20.697 -29.353 -10.533  1.00  0.00     0.026 C 
ENDBRANCH  19  20
ENDBRANCH  18  19
ENDBRANCH   1  18
BRANCH   5  24
HETATM   24  O4  UNL     1      17.651 -26.031  -7.414  1.00  0.00    -0.390 OA
ATOM     25  H4  UNL     1      17.818 -26.598  -6.669  1.00  0.00     0.210 HD
ENDBRANCH   5  24
BRANCH   6  26
HETATM   26  O5  UNL     1      19.245 -27.949  -6.775  1.00  0.00    -0.390 OA
ATOM     27  H5  UNL     1      18.628 -27.395  -6.312  1.00  0.00     0.210 HD
ENDBRANCH   6  26
TORSDOF 8
ENDMDL
