MODEL 1
REMARK VINA RESULT: -7.447720093      0.000      0.000
REMARK  4 active torsions:
REMARK  status: ('A' for Active; 'I' for Inactive)
REMARK       I    between atoms: N1_2  and  C2_4 
REMARK       I    between atoms: C2_4  and  N2_6 
REMARK    1  A    between atoms: N2_6  and  C3_8 
REMARK    2  A    between atoms: N3_12  and  C7_14 
REMARK    3  A    between atoms: C7_14  and  C8_15 
REMARK    4  A    between atoms: C14_23  and  N5_24 
ROOT
HETATM    1  C3  UNL     1      10.695  35.165  14.780  1.00  0.00     0.123 C 
HETATM    2  C4  UNL     1      10.984  35.488  16.259  1.00  0.00     0.040 C 
HETATM    3  C5  UNL     1      12.368  35.112  16.660  1.00  0.00     0.084 C 
HETATM    4  C6  UNL     1      12.139  34.387  17.938  1.00  0.00     0.073 C 
HETATM    5  N3  UNL     1      12.934  34.306  18.978  1.00  0.00    -0.379 N 
ATOM      6  H3  UNL     1      12.631  33.765  19.788  1.00  0.00     0.160 HD
HETATM    7  N4  UNL     1      10.866  33.759  17.868  1.00  0.00    -0.375 N 
ATOM      8  H4  UNL     1      10.594  32.873  18.294  1.00  0.00     0.161 HD
HETATM    9  C12 UNL     1      10.028  34.638  17.063  1.00  0.00     0.091 C 
HETATM   10  C13 UNL     1       9.279  33.808  16.009  1.00  0.00     0.061 C 
HETATM   11  C14 UNL     1       9.265  34.783  14.849  1.00  0.00     0.215 C 
ENDROOT
BRANCH   1  12
HETATM   12  N2  UNL     1      11.024  36.353  14.070  1.00  0.00    -0.336 N 
HETATM   13  C2  UNL     1      12.175  36.461  13.218  1.00  0.00     0.316 C 
HETATM   14  N1  UNL     1      12.459  37.667  12.534  1.00  0.00    -0.347 N 
HETATM   15  O1  UNL     1      12.962  35.493  13.054  1.00  0.00    -0.247 OA
HETATM   16  C1  UNL     1      13.617  37.764  11.680  1.00  0.00     0.151 C 
ATOM     17  H1  UNL     1      11.841  38.471  12.645  1.00  0.00     0.163 HD
ATOM     18  H2  UNL     1      10.415  37.165  14.172  1.00  0.00     0.164 HD
ENDBRANCH   1  12
BRANCH  11  19
HETATM   19  N5  UNL     1       8.665  34.249  13.674  1.00  0.00    -0.061 N 
HETATM   20  C15 UNL     1       9.671  33.776  12.757  1.00  0.00     0.273 C 
HETATM   21  C16 UNL     1       7.769  33.143  13.929  1.00  0.00     0.263 C 
HETATM   22  C17 UNL     1       7.025  32.797  12.653  1.00  0.00     0.195 C 
HETATM   23  O2  UNL     1       6.218  33.907  12.334  1.00  0.00    -0.388 OA
HETATM   24  C18 UNL     1       7.065  34.915  11.916  1.00  0.00     0.195 C 
HETATM   25  C19 UNL     1       7.989  35.354  12.992  1.00  0.00     0.263 C 
ENDBRANCH  11  19
BRANCH   5  26
HETATM   26  C7  UNL     1      14.216  34.952  19.017  1.00  0.00     0.130 C 
BRANCH  26  27
HETATM   27  C8  UNL     1      14.176  36.203  19.878  1.00  0.00    -0.028 A 
HETATM   28  C9  UNL     1      14.268  37.479  19.069  1.00  0.00     0.016 C 
HETATM   29  C10 UNL     1      13.423  36.241  21.130  1.00  0.00     0.011 A 
HETATM   30  C11 UNL     1      14.924  36.230  21.177  1.00  0.00     0.011 A 
ENDBRANCH  26  27
ENDBRANCH   5  26
TORSDOF 4
ENDMDL
MODEL 2
REMARK VINA RESULT: -7.361356581      0.744      1.237
REMARK  4 active torsions:
REMARK  status: ('A' for Active; 'I' for Inactive)
REMARK       I    between atoms: N1_2  and  C2_4 
REMARK       I    between atoms: C2_4  and  N2_6 
REMARK    1  A    between atoms: N2_6  and  C3_8 
REMARK    2  A    between atoms: N3_12  and  C7_14 
REMARK    3  A    between atoms: C7_14  and  C8_15 
REMARK    4  A    between atoms: C14_23  and  N5_24 
ROOT
HETATM    1  C3  UNL     1      10.903  35.296  14.541  1.00  0.00     0.123 C 
HETATM    2  C4  UNL     1      11.154  35.601  16.031  1.00  0.00     0.040 C 
HETATM    3  C5  UNL     1      12.542  35.260  16.451  1.00  0.00     0.084 C 
HETATM    4  C6  UNL     1      12.312  34.506  17.713  1.00  0.00     0.073 C 
HETATM    5  N3  UNL     1      13.089  34.431  18.766  1.00  0.00    -0.379 N 
ATOM      6  H3  UNL     1      12.788  33.866  19.560  1.00  0.00     0.160 HD
HETATM    7  N4  UNL     1      11.060  33.840  17.607  1.00  0.00    -0.375 N 
ATOM      8  H4  UNL     1      10.808  32.939  18.012  1.00  0.00     0.161 HD
HETATM    9  C12 UNL     1      10.211  34.707  16.802  1.00  0.00     0.091 C 
HETATM   10  C13 UNL     1       9.507  33.874  15.719  1.00  0.00     0.061 C 
HETATM   11  C14 UNL     1       9.485  34.869  14.576  1.00  0.00     0.215 C 
ENDROOT
BRANCH   1  12
HETATM   12  N2  UNL     1      11.208  36.506  13.858  1.00  0.00    -0.336 N 
HETATM   13  C2  UNL     1      12.361  36.659  13.015  1.00  0.00     0.316 C 
HETATM   14  N1  UNL     1      12.620  37.885  12.358  1.00  0.00    -0.347 N 
HETATM   15  O1  UNL     1      13.171  35.713  12.836  1.00  0.00    -0.247 OA
HETATM   16  C1  UNL     1      13.780  38.027  11.513  1.00  0.00     0.151 C 
ATOM     17  H1  UNL     1      11.983  38.672  12.483  1.00  0.00     0.163 HD
ATOM     18  H2  UNL     1      10.580  37.301  13.973  1.00  0.00     0.164 HD
ENDBRANCH   1  12
BRANCH  11  19
HETATM   19  N5  UNL     1       8.923  34.338  13.380  1.00  0.00    -0.061 N 
HETATM   20  C15 UNL     1       8.250  35.370  12.633  1.00  0.00     0.273 C 
HETATM   21  C16 UNL     1       9.897  33.740  12.495  1.00  0.00     0.263 C 
HETATM   22  C17 UNL     1       9.177  33.021  11.370  1.00  0.00     0.195 C 
HETATM   23  O2  UNL     1       8.456  31.961  11.956  1.00  0.00    -0.388 OA
HETATM   24  C18 UNL     1       7.411  32.525  12.661  1.00  0.00     0.195 C 
HETATM   25  C19 UNL     1       7.885  33.385  13.774  1.00  0.00     0.263 C 
ENDBRANCH  11  19
BRANCH   5  26
HETATM   26  C7  UNL     1      14.350  35.115  18.840  1.00  0.00     0.130 C 
BRANCH  26  27
HETATM   27  C8  UNL     1      14.245  36.371  19.690  1.00  0.00    -0.028 A 
HETATM   28  C9  UNL     1      14.249  37.642  18.867  1.00  0.00     0.016 C 
HETATM   29  C10 UNL     1      13.506  36.376  20.950  1.00  0.00     0.011 A 
HETATM   30  C11 UNL     1      15.006  36.457  20.979  1.00  0.00     0.011 A 
ENDBRANCH  26  27
ENDBRANCH   5  26
TORSDOF 4
ENDMDL
MODEL 3
REMARK VINA RESULT: -7.324268939      0.776      1.325
REMARK  4 active torsions:
REMARK  status: ('A' for Active; 'I' for Inactive)
REMARK       I    between atoms: N1_2  and  C2_4 
REMARK       I    between atoms: C2_4  and  N2_6 
REMARK    1  A    between atoms: N2_6  and  C3_8 
REMARK    2  A    between atoms: N3_12  and  C7_14 
REMARK    3  A    between atoms: C7_14  and  C8_15 
REMARK    4  A    between atoms: C14_23  and  N5_24 
ROOT
HETATM    1  C3  UNL     1      10.878  35.215  14.698  1.00  0.00     0.123 C 
HETATM    2  C4  UNL     1      11.121  35.519  16.190  1.00  0.00     0.040 C 
HETATM    3  C5  UNL     1      12.501  35.160  16.622  1.00  0.00     0.084 C 
HETATM    4  C6  UNL     1      12.251  34.411  17.882  1.00  0.00     0.073 C 
HETATM    5  N3  UNL     1      13.019  34.326  18.942  1.00  0.00    -0.379 N 
ATOM      6  H3  UNL     1      12.704  33.767  19.734  1.00  0.00     0.160 HD
HETATM    7  N4  UNL     1      10.991  33.761  17.767  1.00  0.00    -0.375 N 
ATOM      8  H4  UNL     1      10.724  32.864  18.171  1.00  0.00     0.161 HD
HETATM    9  C12 UNL     1      10.160  34.638  16.954  1.00  0.00     0.091 C 
HETATM   10  C13 UNL     1       9.454  33.813  15.866  1.00  0.00     0.061 C 
HETATM   11  C14 UNL     1       9.454  34.807  14.722  1.00  0.00     0.215 C 
ENDROOT
BRANCH   1  12
HETATM   12  N2  UNL     1      11.204  36.420  14.017  1.00  0.00    -0.336 N 
HETATM   13  C2  UNL     1      12.328  36.537  13.129  1.00  0.00     0.316 C 
HETATM   14  N1  UNL     1      12.610  37.760  12.476  1.00  0.00    -0.347 N 
HETATM   15  O1  UNL     1      13.091  35.562  12.908  1.00  0.00    -0.247 OA
HETATM   16  C1  UNL     1      13.740  37.866  11.586  1.00  0.00     0.151 C 
ATOM     17  H1  UNL     1      12.011  38.571  12.634  1.00  0.00     0.163 HD
ATOM     18  H2  UNL     1      10.614  37.238  14.165  1.00  0.00     0.164 HD
ENDBRANCH   1  12
BRANCH  11  19
HETATM   19  N5  UNL     1       8.895  34.282  13.523  1.00  0.00    -0.061 N 
HETATM   20  C15 UNL     1       7.878  33.305  13.819  1.00  0.00     0.273 C 
HETATM   21  C16 UNL     1       8.286  35.285  12.677  1.00  0.00     0.263 C 
HETATM   22  C17 UNL     1       7.921  34.662  11.344  1.00  0.00     0.195 C 
HETATM   23  O2  UNL     1       9.129  34.286  10.722  1.00  0.00    -0.388 OA
HETATM   24  C18 UNL     1       9.626  33.205  11.425  1.00  0.00     0.195 C 
HETATM   25  C19 UNL     1       9.959  33.555  12.829  1.00  0.00     0.263 C 
ENDBRANCH  11  19
BRANCH   5  26
HETATM   26  C7  UNL     1      14.287  34.994  19.025  1.00  0.00     0.130 C 
BRANCH  26  27
HETATM   27  C8  UNL     1      14.188  36.261  19.859  1.00  0.00    -0.028 A 
HETATM   28  C9  UNL     1      14.265  37.523  19.026  1.00  0.00     0.016 C 
HETATM   29  C10 UNL     1      13.402  36.302  21.089  1.00  0.00     0.011 A 
HETATM   30  C11 UNL     1      14.901  36.336  21.176  1.00  0.00     0.011 A 
ENDBRANCH  26  27
ENDBRANCH   5  26
TORSDOF 4
ENDMDL
MODEL 4
REMARK VINA RESULT: -7.187453098      1.196      1.769
REMARK  4 active torsions:
REMARK  status: ('A' for Active; 'I' for Inactive)
REMARK       I    between atoms: N1_2  and  C2_4 
REMARK       I    between atoms: C2_4  and  N2_6 
REMARK    1  A    between atoms: N2_6  and  C3_8 
REMARK    2  A    between atoms: N3_12  and  C7_14 
REMARK    3  A    between atoms: C7_14  and  C8_15 
REMARK    4  A    between atoms: C14_23  and  N5_24 
ROOT
HETATM    1  C3  UNL     1      11.270  35.295  14.509  1.00  0.00     0.123 C 
HETATM    2  C4  UNL     1      11.316  35.630  16.014  1.00  0.00     0.040 C 
HETATM    3  C5  UNL     1      12.687  35.500  16.579  1.00  0.00     0.084 C 
HETATM    4  C6  UNL     1      12.443  34.717  17.820  1.00  0.00     0.073 C 
HETATM    5  N3  UNL     1      13.109  34.756  18.949  1.00  0.00    -0.379 N 
ATOM      6  H3  UNL     1      12.815  34.151  19.714  1.00  0.00     0.160 HD
HETATM    7  N4  UNL     1      11.323  33.871  17.594  1.00  0.00    -0.375 N 
ATOM      8  H4  UNL     1      11.168  32.941  17.983  1.00  0.00     0.161 HD
HETATM    9  C12 UNL     1      10.442  34.603  16.694  1.00  0.00     0.091 C 
HETATM   10  C13 UNL     1       9.987  33.676  15.556  1.00  0.00     0.061 C 
HETATM   11  C14 UNL     1       9.935  34.659  14.404  1.00  0.00     0.215 C 
ENDROOT
BRANCH   1  12
HETATM   12  N2  UNL     1      11.459  36.538  13.847  1.00  0.00    -0.336 N 
HETATM   13  C2  UNL     1      12.536  36.778  12.926  1.00  0.00     0.316 C 
HETATM   14  N1  UNL     1      12.681  38.035  12.293  1.00  0.00    -0.347 N 
HETATM   15  O1  UNL     1      13.378  35.882  12.658  1.00  0.00    -0.247 OA
HETATM   16  C1  UNL     1      13.765  38.264  11.370  1.00  0.00     0.151 C 
ATOM     17  H1  UNL     1      12.015  38.782  12.490  1.00  0.00     0.163 HD
ATOM     18  H2  UNL     1      10.801  37.295  14.033  1.00  0.00     0.164 HD
ENDBRANCH   1  12
BRANCH  11  19
HETATM   19  N5  UNL     1       9.586  34.053  13.164  1.00  0.00    -0.061 N 
HETATM   20  C15 UNL     1       9.030  35.028  12.259  1.00  0.00     0.273 C 
HETATM   21  C16 UNL     1      10.702  33.433  12.485  1.00  0.00     0.263 C 
HETATM   22  C17 UNL     1      10.188  32.639  11.299  1.00  0.00     0.195 C 
HETATM   23  O2  UNL     1       9.396  31.594  11.816  1.00  0.00    -0.388 OA
HETATM   24  C18 UNL     1       8.240  32.169  12.308  1.00  0.00     0.195 C 
HETATM   25  C19 UNL     1       8.511  33.098  13.434  1.00  0.00     0.263 C 
ENDBRANCH  11  19
BRANCH   5  26
HETATM   26  C7  UNL     1      14.239  35.622  19.144  1.00  0.00     0.130 C 
BRANCH  26  27
HETATM   27  C8  UNL     1      14.413  35.977  20.611  1.00  0.00    -0.028 A 
HETATM   28  C9  UNL     1      14.938  34.823  21.438  1.00  0.00     0.016 C 
HETATM   29  C10 UNL     1      14.764  37.332  21.029  1.00  0.00     0.011 A 
HETATM   30  C11 UNL     1      13.378  36.818  21.295  1.00  0.00     0.011 A 
ENDBRANCH  26  27
ENDBRANCH   5  26
TORSDOF 4
ENDMDL
MODEL 5
REMARK VINA RESULT: -7.025276569      0.843      1.605
REMARK  4 active torsions:
REMARK  status: ('A' for Active; 'I' for Inactive)
REMARK       I    between atoms: N1_2  and  C2_4 
REMARK       I    between atoms: C2_4  and  N2_6 
REMARK    1  A    between atoms: N2_6  and  C3_8 
REMARK    2  A    between atoms: N3_12  and  C7_14 
REMARK    3  A    between atoms: C7_14  and  C8_15 
REMARK    4  A    between atoms: C14_23  and  N5_24 
ROOT
HETATM    1  C3  UNL     1      10.833  35.320  14.488  1.00  0.00     0.123 C 
HETATM    2  C4  UNL     1      11.185  35.661  15.951  1.00  0.00     0.040 C 
HETATM    3  C5  UNL     1      12.597  35.326  16.285  1.00  0.00     0.084 C 
HETATM    4  C6  UNL     1      12.451  34.604  17.577  1.00  0.00     0.073 C 
HETATM    5  N3  UNL     1      13.298  34.551  18.577  1.00  0.00    -0.379 N 
ATOM      6  H3  UNL     1      13.050  34.007  19.403  1.00  0.00     0.160 HD
HETATM    7  N4  UNL     1      11.194  33.940  17.572  1.00  0.00    -0.375 N 
ATOM      8  H4  UNL     1      10.969  33.050  18.016  1.00  0.00     0.161 HD
HETATM    9  C12 UNL     1      10.294  34.789  16.805  1.00  0.00     0.091 C 
HETATM   10  C13 UNL     1       9.517  33.932  15.793  1.00  0.00     0.061 C 
HETATM   11  C14 UNL     1       9.420  34.899  14.630  1.00  0.00     0.215 C 
ENDROOT
BRANCH   1  12
HETATM   12  N2  UNL     1      11.093  36.512  13.758  1.00  0.00    -0.336 N 
HETATM   13  C2  UNL     1      12.248  36.679  12.920  1.00  0.00     0.316 C 
HETATM   14  N1  UNL     1      12.461  37.886  12.213  1.00  0.00    -0.347 N 
HETATM   15  O1  UNL     1      13.100  35.762  12.789  1.00  0.00    -0.247 OA
HETATM   16  C1  UNL     1      13.623  38.043  11.374  1.00  0.00     0.151 C 
ATOM     17  H1  UNL     1      11.790  38.650  12.298  1.00  0.00     0.163 HD
ATOM     18  H2  UNL     1      10.430  37.283  13.832  1.00  0.00     0.164 HD
ENDBRANCH   1  12
BRANCH  11  19
HETATM   19  N5  UNL     1       8.778  34.341  13.488  1.00  0.00    -0.061 N 
HETATM   20  C15 UNL     1       7.884  33.278  13.875  1.00  0.00     0.273 C 
HETATM   21  C16 UNL     1       7.998  35.297  12.734  1.00  0.00     0.263 C 
HETATM   22  C17 UNL     1       7.542  34.659  11.436  1.00  0.00     0.195 C 
HETATM   23  O2  UNL     1       8.701  34.394  10.679  1.00  0.00    -0.388 OA
HETATM   24  C18 UNL     1       9.361  33.352  11.303  1.00  0.00     0.195 C 
HETATM   25  C19 UNL     1       9.816  33.715  12.669  1.00  0.00     0.263 C 
ENDBRANCH  11  19
BRANCH   5  26
HETATM   26  C7  UNL     1      14.562  35.233  18.549  1.00  0.00     0.130 C 
BRANCH  26  27
HETATM   27  C8  UNL     1      14.484  36.566  19.275  1.00  0.00    -0.028 A 
HETATM   28  C9  UNL     1      13.753  36.475  20.598  1.00  0.00     0.016 C 
HETATM   29  C10 UNL     1      15.543  37.564  19.146  1.00  0.00     0.011 A 
HETATM   30  C11 UNL     1      14.213  37.817  18.495  1.00  0.00     0.011 A 
ENDBRANCH  26  27
ENDBRANCH   5  26
TORSDOF 4
ENDMDL
