MODEL 1
REMARK VINA RESULT: -7.879737124      0.000      0.000
REMARK  6 active torsions:
REMARK  status: ('A' for Active; 'I' for Inactive)
REMARK    1  A    between atoms: C2_2  and  C3_3 
REMARK    2  A    between atoms: C3_3  and  C4_4 
REMARK    3  A    between atoms: C4_4  and  O2_6 
REMARK    4  A    between atoms: O2_6  and  C5_7 
REMARK    5  A    between atoms: C16_18  and  O3_19 
REMARK    6  A    between atoms: C22_26  and  C24_28 
ROOT
HETATM    1  C5  UNL     1      72.701  31.142  24.583  1.00  0.00     0.132 C 
HETATM    2  C6  UNL     1      71.258  30.688  24.552  1.00  0.00     0.033 C 
HETATM    3  C7  UNL     1      70.293  31.755  24.242  1.00  0.00     0.012 C 
HETATM    4  C8  UNL     1      70.442  33.026  25.054  1.00  0.00    -0.036 C 
HETATM    5  C9  UNL     1      69.856  32.685  26.428  1.00  0.00     0.016 C 
HETATM    6  C10 UNL     1      71.890  33.353  25.137  1.00  0.00    -0.004 C 
HETATM    7  C11 UNL     1      72.073  34.500  26.094  1.00  0.00     0.006 C 
HETATM    8  C12 UNL     1      71.399  35.684  25.542  1.00  0.00     0.006 C 
HETATM    9  C13 UNL     1      70.447  35.471  24.404  1.00  0.00    -0.005 C 
HETATM   10  C14 UNL     1      69.706  34.174  24.415  1.00  0.00     0.001 C 
HETATM   11  C15 UNL     1      68.312  34.302  24.988  1.00  0.00     0.038 C 
HETATM   12  C16 UNL     1      67.485  35.370  24.397  1.00  0.00     0.128 C 
HETATM   13  C17 UNL     1      68.241  36.437  23.671  1.00  0.00     0.002 C 
HETATM   14  C18 UNL     1      68.475  36.041  22.223  1.00  0.00     0.019 C 
HETATM   15  C19 UNL     1      69.509  36.655  24.421  1.00  0.00     0.002 C 
HETATM   16  C20 UNL     1      70.066  37.894  23.856  1.00  0.00     0.007 C 
HETATM   17  C21 UNL     1      68.894  38.611  23.247  1.00  0.00     0.020 C 
HETATM   18  C22 UNL     1      67.652  37.785  23.644  1.00  0.00     0.045 C 
HETATM   19  C23 UNL     1      66.682  37.994  22.474  1.00  0.00     0.026 C 
HETATM   20  C25 UNL     1      72.768  32.234  25.631  1.00  0.00     0.038 C 
ENDROOT
BRANCH   1  21
HETATM   21  O2  UNL     1      73.490  30.026  24.942  1.00  0.00    -0.316 OA
BRANCH  21  22
HETATM   22  C4  UNL     1      74.871  30.070  24.810  1.00  0.00     0.259 C 
HETATM   23  O1  UNL     1      75.551  29.663  25.786  1.00  0.00    -0.265 OA
BRANCH  22  24
HETATM   24  C3  UNL     1      75.532  30.577  23.572  1.00  0.00     0.111 C 
BRANCH  24  25
HETATM   25  C2  UNL     1      76.811  29.799  23.363  1.00  0.00     0.005 C 
HETATM   26  C1  UNL     1      78.002  30.701  23.253  1.00  0.00     0.005 C 
ENDBRANCH  24  25
ENDBRANCH  22  24
ENDBRANCH  21  22
ENDBRANCH   1  21
BRANCH  12  27
HETATM   27  O3  UNL     1      66.695  35.907  25.409  1.00  0.00    -0.395 OA
ATOM     28  H3  UNL     1      65.929  36.296  25.005  1.00  0.00     0.210 HD
ENDBRANCH  12  27
BRANCH  18  29
HETATM   29  C24 UNL     1      67.017  38.340  24.820  1.00  0.00     0.240 C 
HETATM   30  N1  UNL     1      67.622  38.621  26.074  1.00  0.00    -0.061 NA
HETATM   31  O4  UNL     1      65.768  38.638  24.798  1.00  0.00    -0.276 OA
ENDBRANCH  18  29
TORSDOF 6
ENDMDL
MODEL 2
REMARK VINA RESULT: -7.606359473      4.039      5.364
REMARK  6 active torsions:
REMARK  status: ('A' for Active; 'I' for Inactive)
REMARK    1  A    between atoms: C2_2  and  C3_3 
REMARK    2  A    between atoms: C3_3  and  C4_4 
REMARK    3  A    between atoms: C4_4  and  O2_6 
REMARK    4  A    between atoms: O2_6  and  C5_7 
REMARK    5  A    between atoms: C16_18  and  O3_19 
REMARK    6  A    between atoms: C22_26  and  C24_28 
ROOT
HETATM    1  C5  UNL     1      71.302  33.025  25.489  1.00  0.00     0.132 C 
HETATM    2  C6  UNL     1      70.172  33.951  25.880  1.00  0.00     0.033 C 
HETATM    3  C7  UNL     1      70.485  35.383  25.737  1.00  0.00     0.012 C 
HETATM    4  C8  UNL     1      71.791  35.831  26.361  1.00  0.00    -0.036 C 
HETATM    5  C9  UNL     1      71.509  35.887  27.865  1.00  0.00     0.016 C 
HETATM    6  C10 UNL     1      72.830  34.821  26.030  1.00  0.00    -0.004 C 
HETATM    7  C11 UNL     1      74.084  35.148  26.794  1.00  0.00     0.006 C 
HETATM    8  C12 UNL     1      74.591  36.447  26.332  1.00  0.00     0.006 C 
HETATM    9  C13 UNL     1      73.669  37.296  25.509  1.00  0.00    -0.005 C 
HETATM   10  C14 UNL     1      72.217  37.176  25.833  1.00  0.00     0.001 C 
HETATM   11  C15 UNL     1      71.727  38.285  26.737  1.00  0.00     0.038 C 
HETATM   12  C16 UNL     1      72.049  39.652  26.289  1.00  0.00     0.128 C 
HETATM   13  C17 UNL     1      73.162  39.752  25.294  1.00  0.00     0.002 C 
HETATM   14  C18 UNL     1      72.636  39.587  23.878  1.00  0.00     0.019 C 
HETATM   15  C19 UNL     1      74.165  38.715  25.661  1.00  0.00     0.002 C 
HETATM   16  C20 UNL     1      75.352  39.046  24.858  1.00  0.00     0.007 C 
HETATM   17  C21 UNL     1      75.203  40.501  24.514  1.00  0.00     0.020 C 
HETATM   18  C22 UNL     1      73.964  40.985  25.297  1.00  0.00     0.045 C 
HETATM   19  C23 UNL     1      73.375  42.088  24.409  1.00  0.00     0.026 C 
HETATM   20  C25 UNL     1      72.470  33.400  26.377  1.00  0.00     0.038 C 
ENDROOT
BRANCH   1  21
HETATM   21  O2  UNL     1      70.868  31.701  25.731  1.00  0.00    -0.316 OA
BRANCH  21  22
HETATM   22  C4  UNL     1      70.962  30.739  24.735  1.00  0.00     0.259 C 
HETATM   23  O1  UNL     1      70.124  30.801  23.800  1.00  0.00    -0.265 OA
BRANCH  22  24
HETATM   24  C3  UNL     1      72.005  29.672  24.760  1.00  0.00     0.111 C 
BRANCH  24  25
HETATM   25  C2  UNL     1      73.249  30.206  24.086  1.00  0.00     0.005 C 
HETATM   26  C1  UNL     1      74.341  30.489  25.071  1.00  0.00     0.005 C 
ENDBRANCH  24  25
ENDBRANCH  22  24
ENDBRANCH  21  22
ENDBRANCH   1  21
BRANCH  12  27
HETATM   27  O3  UNL     1      72.307  40.422  27.418  1.00  0.00    -0.395 OA
ATOM     28  H3  UNL     1      72.277  41.336  27.161  1.00  0.00     0.210 HD
ENDBRANCH  12  27
BRANCH  18  29
HETATM   29  C24 UNL     1      74.354  41.613  26.542  1.00  0.00     0.240 C 
HETATM   30  N1  UNL     1      75.345  41.168  27.457  1.00  0.00    -0.061 NA
HETATM   31  O4  UNL     1      73.782  42.697  26.924  1.00  0.00    -0.276 OA
ENDBRANCH  18  29
TORSDOF 6
ENDMDL
MODEL 3
REMARK VINA RESULT: -7.021046797      2.466      3.186
REMARK  6 active torsions:
REMARK  status: ('A' for Active; 'I' for Inactive)
REMARK    1  A    between atoms: C2_2  and  C3_3 
REMARK    2  A    between atoms: C3_3  and  C4_4 
REMARK    3  A    between atoms: C4_4  and  O2_6 
REMARK    4  A    between atoms: O2_6  and  C5_7 
REMARK    5  A    between atoms: C16_18  and  O3_19 
REMARK    6  A    between atoms: C22_26  and  C24_28 
ROOT
HETATM    1  C5  UNL     1      72.087  32.266  24.506  1.00  0.00     0.132 C 
HETATM    2  C6  UNL     1      70.607  32.561  24.399  1.00  0.00     0.033 C 
HETATM    3  C7  UNL     1      70.267  33.992  24.476  1.00  0.00     0.012 C 
HETATM    4  C8  UNL     1      70.886  34.748  25.635  1.00  0.00    -0.036 C 
HETATM    5  C9  UNL     1      70.066  34.330  26.860  1.00  0.00     0.016 C 
HETATM    6  C10 UNL     1      72.307  34.328  25.752  1.00  0.00    -0.004 C 
HETATM    7  C11 UNL     1      72.885  34.923  27.008  1.00  0.00     0.006 C 
HETATM    8  C12 UNL     1      72.882  36.387  26.880  1.00  0.00     0.006 C 
HETATM    9  C13 UNL     1      72.063  36.983  25.774  1.00  0.00    -0.005 C 
HETATM   10  C14 UNL     1      70.821  36.237  25.415  1.00  0.00     0.001 C 
HETATM   11  C15 UNL     1      69.583  36.819  26.059  1.00  0.00     0.038 C 
HETATM   12  C16 UNL     1      69.395  38.268  25.864  1.00  0.00     0.128 C 
HETATM   13  C17 UNL     1      70.624  39.025  25.472  1.00  0.00     0.002 C 
HETATM   14  C18 UNL     1      70.807  39.012  23.963  1.00  0.00     0.019 C 
HETATM   15  C19 UNL     1      71.766  38.402  26.197  1.00  0.00     0.002 C 
HETATM   16  C20 UNL     1      72.878  39.347  26.019  1.00  0.00     0.007 C 
HETATM   17  C21 UNL     1      72.229  40.667  25.714  1.00  0.00     0.020 C 
HETATM   18  C22 UNL     1      70.713  40.433  25.888  1.00  0.00     0.045 C 
HETATM   19  C23 UNL     1      70.074  41.400  24.884  1.00  0.00     0.026 C 
HETATM   20  C25 UNL     1      72.527  32.841  25.836  1.00  0.00     0.038 C 
ENDROOT
BRANCH   1  21
HETATM   21  O2  UNL     1      72.243  30.862  24.468  1.00  0.00    -0.316 OA
BRANCH  21  22
HETATM   22  C4  UNL     1      73.334  30.294  23.825  1.00  0.00     0.259 C 
HETATM   23  O1  UNL     1      73.120  29.745  22.714  1.00  0.00    -0.265 OA
BRANCH  22  24
HETATM   24  C3  UNL     1      74.705  30.327  24.412  1.00  0.00     0.111 C 
BRANCH  24  25
HETATM   25  C2  UNL     1      75.692  30.612  23.303  1.00  0.00     0.005 C 
HETATM   26  C1  UNL     1      76.920  29.761  23.416  1.00  0.00     0.005 C 
ENDBRANCH  24  25
ENDBRANCH  22  24
ENDBRANCH  21  22
ENDBRANCH   1  21
BRANCH  12  27
HETATM   27  O3  UNL     1      68.830  38.785  27.025  1.00  0.00    -0.395 OA
ATOM     28  H3  UNL     1      68.864  38.110  27.692  1.00  0.00     0.210 HD
ENDBRANCH  12  27
BRANCH  18  29
HETATM   29  C24 UNL     1      70.276  40.846  27.205  1.00  0.00     0.240 C 
HETATM   30  N1  UNL     1      70.799  40.426  28.457  1.00  0.00    -0.061 NA
HETATM   31  O4  UNL     1      69.313  41.686  27.330  1.00  0.00    -0.276 OA
ENDBRANCH  18  29
TORSDOF 6
ENDMDL
MODEL 4
REMARK VINA RESULT: -6.970933140      4.409      6.145
REMARK  6 active torsions:
REMARK  status: ('A' for Active; 'I' for Inactive)
REMARK    1  A    between atoms: C2_2  and  C3_3 
REMARK    2  A    between atoms: C3_3  and  C4_4 
REMARK    3  A    between atoms: C4_4  and  O2_6 
REMARK    4  A    between atoms: O2_6  and  C5_7 
REMARK    5  A    between atoms: C16_18  and  O3_19 
REMARK    6  A    between atoms: C22_26  and  C24_28 
ROOT
HETATM    1  C5  UNL     1      69.752  34.043  25.557  1.00  0.00     0.132 C 
HETATM    2  C6  UNL     1      69.007  35.303  25.936  1.00  0.00     0.033 C 
HETATM    3  C7  UNL     1      69.763  36.546  25.709  1.00  0.00     0.012 C 
HETATM    4  C8  UNL     1      71.172  36.564  26.266  1.00  0.00    -0.036 C 
HETATM    5  C9  UNL     1      70.996  36.766  27.774  1.00  0.00     0.016 C 
HETATM    6  C10 UNL     1      71.807  35.256  25.954  1.00  0.00    -0.004 C 
HETATM    7  C11 UNL     1      73.134  35.182  26.660  1.00  0.00     0.006 C 
HETATM    8  C12 UNL     1      74.015  36.225  26.115  1.00  0.00     0.006 C 
HETATM    9  C13 UNL     1      73.383  37.297  25.279  1.00  0.00    -0.005 C 
HETATM   10  C14 UNL     1      71.989  37.673  25.657  1.00  0.00     0.001 C 
HETATM   11  C15 UNL     1      71.931  38.915  26.517  1.00  0.00     0.038 C 
HETATM   12  C16 UNL     1      72.660  40.082  25.989  1.00  0.00     0.128 C 
HETATM   13  C17 UNL     1      73.696  39.774  24.955  1.00  0.00     0.002 C 
HETATM   14  C18 UNL     1      73.078  39.736  23.567  1.00  0.00     0.019 C 
HETATM   15  C19 UNL     1      74.322  38.479  25.342  1.00  0.00     0.002 C 
HETATM   16  C20 UNL     1      75.512  38.371  24.485  1.00  0.00     0.007 C 
HETATM   17  C21 UNL     1      75.830  39.780  24.072  1.00  0.00     0.020 C 
HETATM   18  C22 UNL     1      74.856  40.674  24.868  1.00  0.00     0.045 C 
HETATM   19  C23 UNL     1      74.618  41.874  23.944  1.00  0.00     0.026 C 
HETATM   20  C25 UNL     1      71.020  34.047  26.386  1.00  0.00     0.038 C 
ENDROOT
BRANCH   1  21
HETATM   21  O2  UNL     1      68.922  32.945  25.881  1.00  0.00    -0.316 OA
BRANCH  21  22
HETATM   22  C4  UNL     1      69.197  31.683  25.372  1.00  0.00     0.259 C 
HETATM   23  O1  UNL     1      68.470  30.737  25.769  1.00  0.00    -0.265 OA
BRANCH  22  24
HETATM   24  C3  UNL     1      70.303  31.445  24.400  1.00  0.00     0.111 C 
BRANCH  24  25
HETATM   25  C2  UNL     1      71.227  30.397  24.978  1.00  0.00     0.005 C 
HETATM   26  C1  UNL     1      71.872  29.570  23.908  1.00  0.00     0.005 C 
ENDBRANCH  24  25
ENDBRANCH  22  24
ENDBRANCH  21  22
ENDBRANCH   1  21
BRANCH  12  27
HETATM   27  O3  UNL     1      73.209  40.768  27.067  1.00  0.00    -0.395 OA
ATOM     28  H3  UNL     1      72.902  41.666  27.030  1.00  0.00     0.210 HD
ENDBRANCH  12  27
BRANCH  18  29
HETATM   29  C24 UNL     1      75.488  41.186  26.066  1.00  0.00     0.240 C 
HETATM   30  N1  UNL     1      76.237  40.452  27.025  1.00  0.00    -0.061 NA
HETATM   31  O4  UNL     1      75.404  42.433  26.356  1.00  0.00    -0.276 OA
ENDBRANCH  18  29
TORSDOF 6
ENDMDL
MODEL 5
REMARK VINA RESULT: -6.801931662      4.175      6.127
REMARK  6 active torsions:
REMARK  status: ('A' for Active; 'I' for Inactive)
REMARK    1  A    between atoms: C2_2  and  C3_3 
REMARK    2  A    between atoms: C3_3  and  C4_4 
REMARK    3  A    between atoms: C4_4  and  O2_6 
REMARK    4  A    between atoms: O2_6  and  C5_7 
REMARK    5  A    between atoms: C16_18  and  O3_19 
REMARK    6  A    between atoms: C22_26  and  C24_28 
ROOT
HETATM    1  C5  UNL     1      71.485  33.110  25.586  1.00  0.00     0.132 C 
HETATM    2  C6  UNL     1      70.341  34.018  25.984  1.00  0.00     0.033 C 
HETATM    3  C7  UNL     1      70.624  35.454  25.827  1.00  0.00     0.012 C 
HETATM    4  C8  UNL     1      71.929  35.933  26.431  1.00  0.00    -0.036 C 
HETATM    5  C9  UNL     1      71.665  35.994  27.938  1.00  0.00     0.016 C 
HETATM    6  C10 UNL     1      72.983  34.940  26.094  1.00  0.00    -0.004 C 
HETATM    7  C11 UNL     1      74.241  35.297  26.841  1.00  0.00     0.006 C 
HETATM    8  C12 UNL     1      74.716  36.603  26.363  1.00  0.00     0.006 C 
HETATM    9  C13 UNL     1      73.768  37.428  25.545  1.00  0.00    -0.005 C 
HETATM   10  C14 UNL     1      72.322  37.282  25.888  1.00  0.00     0.001 C 
HETATM   11  C15 UNL     1      71.821  38.388  26.790  1.00  0.00     0.038 C 
HETATM   12  C16 UNL     1      72.111  39.757  26.328  1.00  0.00     0.128 C 
HETATM   13  C17 UNL     1      73.209  39.872  25.319  1.00  0.00     0.002 C 
HETATM   14  C18 UNL     1      72.669  39.685  23.911  1.00  0.00     0.019 C 
HETATM   15  C19 UNL     1      74.237  38.857  25.681  1.00  0.00     0.002 C 
HETATM   16  C20 UNL     1      75.407  39.205  24.861  1.00  0.00     0.007 C 
HETATM   17  C21 UNL     1      75.225  40.654  24.509  1.00  0.00     0.020 C 
HETATM   18  C22 UNL     1      73.986  41.120  25.303  1.00  0.00     0.045 C 
HETATM   19  C23 UNL     1      73.365  42.205  24.415  1.00  0.00     0.026 C 
HETATM   20  C25 UNL     1      72.656  33.516  26.456  1.00  0.00     0.038 C 
ENDROOT
BRANCH   1  21
HETATM   21  O2  UNL     1      71.080  31.780  25.842  1.00  0.00    -0.316 OA
BRANCH  21  22
HETATM   22  C4  UNL     1      70.075  31.195  25.086  1.00  0.00     0.259 C 
HETATM   23  O1  UNL     1      70.326  30.977  23.873  1.00  0.00    -0.265 OA
BRANCH  22  24
HETATM   24  C3  UNL     1      68.750  30.835  25.671  1.00  0.00     0.111 C 
BRANCH  24  25
HETATM   25  C2  UNL     1      67.736  31.862  25.222  1.00  0.00     0.005 C 
HETATM   26  C1  UNL     1      66.962  32.424  26.375  1.00  0.00     0.005 C 
ENDBRANCH  24  25
ENDBRANCH  22  24
ENDBRANCH  21  22
ENDBRANCH   1  21
BRANCH  12  27
HETATM   27  O3  UNL     1      72.367  40.541  27.448  1.00  0.00    -0.395 OA
ATOM     28  H3  UNL     1      72.555  41.423  27.151  1.00  0.00     0.210 HD
ENDBRANCH  12  27
BRANCH  18  29
HETATM   29  C24 UNL     1      74.379  41.765  26.539  1.00  0.00     0.240 C 
HETATM   30  N1  UNL     1      75.380  41.338  27.452  1.00  0.00    -0.061 NA
HETATM   31  O4  UNL     1      73.800  42.848  26.913  1.00  0.00    -0.276 OA
ENDBRANCH  18  29
TORSDOF 6
ENDMDL
