MODEL 1
REMARK VINA RESULT: -7.529431232      0.000      0.000
REMARK  7 active torsions:
REMARK  status: ('A' for Active; 'I' for Inactive)
REMARK    1  A    between atoms: C2_2  and  O2_4 
REMARK    2  A    between atoms: O2_4  and  C3_5 
REMARK    3  A    between atoms: C5_7  and  C6_8 
REMARK    4  A    between atoms: C6_8  and  C7_9 
REMARK    5  A    between atoms: C7_9  and  O3_10 
REMARK    6  A    between atoms: C14_18  and  O4_20 
REMARK    7  A    between atoms: C16_22  and  C17_23 
ROOT
HETATM    1  C3  UNL     1      71.302  32.732  25.100  1.00  0.00     0.060 C 
HETATM    2  C4  UNL     1      71.229  33.930  25.646  1.00  0.00    -0.041 C 
HETATM    3  C5  UNL     1      71.864  35.229  26.030  1.00  0.00     0.025 C 
HETATM    4  C8  UNL     1      70.748  36.204  26.030  1.00  0.00     0.011 C 
HETATM    5  C9  UNL     1      69.593  35.458  25.401  1.00  0.00    -0.032 C 
HETATM    6  C10 UNL     1      69.712  35.254  23.925  1.00  0.00     0.016 C 
HETATM    7  C11 UNL     1      68.292  36.135  25.731  1.00  0.00     0.011 C 
HETATM    8  C12 UNL     1      68.432  37.584  25.229  1.00  0.00     0.009 C 
HETATM    9  C13 UNL     1      69.608  38.269  25.812  1.00  0.00     0.029 C 
HETATM   10  C14 UNL     1      69.639  39.729  25.467  1.00  0.00     0.069 C 
HETATM   11  C15 UNL     1      68.268  40.295  25.696  1.00  0.00     0.047 C 
HETATM   12  C16 UNL     1      70.675  40.445  26.222  1.00  0.00     0.089 C 
HETATM   13  C19 UNL     1      72.010  39.744  26.276  1.00  0.00     0.016 C 
HETATM   14  C20 UNL     1      71.934  38.277  26.478  1.00  0.00     0.011 C 
HETATM   15  C21 UNL     1      70.941  37.573  25.544  1.00  0.00    -0.033 C 
HETATM   16  C22 UNL     1      71.462  37.742  24.174  1.00  0.00     0.016 C 
HETATM   17  C23 UNL     1      69.800  34.135  26.110  1.00  0.00     0.026 C 
HETATM   18  C24 UNL     1      69.010  33.006  25.635  1.00  0.00     0.016 C 
HETATM   19  C25 UNL     1      70.001  32.009  25.167  1.00  0.00     0.066 C 
ENDROOT
BRANCH   1  20
HETATM   20  O2  UNL     1      72.489  32.229  24.528  1.00  0.00    -0.283 OA
BRANCH  20  21
HETATM   21  C2  UNL     1      73.111  31.078  24.938  1.00  0.00     0.259 C 
HETATM   22  C1  UNL     1      72.520  29.733  24.658  1.00  0.00     0.126 C 
HETATM   23  O1  UNL     1      74.196  31.106  25.561  1.00  0.00    -0.265 OA
ENDBRANCH  20  21
ENDBRANCH   1  20
BRANCH   3  24
HETATM   24  C6  UNL     1      72.447  35.015  27.405  1.00  0.00     0.035 C 
BRANCH  24  25
HETATM   25  C7  UNL     1      73.929  34.926  27.354  1.00  0.00     0.165 C 
BRANCH  25  26
HETATM   26  O3  UNL     1      74.363  33.738  26.737  1.00  0.00    -0.401 OA
ATOM     27  H3  UNL     1      75.140  33.385  27.154  1.00  0.00     0.209 HD
ENDBRANCH  25  26
ENDBRANCH  24  25
ENDBRANCH   3  24
BRANCH  10  28
HETATM   28  O4  UNL     1      69.840  39.845  24.056  1.00  0.00    -0.389 OA
ATOM     29  H4  UNL     1      70.421  40.581  23.902  1.00  0.00     0.210 HD
ENDBRANCH  10  28
BRANCH  12  30
HETATM   30  C17 UNL     1      70.276  40.887  27.560  1.00  0.00     0.130 C 
HETATM   31  C18 UNL     1      70.041  40.075  28.767  1.00  0.00     0.091 C 
HETATM   32  O5  UNL     1      70.112  42.103  27.705  1.00  0.00    -0.298 OA
ENDBRANCH  12  30
TORSDOF 7
ENDMDL
MODEL 2
REMARK VINA RESULT: -7.147787647      1.713      2.475
REMARK  7 active torsions:
REMARK  status: ('A' for Active; 'I' for Inactive)
REMARK    1  A    between atoms: C2_2  and  O2_4 
REMARK    2  A    between atoms: O2_4  and  C3_5 
REMARK    3  A    between atoms: C5_7  and  C6_8 
REMARK    4  A    between atoms: C6_8  and  C7_9 
REMARK    5  A    between atoms: C7_9  and  O3_10 
REMARK    6  A    between atoms: C14_18  and  O4_20 
REMARK    7  A    between atoms: C16_22  and  C17_23 
ROOT
HETATM    1  C3  UNL     1      69.371  31.275  25.310  1.00  0.00     0.060 C 
HETATM    2  C4  UNL     1      69.425  32.579  25.502  1.00  0.00    -0.041 C 
HETATM    3  C5  UNL     1      70.101  33.898  25.307  1.00  0.00     0.025 C 
HETATM    4  C8  UNL     1      69.005  34.893  25.369  1.00  0.00     0.011 C 
HETATM    5  C9  UNL     1      67.741  34.065  25.341  1.00  0.00    -0.032 C 
HETATM    6  C10 UNL     1      67.419  33.460  24.013  1.00  0.00     0.016 C 
HETATM    7  C11 UNL     1      66.576  34.873  25.843  1.00  0.00     0.011 C 
HETATM    8  C12 UNL     1      66.511  36.120  24.943  1.00  0.00     0.009 C 
HETATM    9  C13 UNL     1      67.784  36.876  24.939  1.00  0.00     0.029 C 
HETATM   10  C14 UNL     1      67.662  38.184  24.212  1.00  0.00     0.069 C 
HETATM   11  C15 UNL     1      66.404  38.861  24.671  1.00  0.00     0.047 C 
HETATM   12  C16 UNL     1      68.852  39.024  24.398  1.00  0.00     0.089 C 
HETATM   13  C19 UNL     1      70.165  38.295  24.245  1.00  0.00     0.016 C 
HETATM   14  C20 UNL     1      70.201  36.945  24.857  1.00  0.00     0.011 C 
HETATM   15  C21 UNL     1      68.998  36.066  24.490  1.00  0.00    -0.033 C 
HETATM   16  C22 UNL     1      69.080  35.828  23.037  1.00  0.00     0.016 C 
HETATM   17  C23 UNL     1      68.194  32.976  26.293  1.00  0.00     0.026 C 
HETATM   18  C24 UNL     1      67.336  31.803  26.403  1.00  0.00     0.016 C 
HETATM   19  C25 UNL     1      68.174  30.666  25.957  1.00  0.00     0.066 C 
ENDROOT
BRANCH   1  20
HETATM   20  O2  UNL     1      70.348  30.574  24.574  1.00  0.00    -0.283 OA
BRANCH  20  21
HETATM   21  C2  UNL     1      71.630  31.019  24.382  1.00  0.00     0.259 C 
HETATM   22  C1  UNL     1      72.040  31.684  23.106  1.00  0.00     0.126 C 
HETATM   23  O1  UNL     1      72.509  30.889  25.265  1.00  0.00    -0.265 OA
ENDBRANCH  20  21
ENDBRANCH   1  20
BRANCH   3  24
HETATM   24  C6  UNL     1      71.076  34.037  26.451  1.00  0.00     0.035 C 
BRANCH  24  25
HETATM   25  C7  UNL     1      72.441  34.357  25.960  1.00  0.00     0.165 C 
BRANCH  25  26
HETATM   26  O3  UNL     1      73.386  33.401  26.379  1.00  0.00    -0.401 OA
ATOM     27  H3  UNL     1      73.872  33.694  27.140  1.00  0.00     0.209 HD
ENDBRANCH  25  26
ENDBRANCH  24  25
ENDBRANCH   3  24
BRANCH  10  28
HETATM   28  O4  UNL     1      67.428  37.900  22.830  1.00  0.00    -0.389 OA
ATOM     29  H4  UNL     1      66.886  37.122  22.777  1.00  0.00     0.210 HD
ENDBRANCH  10  28
BRANCH  12  30
HETATM   30  C17 UNL     1      68.857  39.834  25.618  1.00  0.00     0.130 C 
HETATM   31  C18 UNL     1      69.033  39.396  27.015  1.00  0.00     0.091 C 
HETATM   32  O5  UNL     1      68.691  41.048  25.466  1.00  0.00    -0.298 OA
ENDBRANCH  12  30
TORSDOF 7
ENDMDL
MODEL 3
REMARK VINA RESULT: -6.796589560      2.317      4.266
REMARK  7 active torsions:
REMARK  status: ('A' for Active; 'I' for Inactive)
REMARK    1  A    between atoms: C2_2  and  O2_4 
REMARK    2  A    between atoms: O2_4  and  C3_5 
REMARK    3  A    between atoms: C5_7  and  C6_8 
REMARK    4  A    between atoms: C6_8  and  C7_9 
REMARK    5  A    between atoms: C7_9  and  O3_10 
REMARK    6  A    between atoms: C14_18  and  O4_20 
REMARK    7  A    between atoms: C16_22  and  C17_23 
ROOT
HETATM    1  C3  UNL     1      69.899  33.358  26.354  1.00  0.00     0.060 C 
HETATM    2  C4  UNL     1      69.961  34.589  25.883  1.00  0.00    -0.041 C 
HETATM    3  C5  UNL     1      69.388  35.964  25.749  1.00  0.00     0.025 C 
HETATM    4  C8  UNL     1      70.564  36.840  25.540  1.00  0.00     0.011 C 
HETATM    5  C9  UNL     1      71.754  35.950  25.821  1.00  0.00    -0.032 C 
HETATM    6  C10 UNL     1      71.967  35.630  27.264  1.00  0.00     0.016 C 
HETATM    7  C11 UNL     1      73.002  36.543  25.227  1.00  0.00     0.011 C 
HETATM    8  C12 UNL     1      73.131  37.950  25.840  1.00  0.00     0.009 C 
HETATM    9  C13 UNL     1      71.926  38.777  25.605  1.00  0.00     0.029 C 
HETATM   10  C14 UNL     1      72.125  40.200  26.040  1.00  0.00     0.069 C 
HETATM   11  C15 UNL     1      73.453  40.668  25.521  1.00  0.00     0.047 C 
HETATM   12  C16 UNL     1      71.017  41.062  25.607  1.00  0.00     0.089 C 
HETATM   13  C19 UNL     1      69.643  40.480  25.835  1.00  0.00     0.016 C 
HETATM   14  C20 UNL     1      69.521  39.034  25.527  1.00  0.00     0.011 C 
HETATM   15  C21 UNL     1      70.631  38.173  26.145  1.00  0.00    -0.033 C 
HETATM   16  C22 UNL     1      70.468  38.266  27.608  1.00  0.00     0.016 C 
HETATM   17  C23 UNL     1      71.253  34.714  25.100  1.00  0.00     0.026 C 
HETATM   18  C24 UNL     1      72.015  33.488  25.296  1.00  0.00     0.016 C 
HETATM   19  C25 UNL     1      71.067  32.539  25.926  1.00  0.00     0.066 C 
ENDROOT
BRANCH   1  20
HETATM   20  O2  UNL     1      68.836  32.907  27.164  1.00  0.00    -0.283 OA
BRANCH  20  21
HETATM   21  C2  UNL     1      67.647  32.433  26.676  1.00  0.00     0.259 C 
HETATM   22  C1  UNL     1      67.562  31.783  25.331  1.00  0.00     0.126 C 
HETATM   23  O1  UNL     1      66.585  32.523  27.334  1.00  0.00    -0.265 OA
ENDBRANCH  20  21
ENDBRANCH   1  20
BRANCH   3  24
HETATM   24  C6  UNL     1      68.478  35.918  24.547  1.00  0.00     0.035 C 
BRANCH  24  25
HETATM   25  C7  UNL     1      67.058  35.751  24.951  1.00  0.00     0.165 C 
BRANCH  25  26
HETATM   26  O3  UNL     1      66.382  36.985  25.014  1.00  0.00    -0.401 OA
ATOM     27  H3  UNL     1      65.440  36.875  24.970  1.00  0.00     0.209 HD
ENDBRANCH  25  26
ENDBRANCH  24  25
ENDBRANCH   3  24
BRANCH  10  28
HETATM   28  O4  UNL     1      72.275  40.210  27.462  1.00  0.00    -0.389 OA
ATOM     29  H4  UNL     1      72.216  41.111  27.757  1.00  0.00     0.210 HD
ENDBRANCH  10  28
BRANCH  12  30
HETATM   30  C17 UNL     1      71.131  41.583  24.243  1.00  0.00     0.130 C 
HETATM   31  C18 UNL     1      71.106  40.843  22.968  1.00  0.00     0.091 C 
HETATM   32  O5  UNL     1      71.267  42.806  24.137  1.00  0.00    -0.298 OA
ENDBRANCH  12  30
TORSDOF 7
ENDMDL
MODEL 4
REMARK VINA RESULT: -6.741403125      2.113      6.793
REMARK  7 active torsions:
REMARK  status: ('A' for Active; 'I' for Inactive)
REMARK    1  A    between atoms: C2_2  and  O2_4 
REMARK    2  A    between atoms: O2_4  and  C3_5 
REMARK    3  A    between atoms: C5_7  and  C6_8 
REMARK    4  A    between atoms: C6_8  and  C7_9 
REMARK    5  A    between atoms: C7_9  and  O3_10 
REMARK    6  A    between atoms: C14_18  and  O4_20 
REMARK    7  A    between atoms: C16_22  and  C17_23 
ROOT
HETATM    1  C3  UNL     1      72.009  40.209  25.974  1.00  0.00     0.060 C 
HETATM    2  C4  UNL     1      72.034  38.947  25.591  1.00  0.00    -0.041 C 
HETATM    3  C5  UNL     1      72.627  37.576  25.659  1.00  0.00     0.025 C 
HETATM    4  C8  UNL     1      71.508  36.667  25.314  1.00  0.00     0.011 C 
HETATM    5  C9  UNL     1      70.284  37.556  25.320  1.00  0.00    -0.032 C 
HETATM    6  C10 UNL     1      69.823  37.975  26.678  1.00  0.00     0.016 C 
HETATM    7  C11 UNL     1      69.160  36.902  24.565  1.00  0.00     0.011 C 
HETATM    8  C12 UNL     1      68.932  35.541  25.248  1.00  0.00     0.009 C 
HETATM    9  C13 UNL     1      70.163  34.718  25.286  1.00  0.00     0.029 C 
HETATM   10  C14 UNL     1      69.897  33.327  25.783  1.00  0.00     0.069 C 
HETATM   11  C15 UNL     1      68.681  32.801  25.078  1.00  0.00     0.047 C 
HETATM   12  C16 UNL     1      71.066  32.455  25.611  1.00  0.00     0.089 C 
HETATM   13  C19 UNL     1      72.377  33.074  26.030  1.00  0.00     0.016 C 
HETATM   14  C20 UNL     1      72.545  34.495  25.642  1.00  0.00     0.011 C 
HETATM   15  C21 UNL     1      71.343  35.380  25.995  1.00  0.00    -0.033 C 
HETATM   16  C22 UNL     1      71.250  35.395  27.467  1.00  0.00     0.016 C 
HETATM   17  C23 UNL     1      70.898  38.745  24.608  1.00  0.00     0.026 C 
HETATM   18  C24 UNL     1      70.109  39.970  24.579  1.00  0.00     0.016 C 
HETATM   19  C25 UNL     1      70.930  40.977  25.292  1.00  0.00     0.066 C 
ENDROOT
BRANCH   1  20
HETATM   20  O2  UNL     1      72.914  40.734  26.920  1.00  0.00    -0.283 OA
BRANCH  20  21
HETATM   21  C2  UNL     1      74.201  41.103  26.628  1.00  0.00     0.259 C 
HETATM   22  C1  UNL     1      74.495  42.185  25.639  1.00  0.00     0.126 C 
HETATM   23  O1  UNL     1      75.182  40.551  27.178  1.00  0.00    -0.265 OA
ENDBRANCH  20  21
ENDBRANCH   1  20
BRANCH   3  24
HETATM   24  C6  UNL     1      73.731  37.551  24.631  1.00  0.00     0.035 C 
BRANCH  24  25
HETATM   25  C7  UNL     1      75.068  37.640  25.274  1.00  0.00     0.165 C 
BRANCH  25  26
HETATM   26  O3  UNL     1      74.979  37.591  26.678  1.00  0.00    -0.401 OA
ATOM     27  H3  UNL     1      75.830  37.688  27.090  1.00  0.00     0.209 HD
ENDBRANCH  25  26
ENDBRANCH  24  25
ENDBRANCH   3  24
BRANCH  10  28
HETATM   28  O4  UNL     1      69.502  33.416  27.154  1.00  0.00    -0.389 OA
ATOM     29  H4  UNL     1      69.022  32.626  27.373  1.00  0.00     0.210 HD
ENDBRANCH  10  28
BRANCH  12  30
HETATM   30  C17 UNL     1      71.192  31.836  24.290  1.00  0.00     0.130 C 
HETATM   31  C18 UNL     1      70.909  30.445  23.892  1.00  0.00     0.091 C 
HETATM   32  O5  UNL     1      71.588  32.571  23.380  1.00  0.00    -0.298 OA
ENDBRANCH  12  30
TORSDOF 7
ENDMDL
MODEL 5
REMARK VINA RESULT: -6.679857761      1.181      1.311
REMARK  7 active torsions:
REMARK  status: ('A' for Active; 'I' for Inactive)
REMARK    1  A    between atoms: C2_2  and  O2_4 
REMARK    2  A    between atoms: O2_4  and  C3_5 
REMARK    3  A    between atoms: C5_7  and  C6_8 
REMARK    4  A    between atoms: C6_8  and  C7_9 
REMARK    5  A    between atoms: C7_9  and  O3_10 
REMARK    6  A    between atoms: C14_18  and  O4_20 
REMARK    7  A    between atoms: C16_22  and  C17_23 
ROOT
HETATM    1  C3  UNL     1      69.766  33.078  24.798  1.00  0.00     0.060 C 
HETATM    2  C4  UNL     1      69.986  34.242  25.378  1.00  0.00    -0.041 C 
HETATM    3  C5  UNL     1      70.914  35.344  25.778  1.00  0.00     0.025 C 
HETATM    4  C8  UNL     1      70.057  36.552  25.834  1.00  0.00     0.011 C 
HETATM    5  C9  UNL     1      68.747  36.116  25.218  1.00  0.00    -0.032 C 
HETATM    6  C10 UNL     1      68.784  35.936  23.735  1.00  0.00     0.016 C 
HETATM    7  C11 UNL     1      67.647  37.066  25.602  1.00  0.00     0.011 C 
HETATM    8  C12 UNL     1      68.111  38.457  25.134  1.00  0.00     0.009 C 
HETATM    9  C13 UNL     1      69.426  38.831  25.702  1.00  0.00     0.029 C 
HETATM   10  C14 UNL     1      69.789  40.254  25.394  1.00  0.00     0.069 C 
HETATM   11  C15 UNL     1      68.593  41.116  25.676  1.00  0.00     0.047 C 
HETATM   12  C16 UNL     1      70.979  40.686  26.139  1.00  0.00     0.089 C 
HETATM   13  C19 UNL     1      72.115  39.692  26.137  1.00  0.00     0.016 C 
HETATM   14  C20 UNL     1      71.703  38.276  26.303  1.00  0.00     0.011 C 
HETATM   15  C21 UNL     1      70.554  37.853  25.379  1.00  0.00    -0.033 C 
HETATM   16  C22 UNL     1      71.071  37.940  24.000  1.00  0.00     0.016 C 
HETATM   17  C23 UNL     1      68.654  34.758  25.886  1.00  0.00     0.026 C 
HETATM   18  C24 UNL     1      67.613  33.860  25.404  1.00  0.00     0.016 C 
HETATM   19  C25 UNL     1      68.334  32.675  24.883  1.00  0.00     0.066 C 
ENDROOT
BRANCH   1  20
HETATM   20  O2  UNL     1      70.790  32.331  24.181  1.00  0.00    -0.283 OA
BRANCH  20  21
HETATM   21  C2  UNL     1      71.543  31.383  24.824  1.00  0.00     0.259 C 
HETATM   22  C1  UNL     1      72.907  31.700  25.352  1.00  0.00     0.126 C 
HETATM   23  O1  UNL     1      71.122  30.217  24.996  1.00  0.00    -0.265 OA
ENDBRANCH  20  21
ENDBRANCH   1  20
BRANCH   3  24
HETATM   24  C6  UNL     1      71.459  34.957  27.130  1.00  0.00     0.035 C 
BRANCH  24  25
HETATM   25  C7  UNL     1      72.945  34.990  27.141  1.00  0.00     0.165 C 
BRANCH  25  26
HETATM   26  O3  UNL     1      73.448  35.536  28.337  1.00  0.00    -0.401 OA
ATOM     27  H3  UNL     1      74.370  35.342  28.455  1.00  0.00     0.209 HD
ENDBRANCH  25  26
ENDBRANCH  24  25
ENDBRANCH   3  24
BRANCH  10  28
HETATM   28  O4  UNL     1      69.983  40.365  23.982  1.00  0.00    -0.389 OA
ATOM     29  H4  UNL     1      70.895  40.577  23.826  1.00  0.00     0.210 HD
ENDBRANCH  10  28
BRANCH  12  30
HETATM   30  C17 UNL     1      70.722  41.165  27.498  1.00  0.00     0.130 C 
HETATM   31  C18 UNL     1      70.178  40.424  28.650  1.00  0.00     0.091 C 
HETATM   32  O5  UNL     1      70.996  42.349  27.718  1.00  0.00    -0.298 OA
ENDBRANCH  12  30
TORSDOF 7
ENDMDL
