MODEL 1
REMARK VINA RESULT: -7.286367450      0.000      0.000
REMARK  6 active torsions:
REMARK  status: ('A' for Active; 'I' for Inactive)
REMARK    1  A    between atoms: C2_2  and  C3_3 
REMARK    2  A    between atoms: C3_3  and  N1_6 
REMARK       I    between atoms: N1_6  and  C6_8 
REMARK    3  A    between atoms: C6_8  and  O2_10 
REMARK    4  A    between atoms: O2_10  and  C7_11 
REMARK    5  A    between atoms: C13_17  and  O3_18 
REMARK    6  A    between atoms: C20_26  and  C21_27 
ROOT
HETATM    1  C7  UNL     1      72.085  35.244  26.446  1.00  0.00     0.134 C 
HETATM    2  C8  UNL     1      71.678  35.895  27.715  1.00  0.00     0.033 C 
HETATM    3  C9  UNL     1      71.222  37.271  27.401  1.00  0.00     0.013 C 
HETATM    4  C10 UNL     1      71.398  37.501  25.912  1.00  0.00    -0.025 C 
HETATM    5  C11 UNL     1      71.569  36.092  25.335  1.00  0.00     0.043 C 
HETATM    6  C12 UNL     1      72.718  38.139  25.713  1.00  0.00     0.029 C 
HETATM    7  C13 UNL     1      73.141  39.450  26.085  1.00  0.00     0.131 C 
HETATM    8  C14 UNL     1      73.932  39.502  24.760  1.00  0.00    -0.017 C 
HETATM    9  C15 UNL     1      75.293  38.915  24.956  1.00  0.00     0.018 C 
HETATM   10  C16 UNL     1      73.890  40.832  24.079  1.00  0.00     0.018 C 
HETATM   11  C17 UNL     1      72.928  38.482  24.233  1.00  0.00     0.003 C 
HETATM   12  C18 UNL     1      71.721  39.036  23.575  1.00  0.00     0.006 C 
HETATM   13  C19 UNL     1      70.459  38.186  23.790  1.00  0.00     0.009 C 
HETATM   14  C20 UNL     1      70.247  38.217  25.298  1.00  0.00     0.031 C 
ENDROOT
BRANCH  14  15
HETATM   15  C21 UNL     1      68.900  37.870  25.765  1.00  0.00     0.088 A 
HETATM   16  C22 UNL     1      68.211  36.563  25.470  1.00  0.00     0.049 C 
HETATM   17  O4  UNL     1      67.965  38.945  25.293  1.00  0.00    -0.370 OA
HETATM   18  C23 UNL     1      68.110  38.788  26.663  1.00  0.00     0.153 A 
HETATM   19  C24 UNL     1      68.780  39.961  27.332  1.00  0.00     0.042 C 
ENDBRANCH  14  15
BRANCH   1  20
HETATM   20  O2  UNL     1      71.689  33.895  26.347  1.00  0.00    -0.299 OA
BRANCH  20  21
HETATM   21  C6  UNL     1      72.570  32.852  25.997  1.00  0.00     0.361 C 
HETATM   22  N1  UNL     1      72.125  31.848  25.135  1.00  0.00    -0.328 N 
ATOM     23  H1  UNL     1      71.156  31.963  24.840  1.00  0.00     0.165 HD
HETATM   24  O1  UNL     1      73.695  32.969  26.533  1.00  0.00    -0.238 OA
BRANCH  22  25
HETATM   25  C3  UNL     1      72.753  30.699  24.585  1.00  0.00     0.027 C 
HETATM   26  C4  UNL     1      72.857  30.855  23.037  1.00  0.00     0.038 C 
HETATM   27  C5  UNL     1      71.865  29.453  24.746  1.00  0.00     0.038 C 
BRANCH  25  28
HETATM   28  C2  UNL     1      74.095  30.363  25.127  1.00  0.00     0.026 C 
HETATM   29  C1  UNL     1      75.199  30.429  24.151  1.00  0.00     0.007 C 
ENDBRANCH  25  28
ENDBRANCH  22  25
ENDBRANCH  20  21
ENDBRANCH   1  20
BRANCH   7  30
HETATM   30  O3  UNL     1      72.371  40.557  26.174  1.00  0.00    -0.394 OA
ATOM     31  H3  UNL     1      72.658  41.437  26.388  1.00  0.00     0.210 HD
ENDBRANCH   7  30
TORSDOF 6
ENDMDL
MODEL 2
REMARK VINA RESULT: -7.233922368      1.820      4.110
REMARK  6 active torsions:
REMARK  status: ('A' for Active; 'I' for Inactive)
REMARK    1  A    between atoms: C2_2  and  C3_3 
REMARK    2  A    between atoms: C3_3  and  N1_6 
REMARK       I    between atoms: N1_6  and  C6_8 
REMARK    3  A    between atoms: C6_8  and  O2_10 
REMARK    4  A    between atoms: O2_10  and  C7_11 
REMARK    5  A    between atoms: C13_17  and  O3_18 
REMARK    6  A    between atoms: C20_26  and  C21_27 
ROOT
HETATM    1  C7  UNL     1      69.306  34.275  25.369  1.00  0.00     0.134 C 
HETATM    2  C8  UNL     1      70.046  34.442  24.094  1.00  0.00     0.033 C 
HETATM    3  C9  UNL     1      70.737  35.754  24.131  1.00  0.00     0.013 C 
HETATM    4  C10 UNL     1      70.377  36.443  25.434  1.00  0.00    -0.025 C 
HETATM    5  C11 UNL     1      69.809  35.318  26.306  1.00  0.00     0.043 C 
HETATM    6  C12 UNL     1      69.215  37.320  25.168  1.00  0.00     0.029 C 
HETATM    7  C13 UNL     1      69.157  38.511  24.386  1.00  0.00     0.131 C 
HETATM    8  C14 UNL     1      68.193  39.085  25.446  1.00  0.00    -0.017 C 
HETATM    9  C15 UNL     1      66.786  38.699  25.117  1.00  0.00     0.018 C 
HETATM   10  C16 UNL     1      68.416  40.532  25.750  1.00  0.00     0.018 C 
HETATM   11  C17 UNL     1      68.849  38.118  26.425  1.00  0.00     0.003 C 
HETATM   12  C18 UNL     1      70.025  38.636  27.164  1.00  0.00     0.006 C 
HETATM   13  C19 UNL     1      71.087  37.564  27.457  1.00  0.00     0.009 C 
HETATM   14  C20 UNL     1      71.543  37.109  26.076  1.00  0.00     0.031 C 
ENDROOT
BRANCH  14  15
HETATM   15  C21 UNL     1      72.838  36.422  26.021  1.00  0.00     0.088 A 
HETATM   16  C22 UNL     1      73.109  35.074  26.636  1.00  0.00     0.049 C 
HETATM   17  O4  UNL     1      73.869  37.351  26.591  1.00  0.00    -0.370 OA
HETATM   18  C23 UNL     1      74.007  36.992  25.259  1.00  0.00     0.153 A 
HETATM   19  C24 UNL     1      73.807  38.143  24.306  1.00  0.00     0.042 C 
ENDBRANCH  14  15
BRANCH   1  20
HETATM   20  O2  UNL     1      69.375  32.971  25.899  1.00  0.00    -0.299 OA
BRANCH  20  21
HETATM   21  C6  UNL     1      70.033  31.906  25.253  1.00  0.00     0.361 C 
HETATM   22  N1  UNL     1      71.429  31.890  25.221  1.00  0.00    -0.328 N 
ATOM     23  H1  UNL     1      71.857  32.697  25.675  1.00  0.00     0.165 HD
HETATM   24  O1  UNL     1      69.240  31.068  24.768  1.00  0.00    -0.238 OA
BRANCH  22  25
HETATM   25  C3  UNL     1      72.373  30.975  24.683  1.00  0.00     0.027 C 
HETATM   26  C4  UNL     1      72.450  31.158  23.136  1.00  0.00     0.038 C 
HETATM   27  C5  UNL     1      71.886  29.524  24.834  1.00  0.00     0.038 C 
BRANCH  25  28
HETATM   28  C2  UNL     1      73.747  31.046  25.244  1.00  0.00     0.026 C 
HETATM   29  C1  UNL     1      74.793  30.411  24.422  1.00  0.00     0.007 C 
ENDBRANCH  25  28
ENDBRANCH  22  25
ENDBRANCH  20  21
ENDBRANCH   1  20
BRANCH   7  30
HETATM   30  O3  UNL     1      70.156  39.399  24.182  1.00  0.00    -0.394 OA
ATOM     31  H3  UNL     1      70.758  39.422  23.447  1.00  0.00     0.210 HD
ENDBRANCH   7  30
TORSDOF 6
ENDMDL
MODEL 3
REMARK VINA RESULT: -7.137572874      3.242      7.089
REMARK  6 active torsions:
REMARK  status: ('A' for Active; 'I' for Inactive)
REMARK    1  A    between atoms: C2_2  and  C3_3 
REMARK    2  A    between atoms: C3_3  and  N1_6 
REMARK       I    between atoms: N1_6  and  C6_8 
REMARK    3  A    between atoms: C6_8  and  O2_10 
REMARK    4  A    between atoms: O2_10  and  C7_11 
REMARK    5  A    between atoms: C13_17  and  O3_18 
REMARK    6  A    between atoms: C20_26  and  C21_27 
ROOT
HETATM    1  C7  UNL     1      67.578  32.158  25.582  1.00  0.00     0.134 C 
HETATM    2  C8  UNL     1      68.077  32.285  26.973  1.00  0.00     0.033 C 
HETATM    3  C9  UNL     1      69.479  32.767  26.917  1.00  0.00     0.013 C 
HETATM    4  C10 UNL     1      69.879  32.893  25.460  1.00  0.00    -0.025 C 
HETATM    5  C11 UNL     1      68.547  32.873  24.704  1.00  0.00     0.043 C 
HETATM    6  C12 UNL     1      70.540  31.628  25.068  1.00  0.00     0.029 C 
HETATM    7  C13 UNL     1      71.801  31.112  25.491  1.00  0.00     0.131 C 
HETATM    8  C14 UNL     1      72.007  30.606  24.047  1.00  0.00    -0.017 C 
HETATM    9  C15 UNL     1      71.405  29.246  23.893  1.00  0.00     0.018 C 
HETATM   10  C16 UNL     1      73.407  30.759  23.544  1.00  0.00     0.018 C 
HETATM   11  C17 UNL     1      71.052  31.718  23.625  1.00  0.00     0.003 C 
HETATM   12  C18 UNL     1      71.674  33.022  23.295  1.00  0.00     0.006 C 
HETATM   13  C19 UNL     1      70.801  34.231  23.666  1.00  0.00     0.009 C 
HETATM   14  C20 UNL     1      70.658  34.131  25.179  1.00  0.00     0.031 C 
ENDROOT
BRANCH  14  15
HETATM   15  C21 UNL     1      70.255  35.361  25.870  1.00  0.00     0.088 A 
HETATM   16  C22 UNL     1      68.902  36.007  25.731  1.00  0.00     0.049 C 
HETATM   17  O4  UNL     1      71.257  36.423  25.524  1.00  0.00    -0.370 OA
HETATM   18  C23 UNL     1      71.163  36.051  26.856  1.00  0.00     0.153 A 
HETATM   19  C24 UNL     1      72.398  35.355  27.371  1.00  0.00     0.042 C 
ENDBRANCH  14  15
BRANCH   1  20
HETATM   20  O2  UNL     1      66.248  32.594  25.414  1.00  0.00    -0.299 OA
BRANCH  20  21
HETATM   21  C6  UNL     1      65.907  33.878  24.943  1.00  0.00     0.361 C 
HETATM   22  N1  UNL     1      66.508  34.355  23.777  1.00  0.00    -0.328 N 
ATOM     23  H1  UNL     1      67.178  33.704  23.368  1.00  0.00     0.165 HD
HETATM   24  O1  UNL     1      65.066  34.452  25.670  1.00  0.00    -0.238 OA
BRANCH  22  25
HETATM   25  C3  UNL     1      66.371  35.564  23.044  1.00  0.00     0.027 C 
HETATM   26  C4  UNL     1      65.486  35.311  21.786  1.00  0.00     0.038 C 
HETATM   27  C5  UNL     1      67.716  35.998  22.437  1.00  0.00     0.038 C 
BRANCH  25  28
HETATM   28  C2  UNL     1      65.824  36.725  23.793  1.00  0.00     0.026 C 
HETATM   29  C1  UNL     1      66.566  37.988  23.619  1.00  0.00     0.007 C 
ENDBRANCH  25  28
ENDBRANCH  22  25
ENDBRANCH  20  21
ENDBRANCH   1  20
BRANCH   7  30
HETATM   30  O3  UNL     1      72.888  31.825  25.861  1.00  0.00    -0.394 OA
ATOM     31  H3  UNL     1      73.416  32.389  25.308  1.00  0.00     0.210 HD
ENDBRANCH   7  30
TORSDOF 6
ENDMDL
MODEL 4
REMARK VINA RESULT: -7.135777125      0.989      1.560
REMARK  6 active torsions:
REMARK  status: ('A' for Active; 'I' for Inactive)
REMARK    1  A    between atoms: C2_2  and  C3_3 
REMARK    2  A    between atoms: C3_3  and  N1_6 
REMARK       I    between atoms: N1_6  and  C6_8 
REMARK    3  A    between atoms: C6_8  and  O2_10 
REMARK    4  A    between atoms: O2_10  and  C7_11 
REMARK    5  A    between atoms: C13_17  and  O3_18 
REMARK    6  A    between atoms: C20_26  and  C21_27 
ROOT
HETATM    1  C7  UNL     1      71.564  35.015  26.180  1.00  0.00     0.134 C 
HETATM    2  C8  UNL     1      71.531  35.573  27.553  1.00  0.00     0.033 C 
HETATM    3  C9  UNL     1      71.459  37.051  27.448  1.00  0.00     0.013 C 
HETATM    4  C10 UNL     1      71.502  37.424  25.978  1.00  0.00    -0.025 C 
HETATM    5  C11 UNL     1      71.179  36.115  25.252  1.00  0.00     0.043 C 
HETATM    6  C12 UNL     1      72.914  37.697  25.629  1.00  0.00     0.029 C 
HETATM    7  C13 UNL     1      73.744  38.778  26.048  1.00  0.00     0.131 C 
HETATM    8  C14 UNL     1      74.339  38.791  24.623  1.00  0.00    -0.017 C 
HETATM    9  C15 UNL     1      75.483  37.831  24.540  1.00  0.00     0.018 C 
HETATM   10  C16 UNL     1      74.599  40.162  24.086  1.00  0.00     0.018 C 
HETATM   11  C17 UNL     1      73.022  38.167  24.173  1.00  0.00     0.003 C 
HETATM   12  C18 UNL     1      71.955  39.115  23.774  1.00  0.00     0.006 C 
HETATM   13  C19 UNL     1      70.538  38.623  24.111  1.00  0.00     0.009 C 
HETATM   14  C20 UNL     1      70.540  38.505  25.629  1.00  0.00     0.031 C 
ENDROOT
BRANCH  14  15
HETATM   15  C21 UNL     1      69.222  38.481  26.274  1.00  0.00     0.088 A 
HETATM   16  C22 UNL     1      68.149  37.470  25.970  1.00  0.00     0.049 C 
HETATM   17  O4  UNL     1      68.592  39.827  26.068  1.00  0.00    -0.370 OA
HETATM   18  C23 UNL     1      68.859  39.446  27.374  1.00  0.00     0.153 A 
HETATM   19  C24 UNL     1      69.924  40.283  28.036  1.00  0.00     0.042 C 
ENDBRANCH  14  15
BRANCH   1  20
HETATM   20  O2  UNL     1      70.782  33.853  26.020  1.00  0.00    -0.299 OA
BRANCH  20  21
HETATM   21  C6  UNL     1      71.120  32.806  25.140  1.00  0.00     0.361 C 
HETATM   22  N1  UNL     1      72.238  32.018  25.419  1.00  0.00    -0.328 N 
ATOM     23  H1  UNL     1      72.734  32.299  26.264  1.00  0.00     0.165 HD
HETATM   24  O1  UNL     1      70.332  32.714  24.172  1.00  0.00    -0.238 OA
BRANCH  22  25
HETATM   25  C3  UNL     1      72.823  30.903  24.762  1.00  0.00     0.027 C 
HETATM   26  C4  UNL     1      74.240  30.636  25.355  1.00  0.00     0.038 C 
HETATM   27  C5  UNL     1      73.121  31.223  23.287  1.00  0.00     0.038 C 
BRANCH  25  28
HETATM   28  C2  UNL     1      72.042  29.639  24.796  1.00  0.00     0.026 C 
HETATM   29  C1  UNL     1      71.321  29.315  23.550  1.00  0.00     0.007 C 
ENDBRANCH  25  28
ENDBRANCH  22  25
ENDBRANCH  20  21
ENDBRANCH   1  20
BRANCH   7  30
HETATM   30  O3  UNL     1      73.349  40.031  26.364  1.00  0.00    -0.394 OA
ATOM     31  H3  UNL     1      73.085  40.716  25.761  1.00  0.00     0.210 HD
ENDBRANCH   7  30
TORSDOF 6
ENDMDL
MODEL 5
REMARK VINA RESULT: -7.068067272      2.331      4.562
REMARK  6 active torsions:
REMARK  status: ('A' for Active; 'I' for Inactive)
REMARK    1  A    between atoms: C2_2  and  C3_3 
REMARK    2  A    between atoms: C3_3  and  N1_6 
REMARK       I    between atoms: N1_6  and  C6_8 
REMARK    3  A    between atoms: C6_8  and  O2_10 
REMARK    4  A    between atoms: O2_10  and  C7_11 
REMARK    5  A    between atoms: C13_17  and  O3_18 
REMARK    6  A    between atoms: C20_26  and  C21_27 
ROOT
HETATM    1  C7  UNL     1      69.368  33.895  24.685  1.00  0.00     0.134 C 
HETATM    2  C8  UNL     1      70.556  34.417  23.967  1.00  0.00     0.033 C 
HETATM    3  C9  UNL     1      70.375  35.876  23.775  1.00  0.00     0.013 C 
HETATM    4  C10 UNL     1      69.021  36.264  24.340  1.00  0.00    -0.025 C 
HETATM    5  C11 UNL     1      68.630  35.074  25.221  1.00  0.00     0.043 C 
HETATM    6  C12 UNL     1      68.047  36.229  23.226  1.00  0.00     0.029 C 
HETATM    7  C13 UNL     1      67.954  37.092  22.095  1.00  0.00     0.131 C 
HETATM    8  C14 UNL     1      66.419  37.007  22.235  1.00  0.00    -0.017 C 
HETATM    9  C15 UNL     1      65.904  35.822  21.481  1.00  0.00     0.018 C 
HETATM   10  C16 UNL     1      65.712  38.299  21.979  1.00  0.00     0.018 C 
HETATM   11  C17 UNL     1      66.668  36.696  23.708  1.00  0.00     0.003 C 
HETATM   12  C18 UNL     1      66.721  37.863  24.620  1.00  0.00     0.006 C 
HETATM   13  C19 UNL     1      67.704  37.686  25.788  1.00  0.00     0.009 C 
HETATM   14  C20 UNL     1      69.060  37.537  25.111  1.00  0.00     0.031 C 
ENDROOT
BRANCH  14  15
HETATM   15  C21 UNL     1      70.232  37.787  25.957  1.00  0.00     0.088 A 
HETATM   16  C22 UNL     1      70.597  36.964  27.164  1.00  0.00     0.049 C 
HETATM   17  O4  UNL     1      70.152  39.207  26.434  1.00  0.00    -0.370 OA
HETATM   18  C23 UNL     1      71.230  38.869  25.630  1.00  0.00     0.153 A 
HETATM   19  C24 UNL     1      71.207  39.545  24.283  1.00  0.00     0.042 C 
ENDBRANCH  14  15
BRANCH   1  20
HETATM   20  O2  UNL     1      69.677  32.936  25.671  1.00  0.00    -0.299 OA
BRANCH  20  21
HETATM   21  C6  UNL     1      70.268  31.691  25.382  1.00  0.00     0.361 C 
HETATM   22  N1  UNL     1      71.592  31.653  24.940  1.00  0.00    -0.328 N 
ATOM     23  H1  UNL     1      72.018  32.575  24.850  1.00  0.00     0.165 HD
HETATM   24  O1  UNL     1      69.489  30.729  25.570  1.00  0.00    -0.238 OA
BRANCH  22  25
HETATM   25  C3  UNL     1      72.465  30.589  24.591  1.00  0.00     0.027 C 
HETATM   26  C4  UNL     1      72.697  30.592  23.050  1.00  0.00     0.038 C 
HETATM   27  C5  UNL     1      71.799  29.224  24.836  1.00  0.00     0.038 C 
BRANCH  25  28
HETATM   28  C2  UNL     1      73.783  30.571  25.277  1.00  0.00     0.026 C 
HETATM   29  C1  UNL     1      74.951  30.452  24.384  1.00  0.00     0.007 C 
ENDBRANCH  25  28
ENDBRANCH  22  25
ENDBRANCH  20  21
ENDBRANCH   1  20
BRANCH   7  30
HETATM   30  O3  UNL     1      68.312  38.394  22.035  1.00  0.00    -0.394 OA
ATOM     31  H3  UNL     1      67.736  39.148  22.088  1.00  0.00     0.210 HD
ENDBRANCH   7  30
TORSDOF 6
ENDMDL
