MODEL 1
REMARK VINA RESULT: -8.331819568      0.000      0.000
REMARK  5 active torsions:
REMARK  status: ('A' for Active; 'I' for Inactive)
REMARK    1  A    between atoms: C2_2  and  O1_3 
REMARK    2  A    between atoms: O1_3  and  C3_4 
REMARK    3  A    between atoms: C3_4  and  C4_6 
REMARK    4  A    between atoms: C5_7  and  N1_8 
REMARK       I    between atoms: N1_8  and  C6_10 
REMARK       I    between atoms: C6_10  and  N2_12 
REMARK    5  A    between atoms: N2_12  and  C7_14 
ROOT
HETATM    1  N1  UNL     1      69.581  33.773  24.344  1.00  0.00    -0.302 N 
ATOM      2  H1  UNL     1      69.940  34.704  24.129  1.00  0.00     0.171 HD
HETATM    3  C6  UNL     1      70.406  32.628  24.227  1.00  0.00     0.321 C 
HETATM    4  O3  UNL     1      69.985  31.464  24.490  1.00  0.00    -0.247 OA
HETATM    5  N2  UNL     1      71.747  32.748  23.808  1.00  0.00    -0.337 N 
ATOM      6  H2  UNL     1      72.113  33.675  23.589  1.00  0.00     0.164 HD
ENDROOT
BRANCH   1   7
HETATM    7  C5  UNL     1      68.223  33.584  24.777  1.00  0.00     0.095 A 
HETATM    8  C4  UNL     1      67.040  34.046  24.286  1.00  0.00     0.080 A 
HETATM    9  C18 UNL     1      65.909  33.669  24.950  1.00  0.00    -0.030 A 
HETATM   10  C16 UNL     1      66.063  32.867  26.038  1.00  0.00    -0.012 A 
HETATM   11  C19 UNL     1      64.504  34.101  24.534  1.00  0.00     0.050 C 
HETATM   12  S1  UNL     1      67.736  32.635  26.149  1.00  0.00    -0.076 SA
HETATM   13  C17 UNL     1      64.976  32.312  26.940  1.00  0.00     0.057 C 
BRANCH   8  14
HETATM   14  C3  UNL     1      66.997  34.925  23.072  1.00  0.00     0.296 C 
HETATM   15  O2  UNL     1      66.316  34.641  22.077  1.00  0.00    -0.259 OA
BRANCH  14  16
HETATM   16  O1  UNL     1      67.714  36.104  22.991  1.00  0.00    -0.318 OA
BRANCH  16  17
HETATM   17  C2  UNL     1      67.192  37.378  22.739  1.00  0.00     0.174 C 
HETATM   18  C1  UNL     1      66.737  38.142  23.931  1.00  0.00     0.034 C 
ENDBRANCH  16  17
ENDBRANCH  14  16
ENDBRANCH   8  14
ENDBRANCH   1   7
BRANCH   5  19
HETATM   19  C7  UNL     1      72.626  31.602  23.676  1.00  0.00     0.095 C 
HETATM   20  C8  UNL     1      73.155  31.578  22.255  1.00  0.00     0.031 C 
HETATM   21  C9  UNL     1      74.658  31.727  22.404  1.00  0.00    -0.008 C 
HETATM   22  C10 UNL     1      75.176  30.450  22.995  1.00  0.00     0.006 C 
HETATM   23  C14 UNL     1      74.706  32.644  23.638  1.00  0.00    -0.004 C 
HETATM   24  C11 UNL     1      74.619  30.441  24.416  1.00  0.00     0.012 C 
HETATM   25  C12 UNL     1      73.865  31.723  24.534  1.00  0.00    -0.020 C 
HETATM   26  C13 UNL     1      73.641  32.236  25.886  1.00  0.00     0.018 C 
HETATM   27  C15 UNL     1      76.091  32.820  24.156  1.00  0.00     0.011 C 
ENDBRANCH   5  19
TORSDOF 5
ENDMDL
MODEL 2
REMARK VINA RESULT: -8.176049391      4.601      6.876
REMARK  5 active torsions:
REMARK  status: ('A' for Active; 'I' for Inactive)
REMARK    1  A    between atoms: C2_2  and  O1_3 
REMARK    2  A    between atoms: O1_3  and  C3_4 
REMARK    3  A    between atoms: C3_4  and  C4_6 
REMARK    4  A    between atoms: C5_7  and  N1_8 
REMARK       I    between atoms: N1_8  and  C6_10 
REMARK       I    between atoms: C6_10  and  N2_12 
REMARK    5  A    between atoms: N2_12  and  C7_14 
ROOT
HETATM    1  N1  UNL     1      71.946  34.878  26.588  1.00  0.00    -0.302 N 
ATOM      2  H1  UNL     1      72.039  35.048  27.590  1.00  0.00     0.171 HD
HETATM    3  C6  UNL     1      71.939  35.951  25.664  1.00  0.00     0.321 C 
HETATM    4  O3  UNL     1      71.826  35.767  24.417  1.00  0.00    -0.247 OA
HETATM    5  N2  UNL     1      72.060  37.284  26.109  1.00  0.00    -0.337 N 
ATOM      6  H2  UNL     1      72.152  37.462  27.110  1.00  0.00     0.164 HD
ENDROOT
BRANCH   1   7
HETATM    7  C5  UNL     1      71.818  33.543  26.071  1.00  0.00     0.095 A 
HETATM    8  C4  UNL     1      70.733  32.745  25.872  1.00  0.00     0.080 A 
HETATM    9  C18 UNL     1      70.968  31.505  25.353  1.00  0.00    -0.030 A 
HETATM   10  C16 UNL     1      72.260  31.177  25.082  1.00  0.00    -0.012 A 
HETATM   11  C19 UNL     1      69.865  30.486  25.071  1.00  0.00     0.050 C 
HETATM   12  S1  UNL     1      73.140  32.551  25.533  1.00  0.00    -0.076 SA
HETATM   13  C17 UNL     1      72.783  29.874  24.506  1.00  0.00     0.057 C 
BRANCH   8  14
HETATM   14  C3  UNL     1      69.352  33.221  26.208  1.00  0.00     0.296 C 
HETATM   15  O2  UNL     1      68.887  34.274  25.748  1.00  0.00    -0.259 OA
BRANCH  14  16
HETATM   16  O1  UNL     1      68.514  32.513  27.050  1.00  0.00    -0.318 OA
BRANCH  16  17
HETATM   17  C2  UNL     1      67.178  32.178  26.802  1.00  0.00     0.174 C 
HETATM   18  C1  UNL     1      66.299  32.080  27.998  1.00  0.00     0.034 C 
ENDBRANCH  16  17
ENDBRANCH  14  16
ENDBRANCH   8  14
ENDBRANCH   1   7
BRANCH   5  19
HETATM   19  C7  UNL     1      72.059  38.411  25.196  1.00  0.00     0.095 C 
HETATM   20  C8  UNL     1      71.011  39.398  25.672  1.00  0.00     0.031 C 
HETATM   21  C9  UNL     1      71.792  40.660  25.992  1.00  0.00    -0.008 C 
HETATM   22  C10 UNL     1      72.254  41.239  24.689  1.00  0.00     0.006 C 
HETATM   23  C14 UNL     1      73.101  40.033  26.499  1.00  0.00    -0.004 C 
HETATM   24  C11 UNL     1      73.284  40.236  24.177  1.00  0.00     0.012 C 
HETATM   25  C12 UNL     1      73.353  39.191  25.241  1.00  0.00    -0.020 C 
HETATM   26  C13 UNL     1      74.570  38.379  25.291  1.00  0.00     0.018 C 
HETATM   27  C15 UNL     1      74.166  41.051  26.718  1.00  0.00     0.011 C 
ENDBRANCH   5  19
TORSDOF 5
ENDMDL
MODEL 3
REMARK VINA RESULT: -8.160553299      4.522      7.187
REMARK  5 active torsions:
REMARK  status: ('A' for Active; 'I' for Inactive)
REMARK    1  A    between atoms: C2_2  and  O1_3 
REMARK    2  A    between atoms: O1_3  and  C3_4 
REMARK    3  A    between atoms: C3_4  and  C4_6 
REMARK    4  A    between atoms: C5_7  and  N1_8 
REMARK       I    between atoms: N1_8  and  C6_10 
REMARK       I    between atoms: C6_10  and  N2_12 
REMARK    5  A    between atoms: N2_12  and  C7_14 
ROOT
HETATM    1  N1  UNL     1      72.337  34.533  26.270  1.00  0.00    -0.302 N 
ATOM      2  H1  UNL     1      73.001  34.575  27.044  1.00  0.00     0.171 HD
HETATM    3  C6  UNL     1      72.039  35.685  25.502  1.00  0.00     0.321 C 
HETATM    4  O3  UNL     1      71.222  35.660  24.537  1.00  0.00    -0.247 OA
HETATM    5  N2  UNL     1      72.654  36.921  25.792  1.00  0.00    -0.337 N 
ATOM      6  H2  UNL     1      73.317  36.971  26.566  1.00  0.00     0.164 HD
ENDROOT
BRANCH   1   7
HETATM    7  C5  UNL     1      71.677  33.304  25.924  1.00  0.00     0.095 A 
HETATM    8  C4  UNL     1      72.145  32.138  25.398  1.00  0.00     0.080 A 
HETATM    9  C18 UNL     1      71.230  31.147  25.188  1.00  0.00    -0.030 A 
HETATM   10  C16 UNL     1      69.938  31.411  25.521  1.00  0.00    -0.012 A 
HETATM   11  C19 UNL     1      71.585  29.781  24.603  1.00  0.00     0.050 C 
HETATM   12  S1  UNL     1      69.978  32.996  26.114  1.00  0.00    -0.076 SA
HETATM   13  C17 UNL     1      68.741  30.488  25.389  1.00  0.00     0.057 C 
BRANCH   8  14
HETATM   14  C3  UNL     1      73.597  31.964  25.073  1.00  0.00     0.296 C 
HETATM   15  O2  UNL     1      74.330  31.198  25.715  1.00  0.00    -0.259 OA
BRANCH  14  16
HETATM   16  O1  UNL     1      74.207  32.647  24.037  1.00  0.00    -0.318 OA
BRANCH  16  17
HETATM   17  C2  UNL     1      74.545  32.124  22.783  1.00  0.00     0.174 C 
HETATM   18  C1  UNL     1      73.414  31.609  21.966  1.00  0.00     0.034 C 
ENDBRANCH  16  17
ENDBRANCH  14  16
ENDBRANCH   8  14
ENDBRANCH   1   7
BRANCH   5  19
HETATM   19  C7  UNL     1      72.377  38.124  25.031  1.00  0.00     0.095 C 
HETATM   20  C8  UNL     1      71.246  38.864  25.718  1.00  0.00     0.031 C 
HETATM   21  C9  UNL     1      71.850  40.197  26.121  1.00  0.00    -0.008 C 
HETATM   22  C10 UNL     1      72.073  40.983  24.864  1.00  0.00     0.006 C 
HETATM   23  C14 UNL     1      73.288  39.747  26.426  1.00  0.00    -0.004 C 
HETATM   24  C11 UNL     1      73.184  40.228  24.141  1.00  0.00     0.012 C 
HETATM   25  C12 UNL     1      73.531  39.101  25.055  1.00  0.00    -0.020 C 
HETATM   26  C13 UNL     1      74.858  38.504  24.896  1.00  0.00     0.018 C 
HETATM   27  C15 UNL     1      74.199  40.900  26.673  1.00  0.00     0.011 C 
ENDBRANCH   5  19
TORSDOF 5
ENDMDL
MODEL 4
REMARK VINA RESULT: -8.129385251      4.553      6.552
REMARK  5 active torsions:
REMARK  status: ('A' for Active; 'I' for Inactive)
REMARK    1  A    between atoms: C2_2  and  O1_3 
REMARK    2  A    between atoms: O1_3  and  C3_4 
REMARK    3  A    between atoms: C3_4  and  C4_6 
REMARK    4  A    between atoms: C5_7  and  N1_8 
REMARK       I    between atoms: N1_8  and  C6_10 
REMARK       I    between atoms: C6_10  and  N2_12 
REMARK    5  A    between atoms: N2_12  and  C7_14 
ROOT
HETATM    1  N1  UNL     1      72.023  34.707  26.523  1.00  0.00    -0.302 N 
ATOM      2  H1  UNL     1      72.211  34.867  27.513  1.00  0.00     0.171 HD
HETATM    3  C6  UNL     1      71.987  35.782  25.603  1.00  0.00     0.321 C 
HETATM    4  O3  UNL     1      71.757  35.610  24.372  1.00  0.00    -0.247 OA
HETATM    5  N2  UNL     1      72.210  37.106  26.037  1.00  0.00    -0.337 N 
ATOM      6  H2  UNL     1      72.397  37.275  27.026  1.00  0.00     0.164 HD
ENDROOT
BRANCH   1   7
HETATM    7  C5  UNL     1      71.786  33.381  26.019  1.00  0.00     0.095 A 
HETATM    8  C4  UNL     1      70.645  32.652  25.879  1.00  0.00     0.080 A 
HETATM    9  C18 UNL     1      70.776  31.399  25.354  1.00  0.00    -0.030 A 
HETATM   10  C16 UNL     1      72.030  30.992  25.018  1.00  0.00    -0.012 A 
HETATM   11  C19 UNL     1      69.599  30.450  25.134  1.00  0.00     0.050 C 
HETATM   12  S1  UNL     1      73.014  32.309  25.417  1.00  0.00    -0.076 SA
HETATM   13  C17 UNL     1      72.441  29.659  24.421  1.00  0.00     0.057 C 
BRANCH   8  14
HETATM   14  C3  UNL     1      69.315  33.212  26.284  1.00  0.00     0.296 C 
HETATM   15  O2  UNL     1      68.591  32.652  27.120  1.00  0.00    -0.259 OA
BRANCH  14  16
HETATM   16  O1  UNL     1      68.817  34.385  25.750  1.00  0.00    -0.318 OA
BRANCH  16  17
HETATM   17  C2  UNL     1      68.322  34.564  24.453  1.00  0.00     0.174 C 
HETATM   18  C1  UNL     1      67.011  33.924  24.163  1.00  0.00     0.034 C 
ENDBRANCH  16  17
ENDBRANCH  14  16
ENDBRANCH   8  14
ENDBRANCH   1   7
BRANCH   5  19
HETATM   19  C7  UNL     1      72.184  38.236  25.128  1.00  0.00     0.095 C 
HETATM   20  C8  UNL     1      71.071  39.167  25.570  1.00  0.00     0.031 C 
HETATM   21  C9  UNL     1      71.775  40.465  25.921  1.00  0.00    -0.008 C 
HETATM   22  C10 UNL     1      72.254  41.073  24.636  1.00  0.00     0.006 C 
HETATM   23  C14 UNL     1      73.096  39.903  26.471  1.00  0.00    -0.004 C 
HETATM   24  C11 UNL     1      73.350  40.125  24.158  1.00  0.00     0.012 C 
HETATM   25  C12 UNL     1      73.435  39.080  25.220  1.00  0.00    -0.020 C 
HETATM   26  C13 UNL     1      74.689  38.331  25.311  1.00  0.00     0.018 C 
HETATM   27  C15 UNL     1      74.100  40.972  26.730  1.00  0.00     0.011 C 
ENDBRANCH   5  19
TORSDOF 5
ENDMDL
MODEL 5
REMARK VINA RESULT: -7.998950972      1.273      1.885
REMARK  5 active torsions:
REMARK  status: ('A' for Active; 'I' for Inactive)
REMARK    1  A    between atoms: C2_2  and  O1_3 
REMARK    2  A    between atoms: O1_3  and  C3_4 
REMARK    3  A    between atoms: C3_4  and  C4_6 
REMARK    4  A    between atoms: C5_7  and  N1_8 
REMARK       I    between atoms: N1_8  and  C6_10 
REMARK       I    between atoms: C6_10  and  N2_12 
REMARK    5  A    between atoms: N2_12  and  C7_14 
ROOT
HETATM    1  N1  UNL     1      69.601  33.042  26.128  1.00  0.00    -0.302 N 
ATOM      2  H1  UNL     1      70.081  33.418  26.946  1.00  0.00     0.171 HD
HETATM    3  C6  UNL     1      70.328  32.568  25.009  1.00  0.00     0.321 C 
HETATM    4  O3  UNL     1      69.757  32.096  23.984  1.00  0.00    -0.247 OA
HETATM    5  N2  UNL     1      71.738  32.607  25.000  1.00  0.00    -0.337 N 
ATOM      6  H2  UNL     1      72.225  32.983  25.813  1.00  0.00     0.164 HD
ENDROOT
BRANCH   1   7
HETATM    7  C5  UNL     1      68.166  32.976  26.076  1.00  0.00     0.095 A 
HETATM    8  C4  UNL     1      67.247  33.705  25.385  1.00  0.00     0.080 A 
HETATM    9  C18 UNL     1      65.936  33.374  25.568  1.00  0.00    -0.030 A 
HETATM   10  C16 UNL     1      65.664  32.349  26.420  1.00  0.00    -0.012 A 
HETATM   11  C19 UNL     1      64.780  34.093  24.873  1.00  0.00     0.050 C 
HETATM   12  S1  UNL     1      67.187  31.847  26.963  1.00  0.00    -0.076 SA
HETATM   13  C17 UNL     1      64.303  31.790  26.791  1.00  0.00     0.057 C 
BRANCH   8  14
HETATM   14  C3  UNL     1      67.669  34.814  24.469  1.00  0.00     0.296 C 
HETATM   15  O2  UNL     1      68.177  35.862  24.893  1.00  0.00    -0.259 OA
BRANCH  14  16
HETATM   16  O1  UNL     1      67.519  34.733  23.098  1.00  0.00    -0.318 OA
BRANCH  16  17
HETATM   17  C2  UNL     1      66.909  35.685  22.272  1.00  0.00     0.174 C 
HETATM   18  C1  UNL     1      65.908  35.162  21.305  1.00  0.00     0.034 C 
ENDBRANCH  16  17
ENDBRANCH  14  16
ENDBRANCH   8  14
ENDBRANCH   1   7
BRANCH   5  19
HETATM   19  C7  UNL     1      72.521  32.131  23.875  1.00  0.00     0.095 C 
HETATM   20  C8  UNL     1      73.763  32.994  23.770  1.00  0.00     0.031 C 
HETATM   21  C9  UNL     1      74.917  32.030  23.977  1.00  0.00    -0.008 C 
HETATM   22  C10 UNL     1      74.991  31.157  22.760  1.00  0.00     0.006 C 
HETATM   23  C14 UNL     1      74.268  31.060  24.977  1.00  0.00    -0.004 C 
HETATM   24  C11 UNL     1      73.726  30.307  22.831  1.00  0.00     0.012 C 
HETATM   25  C12 UNL     1      73.055  30.734  24.094  1.00  0.00    -0.020 C 
HETATM   26  C13 UNL     1      72.109  29.790  24.691  1.00  0.00     0.018 C 
HETATM   27  C15 UNL     1      75.115  29.862  25.232  1.00  0.00     0.011 C 
ENDBRANCH   5  19
TORSDOF 5
ENDMDL
