MODEL 1
REMARK VINA RESULT: -8.543083243      0.000      0.000
REMARK  7 active torsions:
REMARK  status: ('A' for Active; 'I' for Inactive)
REMARK    1  A    between atoms: C3_3  and  C4_4 
REMARK    2  A    between atoms: C4_4  and  O2_6 
REMARK    3  A    between atoms: O2_6  and  C5_7 
REMARK    4  A    between atoms: C6_8  and  C7_9 
REMARK    5  A    between atoms: C7_9  and  C8_10 
REMARK    6  A    between atoms: C15_17  and  O3_18 
REMARK    7  A    between atoms: C16_20  and  O4_21 
ROOT
HETATM    1  C5  UNL     1      70.287  33.316  24.806  1.00  0.00     0.144 C 
HETATM    2  C6  UNL     1      69.793  31.938  25.156  1.00  0.00     0.020 C 
HETATM    3  C12 UNL     1      70.480  31.042  24.136  1.00  0.00     0.019 C 
HETATM    4  C13 UNL     1      71.942  31.021  24.377  1.00  0.00    -0.011 C 
HETATM    5  C14 UNL     1      72.223  29.684  25.092  1.00  0.00     0.018 C 
HETATM    6  C15 UNL     1      72.617  30.843  23.007  1.00  0.00     0.155 C 
HETATM    7  C16 UNL     1      74.058  30.487  23.181  1.00  0.00     0.147 C 
HETATM    8  C17 UNL     1      74.728  31.398  24.176  1.00  0.00     0.035 C 
HETATM    9  C18 UNL     1      73.878  32.574  24.539  1.00  0.00     0.009 C 
HETATM   10  C19 UNL     1      72.522  32.144  25.122  1.00  0.00     0.007 C 
HETATM   11  C20 UNL     1      71.729  33.364  25.318  1.00  0.00    -0.016 C 
HETATM   12  C21 UNL     1      71.609  33.765  26.785  1.00  0.00     0.018 C 
HETATM   13  C22 UNL     1      72.333  34.592  24.618  1.00  0.00     0.018 C 
ENDROOT
BRANCH   1  14
HETATM   14  O2  UNL     1      69.545  34.316  25.476  1.00  0.00    -0.311 OA
BRANCH  14  15
HETATM   15  C4  UNL     1      68.814  35.314  24.900  1.00  0.00     0.282 C 
HETATM   16  O1  UNL     1      68.633  36.370  25.560  1.00  0.00    -0.260 OA
BRANCH  15  17
HETATM   17  C3  UNL     1      68.251  35.166  23.543  1.00  0.00     0.077 C 
HETATM   18  C2  UNL     1      66.968  35.343  23.359  1.00  0.00    -0.025 C 
HETATM   19  C1  UNL     1      66.376  35.202  22.010  1.00  0.00     0.036 C 
ENDBRANCH  15  17
ENDBRANCH  14  15
ENDBRANCH   1  14
BRANCH   2  20
HETATM   20  C7  UNL     1      68.308  31.767  25.137  1.00  0.00     0.034 C 
BRANCH  20  21
HETATM   21  C8  UNL     1      67.656  31.644  26.437  1.00  0.00    -0.024 C 
HETATM   22  C9  UNL     1      66.474  32.208  26.708  1.00  0.00    -0.091 C 
HETATM   23  C10 UNL     1      65.872  32.038  28.059  1.00  0.00     0.042 C 
HETATM   24  C11 UNL     1      65.721  33.006  25.716  1.00  0.00     0.042 C 
ENDBRANCH  20  21
ENDBRANCH   2  20
BRANCH   6  25
HETATM   25  O3  UNL     1      72.373  31.891  22.161  1.00  0.00    -0.392 OA
ATOM     26  H3  UNL     1      72.778  31.776  21.309  1.00  0.00     0.210 HD
ENDBRANCH   6  25
BRANCH   7  27
HETATM   27  O4  UNL     1      74.689  30.489  21.950  1.00  0.00    -0.393 OA
ATOM     28  H4  UNL     1      75.191  31.289  21.850  1.00  0.00     0.210 HD
ENDBRANCH   7  27
TORSDOF 7
ENDMDL
MODEL 2
REMARK VINA RESULT: -8.296572605      0.997      1.644
REMARK  7 active torsions:
REMARK  status: ('A' for Active; 'I' for Inactive)
REMARK    1  A    between atoms: C3_3  and  C4_4 
REMARK    2  A    between atoms: C4_4  and  O2_6 
REMARK    3  A    between atoms: O2_6  and  C5_7 
REMARK    4  A    between atoms: C6_8  and  C7_9 
REMARK    5  A    between atoms: C7_9  and  C8_10 
REMARK    6  A    between atoms: C15_17  and  O3_18 
REMARK    7  A    between atoms: C16_20  and  O4_21 
ROOT
HETATM    1  C5  UNL     1      70.262  33.230  24.725  1.00  0.00     0.144 C 
HETATM    2  C6  UNL     1      69.802  31.846  25.094  1.00  0.00     0.020 C 
HETATM    3  C12 UNL     1      70.528  30.951  24.101  1.00  0.00     0.019 C 
HETATM    4  C13 UNL     1      71.986  30.974  24.361  1.00  0.00    -0.011 C 
HETATM    5  C14 UNL     1      72.294  29.659  25.106  1.00  0.00     0.018 C 
HETATM    6  C15 UNL     1      72.684  30.790  23.005  1.00  0.00     0.155 C 
HETATM    7  C16 UNL     1      74.132  30.477  23.205  1.00  0.00     0.147 C 
HETATM    8  C17 UNL     1      74.763  31.425  24.192  1.00  0.00     0.035 C 
HETATM    9  C18 UNL     1      73.876  32.583  24.520  1.00  0.00     0.009 C 
HETATM   10  C19 UNL     1      72.524  32.127  25.093  1.00  0.00     0.007 C 
HETATM   11  C20 UNL     1      71.696  33.328  25.255  1.00  0.00    -0.016 C 
HETATM   12  C21 UNL     1      71.544  33.753  26.712  1.00  0.00     0.018 C 
HETATM   13  C22 UNL     1      72.275  34.559  24.540  1.00  0.00     0.018 C 
ENDROOT
BRANCH   1  14
HETATM   14  O2  UNL     1      69.484  34.222  25.366  1.00  0.00    -0.311 OA
BRANCH  14  15
HETATM   15  C4  UNL     1      68.763  35.210  24.761  1.00  0.00     0.282 C 
HETATM   16  O1  UNL     1      68.161  34.932  23.692  1.00  0.00    -0.260 OA
BRANCH  15  17
HETATM   17  C3  UNL     1      68.686  36.567  25.339  1.00  0.00     0.077 C 
HETATM   18  C2  UNL     1      69.746  37.083  25.907  1.00  0.00    -0.025 C 
HETATM   19  C1  UNL     1      69.698  38.441  26.494  1.00  0.00     0.036 C 
ENDBRANCH  15  17
ENDBRANCH  14  15
ENDBRANCH   1  14
BRANCH   2  20
HETATM   20  C7  UNL     1      68.322  31.634  25.059  1.00  0.00     0.034 C 
BRANCH  20  21
HETATM   21  C8  UNL     1      67.650  31.565  26.352  1.00  0.00    -0.024 C 
HETATM   22  C9  UNL     1      66.512  32.218  26.608  1.00  0.00    -0.091 C 
HETATM   23  C10 UNL     1      65.884  32.099  27.954  1.00  0.00     0.042 C 
HETATM   24  C11 UNL     1      65.833  33.070  25.607  1.00  0.00     0.042 C 
ENDBRANCH  20  21
ENDBRANCH   2  20
BRANCH   6  25
HETATM   25  O3  UNL     1      72.424  31.815  22.135  1.00  0.00    -0.392 OA
ATOM     26  H3  UNL     1      71.589  31.715  21.693  1.00  0.00     0.210 HD
ENDBRANCH   6  25
BRANCH   7  27
HETATM   27  O4  UNL     1      74.780  30.474  21.983  1.00  0.00    -0.393 OA
ATOM     28  H4  UNL     1      74.142  30.385  21.284  1.00  0.00     0.210 HD
ENDBRANCH   7  27
TORSDOF 7
ENDMDL
MODEL 3
REMARK VINA RESULT: -8.084815572      2.236      4.660
REMARK  7 active torsions:
REMARK  status: ('A' for Active; 'I' for Inactive)
REMARK    1  A    between atoms: C3_3  and  C4_4 
REMARK    2  A    between atoms: C4_4  and  O2_6 
REMARK    3  A    between atoms: O2_6  and  C5_7 
REMARK    4  A    between atoms: C6_8  and  C7_9 
REMARK    5  A    between atoms: C7_9  and  C8_10 
REMARK    6  A    between atoms: C15_17  and  O3_18 
REMARK    7  A    between atoms: C16_20  and  O4_21 
ROOT
HETATM    1  C5  UNL     1      70.594  33.109  25.271  1.00  0.00     0.144 C 
HETATM    2  C6  UNL     1      70.147  34.497  24.899  1.00  0.00     0.020 C 
HETATM    3  C12 UNL     1      70.911  35.390  25.865  1.00  0.00     0.019 C 
HETATM    4  C13 UNL     1      72.362  35.341  25.567  1.00  0.00    -0.011 C 
HETATM    5  C14 UNL     1      72.671  36.643  24.800  1.00  0.00     0.018 C 
HETATM    6  C15 UNL     1      73.098  35.527  26.903  1.00  0.00     0.155 C 
HETATM    7  C16 UNL     1      74.545  35.815  26.662  1.00  0.00     0.147 C 
HETATM    8  C17 UNL     1      75.135  34.847  25.669  1.00  0.00     0.035 C 
HETATM    9  C18 UNL     1      74.222  33.700  25.376  1.00  0.00     0.009 C 
HETATM   10  C19 UNL     1      72.863  34.172  24.833  1.00  0.00     0.007 C 
HETATM   11  C20 UNL     1      72.012  32.983  24.705  1.00  0.00    -0.016 C 
HETATM   12  C21 UNL     1      71.815  32.546  23.256  1.00  0.00     0.018 C 
HETATM   13  C22 UNL     1      72.590  31.750  25.417  1.00  0.00     0.018 C 
ENDROOT
BRANCH   1  14
HETATM   14  O2  UNL     1      69.785  32.123  24.661  1.00  0.00    -0.311 OA
BRANCH  14  15
HETATM   15  C4  UNL     1      69.116  31.112  25.289  1.00  0.00     0.282 C 
HETATM   16  O1  UNL     1      69.658  29.977  25.319  1.00  0.00    -0.260 OA
BRANCH  15  17
HETATM   17  C3  UNL     1      67.799  31.337  25.915  1.00  0.00     0.077 C 
HETATM   18  C2  UNL     1      67.740  31.838  27.123  1.00  0.00    -0.025 C 
HETATM   19  C1  UNL     1      66.432  32.075  27.775  1.00  0.00     0.036 C 
ENDBRANCH  15  17
ENDBRANCH  14  15
ENDBRANCH   1  14
BRANCH   2  20
HETATM   20  C7  UNL     1      68.672  34.732  24.971  1.00  0.00     0.034 C 
BRANCH  20  21
HETATM   21  C8  UNL     1      67.972  34.835  23.695  1.00  0.00    -0.024 C 
HETATM   22  C9  UNL     1      66.664  34.591  23.568  1.00  0.00    -0.091 C 
HETATM   23  C10 UNL     1      66.019  34.716  22.231  1.00  0.00     0.042 C 
HETATM   24  C11 UNL     1      65.808  34.196  24.708  1.00  0.00     0.042 C 
ENDBRANCH  20  21
ENDBRANCH   2  20
BRANCH   6  25
HETATM   25  O3  UNL     1      72.844  34.515  27.789  1.00  0.00    -0.392 OA
ATOM     26  H3  UNL     1      73.186  33.678  27.496  1.00  0.00     0.210 HD
ENDBRANCH   6  25
BRANCH   7  27
HETATM   27  O4  UNL     1      75.225  35.820  27.867  1.00  0.00    -0.393 OA
ATOM     28  H4  UNL     1      76.158  35.892  27.707  1.00  0.00     0.210 HD
ENDBRANCH   7  27
TORSDOF 7
ENDMDL
MODEL 4
REMARK VINA RESULT: -8.077287309      2.010      3.457
REMARK  7 active torsions:
REMARK  status: ('A' for Active; 'I' for Inactive)
REMARK    1  A    between atoms: C3_3  and  C4_4 
REMARK    2  A    between atoms: C4_4  and  O2_6 
REMARK    3  A    between atoms: O2_6  and  C5_7 
REMARK    4  A    between atoms: C6_8  and  C7_9 
REMARK    5  A    between atoms: C7_9  and  C8_10 
REMARK    6  A    between atoms: C15_17  and  O3_18 
REMARK    7  A    between atoms: C16_20  and  O4_21 
ROOT
HETATM    1  C5  UNL     1      71.893  34.634  25.141  1.00  0.00     0.144 C 
HETATM    2  C6  UNL     1      70.640  33.843  25.400  1.00  0.00     0.020 C 
HETATM    3  C12 UNL     1      70.646  32.792  24.301  1.00  0.00     0.019 C 
HETATM    4  C13 UNL     1      71.768  31.846  24.504  1.00  0.00    -0.011 C 
HETATM    5  C14 UNL     1      71.135  30.578  25.113  1.00  0.00     0.018 C 
HETATM    6  C15 UNL     1      72.222  31.386  23.110  1.00  0.00     0.155 C 
HETATM    7  C16 UNL     1      73.122  30.198  23.223  1.00  0.00     0.147 C 
HETATM    8  C17 UNL     1      74.186  30.417  24.266  1.00  0.00     0.035 C 
HETATM    9  C18 UNL     1      74.245  31.836  24.734  1.00  0.00     0.009 C 
HETATM   10  C19 UNL     1      72.901  32.305  25.316  1.00  0.00     0.007 C 
HETATM   11  C20 UNL     1      73.037  33.735  25.620  1.00  0.00    -0.016 C 
HETATM   12  C21 UNL     1      73.153  34.016  27.115  1.00  0.00     0.018 C 
HETATM   13  C22 UNL     1      74.293  34.365  24.998  1.00  0.00     0.018 C 
ENDROOT
BRANCH   1  14
HETATM   14  O2  UNL     1      71.919  35.826  25.900  1.00  0.00    -0.311 OA
BRANCH  14  15
HETATM   15  C4  UNL     1      71.956  37.102  25.415  1.00  0.00     0.282 C 
HETATM   16  O1  UNL     1      71.041  37.462  24.631  1.00  0.00    -0.260 OA
BRANCH  15  17
HETATM   17  C3  UNL     1      73.035  38.035  25.796  1.00  0.00     0.077 C 
HETATM   18  C2  UNL     1      74.267  37.767  25.448  1.00  0.00    -0.025 C 
HETATM   19  C1  UNL     1      75.368  38.686  25.816  1.00  0.00     0.036 C 
ENDBRANCH  15  17
ENDBRANCH  14  15
ENDBRANCH   1  14
BRANCH   2  20
HETATM   20  C7  UNL     1      69.373  34.638  25.404  1.00  0.00     0.034 C 
BRANCH  20  21
HETATM   21  C8  UNL     1      68.131  33.872  25.434  1.00  0.00    -0.024 C 
HETATM   22  C9  UNL     1      66.982  34.341  24.936  1.00  0.00    -0.091 C 
HETATM   23  C10 UNL     1      65.755  33.500  25.003  1.00  0.00     0.042 C 
HETATM   24  C11 UNL     1      66.866  35.677  24.311  1.00  0.00     0.042 C 
ENDBRANCH  20  21
ENDBRANCH   2  20
BRANCH   6  25
HETATM   25  O3  UNL     1      72.708  32.416  22.349  1.00  0.00    -0.392 OA
ATOM     26  H3  UNL     1      73.044  32.123  21.509  1.00  0.00     0.210 HD
ENDBRANCH   6  25
BRANCH   7  27
HETATM   27  O4  UNL     1      73.649  29.895  21.980  1.00  0.00    -0.393 OA
ATOM     28  H4  UNL     1      73.311  29.058  21.685  1.00  0.00     0.210 HD
ENDBRANCH   7  27
TORSDOF 7
ENDMDL
MODEL 5
REMARK VINA RESULT: -8.048860184      2.568      3.992
REMARK  7 active torsions:
REMARK  status: ('A' for Active; 'I' for Inactive)
REMARK    1  A    between atoms: C3_3  and  C4_4 
REMARK    2  A    between atoms: C4_4  and  O2_6 
REMARK    3  A    between atoms: O2_6  and  C5_7 
REMARK    4  A    between atoms: C6_8  and  C7_9 
REMARK    5  A    between atoms: C7_9  and  C8_10 
REMARK    6  A    between atoms: C15_17  and  O3_18 
REMARK    7  A    between atoms: C16_20  and  O4_21 
ROOT
HETATM    1  C5  UNL     1      72.595  34.908  25.361  1.00  0.00     0.144 C 
HETATM    2  C6  UNL     1      71.186  34.452  25.630  1.00  0.00     0.020 C 
HETATM    3  C12 UNL     1      70.931  33.419  24.542  1.00  0.00     0.019 C 
HETATM    4  C13 UNL     1      71.788  32.229  24.755  1.00  0.00    -0.011 C 
HETATM    5  C14 UNL     1      70.866  31.162  25.378  1.00  0.00     0.018 C 
HETATM    6  C15 UNL     1      72.111  31.658  23.365  1.00  0.00     0.155 C 
HETATM    7  C16 UNL     1      72.692  30.287  23.490  1.00  0.00     0.147 C 
HETATM    8  C17 UNL     1      73.782  30.250  24.530  1.00  0.00     0.035 C 
HETATM    9  C18 UNL     1      74.188  31.616  24.982  1.00  0.00     0.009 C 
HETATM   10  C19 UNL     1      73.003  32.406  25.560  1.00  0.00     0.007 C 
HETATM   11  C20 UNL     1      73.485  33.762  25.848  1.00  0.00    -0.016 C 
HETATM   12  C21 UNL     1      73.672  34.022  27.340  1.00  0.00     0.018 C 
HETATM   13  C22 UNL     1      74.855  34.059  25.219  1.00  0.00     0.018 C 
ENDROOT
BRANCH   1  14
HETATM   14  O2  UNL     1      72.915  36.066  26.107  1.00  0.00    -0.311 OA
BRANCH  14  15
HETATM   15  C4  UNL     1      73.408  37.241  25.618  1.00  0.00     0.282 C 
HETATM   16  O1  UNL     1      74.643  37.456  25.733  1.00  0.00    -0.260 OA
BRANCH  15  17
HETATM   17  C3  UNL     1      72.526  38.234  24.974  1.00  0.00     0.077 C 
HETATM   18  C2  UNL     1      71.641  38.871  25.697  1.00  0.00    -0.025 C 
HETATM   19  C1  UNL     1      70.744  39.872  25.077  1.00  0.00     0.036 C 
ENDBRANCH  15  17
ENDBRANCH  14  15
ENDBRANCH   1  14
BRANCH   2  20
HETATM   20  C7  UNL     1      70.153  35.533  25.627  1.00  0.00     0.034 C 
BRANCH  20  21
HETATM   21  C8  UNL     1      69.701  35.988  24.316  1.00  0.00    -0.024 C 
HETATM   22  C9  UNL     1      68.671  36.827  24.160  1.00  0.00    -0.091 C 
HETATM   23  C10 UNL     1      68.267  37.247  22.789  1.00  0.00     0.042 C 
HETATM   24  C11 UNL     1      67.898  37.368  25.299  1.00  0.00     0.042 C 
ENDBRANCH  20  21
ENDBRANCH   2  20
BRANCH   6  25
HETATM   25  O3  UNL     1      72.831  32.529  22.592  1.00  0.00    -0.392 OA
ATOM     26  H3  UNL     1      73.724  32.635  22.897  1.00  0.00     0.210 HD
ENDBRANCH   6  25
BRANCH   7  27
HETATM   27  O4  UNL     1      73.125  29.851  22.251  1.00  0.00    -0.393 OA
ATOM     28  H4  UNL     1      74.073  29.783  22.249  1.00  0.00     0.210 HD
ENDBRANCH   7  27
TORSDOF 7
ENDMDL
