MODEL 1
REMARK VINA RESULT: -10.160522082      0.000      0.000
REMARK  11 active torsions:
REMARK  status: ('A' for Active; 'I' for Inactive)
REMARK    1  A    between atoms: C2_3  and  N2_4 
REMARK    2  A    between atoms: C2_3  and  C3_8 
REMARK    3  A    between atoms: C3_8  and  O1_9 
REMARK    4  A    between atoms: C3_8  and  C4_11 
REMARK    5  A    between atoms: C4_11  and  O2_12 
REMARK    6  A    between atoms: C4_11  and  C5_14 
REMARK    7  A    between atoms: C5_14  and  O3_15 
REMARK    8  A    between atoms: C5_14  and  C6_17 
REMARK    9  A    between atoms: C8_21  and  C9_22 
REMARK   10  A    between atoms: C10_25  and  N4_26 
REMARK   11  A    between atoms: C13_31  and  N6_32 
ROOT
HETATM    1  N1  UNL     1     -12.283  -9.985 -29.223  1.00  0.00    -0.195 NA
HETATM    2  C1  UNL     1     -11.668  -9.364 -29.978  1.00  0.00     0.095 C 
HETATM    3  C2  UNL     1     -10.885  -8.547 -30.932  1.00  0.00     0.320 C 
ENDROOT
BRANCH   3   4
HETATM    4  N2  UNL     1     -10.105  -7.641 -30.168  1.00  0.00    -0.060 N 
ATOM      5  H23 UNL     1      -9.133  -7.593 -30.475  1.00  0.00     0.276 HD
ATOM      6  H22 UNL     1     -10.345  -6.665 -30.340  1.00  0.00     0.276 HD
ATOM      7  H21 UNL     1     -10.202  -7.910 -29.189  1.00  0.00     0.276 HD
ENDBRANCH   3   4
BRANCH   3   8
HETATM    8  C3  UNL     1     -11.850  -7.970 -31.900  1.00  0.00     0.193 C 
BRANCH   8   9
HETATM    9  O1  UNL     1     -12.582  -6.906 -31.382  1.00  0.00    -0.390 OA
ATOM     10  H1  UNL     1     -13.363  -6.706 -31.885  1.00  0.00     0.210 HD
ENDBRANCH   8   9
BRANCH   8  11
HETATM   11  C4  UNL     1     -11.340  -7.691 -33.280  1.00  0.00     0.181 C 
BRANCH  11  12
HETATM   12  O2  UNL     1      -9.928  -7.681 -33.149  1.00  0.00    -0.390 OA
ATOM     13  H2  UNL     1      -9.602  -7.856 -34.025  1.00  0.00     0.210 HD
ENDBRANCH  11  12
BRANCH  11  14
HETATM   14  C5  UNL     1     -11.763  -8.637 -34.338  1.00  0.00     0.180 C 
BRANCH  14  15
HETATM   15  O3  UNL     1     -10.910  -8.818 -35.391  1.00  0.00    -0.390 OA
ATOM     16  H3  UNL     1     -11.227  -8.574 -36.253  1.00  0.00     0.210 HD
ENDBRANCH  14  15
BRANCH  14  17
HETATM   17  C6  UNL     1     -13.153  -8.335 -34.816  1.00  0.00     0.179 C 
HETATM   18  C7  UNL     1     -14.175  -9.398 -34.572  1.00  0.00     0.155 C 
HETATM   19  N3  UNL     1     -15.370  -8.975 -35.290  1.00  0.00    -0.378 N 
HETATM   20  C8  UNL     1     -15.806  -7.609 -35.100  1.00  0.00     0.158 C 
ATOM     21  H3  UNL     1     -15.877  -9.615 -35.900  1.00  0.00     0.160 HD
HETATM   22  C10 UNL     1     -14.958  -6.772 -34.542  1.00  0.00     0.186 C 
HETATM   23  O6  UNL     1     -13.665  -7.174 -34.134  1.00  0.00    -0.324 OA
BRANCH  20  24
HETATM   24  C9  UNL     1     -17.139  -7.228 -35.527  1.00  0.00     0.231 C 
HETATM   25  O4  UNL     1     -18.166  -7.172 -34.849  1.00  0.00    -0.643 OA
HETATM   26  O5  UNL     1     -17.292  -6.875 -36.893  1.00  0.00    -0.643 OA
ENDBRANCH  20  24
BRANCH  22  27
HETATM   27  N4  UNL     1     -15.358  -5.415 -34.341  1.00  0.00    -0.270 N 
HETATM   28  C11 UNL     1     -15.702  -4.475 -35.254  1.00  0.00     0.193 A 
HETATM   29  N5  UNL     1     -15.992  -3.313 -34.654  1.00  0.00    -0.346 N 
HETATM   30  C12 UNL     1     -15.846  -3.463 -33.327  1.00  0.00     0.122 A 
ATOM     31  H5  UNL     1     -16.278  -2.456 -35.127  1.00  0.00     0.167 HD
HETATM   32  C13 UNL     1     -16.001  -2.636 -32.230  1.00  0.00     0.131 A 
HETATM   33  C15 UNL     1     -15.452  -4.772 -33.145  1.00  0.00     0.146 A 
HETATM   34  N7  UNL     1     -15.779  -3.066 -30.976  1.00  0.00    -0.337 N 
HETATM   35  C14 UNL     1     -15.395  -4.345 -30.811  1.00  0.00     0.183 A 
ATOM     36  H7  UNL     1     -15.898  -2.444 -30.176  1.00  0.00     0.168 HD
HETATM   37  N8  UNL     1     -15.239  -5.163 -31.867  1.00  0.00    -0.336 N 
ATOM     38  H8  UNL     1     -14.946  -6.125 -31.697  1.00  0.00     0.168 HD
BRANCH  32  39
HETATM   39  N6  UNL     1     -16.369  -1.410 -32.390  1.00  0.00    -0.383 N 
ATOM     40  H62 UNL     1     -15.892  -0.695 -31.841  1.00  0.00     0.157 HD
ATOM     41  H61 UNL     1     -17.115  -1.180 -33.046  1.00  0.00     0.157 HD
ENDBRANCH  32  39
ENDBRANCH  22  27
ENDBRANCH  14  17
ENDBRANCH  11  14
ENDBRANCH   8  11
ENDBRANCH   3   8
TORSDOF 11
ENDMDL
MODEL 2
REMARK VINA RESULT: -9.922798037      0.989      1.377
REMARK  11 active torsions:
REMARK  status: ('A' for Active; 'I' for Inactive)
REMARK    1  A    between atoms: C2_3  and  N2_4 
REMARK    2  A    between atoms: C2_3  and  C3_8 
REMARK    3  A    between atoms: C3_8  and  O1_9 
REMARK    4  A    between atoms: C3_8  and  C4_11 
REMARK    5  A    between atoms: C4_11  and  O2_12 
REMARK    6  A    between atoms: C4_11  and  C5_14 
REMARK    7  A    between atoms: C5_14  and  O3_15 
REMARK    8  A    between atoms: C5_14  and  C6_17 
REMARK    9  A    between atoms: C8_21  and  C9_22 
REMARK   10  A    between atoms: C10_25  and  N4_26 
REMARK   11  A    between atoms: C13_31  and  N6_32 
ROOT
HETATM    1  N1  UNL     1     -11.456 -10.444 -28.213  1.00  0.00    -0.195 NA
HETATM    2  C1  UNL     1     -11.918  -9.903 -29.123  1.00  0.00     0.095 C 
HETATM    3  C2  UNL     1     -12.504  -9.229 -30.303  1.00  0.00     0.320 C 
ENDROOT
BRANCH   3   4
HETATM    4  N2  UNL     1     -13.293 -10.190 -30.987  1.00  0.00    -0.060 N 
ATOM      5  H23 UNL     1     -12.860 -10.522 -31.849  1.00  0.00     0.276 HD
ATOM      6  H22 UNL     1     -13.333 -11.089 -30.506  1.00  0.00     0.276 HD
ATOM      7  H21 UNL     1     -14.213  -9.776 -31.135  1.00  0.00     0.276 HD
ENDBRANCH   3   4
BRANCH   3   8
HETATM    8  C3  UNL     1     -11.381  -8.611 -31.050  1.00  0.00     0.193 C 
BRANCH   8   9
HETATM    9  O1  UNL     1     -10.354  -9.504 -31.340  1.00  0.00    -0.390 OA
ATOM     10  H1  UNL     1      -9.495  -9.098 -31.354  1.00  0.00     0.210 HD
ENDBRANCH   8   9
BRANCH   8  11
HETATM   11  C4  UNL     1     -11.739  -7.754 -32.225  1.00  0.00     0.181 C 
BRANCH  11  12
HETATM   12  O2  UNL     1     -10.765  -6.723 -32.229  1.00  0.00    -0.390 OA
ATOM     13  H2  UNL     1     -11.267  -5.917 -32.269  1.00  0.00     0.210 HD
ENDBRANCH  11  12
BRANCH  11  14
HETATM   14  C5  UNL     1     -11.791  -8.433 -33.540  1.00  0.00     0.180 C 
BRANCH  14  15
HETATM   15  O3  UNL     1     -10.712  -8.279 -34.365  1.00  0.00    -0.390 OA
ATOM     16  H3  UNL     1     -10.332  -7.410 -34.424  1.00  0.00     0.210 HD
ENDBRANCH  14  15
BRANCH  14  17
HETATM   17  C6  UNL     1     -13.071  -8.126 -34.261  1.00  0.00     0.179 C 
HETATM   18  C7  UNL     1     -14.104  -9.206 -34.251  1.00  0.00     0.155 C 
HETATM   19  N3  UNL     1     -15.148  -8.767 -35.167  1.00  0.00    -0.378 N 
HETATM   20  C8  UNL     1     -15.632  -7.413 -35.018  1.00  0.00     0.158 C 
ATOM     21  H3  UNL     1     -15.521  -9.389 -35.884  1.00  0.00     0.160 HD
HETATM   22  C10 UNL     1     -14.918  -6.589 -34.281  1.00  0.00     0.186 C 
HETATM   23  O6  UNL     1     -13.720  -6.994 -33.650  1.00  0.00    -0.324 OA
BRANCH  20  24
HETATM   24  C9  UNL     1     -16.867  -7.029 -35.676  1.00  0.00     0.231 C 
HETATM   25  O4  UNL     1     -17.021  -6.641 -36.835  1.00  0.00    -0.643 OA
HETATM   26  O5  UNL     1     -18.051  -7.103 -34.897  1.00  0.00    -0.643 OA
ENDBRANCH  20  24
BRANCH  22  27
HETATM   27  N4  UNL     1     -15.369  -5.244 -34.114  1.00  0.00    -0.270 N 
HETATM   28  C11 UNL     1     -15.691  -4.322 -35.053  1.00  0.00     0.193 A 
HETATM   29  N5  UNL     1     -16.049  -3.165 -34.479  1.00  0.00    -0.346 N 
HETATM   30  C12 UNL     1     -15.971  -3.301 -33.145  1.00  0.00     0.122 A 
ATOM     31  H5  UNL     1     -16.334  -2.320 -34.974  1.00  0.00     0.167 HD
HETATM   32  C13 UNL     1     -16.211  -2.471 -32.066  1.00  0.00     0.131 A 
HETATM   33  C15 UNL     1     -15.548  -4.596 -32.930  1.00  0.00     0.146 A 
HETATM   34  N7  UNL     1     -16.045  -2.886 -30.797  1.00  0.00    -0.337 N 
HETATM   35  C14 UNL     1     -15.632  -4.151 -30.600  1.00  0.00     0.183 A 
ATOM     36  H7  UNL     1     -16.226  -2.262 -30.010  1.00  0.00     0.168 HD
HETATM   37  N8  UNL     1     -15.394  -4.971 -31.640  1.00  0.00    -0.336 N 
ATOM     38  H8  UNL     1     -15.082  -5.923 -31.445  1.00  0.00     0.168 HD
BRANCH  32  39
HETATM   39  N6  UNL     1     -16.607  -1.259 -32.255  1.00  0.00    -0.383 N 
ATOM     40  H62 UNL     1     -16.569  -0.889 -33.205  1.00  0.00     0.157 HD
ATOM     41  H61 UNL     1     -16.943  -0.700 -31.471  1.00  0.00     0.157 HD
ENDBRANCH  32  39
ENDBRANCH  22  27
ENDBRANCH  14  17
ENDBRANCH  11  14
ENDBRANCH   8  11
ENDBRANCH   3   8
TORSDOF 11
ENDMDL
MODEL 3
REMARK VINA RESULT: -9.777102959      2.474      5.808
REMARK  11 active torsions:
REMARK  status: ('A' for Active; 'I' for Inactive)
REMARK    1  A    between atoms: C2_3  and  N2_4 
REMARK    2  A    between atoms: C2_3  and  C3_8 
REMARK    3  A    between atoms: C3_8  and  O1_9 
REMARK    4  A    between atoms: C3_8  and  C4_11 
REMARK    5  A    between atoms: C4_11  and  O2_12 
REMARK    6  A    between atoms: C4_11  and  C5_14 
REMARK    7  A    between atoms: C5_14  and  O3_15 
REMARK    8  A    between atoms: C5_14  and  C6_17 
REMARK    9  A    between atoms: C8_21  and  C9_22 
REMARK   10  A    between atoms: C10_25  and  N4_26 
REMARK   11  A    between atoms: C13_31  and  N6_32 
ROOT
HETATM    1  N1  UNL     1     -15.333  -5.382 -31.313  1.00  0.00    -0.195 NA
HETATM    2  C1  UNL     1     -15.141  -4.258 -31.498  1.00  0.00     0.095 C 
HETATM    3  C2  UNL     1     -14.919  -2.814 -31.734  1.00  0.00     0.320 C 
ENDROOT
BRANCH   3   4
HETATM    4  N2  UNL     1     -15.791  -2.107 -30.866  1.00  0.00    -0.060 N 
ATOM      5  H23 UNL     1     -15.453  -1.173 -30.634  1.00  0.00     0.276 HD
ATOM      6  H22 UNL     1     -16.660  -1.824 -31.317  1.00  0.00     0.276 HD
ATOM      7  H21 UNL     1     -15.939  -2.693 -30.045  1.00  0.00     0.276 HD
ENDBRANCH   3   4
BRANCH   3   8
HETATM    8  C3  UNL     1     -15.075  -2.586 -33.192  1.00  0.00     0.193 C 
BRANCH   8   9
HETATM    9  O1  UNL     1     -13.997  -3.049 -33.941  1.00  0.00    -0.390 OA
ATOM     10  H1  UNL     1     -13.193  -2.568 -33.782  1.00  0.00     0.210 HD
ENDBRANCH   8   9
BRANCH   8  11
HETATM   11  C4  UNL     1     -16.392  -2.958 -33.799  1.00  0.00     0.181 C 
BRANCH  11  12
HETATM   12  O2  UNL     1     -17.108  -1.738 -33.886  1.00  0.00    -0.390 OA
ATOM     13  H2  UNL     1     -16.671  -1.156 -33.274  1.00  0.00     0.210 HD
ENDBRANCH  11  12
BRANCH  11  14
HETATM   14  C5  UNL     1     -16.339  -3.631 -35.118  1.00  0.00     0.180 C 
BRANCH  14  15
HETATM   15  O3  UNL     1     -17.250  -3.236 -36.057  1.00  0.00    -0.390 OA
ATOM     16  H3  UNL     1     -17.645  -2.379 -35.945  1.00  0.00     0.210 HD
ENDBRANCH  14  15
BRANCH  14  17
HETATM   17  C6  UNL     1     -16.331  -5.124 -34.967  1.00  0.00     0.179 C 
HETATM   18  C7  UNL     1     -17.255  -5.878 -35.868  1.00  0.00     0.155 C 
HETATM   19  N3  UNL     1     -17.224  -7.259 -35.405  1.00  0.00    -0.378 N 
HETATM   20  C8  UNL     1     -15.925  -7.850 -35.177  1.00  0.00     0.158 C 
ATOM     21  H3  UNL     1     -18.083  -7.786 -35.249  1.00  0.00     0.160 HD
HETATM   22  C10 UNL     1     -14.890  -7.040 -35.118  1.00  0.00     0.186 C 
HETATM   23  O6  UNL     1     -15.022  -5.642 -35.272  1.00  0.00    -0.324 OA
BRANCH  20  24
HETATM   24  C9  UNL     1     -15.822  -9.290 -35.026  1.00  0.00     0.231 C 
HETATM   25  O4  UNL     1     -15.456 -10.117 -35.862  1.00  0.00    -0.643 OA
HETATM   26  O5  UNL     1     -16.184  -9.823 -33.762  1.00  0.00    -0.643 OA
ENDBRANCH  20  24
BRANCH  22  27
HETATM   27  N4  UNL     1     -13.592  -7.594 -34.894  1.00  0.00    -0.270 N 
HETATM   28  C11 UNL     1     -12.713  -8.116 -35.783  1.00  0.00     0.193 A 
HETATM   29  N5  UNL     1     -11.609  -8.552 -35.161  1.00  0.00    -0.346 N 
HETATM   30  C12 UNL     1     -11.737  -8.324 -33.843  1.00  0.00     0.122 A 
ATOM     31  H5  UNL     1     -10.805  -8.985 -35.613  1.00  0.00     0.167 HD
HETATM   32  C13 UNL     1     -10.944  -8.553 -32.734  1.00  0.00     0.131 A 
HETATM   33  C15 UNL     1     -12.972  -7.729 -33.689  1.00  0.00     0.146 A 
HETATM   34  N7  UNL     1     -11.338  -8.211 -31.494  1.00  0.00    -0.337 N 
HETATM   35  C14 UNL     1     -12.544  -7.632 -31.357  1.00  0.00     0.183 A 
ATOM     36  H7  UNL     1     -10.741  -8.386 -30.684  1.00  0.00     0.168 HD
HETATM   37  N8  UNL     1     -13.328  -7.402 -32.426  1.00  0.00    -0.336 N 
ATOM     38  H8  UNL     1     -14.235  -6.961 -32.277  1.00  0.00     0.168 HD
BRANCH  32  39
HETATM   39  N6  UNL     1      -9.788  -9.108 -32.866  1.00  0.00    -0.383 N 
ATOM     40  H62 UNL     1      -9.121  -9.007 -32.102  1.00  0.00     0.157 HD
ATOM     41  H61 UNL     1      -9.563  -9.629 -33.714  1.00  0.00     0.157 HD
ENDBRANCH  32  39
ENDBRANCH  22  27
ENDBRANCH  14  17
ENDBRANCH  11  14
ENDBRANCH   8  11
ENDBRANCH   3   8
TORSDOF 11
ENDMDL
MODEL 4
REMARK VINA RESULT: -9.719272514      2.865      6.702
REMARK  11 active torsions:
REMARK  status: ('A' for Active; 'I' for Inactive)
REMARK    1  A    between atoms: C2_3  and  N2_4 
REMARK    2  A    between atoms: C2_3  and  C3_8 
REMARK    3  A    between atoms: C3_8  and  O1_9 
REMARK    4  A    between atoms: C3_8  and  C4_11 
REMARK    5  A    between atoms: C4_11  and  O2_12 
REMARK    6  A    between atoms: C4_11  and  C5_14 
REMARK    7  A    between atoms: C5_14  and  O3_15 
REMARK    8  A    between atoms: C5_14  and  C6_17 
REMARK    9  A    between atoms: C8_21  and  C9_22 
REMARK   10  A    between atoms: C10_25  and  N4_26 
REMARK   11  A    between atoms: C13_31  and  N6_32 
ROOT
HETATM    1  N1  UNL     1     -16.218  -1.616 -38.977  1.00  0.00    -0.195 NA
HETATM    2  C1  UNL     1     -15.501  -1.993 -38.154  1.00  0.00     0.095 C 
HETATM    3  C2  UNL     1     -14.597  -2.496 -37.095  1.00  0.00     0.320 C 
ENDROOT
BRANCH   3   4
HETATM    4  N2  UNL     1     -14.462  -3.895 -37.288  1.00  0.00    -0.060 N 
ATOM      5  H23 UNL     1     -15.249  -4.308 -37.789  1.00  0.00     0.276 HD
ATOM      6  H22 UNL     1     -13.736  -4.137 -37.962  1.00  0.00     0.276 HD
ATOM      7  H21 UNL     1     -14.310  -4.313 -36.370  1.00  0.00     0.276 HD
ENDBRANCH   3   4
BRANCH   3   8
HETATM    8  C3  UNL     1     -15.153  -2.036 -35.798  1.00  0.00     0.193 C 
BRANCH   8   9
HETATM    9  O1  UNL     1     -16.477  -1.617 -35.883  1.00  0.00    -0.390 OA
ATOM     10  H1  UNL     1     -16.708  -0.965 -35.232  1.00  0.00     0.210 HD
ENDBRANCH   8   9
BRANCH   8  11
HETATM   11  C4  UNL     1     -14.907  -2.910 -34.608  1.00  0.00     0.181 C 
BRANCH  11  12
HETATM   12  O2  UNL     1     -14.186  -2.092 -33.702  1.00  0.00    -0.390 OA
ATOM     13  H2  UNL     1     -13.851  -2.693 -33.046  1.00  0.00     0.210 HD
ENDBRANCH  11  12
BRANCH  11  14
HETATM   14  C5  UNL     1     -16.107  -3.483 -33.956  1.00  0.00     0.180 C 
BRANCH  14  15
HETATM   15  O3  UNL     1     -16.331  -3.144 -32.652  1.00  0.00    -0.390 OA
ATOM     16  H3  UNL     1     -16.754  -3.793 -32.101  1.00  0.00     0.210 HD
ENDBRANCH  14  15
BRANCH  14  17
HETATM   17  C6  UNL     1     -16.173  -4.970 -34.147  1.00  0.00     0.179 C 
HETATM   18  C7  UNL     1     -17.105  -5.455 -35.210  1.00  0.00     0.155 C 
HETATM   19  N3  UNL     1     -17.150  -6.904 -35.070  1.00  0.00    -0.378 N 
HETATM   20  C8  UNL     1     -15.887  -7.597 -34.958  1.00  0.00     0.158 C 
ATOM     21  H3  UNL     1     -18.037  -7.407 -35.052  1.00  0.00     0.160 HD
HETATM   22  C10 UNL     1     -14.817  -6.875 -34.701  1.00  0.00     0.186 C 
HETATM   23  O6  UNL     1     -14.880  -5.473 -34.537  1.00  0.00    -0.324 OA
BRANCH  20  24
HETATM   24  C9  UNL     1     -15.854  -9.037 -35.134  1.00  0.00     0.231 C 
HETATM   25  O4  UNL     1     -15.599  -9.672 -36.159  1.00  0.00    -0.643 OA
HETATM   26  O5  UNL     1     -16.152  -9.823 -33.990  1.00  0.00    -0.643 OA
ENDBRANCH  20  24
BRANCH  22  27
HETATM   27  N4  UNL     1     -13.553  -7.531 -34.584  1.00  0.00    -0.270 N 
HETATM   28  C11 UNL     1     -12.744  -8.019 -35.555  1.00  0.00     0.193 A 
HETATM   29  N5  UNL     1     -11.652  -8.584 -35.024  1.00  0.00    -0.346 N 
HETATM   30  C12 UNL     1     -11.717  -8.480 -33.685  1.00  0.00     0.122 A 
ATOM     31  H5  UNL     1     -10.895  -9.022 -35.548  1.00  0.00     0.167 HD
HETATM   32  C13 UNL     1     -10.903  -8.866 -32.637  1.00  0.00     0.131 A 
HETATM   33  C15 UNL     1     -12.902  -7.823 -33.425  1.00  0.00     0.146 A 
HETATM   34  N7  UNL     1     -11.229  -8.623 -31.355  1.00  0.00    -0.337 N 
HETATM   35  C14 UNL     1     -12.387  -7.983 -31.113  1.00  0.00     0.183 A 
ATOM     36  H7  UNL     1     -10.618  -8.914 -30.592  1.00  0.00     0.168 HD
HETATM   37  N8  UNL     1     -13.190  -7.599 -32.122  1.00  0.00    -0.336 N 
ATOM     38  H8  UNL     1     -14.059  -7.117 -31.894  1.00  0.00     0.168 HD
BRANCH  32  39
HETATM   39  N6  UNL     1      -9.794  -9.480 -32.870  1.00  0.00    -0.383 N 
ATOM     40  H62 UNL     1      -9.207  -9.132 -33.628  1.00  0.00     0.157 HD
ATOM     41  H61 UNL     1      -9.525 -10.286 -32.307  1.00  0.00     0.157 HD
ENDBRANCH  32  39
ENDBRANCH  22  27
ENDBRANCH  14  17
ENDBRANCH  11  14
ENDBRANCH   8  11
ENDBRANCH   3   8
TORSDOF 11
ENDMDL
MODEL 5
REMARK VINA RESULT: -9.665992828      0.893      1.792
REMARK  11 active torsions:
REMARK  status: ('A' for Active; 'I' for Inactive)
REMARK    1  A    between atoms: C2_3  and  N2_4 
REMARK    2  A    between atoms: C2_3  and  C3_8 
REMARK    3  A    between atoms: C3_8  and  O1_9 
REMARK    4  A    between atoms: C3_8  and  C4_11 
REMARK    5  A    between atoms: C4_11  and  O2_12 
REMARK    6  A    between atoms: C4_11  and  C5_14 
REMARK    7  A    between atoms: C5_14  and  O3_15 
REMARK    8  A    between atoms: C5_14  and  C6_17 
REMARK    9  A    between atoms: C8_21  and  C9_22 
REMARK   10  A    between atoms: C10_25  and  N4_26 
REMARK   11  A    between atoms: C13_31  and  N6_32 
ROOT
HETATM    1  N1  UNL     1     -11.280  -9.815 -28.668  1.00  0.00    -0.195 NA
HETATM    2  C1  UNL     1     -10.884  -9.305 -29.626  1.00  0.00     0.095 C 
HETATM    3  C2  UNL     1     -10.388  -8.631 -30.848  1.00  0.00     0.320 C 
ENDROOT
BRANCH   3   4
HETATM    4  N2  UNL     1     -10.019  -7.312 -30.479  1.00  0.00    -0.060 N 
ATOM      5  H23 UNL     1      -9.500  -7.273 -29.601  1.00  0.00     0.276 HD
ATOM      6  H22 UNL     1      -9.294  -6.918 -31.079  1.00  0.00     0.276 HD
ATOM      7  H21 UNL     1     -10.872  -6.753 -30.464  1.00  0.00     0.276 HD
ENDBRANCH   3   4
BRANCH   3   8
HETATM    8  C3  UNL     1     -11.442  -8.782 -31.881  1.00  0.00     0.193 C 
BRANCH   8   9
HETATM    9  O1  UNL     1     -12.730  -8.597 -31.388  1.00  0.00    -0.390 OA
ATOM     10  H1  UNL     1     -13.303  -9.339 -31.544  1.00  0.00     0.210 HD
ENDBRANCH   8   9
BRANCH   8  11
HETATM   11  C4  UNL     1     -11.223  -8.071 -33.181  1.00  0.00     0.181 C 
BRANCH  11  12
HETATM   12  O2  UNL     1      -9.830  -7.811 -33.220  1.00  0.00    -0.390 OA
ATOM     13  H2  UNL     1      -9.748  -6.893 -32.991  1.00  0.00     0.210 HD
ENDBRANCH  11  12
BRANCH  11  14
HETATM   14  C5  UNL     1     -11.659  -8.787 -34.401  1.00  0.00     0.180 C 
BRANCH  14  15
HETATM   15  O3  UNL     1     -10.786  -8.817 -35.452  1.00  0.00    -0.390 OA
ATOM     16  H3  UNL     1     -11.088  -8.455 -36.278  1.00  0.00     0.210 HD
ENDBRANCH  14  15
BRANCH  14  17
HETATM   17  C6  UNL     1     -13.020  -8.335 -34.842  1.00  0.00     0.179 C 
HETATM   18  C7  UNL     1     -14.054  -9.405 -34.977  1.00  0.00     0.155 C 
HETATM   19  N3  UNL     1     -15.207  -8.770 -35.601  1.00  0.00    -0.378 N 
HETATM   20  C8  UNL     1     -15.652  -7.513 -35.042  1.00  0.00     0.158 C 
ATOM     21  H3  UNL     1     -15.680  -9.193 -36.399  1.00  0.00     0.160 HD
HETATM   22  C10 UNL     1     -14.836  -6.891 -34.217  1.00  0.00     0.186 C 
HETATM   23  O6  UNL     1     -13.569  -7.417 -33.877  1.00  0.00    -0.324 OA
BRANCH  20  24
HETATM   24  C9  UNL     1     -16.959  -7.001 -35.408  1.00  0.00     0.231 C 
HETATM   25  O4  UNL     1     -18.003  -7.045 -34.754  1.00  0.00    -0.643 OA
HETATM   26  O5  UNL     1     -17.062  -6.368 -36.674  1.00  0.00    -0.643 OA
ENDBRANCH  20  24
BRANCH  22  27
HETATM   27  N4  UNL     1     -15.246  -5.647 -33.648  1.00  0.00    -0.270 N 
HETATM   28  C11 UNL     1     -15.589  -5.357 -32.369  1.00  0.00     0.193 A 
HETATM   29  N5  UNL     1     -15.937  -4.069 -32.251  1.00  0.00    -0.346 N 
HETATM   30  C12 UNL     1     -15.829  -3.479 -33.453  1.00  0.00     0.122 A 
ATOM     31  H5  UNL     1     -16.234  -3.611 -31.390  1.00  0.00     0.167 HD
HETATM   32  C13 UNL     1     -16.047  -2.201 -33.934  1.00  0.00     0.131 A 
HETATM   33  C15 UNL     1     -15.399  -4.469 -34.312  1.00  0.00     0.146 A 
HETATM   34  N7  UNL     1     -15.852  -1.884 -35.227  1.00  0.00    -0.337 N 
HETATM   35  C14 UNL     1     -15.433  -2.858 -36.055  1.00  0.00     0.183 A 
ATOM     36  H7  UNL     1     -16.016  -0.936 -35.568  1.00  0.00     0.168 HD
HETATM   37  N8  UNL     1     -15.216  -4.106 -35.602  1.00  0.00    -0.336 N 
ATOM     38  H8  UNL     1     -14.899  -4.814 -36.265  1.00  0.00     0.168 HD
BRANCH  32  39
HETATM   39  N6  UNL     1     -16.448  -1.269 -33.140  1.00  0.00    -0.383 N 
ATOM     40  H62 UNL     1     -15.912  -1.106 -32.288  1.00  0.00     0.157 HD
ATOM     41  H61 UNL     1     -17.277  -0.721 -33.369  1.00  0.00     0.157 HD
ENDBRANCH  32  39
ENDBRANCH  22  27
ENDBRANCH  14  17
ENDBRANCH  11  14
ENDBRANCH   8  11
ENDBRANCH   3   8
TORSDOF 11
ENDMDL
