MODEL 1
REMARK VINA RESULT: -6.639993512      0.000      0.000
REMARK  13 active torsions:
REMARK  status: ('A' for Active; 'I' for Inactive)
REMARK    1  A    between atoms: N1_1  and  C1_5 
REMARK    2  A    between atoms: C1_5  and  C2_6 
REMARK    3  A    between atoms: C2_6  and  N2_7 
REMARK    4  A    between atoms: N2_7  and  C3_10 
REMARK    5  A    between atoms: C3_10  and  C4_11 
REMARK    6  A    between atoms: C4_11  and  C5_12 
REMARK    7  A    between atoms: C5_12  and  N3_13 
REMARK       I    between atoms: C6_15  and  N5_17 
REMARK    8  A    between atoms: N5_17  and  C7_19 
REMARK    9  A    between atoms: C7_19  and  C8_20 
REMARK   10  A    between atoms: C8_20  and  C9_21 
REMARK   11  A    between atoms: C9_21  and  C10_22 
REMARK   12  A    between atoms: C10_22  and  N6_23 
REMARK   13  A    between atoms: C12_27  and  N8_28 
ROOT
HETATM    1  C8  UNL     1     -43.203  40.750 -30.957  1.00  0.00     0.021 C 
ENDROOT
BRANCH   1   2
HETATM    2  C7  UNL     1     -42.103  39.774 -31.275  1.00  0.00     0.122 C 
BRANCH   2   3
HETATM    3  N5  UNL     1     -42.495  38.901 -32.357  1.00  0.00    -0.365 N 
HETATM    4  C6  UNL     1     -43.367  37.822 -32.074  1.00  0.00     0.183 C 
HETATM    5  N3  UNL     1     -42.916  36.752 -31.550  1.00  0.00    -0.365 N 
HETATM    6  N4  UNL     1     -44.759  37.909 -32.368  1.00  0.00    -0.064 NA
ATOM      7  H3  UNL     1     -43.552  35.979 -31.350  1.00  0.00     0.162 HD
ATOM      8  H5  UNL     1     -42.151  39.058 -33.304  1.00  0.00     0.162 HD
BRANCH   5   9
HETATM    9  C5  UNL     1     -41.516  36.626 -31.239  1.00  0.00     0.124 C 
BRANCH   9  10
HETATM   10  C4  UNL     1     -41.425  35.557 -30.142  1.00  0.00     0.047 C 
BRANCH  10  11
HETATM   11  C3  UNL     1     -42.147  34.300 -30.566  1.00  0.00     0.234 C 
BRANCH  11  12
HETATM   12  N2  UNL     1     -42.494  33.469 -29.457  1.00  0.00    -0.073 N 
ATOM     13  H22 UNL     1     -43.071  33.976 -28.786  1.00  0.00     0.277 HD
ATOM     14  H21 UNL     1     -41.681  33.285 -28.868  1.00  0.00     0.277 HD
BRANCH  12  15
HETATM   15  C2  UNL     1     -43.123  32.249 -29.859  1.00  0.00     0.259 C 
BRANCH  15  16
HETATM   16  C1  UNL     1     -43.631  32.327 -31.280  1.00  0.00     0.257 C 
BRANCH  16  17
HETATM   17  N1  UNL     1     -44.873  31.549 -31.418  1.00  0.00    -0.078 N 
ATOM     18  H13 UNL     1     -44.968  31.143 -32.348  1.00  0.00     0.274 HD
ATOM     19  H12 UNL     1     -44.842  30.683 -30.880  1.00  0.00     0.274 HD
ATOM     20  H11 UNL     1     -45.678  32.125 -31.168  1.00  0.00     0.274 HD
ENDBRANCH  16  17
ENDBRANCH  15  16
ENDBRANCH  12  15
ENDBRANCH  11  12
ENDBRANCH  10  11
ENDBRANCH   9  10
ENDBRANCH   5   9
ENDBRANCH   2   3
ENDBRANCH   1   2
BRANCH   1  21
HETATM   21  C9  UNL     1     -42.643  42.162 -30.909  1.00  0.00     0.024 C 
BRANCH  21  22
HETATM   22  C10 UNL     1     -43.691  43.032 -30.249  1.00  0.00     0.154 C 
BRANCH  22  23
HETATM   23  N6  UNL     1     -44.895  43.167 -31.047  1.00  0.00    -0.243 N 
HETATM   24  N7  UNL     1     -44.662  43.619 -32.295  1.00  0.00    -0.306 N 
HETATM   25  C11 UNL     1     -45.382  44.732 -32.759  1.00  0.00     0.134 C 
ATOM     26  H7  UNL     1     -43.975  43.160 -32.893  1.00  0.00     0.186 HD
HETATM   27  C12 UNL     1     -46.702  44.459 -33.413  1.00  0.00     0.324 C 
HETATM   28  N9  UNL     1     -47.831  44.560 -32.504  1.00  0.00    -0.333 N 
HETATM   29  C13 UNL     1     -48.139  44.074 -31.357  1.00  0.00     0.194 C 
ATOM     30  H9  UNL     1     -48.562  45.169 -32.869  1.00  0.00     0.164 HD
HETATM   31  N10 UNL     1     -49.400  44.488 -30.868  1.00  0.00    -0.063 NA
HETATM   32  N11 UNL     1     -47.463  43.194 -30.469  1.00  0.00    -0.281 N 
HETATM   33  C14 UNL     1     -46.086  42.788 -30.324  1.00  0.00     0.343 C 
ATOM     34  H11 UNL     1     -48.085  42.756 -29.788  1.00  0.00     0.173 HD
HETATM   35  O1  UNL     1     -45.845  41.968 -29.427  1.00  0.00    -0.245 OA
BRANCH  27  36
HETATM   36  N8  UNL     1     -46.723  43.216 -34.156  1.00  0.00    -0.053 N 
ATOM     37  H83 UNL     1     -45.976  42.595 -33.846  1.00  0.00     0.277 HD
ATOM     38  H82 UNL     1     -47.530  42.650 -33.894  1.00  0.00     0.277 HD
ATOM     39  H81 UNL     1     -46.688  43.353 -35.166  1.00  0.00     0.277 HD
ENDBRANCH  27  36
ENDBRANCH  22  23
ENDBRANCH  21  22
ENDBRANCH   1  21
TORSDOF 13
ENDMDL
MODEL 2
REMARK VINA RESULT: -6.609830271      1.362      1.621
REMARK  13 active torsions:
REMARK  status: ('A' for Active; 'I' for Inactive)
REMARK    1  A    between atoms: N1_1  and  C1_5 
REMARK    2  A    between atoms: C1_5  and  C2_6 
REMARK    3  A    between atoms: C2_6  and  N2_7 
REMARK    4  A    between atoms: N2_7  and  C3_10 
REMARK    5  A    between atoms: C3_10  and  C4_11 
REMARK    6  A    between atoms: C4_11  and  C5_12 
REMARK    7  A    between atoms: C5_12  and  N3_13 
REMARK       I    between atoms: C6_15  and  N5_17 
REMARK    8  A    between atoms: N5_17  and  C7_19 
REMARK    9  A    between atoms: C7_19  and  C8_20 
REMARK   10  A    between atoms: C8_20  and  C9_21 
REMARK   11  A    between atoms: C9_21  and  C10_22 
REMARK   12  A    between atoms: C10_22  and  N6_23 
REMARK   13  A    between atoms: C12_27  and  N8_28 
ROOT
HETATM    1  C8  UNL     1     -41.490  41.055 -31.818  1.00  0.00     0.021 C 
ENDROOT
BRANCH   1   2
HETATM    2  C7  UNL     1     -42.320  39.902 -31.321  1.00  0.00     0.122 C 
BRANCH   2   3
HETATM    3  N5  UNL     1     -42.643  39.005 -32.405  1.00  0.00    -0.365 N 
HETATM    4  C6  UNL     1     -43.468  37.886 -32.134  1.00  0.00     0.183 C 
HETATM    5  N3  UNL     1     -42.978  36.842 -31.592  1.00  0.00    -0.365 N 
HETATM    6  N4  UNL     1     -44.856  37.903 -32.461  1.00  0.00    -0.064 NA
ATOM      7  H3  UNL     1     -43.580  36.041 -31.401  1.00  0.00     0.162 HD
ATOM      8  H5  UNL     1     -42.286  39.172 -33.345  1.00  0.00     0.162 HD
BRANCH   5   9
HETATM    9  C5  UNL     1     -41.581  36.787 -31.248  1.00  0.00     0.124 C 
BRANCH   9  10
HETATM   10  C4  UNL     1     -41.450  35.668 -30.206  1.00  0.00     0.047 C 
BRANCH  10  11
HETATM   11  C3  UNL     1     -42.223  34.446 -30.642  1.00  0.00     0.234 C 
BRANCH  11  12
HETATM   12  N2  UNL     1     -42.165  33.391 -29.679  1.00  0.00    -0.073 N 
ATOM     13  H22 UNL     1     -42.175  33.762 -28.729  1.00  0.00     0.277 HD
ATOM     14  H21 UNL     1     -41.245  32.950 -29.674  1.00  0.00     0.277 HD
BRANCH  12  15
HETATM   15  C2  UNL     1     -43.199  32.420 -29.864  1.00  0.00     0.259 C 
BRANCH  15  16
HETATM   16  C1  UNL     1     -43.612  32.316 -31.314  1.00  0.00     0.257 C 
BRANCH  16  17
HETATM   17  N1  UNL     1     -44.845  31.521 -31.433  1.00  0.00    -0.078 N 
ATOM     18  H13 UNL     1     -45.594  31.887 -30.846  1.00  0.00     0.274 HD
ATOM     19  H12 UNL     1     -45.293  31.645 -32.341  1.00  0.00     0.274 HD
ATOM     20  H11 UNL     1     -44.650  30.539 -31.235  1.00  0.00     0.274 HD
ENDBRANCH  16  17
ENDBRANCH  15  16
ENDBRANCH  12  15
ENDBRANCH  11  12
ENDBRANCH  10  11
ENDBRANCH   9  10
ENDBRANCH   5   9
ENDBRANCH   2   3
ENDBRANCH   1   2
BRANCH   1  21
HETATM   21  C9  UNL     1     -42.098  42.367 -31.350  1.00  0.00     0.024 C 
BRANCH  21  22
HETATM   22  C10 UNL     1     -43.556  42.096 -31.045  1.00  0.00     0.154 C 
BRANCH  22  23
HETATM   23  N6  UNL     1     -44.452  43.032 -31.696  1.00  0.00    -0.243 N 
HETATM   24  N7  UNL     1     -44.286  44.306 -31.286  1.00  0.00    -0.306 N 
HETATM   25  C11 UNL     1     -45.406  45.025 -30.839  1.00  0.00     0.134 C 
ATOM     26  H7  UNL     1     -43.363  44.739 -31.300  1.00  0.00     0.186 HD
HETATM   27  C12 UNL     1     -46.193  45.765 -31.877  1.00  0.00     0.324 C 
HETATM   28  N9  UNL     1     -47.327  45.015 -32.388  1.00  0.00    -0.333 N 
HETATM   29  C13 UNL     1     -47.516  43.844 -32.878  1.00  0.00     0.194 C 
ATOM     30  H9  UNL     1     -48.191  45.555 -32.348  1.00  0.00     0.164 HD
HETATM   31  N10 UNL     1     -48.855  43.573 -33.243  1.00  0.00    -0.063 NA
HETATM   32  N11 UNL     1     -46.641  42.753 -33.130  1.00  0.00    -0.281 N 
HETATM   33  C14 UNL     1     -45.331  42.391 -32.645  1.00  0.00     0.343 C 
ATOM     34  H11 UNL     1     -47.022  42.081 -33.797  1.00  0.00     0.173 HD
HETATM   35  O1  UNL     1     -44.843  41.349 -33.102  1.00  0.00    -0.245 OA
BRANCH  27  36
HETATM   36  N8  UNL     1     -45.371  46.287 -32.950  1.00  0.00    -0.053 N 
ATOM     37  H83 UNL     1     -44.591  46.828 -32.578  1.00  0.00     0.277 HD
ATOM     38  H82 UNL     1     -44.852  45.538 -33.408  1.00  0.00     0.277 HD
ATOM     39  H81 UNL     1     -45.900  46.832 -33.630  1.00  0.00     0.277 HD
ENDBRANCH  27  36
ENDBRANCH  22  23
ENDBRANCH  21  22
ENDBRANCH   1  21
TORSDOF 13
ENDMDL
MODEL 3
REMARK VINA RESULT: -6.552421058      1.677      1.993
REMARK  13 active torsions:
REMARK  status: ('A' for Active; 'I' for Inactive)
REMARK    1  A    between atoms: N1_1  and  C1_5 
REMARK    2  A    between atoms: C1_5  and  C2_6 
REMARK    3  A    between atoms: C2_6  and  N2_7 
REMARK    4  A    between atoms: N2_7  and  C3_10 
REMARK    5  A    between atoms: C3_10  and  C4_11 
REMARK    6  A    between atoms: C4_11  and  C5_12 
REMARK    7  A    between atoms: C5_12  and  N3_13 
REMARK       I    between atoms: C6_15  and  N5_17 
REMARK    8  A    between atoms: N5_17  and  C7_19 
REMARK    9  A    between atoms: C7_19  and  C8_20 
REMARK   10  A    between atoms: C8_20  and  C9_21 
REMARK   11  A    between atoms: C9_21  and  C10_22 
REMARK   12  A    between atoms: C10_22  and  N6_23 
REMARK   13  A    between atoms: C12_27  and  N8_28 
ROOT
HETATM    1  C8  UNL     1     -42.373  40.301 -34.772  1.00  0.00     0.021 C 
ENDROOT
BRANCH   1   2
HETATM    2  C7  UNL     1     -42.079  39.429 -33.581  1.00  0.00     0.122 C 
BRANCH   2   3
HETATM    3  N5  UNL     1     -42.772  38.167 -33.693  1.00  0.00    -0.365 N 
HETATM    4  C6  UNL     1     -43.470  37.675 -32.563  1.00  0.00     0.183 C 
HETATM    5  N3  UNL     1     -42.838  37.095 -31.621  1.00  0.00    -0.365 N 
HETATM    6  N4  UNL     1     -44.884  37.817 -32.456  1.00  0.00    -0.064 NA
ATOM      7  H3  UNL     1     -43.349  36.743 -30.810  1.00  0.00     0.162 HD
ATOM      8  H5  UNL     1     -42.760  37.641 -34.566  1.00  0.00     0.162 HD
BRANCH   5   9
HETATM    9  C5  UNL     1     -41.410  36.931 -31.693  1.00  0.00     0.124 C 
BRANCH   9  10
HETATM   10  C4  UNL     1     -41.023  36.081 -30.474  1.00  0.00     0.047 C 
BRANCH  10  11
HETATM   11  C3  UNL     1     -42.082  35.041 -30.197  1.00  0.00     0.234 C 
BRANCH  11  12
HETATM   12  N2  UNL     1     -41.524  33.783 -29.813  1.00  0.00    -0.073 N 
ATOM     13  H22 UNL     1     -41.298  33.772 -28.818  1.00  0.00     0.277 HD
ATOM     14  H21 UNL     1     -40.586  33.665 -30.196  1.00  0.00     0.277 HD
BRANCH  12  15
HETATM   15  C2  UNL     1     -42.364  32.679 -30.162  1.00  0.00     0.259 C 
BRANCH  15  16
HETATM   16  C1  UNL     1     -43.120  32.938 -31.445  1.00  0.00     0.257 C 
BRANCH  16  17
HETATM   17  N1  UNL     1     -44.134  31.893 -31.655  1.00  0.00    -0.078 N 
ATOM     18  H13 UNL     1     -43.770  31.112 -32.201  1.00  0.00     0.274 HD
ATOM     19  H12 UNL     1     -44.345  31.387 -30.795  1.00  0.00     0.274 HD
ATOM     20  H11 UNL     1     -44.972  32.295 -32.076  1.00  0.00     0.274 HD
ENDBRANCH  16  17
ENDBRANCH  15  16
ENDBRANCH  12  15
ENDBRANCH  11  12
ENDBRANCH  10  11
ENDBRANCH   9  10
ENDBRANCH   5   9
ENDBRANCH   2   3
ENDBRANCH   1   2
BRANCH   1  21
HETATM   21  C9  UNL     1     -43.717  40.988 -34.590  1.00  0.00     0.024 C 
BRANCH  21  22
HETATM   22  C10 UNL     1     -43.531  42.049 -33.525  1.00  0.00     0.154 C 
BRANCH  22  23
HETATM   23  N6  UNL     1     -44.775  42.431 -32.886  1.00  0.00    -0.243 N 
HETATM   24  N7  UNL     1     -45.676  42.957 -33.739  1.00  0.00    -0.306 N 
HETATM   25  C11 UNL     1     -46.253  44.201 -33.434  1.00  0.00     0.134 C 
ATOM     26  H7  UNL     1     -45.935  42.461 -34.591  1.00  0.00     0.186 HD
HETATM   27  C12 UNL     1     -47.490  44.185 -32.590  1.00  0.00     0.324 C 
HETATM   28  N9  UNL     1     -47.227  44.363 -31.172  1.00  0.00    -0.333 N 
HETATM   29  C13 UNL     1     -46.456  43.823 -30.301  1.00  0.00     0.194 C 
ATOM     30  H9  UNL     1     -47.799  45.104 -30.768  1.00  0.00     0.164 HD
HETATM   31  N10 UNL     1     -46.571  44.369 -29.001  1.00  0.00    -0.063 NA
HETATM   32  N11 UNL     1     -45.498  42.776 -30.378  1.00  0.00    -0.281 N 
HETATM   33  C14 UNL     1     -44.776  42.162 -31.467  1.00  0.00     0.343 C 
ATOM     34  H11 UNL     1     -45.272  42.372 -29.469  1.00  0.00     0.173 HD
HETATM   35  O1  UNL     1     -44.010  41.237 -31.167  1.00  0.00    -0.245 OA
BRANCH  27  36
HETATM   36  N8  UNL     1     -48.331  43.032 -32.836  1.00  0.00    -0.053 N 
ATOM     37  H83 UNL     1     -49.130  43.283 -33.418  1.00  0.00     0.277 HD
ATOM     38  H82 UNL     1     -47.869  42.372 -33.461  1.00  0.00     0.277 HD
ATOM     39  H81 UNL     1     -48.637  42.570 -31.980  1.00  0.00     0.277 HD
ENDBRANCH  27  36
ENDBRANCH  22  23
ENDBRANCH  21  22
ENDBRANCH   1  21
TORSDOF 13
ENDMDL
MODEL 4
REMARK VINA RESULT: -6.520377837      1.633      2.582
REMARK  13 active torsions:
REMARK  status: ('A' for Active; 'I' for Inactive)
REMARK    1  A    between atoms: N1_1  and  C1_5 
REMARK    2  A    between atoms: C1_5  and  C2_6 
REMARK    3  A    between atoms: C2_6  and  N2_7 
REMARK    4  A    between atoms: N2_7  and  C3_10 
REMARK    5  A    between atoms: C3_10  and  C4_11 
REMARK    6  A    between atoms: C4_11  and  C5_12 
REMARK    7  A    between atoms: C5_12  and  N3_13 
REMARK       I    between atoms: C6_15  and  N5_17 
REMARK    8  A    between atoms: N5_17  and  C7_19 
REMARK    9  A    between atoms: C7_19  and  C8_20 
REMARK   10  A    between atoms: C8_20  and  C9_21 
REMARK   11  A    between atoms: C9_21  and  C10_22 
REMARK   12  A    between atoms: C10_22  and  N6_23 
REMARK   13  A    between atoms: C12_27  and  N8_28 
ROOT
HETATM    1  C8  UNL     1     -41.322  42.430 -31.372  1.00  0.00     0.021 C 
ENDROOT
BRANCH   1   2
HETATM    2  C7  UNL     1     -42.211  41.216 -31.414  1.00  0.00     0.122 C 
BRANCH   2   3
HETATM    3  N5  UNL     1     -42.302  40.699 -32.759  1.00  0.00    -0.365 N 
HETATM    4  C6  UNL     1     -43.581  40.586 -33.356  1.00  0.00     0.183 C 
HETATM    5  N3  UNL     1     -44.339  39.603 -33.068  1.00  0.00    -0.365 N 
HETATM    6  N4  UNL     1     -44.045  41.562 -34.285  1.00  0.00    -0.064 NA
ATOM      7  H3  UNL     1     -45.259  39.528 -33.503  1.00  0.00     0.162 HD
ATOM      8  H5  UNL     1     -41.463  40.423 -33.269  1.00  0.00     0.162 HD
BRANCH   5   9
HETATM    9  C5  UNL     1     -43.904  38.596 -32.135  1.00  0.00     0.124 C 
BRANCH   9  10
HETATM   10  C4  UNL     1     -43.535  37.370 -32.982  1.00  0.00     0.047 C 
BRANCH  10  11
HETATM   11  C3  UNL     1     -42.202  36.810 -32.550  1.00  0.00     0.234 C 
BRANCH  11  12
HETATM   12  N2  UNL     1     -41.722  37.409 -31.345  1.00  0.00    -0.073 N 
ATOM     13  H22 UNL     1     -42.469  37.911 -30.863  1.00  0.00     0.277 HD
ATOM     14  H21 UNL     1     -41.101  38.192 -31.547  1.00  0.00     0.277 HD
BRANCH  12  15
HETATM   15  C2  UNL     1     -41.092  36.465 -30.474  1.00  0.00     0.259 C 
BRANCH  15  16
HETATM   16  C1  UNL     1     -41.844  35.155 -30.435  1.00  0.00     0.257 C 
BRANCH  16  17
HETATM   17  N1  UNL     1     -41.953  34.674 -29.049  1.00  0.00    -0.078 N 
ATOM     18  H13 UNL     1     -42.061  33.661 -29.003  1.00  0.00     0.274 HD
ATOM     19  H12 UNL     1     -41.069  34.752 -28.547  1.00  0.00     0.274 HD
ATOM     20  H11 UNL     1     -42.710  35.160 -28.567  1.00  0.00     0.274 HD
ENDBRANCH  16  17
ENDBRANCH  15  16
ENDBRANCH  12  15
ENDBRANCH  11  12
ENDBRANCH  10  11
ENDBRANCH   9  10
ENDBRANCH   5   9
ENDBRANCH   2   3
ENDBRANCH   1   2
BRANCH   1  21
HETATM   21  C9  UNL     1     -42.118  43.665 -31.760  1.00  0.00     0.024 C 
BRANCH  21  22
HETATM   22  C10 UNL     1     -43.305  43.740 -30.824  1.00  0.00     0.154 C 
BRANCH  22  23
HETATM   23  N6  UNL     1     -44.576  43.696 -31.520  1.00  0.00    -0.243 N 
HETATM   24  N7  UNL     1     -44.517  44.184 -32.776  1.00  0.00    -0.306 N 
HETATM   25  C11 UNL     1     -45.431  45.177 -33.161  1.00  0.00     0.134 C 
ATOM     26  H7  UNL     1     -43.819  43.837 -33.434  1.00  0.00     0.186 HD
HETATM   27  C12 UNL     1     -46.744  44.712 -33.712  1.00  0.00     0.324 C 
HETATM   28  N9  UNL     1     -47.797  44.636 -32.715  1.00  0.00    -0.333 N 
HETATM   29  C13 UNL     1     -47.934  44.102 -31.556  1.00  0.00     0.194 C 
ATOM     30  H9  UNL     1     -48.639  45.130 -33.009  1.00  0.00     0.164 HD
HETATM   31  N10 UNL     1     -49.199  44.318 -30.961  1.00  0.00    -0.063 NA
HETATM   32  N11 UNL     1     -47.064  43.330 -30.740  1.00  0.00    -0.281 N 
HETATM   33  C14 UNL     1     -45.634  43.136 -30.712  1.00  0.00     0.343 C 
ATOM     34  H11 UNL     1     -47.555  42.800 -30.020  1.00  0.00     0.173 HD
HETATM   35  O1  UNL     1     -45.201  42.358 -29.852  1.00  0.00    -0.245 OA
BRANCH  27  36
HETATM   36  N8  UNL     1     -46.638  43.484 -34.473  1.00  0.00    -0.053 N 
ATOM     37  H83 UNL     1     -47.549  43.037 -34.569  1.00  0.00     0.277 HD
ATOM     38  H82 UNL     1     -46.443  43.680 -35.455  1.00  0.00     0.277 HD
ATOM     39  H81 UNL     1     -45.952  42.834 -34.089  1.00  0.00     0.277 HD
ENDBRANCH  27  36
ENDBRANCH  22  23
ENDBRANCH  21  22
ENDBRANCH   1  21
TORSDOF 13
ENDMDL
MODEL 5
REMARK VINA RESULT: -6.450212952      2.789      4.011
REMARK  13 active torsions:
REMARK  status: ('A' for Active; 'I' for Inactive)
REMARK    1  A    between atoms: N1_1  and  C1_5 
REMARK    2  A    between atoms: C1_5  and  C2_6 
REMARK    3  A    between atoms: C2_6  and  N2_7 
REMARK    4  A    between atoms: N2_7  and  C3_10 
REMARK    5  A    between atoms: C3_10  and  C4_11 
REMARK    6  A    between atoms: C4_11  and  C5_12 
REMARK    7  A    between atoms: C5_12  and  N3_13 
REMARK       I    between atoms: C6_15  and  N5_17 
REMARK    8  A    between atoms: N5_17  and  C7_19 
REMARK    9  A    between atoms: C7_19  and  C8_20 
REMARK   10  A    between atoms: C8_20  and  C9_21 
REMARK   11  A    between atoms: C9_21  and  C10_22 
REMARK   12  A    between atoms: C10_22  and  N6_23 
REMARK   13  A    between atoms: C12_27  and  N8_28 
ROOT
HETATM    1  C8  UNL     1     -43.244  42.471 -33.075  1.00  0.00     0.021 C 
ENDROOT
BRANCH   1   2
HETATM    2  C7  UNL     1     -43.525  41.135 -32.443  1.00  0.00     0.122 C 
BRANCH   2   3
HETATM    3  N5  UNL     1     -44.458  40.380 -33.246  1.00  0.00    -0.365 N 
HETATM    4  C6  UNL     1     -44.216  38.999 -33.445  1.00  0.00     0.183 C 
HETATM    5  N3  UNL     1     -43.363  38.614 -34.311  1.00  0.00    -0.365 N 
HETATM    6  N4  UNL     1     -44.917  38.015 -32.688  1.00  0.00    -0.064 NA
ATOM      7  H3  UNL     1     -43.195  37.617 -34.448  1.00  0.00     0.162 HD
ATOM      8  H5  UNL     1     -45.273  40.830 -33.661  1.00  0.00     0.162 HD
BRANCH   5   9
HETATM    9  C5  UNL     1     -42.636  39.577 -35.095  1.00  0.00     0.124 C 
BRANCH   9  10
HETATM   10  C4  UNL     1     -41.156  39.370 -34.747  1.00  0.00     0.047 C 
BRANCH  10  11
HETATM   11  C3  UNL     1     -40.897  37.930 -34.371  1.00  0.00     0.234 C 
BRANCH  11  12
HETATM   12  N2  UNL     1     -40.087  37.808 -33.201  1.00  0.00    -0.073 N 
ATOM     13  H22 UNL     1     -40.039  38.693 -32.695  1.00  0.00     0.277 HD
ATOM     14  H21 UNL     1     -39.102  37.705 -33.446  1.00  0.00     0.277 HD
BRANCH  12  15
HETATM   15  C2  UNL     1     -40.516  36.747 -32.343  1.00  0.00     0.259 C 
BRANCH  15  16
HETATM   16  C1  UNL     1     -41.558  37.218 -31.354  1.00  0.00     0.257 C 
BRANCH  16  17
HETATM   17  N1  UNL     1     -42.721  36.317 -31.377  1.00  0.00    -0.078 N 
ATOM     18  H13 UNL     1     -42.494  35.391 -31.015  1.00  0.00     0.274 HD
ATOM     19  H12 UNL     1     -43.421  36.579 -30.684  1.00  0.00     0.274 HD
ATOM     20  H11 UNL     1     -43.113  36.273 -32.318  1.00  0.00     0.274 HD
ENDBRANCH  16  17
ENDBRANCH  15  16
ENDBRANCH  12  15
ENDBRANCH  11  12
ENDBRANCH  10  11
ENDBRANCH   9  10
ENDBRANCH   5   9
ENDBRANCH   2   3
ENDBRANCH   1   2
BRANCH   1  21
HETATM   21  C9  UNL     1     -43.260  43.558 -32.013  1.00  0.00     0.024 C 
BRANCH  21  22
HETATM   22  C10 UNL     1     -43.835  44.801 -32.659  1.00  0.00     0.154 C 
BRANCH  22  23
HETATM   23  N6  UNL     1     -45.282  44.774 -32.744  1.00  0.00    -0.243 N 
HETATM   24  N7  UNL     1     -45.863  44.049 -31.767  1.00  0.00    -0.306 N 
HETATM   25  C11 UNL     1     -46.782  43.048 -32.121  1.00  0.00     0.134 C 
ATOM     26  H7  UNL     1     -45.639  44.225 -30.788  1.00  0.00     0.186 HD
HETATM   27  C12 UNL     1     -48.214  43.464 -32.267  1.00  0.00     0.324 C 
HETATM   28  N9  UNL     1     -48.587  43.788 -33.633  1.00  0.00    -0.333 N 
HETATM   29  C13 UNL     1     -48.126  44.542 -34.563  1.00  0.00     0.194 C 
ATOM     30  H9  UNL     1     -49.426  43.290 -33.928  1.00  0.00     0.164 HD
HETATM   31  N10 UNL     1     -48.872  44.511 -35.764  1.00  0.00    -0.063 NA
HETATM   32  N11 UNL     1     -47.004  45.412 -34.631  1.00  0.00    -0.281 N 
HETATM   33  C14 UNL     1     -45.787  45.534 -33.863  1.00  0.00     0.343 C 
ATOM     34  H11 UNL     1     -47.073  46.097 -35.384  1.00  0.00     0.173 HD
HETATM   35  O1  UNL     1     -45.014  46.441 -34.198  1.00  0.00    -0.245 OA
BRANCH  27  36
HETATM   36  N8  UNL     1     -48.598  44.514 -31.346  1.00  0.00    -0.053 N 
ATOM     37  H83 UNL     1     -47.798  45.103 -31.112  1.00  0.00     0.277 HD
ATOM     38  H82 UNL     1     -49.186  45.207 -31.809  1.00  0.00     0.277 HD
ATOM     39  H81 UNL     1     -49.048  44.161 -30.502  1.00  0.00     0.277 HD
ENDBRANCH  27  36
ENDBRANCH  22  23
ENDBRANCH  21  22
ENDBRANCH   1  21
TORSDOF 13
ENDMDL
