MODEL 1
REMARK VINA RESULT: -6.455132536      0.000      0.000
REMARK  2 active torsions:
REMARK  status: ('A' for Active; 'I' for Inactive)
REMARK       I    between atoms: C1_2  and  N1_3 
REMARK    1  A    between atoms: C1_2  and  C7_10 
REMARK    2  A    between atoms: N1_3  and  C2_5 
ROOT
HETATM    1  O1  UNL     1      -0.930 -10.803 -18.367  1.00  0.00    -0.272 OA
HETATM    2  C1  UNL     1      -1.354  -9.743 -17.838  1.00  0.00     0.236 C 
HETATM    3  N1  UNL     1      -0.548  -8.582 -17.720  1.00  0.00    -0.355 N 
ATOM      4  H1  UNL     1      -0.951  -7.754 -17.280  1.00  0.00     0.162 HD
ENDROOT
BRANCH   3   5
HETATM    5  C2  UNL     1       0.798  -8.514 -18.186  1.00  0.00     0.084 C 
HETATM    6  C3  UNL     1       1.106  -7.347 -19.060  1.00  0.00     0.025 C 
HETATM    7  C4  UNL     1       2.495  -6.863 -18.705  1.00  0.00     0.002 C 
HETATM    8  C5  UNL     1       3.046  -8.008 -17.884  1.00  0.00     0.002 C 
HETATM    9  C6  UNL     1       1.799  -8.342 -17.052  1.00  0.00     0.025 C 
ENDBRANCH   3   5
BRANCH   2  10
HETATM   10  C7  UNL     1      -2.756  -9.792 -17.345  1.00  0.00     0.192 C 
HETATM   11  C8  UNL     1      -3.407  -8.443 -17.557  1.00  0.00     0.212 C 
HETATM   12  O2  UNL     1      -3.132  -8.133 -16.246  1.00  0.00    -0.318 OA
HETATM   13  S1  UNL     1      -2.923  -9.681 -15.550  1.00  0.00     0.004 SA
ENDBRANCH   2  10
TORSDOF 2
ENDMDL
MODEL 2
REMARK VINA RESULT: -6.451394383      1.316      1.432
REMARK  2 active torsions:
REMARK  status: ('A' for Active; 'I' for Inactive)
REMARK       I    between atoms: C1_2  and  N1_3 
REMARK    1  A    between atoms: C1_2  and  C7_10 
REMARK    2  A    between atoms: N1_3  and  C2_5 
ROOT
HETATM    1  O1  UNL     1      -0.843 -10.817 -18.403  1.00  0.00    -0.272 OA
HETATM    2  C1  UNL     1      -1.229  -9.819 -17.740  1.00  0.00     0.236 C 
HETATM    3  N1  UNL     1      -0.421  -8.665 -17.571  1.00  0.00    -0.355 N 
ATOM      4  H1  UNL     1      -0.792  -7.890 -17.021  1.00  0.00     0.162 HD
ENDROOT
BRANCH   3   5
HETATM    5  C2  UNL     1       0.884  -8.535 -18.132  1.00  0.00     0.084 C 
HETATM    6  C3  UNL     1       1.078  -7.347 -19.009  1.00  0.00     0.025 C 
HETATM    7  C4  UNL     1       2.469  -6.809 -18.748  1.00  0.00     0.002 C 
HETATM    8  C5  UNL     1       3.125  -7.939 -17.985  1.00  0.00     0.002 C 
HETATM    9  C6  UNL     1       1.956  -8.334 -17.071  1.00  0.00     0.025 C 
ENDBRANCH   3   5
BRANCH   2  10
HETATM   10  C7  UNL     1      -2.587  -9.934 -17.147  1.00  0.00     0.192 C 
HETATM   11  C8  UNL     1      -2.472  -9.968 -15.639  1.00  0.00     0.212 C 
HETATM   12  O2  UNL     1      -2.559 -11.339 -15.689  1.00  0.00    -0.318 OA
HETATM   13  S1  UNL     1      -3.294 -11.595 -17.212  1.00  0.00     0.004 SA
ENDBRANCH   2  10
TORSDOF 2
ENDMDL
MODEL 3
REMARK VINA RESULT: -6.222676915      1.383      1.497
REMARK  2 active torsions:
REMARK  status: ('A' for Active; 'I' for Inactive)
REMARK       I    between atoms: C1_2  and  N1_3 
REMARK    1  A    between atoms: C1_2  and  C7_10 
REMARK    2  A    between atoms: N1_3  and  C2_5 
ROOT
HETATM    1  O1  UNL     1      -0.882 -10.844 -18.421  1.00  0.00    -0.272 OA
HETATM    2  C1  UNL     1      -1.355  -9.768 -17.971  1.00  0.00     0.236 C 
HETATM    3  N1  UNL     1      -0.575  -8.589 -17.857  1.00  0.00    -0.355 N 
ATOM      4  H1  UNL     1      -1.018  -7.749 -17.484  1.00  0.00     0.162 HD
ENDROOT
BRANCH   3   5
HETATM    5  C2  UNL     1       0.797  -8.519 -18.238  1.00  0.00     0.084 C 
HETATM    6  C3  UNL     1       1.153  -7.364 -19.110  1.00  0.00     0.025 C 
HETATM    7  C4  UNL     1       2.514  -6.865 -18.676  1.00  0.00     0.002 C 
HETATM    8  C5  UNL     1       3.019  -7.993 -17.803  1.00  0.00     0.002 C 
HETATM    9  C6  UNL     1       1.723  -8.322 -17.046  1.00  0.00     0.025 C 
ENDBRANCH   3   5
BRANCH   2  10
HETATM   10  C7  UNL     1      -2.785  -9.819 -17.568  1.00  0.00     0.192 C 
HETATM   11  C8  UNL     1      -3.534 -10.745 -18.502  1.00  0.00     0.212 C 
HETATM   12  O2  UNL     1      -3.946  -9.646 -19.219  1.00  0.00    -0.318 OA
HETATM   13  S1  UNL     1      -3.757  -8.385 -18.079  1.00  0.00     0.004 SA
ENDBRANCH   2  10
TORSDOF 2
ENDMDL
MODEL 4
REMARK VINA RESULT: -6.197939210      1.361      2.310
REMARK  2 active torsions:
REMARK  status: ('A' for Active; 'I' for Inactive)
REMARK       I    between atoms: C1_2  and  N1_3 
REMARK    1  A    between atoms: C1_2  and  C7_10 
REMARK    2  A    between atoms: N1_3  and  C2_5 
ROOT
HETATM    1  O1  UNL     1      -1.790  -7.501 -15.917  1.00  0.00    -0.272 OA
HETATM    2  C1  UNL     1      -1.736  -8.481 -16.705  1.00  0.00     0.236 C 
HETATM    3  N1  UNL     1      -0.610  -8.724 -17.533  1.00  0.00    -0.355 N 
ATOM      4  H1  UNL     1      -0.628  -9.535 -18.151  1.00  0.00     0.162 HD
ENDROOT
BRANCH   3   5
HETATM    5  C2  UNL     1       0.547  -7.890 -17.544  1.00  0.00     0.084 C 
HETATM    6  C3  UNL     1       1.776  -8.507 -16.972  1.00  0.00     0.025 C 
HETATM    7  C4  UNL     1       2.949  -8.062 -17.818  1.00  0.00     0.002 C 
HETATM    8  C5  UNL     1       2.363  -6.923 -18.624  1.00  0.00     0.002 C 
HETATM    9  C6  UNL     1       0.992  -7.530 -18.955  1.00  0.00     0.025 C 
ENDBRANCH   3   5
BRANCH   2  10
HETATM   10  C7  UNL     1      -2.931  -9.364 -16.709  1.00  0.00     0.192 C 
HETATM   11  C8  UNL     1      -2.732 -10.479 -15.706  1.00  0.00     0.212 C 
HETATM   12  O2  UNL     1      -2.329 -11.297 -16.735  1.00  0.00    -0.318 OA
HETATM   13  S1  UNL     1      -3.005 -10.517 -18.097  1.00  0.00     0.004 SA
ENDBRANCH   2  10
TORSDOF 2
ENDMDL
MODEL 5
REMARK VINA RESULT: -6.163898938      1.416      2.096
REMARK  2 active torsions:
REMARK  status: ('A' for Active; 'I' for Inactive)
REMARK       I    between atoms: C1_2  and  N1_3 
REMARK    1  A    between atoms: C1_2  and  C7_10 
REMARK    2  A    between atoms: N1_3  and  C2_5 
ROOT
HETATM    1  O1  UNL     1      -0.879  -8.058 -14.995  1.00  0.00    -0.272 OA
HETATM    2  C1  UNL     1      -1.134  -8.804 -15.976  1.00  0.00     0.236 C 
HETATM    3  N1  UNL     1      -0.374  -8.765 -17.173  1.00  0.00    -0.355 N 
ATOM      4  H1  UNL     1      -0.633  -9.395 -17.933  1.00  0.00     0.162 HD
ENDROOT
BRANCH   3   5
HETATM    5  C2  UNL     1       0.733  -7.888 -17.368  1.00  0.00     0.084 C 
HETATM    6  C3  UNL     1       2.053  -8.435 -16.946  1.00  0.00     0.025 C 
HETATM    7  C4  UNL     1       3.082  -7.978 -17.958  1.00  0.00     0.002 C 
HETATM    8  C5  UNL     1       2.346  -6.895 -18.715  1.00  0.00     0.002 C 
HETATM    9  C6  UNL     1       0.970  -7.567 -18.837  1.00  0.00     0.025 C 
ENDBRANCH   3   5
BRANCH   2  10
HETATM   10  C7  UNL     1      -2.285  -9.727 -15.794  1.00  0.00     0.192 C 
HETATM   11  C8  UNL     1      -2.574 -10.430 -17.102  1.00  0.00     0.212 C 
HETATM   12  O2  UNL     1      -3.565  -9.508 -17.348  1.00  0.00    -0.318 OA
HETATM   13  S1  UNL     1      -3.899  -8.916 -15.779  1.00  0.00     0.004 SA
ENDBRANCH   2  10
TORSDOF 2
ENDMDL
