MODEL 1
REMARK VINA RESULT: -5.716273720      0.000      0.000
REMARK  5 active torsions:
REMARK  status: ('A' for Active; 'I' for Inactive)
REMARK    1  A    between atoms: C2_2  and  O1_4 
REMARK    2  A    between atoms: O1_4  and  C4_5 
REMARK    3  A    between atoms: C4_5  and  N1_7 
REMARK    4  A    between atoms: N1_7  and  N2_9 
REMARK    5  A    between atoms: C5_11  and  C7_13 
ROOT
HETATM    1  N1  UNL     1      -0.849  -9.998 -17.862  1.00  0.00    -0.270 N 
ATOM      2  H1  UNL     1      -0.347 -10.859 -18.081  1.00  0.00     0.190 HD
ENDROOT
BRANCH   1   3
HETATM    3  C4  UNL     1      -2.120 -10.103 -17.250  1.00  0.00     0.234 C 
HETATM    4  S1  UNL     1      -3.388 -10.471 -18.205  1.00  0.00    -0.031 SA
BRANCH   3   5
HETATM    5  O1  UNL     1      -2.345  -9.914 -15.907  1.00  0.00    -0.289 OA
BRANCH   5   6
HETATM    6  C2  UNL     1      -2.076  -8.683 -15.302  1.00  0.00     0.043 C 
HETATM    7  C1  UNL     1      -1.244  -8.611 -14.280  1.00  0.00     0.046 C 
HETATM    8  C3  UNL     1      -2.750  -7.483 -15.842  1.00  0.00     0.076 C 
ENDBRANCH   5   6
ENDBRANCH   3   5
ENDBRANCH   1   3
BRANCH   1   9
HETATM    9  N2  UNL     1      -0.246  -8.788 -18.181  1.00  0.00    -0.306 N 
HETATM   10  C5  UNL     1       0.852  -8.480 -17.614  1.00  0.00     0.004 C 
HETATM   11  C6  UNL     1       1.426  -9.436 -16.644  1.00  0.00     0.065 C 
ATOM     12  H2  UNL     1      -0.677  -8.156 -18.857  1.00  0.00     0.186 HD
BRANCH  10  13
HETATM   13  C7  UNL     1       1.496  -7.186 -17.954  1.00  0.00     0.032 A 
HETATM   14  C8  UNL     1       1.677  -6.788 -19.370  1.00  0.00     0.011 A 
HETATM   15  C9  UNL     1       2.880  -7.251 -18.637  1.00  0.00     0.011 A 
ENDBRANCH  10  13
ENDBRANCH   1   9
TORSDOF 5
ENDMDL
MODEL 2
REMARK VINA RESULT: -5.715007368      1.460      2.615
REMARK  5 active torsions:
REMARK  status: ('A' for Active; 'I' for Inactive)
REMARK    1  A    between atoms: C2_2  and  O1_4 
REMARK    2  A    between atoms: O1_4  and  C4_5 
REMARK    3  A    between atoms: C4_5  and  N1_7 
REMARK    4  A    between atoms: N1_7  and  N2_9 
REMARK    5  A    between atoms: C5_11  and  C7_13 
ROOT
HETATM    1  N1  UNL     1      -0.131  -8.966 -18.075  1.00  0.00    -0.270 N 
ATOM      2  H1  UNL     1       0.147  -8.607 -18.989  1.00  0.00     0.190 HD
ENDROOT
BRANCH   1   3
HETATM    3  C4  UNL     1      -1.511  -9.027 -17.774  1.00  0.00     0.234 C 
HETATM    4  S1  UNL     1      -2.360 -10.281 -18.377  1.00  0.00    -0.031 SA
BRANCH   3   5
HETATM    5  O1  UNL     1      -2.173  -8.096 -17.008  1.00  0.00    -0.289 OA
BRANCH   5   6
HETATM    6  C2  UNL     1      -2.541  -8.383 -15.691  1.00  0.00     0.043 C 
HETATM    7  C1  UNL     1      -3.814  -8.515 -15.368  1.00  0.00     0.046 C 
HETATM    8  C3  UNL     1      -1.465  -8.531 -14.687  1.00  0.00     0.076 C 
ENDBRANCH   5   6
ENDBRANCH   3   5
ENDBRANCH   1   3
BRANCH   1   9
HETATM    9  N2  UNL     1       0.867  -9.368 -17.196  1.00  0.00    -0.306 N 
HETATM   10  C5  UNL     1       1.971  -8.732 -17.187  1.00  0.00     0.004 C 
HETATM   11  C6  UNL     1       2.126  -7.596 -18.119  1.00  0.00     0.065 C 
ATOM     12  H2  UNL     1       0.718 -10.159 -16.569  1.00  0.00     0.186 HD
BRANCH  10  13
HETATM   13  C7  UNL     1       3.038  -9.163 -16.249  1.00  0.00     0.032 A 
HETATM   14  C8  UNL     1       2.828 -10.329 -15.359  1.00  0.00     0.011 A 
HETATM   15  C9  UNL     1       2.758  -8.983 -14.740  1.00  0.00     0.011 A 
ENDBRANCH  10  13
ENDBRANCH   1   9
TORSDOF 5
ENDMDL
MODEL 3
REMARK VINA RESULT: -5.641668382      1.786      2.682
REMARK  5 active torsions:
REMARK  status: ('A' for Active; 'I' for Inactive)
REMARK    1  A    between atoms: C2_2  and  O1_4 
REMARK    2  A    between atoms: O1_4  and  C4_5 
REMARK    3  A    between atoms: C4_5  and  N1_7 
REMARK    4  A    between atoms: N1_7  and  N2_9 
REMARK    5  A    between atoms: C5_11  and  C7_13 
ROOT
HETATM    1  N1  UNL     1      -1.038  -8.961 -15.782  1.00  0.00    -0.270 N 
ATOM      2  H1  UNL     1      -0.554  -8.676 -14.931  1.00  0.00     0.190 HD
ENDROOT
BRANCH   1   3
HETATM    3  C4  UNL     1      -2.241  -9.693 -15.653  1.00  0.00     0.234 C 
HETATM    4  S1  UNL     1      -3.607  -8.852 -15.362  1.00  0.00    -0.031 SA
BRANCH   3   5
HETATM    5  O1  UNL     1      -2.325 -11.061 -15.758  1.00  0.00    -0.289 OA
BRANCH   5   6
HETATM    6  C2  UNL     1      -3.142 -11.657 -16.723  1.00  0.00     0.043 C 
HETATM    7  C1  UNL     1      -2.930 -11.431 -18.006  1.00  0.00     0.046 C 
HETATM    8  C3  UNL     1      -4.236 -12.537 -16.259  1.00  0.00     0.076 C 
ENDBRANCH   5   6
ENDBRANCH   3   5
ENDBRANCH   1   3
BRANCH   1   9
HETATM    9  N2  UNL     1      -0.478  -8.610 -17.004  1.00  0.00    -0.306 N 
HETATM   10  C5  UNL     1       0.783  -8.449 -17.079  1.00  0.00     0.004 C 
HETATM   11  C6  UNL     1       1.583  -8.647 -15.853  1.00  0.00     0.065 C 
ATOM     12  H2  UNL     1      -1.068  -8.483 -17.828  1.00  0.00     0.186 HD
BRANCH  10  13
HETATM   13  C7  UNL     1       1.381  -8.073 -18.385  1.00  0.00     0.032 A 
HETATM   14  C8  UNL     1       2.712  -7.423 -18.441  1.00  0.00     0.011 A 
HETATM   15  C9  UNL     1       1.528  -6.564 -18.679  1.00  0.00     0.011 A 
ENDBRANCH  10  13
ENDBRANCH   1   9
TORSDOF 5
ENDMDL
MODEL 4
REMARK VINA RESULT: -5.602635198      2.663      5.184
REMARK  5 active torsions:
REMARK  status: ('A' for Active; 'I' for Inactive)
REMARK    1  A    between atoms: C2_2  and  O1_4 
REMARK    2  A    between atoms: O1_4  and  C4_5 
REMARK    3  A    between atoms: C4_5  and  N1_7 
REMARK    4  A    between atoms: N1_7  and  N2_9 
REMARK    5  A    between atoms: C5_11  and  C7_13 
ROOT
HETATM    1  N1  UNL     1       0.872  -7.926 -15.680  1.00  0.00    -0.270 N 
ATOM      2  H1  UNL     1       1.215  -7.590 -14.779  1.00  0.00     0.190 HD
ENDROOT
BRANCH   1   3
HETATM    3  C4  UNL     1       1.727  -8.741 -16.457  1.00  0.00     0.234 C 
HETATM    4  S1  UNL     1       2.785  -9.695 -15.665  1.00  0.00    -0.031 SA
BRANCH   3   5
HETATM    5  O1  UNL     1       1.718  -8.775 -17.832  1.00  0.00    -0.289 OA
BRANCH   5   6
HETATM    6  C2  UNL     1       2.052  -7.641 -18.579  1.00  0.00     0.043 C 
HETATM    7  C1  UNL     1       1.115  -6.962 -19.214  1.00  0.00     0.046 C 
HETATM    8  C3  UNL     1       3.474  -7.238 -18.630  1.00  0.00     0.076 C 
ENDBRANCH   5   6
ENDBRANCH   3   5
ENDBRANCH   1   3
BRANCH   1   9
HETATM    9  N2  UNL     1      -0.407  -7.556 -16.075  1.00  0.00    -0.306 N 
HETATM   10  C5  UNL     1      -1.402  -7.949 -15.382  1.00  0.00     0.004 C 
HETATM   11  C6  UNL     1      -1.134  -8.782 -14.192  1.00  0.00     0.065 C 
ATOM     12  H2  UNL     1      -0.548  -6.979 -16.905  1.00  0.00     0.186 HD
BRANCH  10  13
HETATM   13  C7  UNL     1      -2.770  -7.555 -15.805  1.00  0.00     0.032 A 
HETATM   14  C8  UNL     1      -3.926  -8.435 -15.516  1.00  0.00     0.011 A 
HETATM   15  C9  UNL     1      -3.432  -8.403 -16.913  1.00  0.00     0.011 A 
ENDBRANCH  10  13
ENDBRANCH   1   9
TORSDOF 5
ENDMDL
MODEL 5
REMARK VINA RESULT: -5.580047786      1.670      2.492
REMARK  5 active torsions:
REMARK  status: ('A' for Active; 'I' for Inactive)
REMARK    1  A    between atoms: C2_2  and  O1_4 
REMARK    2  A    between atoms: O1_4  and  C4_5 
REMARK    3  A    between atoms: C4_5  and  N1_7 
REMARK    4  A    between atoms: N1_7  and  N2_9 
REMARK    5  A    between atoms: C5_11  and  C7_13 
ROOT
HETATM    1  N1  UNL     1      -0.912  -9.072 -15.733  1.00  0.00    -0.270 N 
ATOM      2  H1  UNL     1      -0.428  -9.294 -14.862  1.00  0.00     0.190 HD
ENDROOT
BRANCH   1   3
HETATM    3  C4  UNL     1      -2.060  -9.825 -16.070  1.00  0.00     0.234 C 
HETATM    4  S1  UNL     1      -3.432  -9.517 -15.247  1.00  0.00    -0.031 SA
BRANCH   3   5
HETATM    5  O1  UNL     1      -2.085 -10.795 -17.044  1.00  0.00    -0.289 OA
BRANCH   5   6
HETATM    6  C2  UNL     1      -2.320 -10.462 -18.381  1.00  0.00     0.043 C 
HETATM    7  C1  UNL     1      -1.310 -10.277 -19.209  1.00  0.00     0.046 C 
HETATM    8  C3  UNL     1      -3.724 -10.326 -18.825  1.00  0.00     0.076 C 
ENDBRANCH   5   6
ENDBRANCH   3   5
ENDBRANCH   1   3
BRANCH   1   9
HETATM    9  N2  UNL     1      -0.406  -8.046 -16.521  1.00  0.00    -0.306 N 
HETATM   10  C5  UNL     1       0.793  -8.129 -16.943  1.00  0.00     0.004 C 
HETATM   11  C6  UNL     1       1.581  -9.321 -16.568  1.00  0.00     0.065 C 
ATOM     12  H2  UNL     1      -0.985  -7.239 -16.756  1.00  0.00     0.186 HD
BRANCH  10  13
HETATM   13  C7  UNL     1       1.334  -7.032 -17.785  1.00  0.00     0.032 A 
HETATM   14  C8  UNL     1       1.323  -7.145 -19.263  1.00  0.00     0.011 A 
HETATM   15  C9  UNL     1       2.626  -7.330 -18.579  1.00  0.00     0.011 A 
ENDBRANCH  10  13
ENDBRANCH   1   9
TORSDOF 5
ENDMDL
