MODEL 1
REMARK VINA RESULT: -6.000016150      0.000      0.000
REMARK  4 active torsions:
REMARK  status: ('A' for Active; 'I' for Inactive)
REMARK    1  A    between atoms: C1_4  and  N2_5 
REMARK    2  A    between atoms: N2_5  and  N3_7 
REMARK    3  A    between atoms: C2_8  and  O1_9 
REMARK    4  A    between atoms: C5_13  and  O2_14 
ROOT
HETATM    1  N3  UNL     1     -46.090 -20.997 -17.981  1.00  0.00    -0.188 NA
HETATM    2  C2  UNL     1     -47.338 -20.759 -17.344  1.00  0.00     0.213 C 
HETATM    3  C3  UNL     1     -48.317 -21.798 -17.802  1.00  0.00     0.058 C 
HETATM    4  C4  UNL     1     -47.471 -22.879 -18.413  1.00  0.00     0.049 C 
HETATM    5  C5  UNL     1     -48.073 -23.489 -19.640  1.00  0.00     0.147 C 
HETATM    6  C6  UNL     1     -46.980 -24.152 -20.442  1.00  0.00     0.116 C 
HETATM    7  C7  UNL     1     -47.499 -24.874 -21.663  1.00  0.00     0.029 C 
HETATM    8  C8  UNL     1     -46.336 -24.688 -22.638  1.00  0.00     0.022 C 
HETATM    9  C9  UNL     1     -45.920 -23.280 -22.399  1.00  0.00     0.126 C 
HETATM   10  N4  UNL     1     -46.198 -23.048 -21.018  1.00  0.00    -0.344 N 
HETATM   11  C10 UNL     1     -45.880 -21.996 -20.118  1.00  0.00     0.240 C 
HETATM   12  O3  UNL     1     -45.396 -20.911 -20.526  1.00  0.00    -0.271 OA
HETATM   13  C11 UNL     1     -46.151 -22.251 -18.679  1.00  0.00     0.181 C 
ENDROOT
BRANCH   1  14
HETATM   14  N2  UNL     1     -44.978 -20.835 -17.188  1.00  0.00    -0.312 N 
ATOM     15  H2  UNL     1     -45.137 -20.489 -16.242  1.00  0.00     0.181 HD
BRANCH  14  16
HETATM   16  C1  UNL     1     -43.650 -21.095 -17.548  1.00  0.00     0.185 C 
HETATM   17  N1  UNL     1     -42.725 -20.189 -17.442  1.00  0.00    -0.395 N 
ATOM     18  H12 UNL     1     -42.989 -19.270 -17.086  1.00  0.00     0.156 HD
ATOM     19  H11 UNL     1     -41.758 -20.379 -17.703  1.00  0.00     0.156 HD
ENDBRANCH  14  16
ENDBRANCH   1  14
BRANCH   2  20
HETATM   20  O1  UNL     1     -47.265 -20.654 -15.960  1.00  0.00    -0.380 OA
ATOM     21  H1  UNL     1     -46.911 -19.828 -15.648  1.00  0.00     0.211 HD
ENDBRANCH   2  20
BRANCH   5  22
HETATM   22  O2  UNL     1     -49.122 -24.346 -19.364  1.00  0.00    -0.393 OA
ATOM     23  H2  UNL     1     -49.593 -24.625 -20.141  1.00  0.00     0.210 HD
ENDBRANCH   5  22
TORSDOF 4
ENDMDL
MODEL 2
REMARK VINA RESULT: -5.847230926      2.141      4.699
REMARK  4 active torsions:
REMARK  status: ('A' for Active; 'I' for Inactive)
REMARK    1  A    between atoms: C1_4  and  N2_5 
REMARK    2  A    between atoms: N2_5  and  N3_7 
REMARK    3  A    between atoms: C2_8  and  O1_9 
REMARK    4  A    between atoms: C5_13  and  O2_14 
ROOT
HETATM    1  N3  UNL     1     -48.468 -23.760 -18.805  1.00  0.00    -0.188 NA
HETATM    2  C2  UNL     1     -49.081 -23.750 -17.524  1.00  0.00     0.213 C 
HETATM    3  C3  UNL     1     -48.444 -22.677 -16.694  1.00  0.00     0.058 C 
HETATM    4  C4  UNL     1     -47.721 -21.806 -17.683  1.00  0.00     0.049 C 
HETATM    5  C5  UNL     1     -46.398 -21.312 -17.189  1.00  0.00     0.147 C 
HETATM    6  C6  UNL     1     -45.554 -20.910 -18.374  1.00  0.00     0.116 C 
HETATM    7  C7  UNL     1     -44.224 -20.314 -17.976  1.00  0.00     0.029 C 
HETATM    8  C8  UNL     1     -43.331 -20.779 -19.128  1.00  0.00     0.022 C 
HETATM    9  C9  UNL     1     -43.783 -22.178 -19.357  1.00  0.00     0.126 C 
HETATM   10  N4  UNL     1     -45.170 -22.172 -19.023  1.00  0.00    -0.344 N 
HETATM   11  C10 UNL     1     -46.221 -23.114 -19.186  1.00  0.00     0.240 C 
HETATM   12  O3  UNL     1     -45.989 -24.296 -19.538  1.00  0.00    -0.271 OA
HETATM   13  C11 UNL     1     -47.597 -22.622 -18.918  1.00  0.00     0.181 C 
ENDROOT
BRANCH   1  14
HETATM   14  N2  UNL     1     -49.318 -23.940 -19.871  1.00  0.00    -0.312 N 
ATOM     15  H2  UNL     1     -50.095 -23.284 -19.953  1.00  0.00     0.181 HD
BRANCH  14  16
HETATM   16  C1  UNL     1     -49.227 -24.932 -20.855  1.00  0.00     0.185 C 
HETATM   17  N1  UNL     1     -48.080 -25.355 -21.292  1.00  0.00    -0.395 N 
ATOM     18  H12 UNL     1     -47.233 -24.943 -20.899  1.00  0.00     0.156 HD
ATOM     19  H11 UNL     1     -48.014 -26.078 -22.009  1.00  0.00     0.156 HD
ENDBRANCH  14  16
ENDBRANCH   1  14
BRANCH   2  20
HETATM   20  O1  UNL     1     -50.469 -23.662 -17.554  1.00  0.00    -0.380 OA
ATOM     21  H1  UNL     1     -50.816 -22.836 -17.236  1.00  0.00     0.211 HD
ENDBRANCH   2  20
BRANCH   5  22
HETATM   22  O2  UNL     1     -46.508 -20.302 -16.250  1.00  0.00    -0.393 OA
ATOM     23  H2  UNL     1     -45.888 -20.386 -15.535  1.00  0.00     0.210 HD
ENDBRANCH   5  22
TORSDOF 4
ENDMDL
MODEL 3
REMARK VINA RESULT: -5.483494085      0.900      1.001
REMARK  4 active torsions:
REMARK  status: ('A' for Active; 'I' for Inactive)
REMARK    1  A    between atoms: C1_4  and  N2_5 
REMARK    2  A    between atoms: N2_5  and  N3_7 
REMARK    3  A    between atoms: C2_8  and  O1_9 
REMARK    4  A    between atoms: C5_13  and  O2_14 
ROOT
HETATM    1  N3  UNL     1     -45.529 -21.303 -18.101  1.00  0.00    -0.188 NA
HETATM    2  C2  UNL     1     -46.501 -20.677 -17.274  1.00  0.00     0.213 C 
HETATM    3  C3  UNL     1     -47.765 -21.479 -17.327  1.00  0.00     0.058 C 
HETATM    4  C4  UNL     1     -47.354 -22.808 -17.896  1.00  0.00     0.049 C 
HETATM    5  C5  UNL     1     -48.355 -23.390 -18.843  1.00  0.00     0.147 C 
HETATM    6  C6  UNL     1     -47.664 -24.404 -19.722  1.00  0.00     0.116 C 
HETATM    7  C7  UNL     1     -48.611 -25.114 -20.660  1.00  0.00     0.029 C 
HETATM    8  C8  UNL     1     -47.709 -25.354 -21.871  1.00  0.00     0.022 C 
HETATM    9  C9  UNL     1     -46.947 -24.081 -21.978  1.00  0.00     0.126 C 
HETATM   10  N4  UNL     1     -46.822 -23.617 -20.634  1.00  0.00    -0.344 N 
HETATM   11  C10 UNL     1     -46.071 -22.578 -20.022  1.00  0.00     0.240 C 
HETATM   12  O3  UNL     1     -45.474 -21.713 -20.708  1.00  0.00    -0.271 OA
HETATM   13  C11 UNL     1     -46.033 -22.576 -18.537  1.00  0.00     0.181 C 
ENDROOT
BRANCH   1  14
HETATM   14  N2  UNL     1     -44.250 -21.334 -17.597  1.00  0.00    -0.312 N 
ATOM     15  H2  UNL     1     -44.114 -21.846 -16.725  1.00  0.00     0.181 HD
BRANCH  14  16
HETATM   16  C1  UNL     1     -43.115 -20.735 -18.158  1.00  0.00     0.185 C 
HETATM   17  N1  UNL     1     -42.328 -19.976 -17.457  1.00  0.00    -0.395 N 
ATOM     18  H12 UNL     1     -42.557 -19.822 -16.474  1.00  0.00     0.156 HD
ATOM     19  H11 UNL     1     -41.502 -19.540 -17.865  1.00  0.00     0.156 HD
ENDBRANCH  14  16
ENDBRANCH   1  14
BRANCH   2  20
HETATM   20  O1  UNL     1     -46.071 -20.424 -15.976  1.00  0.00    -0.380 OA
ATOM     21  H1  UNL     1     -45.459 -19.701 -15.900  1.00  0.00     0.211 HD
ENDBRANCH   2  20
BRANCH   5  22
HETATM   22  O2  UNL     1     -49.469 -23.909 -18.208  1.00  0.00    -0.393 OA
ATOM     23  H2  UNL     1     -49.795 -24.703 -18.614  1.00  0.00     0.210 HD
ENDBRANCH   5  22
TORSDOF 4
ENDMDL
MODEL 4
REMARK VINA RESULT: -5.014581855      2.378      3.126
REMARK  4 active torsions:
REMARK  status: ('A' for Active; 'I' for Inactive)
REMARK    1  A    between atoms: C1_4  and  N2_5 
REMARK    2  A    between atoms: N2_5  and  N3_7 
REMARK    3  A    between atoms: C2_8  and  O1_9 
REMARK    4  A    between atoms: C5_13  and  O2_14 
ROOT
HETATM    1  N3  UNL     1     -48.418 -22.924 -17.289  1.00  0.00    -0.188 NA
HETATM    2  C2  UNL     1     -49.333 -23.996 -17.465  1.00  0.00     0.213 C 
HETATM    3  C3  UNL     1     -49.011 -24.696 -18.751  1.00  0.00     0.058 C 
HETATM    4  C4  UNL     1     -47.624 -24.234 -19.103  1.00  0.00     0.049 C 
HETATM    5  C5  UNL     1     -47.425 -24.001 -20.567  1.00  0.00     0.147 C 
HETATM    6  C6  UNL     1     -46.241 -23.085 -20.758  1.00  0.00     0.116 C 
HETATM    7  C7  UNL     1     -45.902 -22.854 -22.212  1.00  0.00     0.029 C 
HETATM    8  C8  UNL     1     -45.375 -21.419 -22.173  1.00  0.00     0.022 C 
HETATM    9  C9  UNL     1     -46.314 -20.744 -21.236  1.00  0.00     0.126 C 
HETATM   10  N4  UNL     1     -46.699 -21.761 -20.311  1.00  0.00    -0.344 N 
HETATM   11  C10 UNL     1     -47.415 -21.749 -19.085  1.00  0.00     0.240 C 
HETATM   12  O3  UNL     1     -48.029 -20.725 -18.697  1.00  0.00    -0.271 OA
HETATM   13  C11 UNL     1     -47.396 -23.008 -18.295  1.00  0.00     0.181 C 
ENDROOT
BRANCH   1  14
HETATM   14  N2  UNL     1     -47.949 -22.747 -16.008  1.00  0.00    -0.312 N 
ATOM     15  H2  UNL     1     -47.676 -23.588 -15.500  1.00  0.00     0.181 HD
BRANCH  14  16
HETATM   16  C1  UNL     1     -47.809 -21.529 -15.330  1.00  0.00     0.185 C 
HETATM   17  N1  UNL     1     -47.462 -20.441 -15.949  1.00  0.00    -0.395 N 
ATOM     18  H12 UNL     1     -47.291 -20.491 -16.953  1.00  0.00     0.156 HD
ATOM     19  H11 UNL     1     -47.360 -19.554 -15.455  1.00  0.00     0.156 HD
ENDBRANCH  14  16
ENDBRANCH   1  14
BRANCH   2  20
HETATM   20  O1  UNL     1     -49.417 -24.862 -16.381  1.00  0.00    -0.380 OA
ATOM     21  H1  UNL     1     -49.937 -25.641 -16.541  1.00  0.00     0.211 HD
ENDBRANCH   2  20
BRANCH   5  22
HETATM   22  O2  UNL     1     -47.313 -25.171 -21.295  1.00  0.00    -0.393 OA
ATOM     23  H2  UNL     1     -46.724 -25.804 -20.900  1.00  0.00     0.210 HD
ENDBRANCH   5  22
TORSDOF 4
ENDMDL
MODEL 5
REMARK VINA RESULT: -4.715967511      1.967      5.682
REMARK  4 active torsions:
REMARK  status: ('A' for Active; 'I' for Inactive)
REMARK    1  A    between atoms: C1_4  and  N2_5 
REMARK    2  A    between atoms: N2_5  and  N3_7 
REMARK    3  A    between atoms: C2_8  and  O1_9 
REMARK    4  A    between atoms: C5_13  and  O2_14 
ROOT
HETATM    1  N3  UNL     1     -46.995 -23.803 -21.276  1.00  0.00    -0.188 NA
HETATM    2  C2  UNL     1     -46.183 -23.342 -22.348  1.00  0.00     0.213 C 
HETATM    3  C3  UNL     1     -45.130 -22.430 -21.794  1.00  0.00     0.058 C 
HETATM    4  C4  UNL     1     -45.120 -22.706 -20.317  1.00  0.00     0.049 C 
HETATM    5  C5  UNL     1     -44.927 -21.481 -19.480  1.00  0.00     0.147 C 
HETATM    6  C6  UNL     1     -45.433 -21.758 -18.086  1.00  0.00     0.116 C 
HETATM    7  C7  UNL     1     -45.204 -20.606 -17.135  1.00  0.00     0.029 C 
HETATM    8  C8  UNL     1     -46.420 -20.729 -16.217  1.00  0.00     0.022 C 
HETATM    9  C9  UNL     1     -47.522 -21.054 -17.163  1.00  0.00     0.126 C 
HETATM   10  N4  UNL     1     -46.898 -21.801 -18.206  1.00  0.00    -0.344 N 
HETATM   11  C10 UNL     1     -47.394 -22.553 -19.304  1.00  0.00     0.240 C 
HETATM   12  O3  UNL     1     -48.604 -22.504 -19.635  1.00  0.00    -0.271 OA
HETATM   13  C11 UNL     1     -46.407 -23.393 -20.031  1.00  0.00     0.181 C 
ENDROOT
BRANCH   1  14
HETATM   14  N2  UNL     1     -47.355 -25.129 -21.332  1.00  0.00    -0.312 N 
ATOM     15  H2  UNL     1     -46.625 -25.811 -21.130  1.00  0.00     0.181 HD
BRANCH  14  16
HETATM   16  C1  UNL     1     -48.624 -25.638 -21.638  1.00  0.00     0.185 C 
HETATM   17  N1  UNL     1     -49.696 -25.189 -21.057  1.00  0.00    -0.395 N 
ATOM     18  H12 UNL     1     -49.594 -24.448 -20.363  1.00  0.00     0.156 HD
ATOM     19  H11 UNL     1     -50.620 -25.560 -21.280  1.00  0.00     0.156 HD
ENDBRANCH  14  16
ENDBRANCH   1  14
BRANCH   2  20
HETATM   20  O1  UNL     1     -45.661 -24.352 -23.148  1.00  0.00    -0.380 OA
ATOM     21  H1  UNL     1     -45.906 -25.230 -22.878  1.00  0.00     0.211 HD
ENDBRANCH   2  20
BRANCH   5  22
HETATM   22  O2  UNL     1     -43.625 -21.015 -19.489  1.00  0.00    -0.393 OA
ATOM     23  H2  UNL     1     -43.565 -20.068 -19.433  1.00  0.00     0.210 HD
ENDBRANCH   5  22
TORSDOF 4
ENDMDL
