MODEL 1
REMARK VINA RESULT: -7.396144714      0.000      0.000
REMARK  5 active torsions:
REMARK  status: ('A' for Active; 'I' for Inactive)
REMARK    1  A    between atoms: C2_2  and  N1_3 
REMARK       I    between atoms: N1_3  and  C3_5 
REMARK    2  A    between atoms: C3_5  and  C4_7 
REMARK    3  A    between atoms: C8_11  and  O2_12 
REMARK    4  A    between atoms: C13_18  and  C14_19 
REMARK    5  A    between atoms: C20_25  and  O3_26 
ROOT
HETATM    1  C4  UNL     1      11.629  34.581  14.258  1.00  0.00     0.071 C 
HETATM    2  C5  UNL     1      10.234  35.001  13.780  1.00  0.00     0.029 C 
HETATM    3  C6  UNL     1      11.536  33.074  14.438  1.00  0.00     0.025 C 
HETATM    4  C7  UNL     1      10.821  32.961  15.744  1.00  0.00     0.043 C 
HETATM    5  C8  UNL     1      11.199  34.162  16.562  1.00  0.00     0.097 C 
HETATM    6  C9  UNL     1      12.017  33.821  17.771  1.00  0.00    -0.006 C 
HETATM    7  C10 UNL     1      13.024  32.752  17.594  1.00  0.00     0.019 C 
HETATM    8  C11 UNL     1      11.120  33.458  18.952  1.00  0.00     0.013 C 
HETATM    9  C12 UNL     1      11.982  33.768  20.121  1.00  0.00     0.006 C 
HETATM   10  C13 UNL     1      13.154  34.633  19.627  1.00  0.00    -0.005 C 
HETATM   11  C17 UNL     1      12.655  35.103  18.310  1.00  0.00     0.001 C 
HETATM   12  C18 UNL     1      13.673  35.563  17.331  1.00  0.00     0.009 C 
HETATM   13  C19 UNL     1      13.348  35.251  15.886  1.00  0.00     0.042 C 
HETATM   14  C20 UNL     1      11.871  35.148  15.635  1.00  0.00     0.105 C 
ENDROOT
BRANCH   1  15
HETATM   15  C3  UNL     1      12.659  34.914  13.270  1.00  0.00     0.229 C 
HETATM   16  N1  UNL     1      12.732  36.231  12.749  1.00  0.00    -0.361 N 
ATOM     17  H1  UNL     1      12.065  36.932  13.071  1.00  0.00     0.162 HD
HETATM   18  O1  UNL     1      13.490  34.067  12.860  1.00  0.00    -0.273 OA
BRANCH  16  19
HETATM   19  C2  UNL     1      13.742  36.605  11.761  1.00  0.00     0.118 C 
HETATM   20  C1  UNL     1      13.381  37.890  11.087  1.00  0.00     0.026 C 
ENDBRANCH  16  19
ENDBRANCH   1  15
BRANCH  14  21
HETATM   21  O3  UNL     1      11.325  36.415  15.702  1.00  0.00    -0.385 OA
ATOM     22  H3  UNL     1      10.763  36.469  16.466  1.00  0.00     0.210 HD
ENDBRANCH  14  21
BRANCH   5  23
HETATM   23  O2  UNL     1      10.028  34.768  17.022  1.00  0.00    -0.386 OA
ATOM     24  H2  UNL     1      10.154  35.710  17.009  1.00  0.00     0.210 HD
ENDBRANCH   5  23
BRANCH  10  25
HETATM   25  C14 UNL     1      13.399  35.652  20.667  1.00  0.00    -0.010 A 
HETATM   26  C15 UNL     1      14.658  35.415  21.520  1.00  0.00     0.005 A 
HETATM   27  C16 UNL     1      14.522  36.601  20.661  1.00  0.00     0.005 A 
ENDBRANCH  10  25
TORSDOF 5
ENDMDL
MODEL 2
REMARK VINA RESULT: -7.122051127      2.563      6.038
REMARK  5 active torsions:
REMARK  status: ('A' for Active; 'I' for Inactive)
REMARK    1  A    between atoms: C2_2  and  N1_3 
REMARK       I    between atoms: N1_3  and  C3_5 
REMARK    2  A    between atoms: C3_5  and  C4_7 
REMARK    3  A    between atoms: C8_11  and  O2_12 
REMARK    4  A    between atoms: C13_18  and  C14_19 
REMARK    5  A    between atoms: C20_25  and  O3_26 
ROOT
HETATM    1  C4  UNL     1      13.490  34.777  16.811  1.00  0.00     0.071 C 
HETATM    2  C5  UNL     1      14.839  34.471  16.149  1.00  0.00     0.029 C 
HETATM    3  C6  UNL     1      13.093  33.477  17.490  1.00  0.00     0.025 C 
HETATM    4  C7  UNL     1      12.587  32.668  16.342  1.00  0.00     0.043 C 
HETATM    5  C8  UNL     1      12.007  33.629  15.344  1.00  0.00     0.097 C 
HETATM    6  C9  UNL     1      10.521  33.500  15.191  1.00  0.00    -0.006 C 
HETATM    7  C10 UNL     1       9.761  33.239  16.433  1.00  0.00     0.019 C 
HETATM    8  C11 UNL     1      10.170  32.424  14.166  1.00  0.00     0.013 C 
HETATM    9  C12 UNL     1       8.827  32.849  13.698  1.00  0.00     0.006 C 
HETATM   10  C13 UNL     1       8.609  34.304  14.146  1.00  0.00    -0.005 C 
HETATM   11  C17 UNL     1       9.993  34.738  14.464  1.00  0.00     0.001 C 
HETATM   12  C18 UNL     1      10.139  35.907  15.369  1.00  0.00     0.009 C 
HETATM   13  C19 UNL     1      11.332  35.843  16.297  1.00  0.00     0.042 C 
HETATM   14  C20 UNL     1      12.456  35.017  15.739  1.00  0.00     0.105 C 
ENDROOT
BRANCH   1  15
HETATM   15  C3  UNL     1      13.608  35.853  17.799  1.00  0.00     0.229 C 
HETATM   16  N1  UNL     1      13.652  35.537  19.180  1.00  0.00    -0.361 N 
ATOM     17  H1  UNL     1      13.601  34.560  19.469  1.00  0.00     0.162 HD
HETATM   18  O1  UNL     1      13.673  37.062  17.465  1.00  0.00    -0.273 OA
BRANCH  16  19
HETATM   19  C2  UNL     1      13.768  36.579  20.199  1.00  0.00     0.118 C 
HETATM   20  C1  UNL     1      13.258  36.097  21.518  1.00  0.00     0.026 C 
ENDBRANCH  16  19
ENDBRANCH   1  15
BRANCH  14  21
HETATM   21  O3  UNL     1      13.039  35.715  14.700  1.00  0.00    -0.385 OA
ATOM     22  H3  UNL     1      13.700  35.167  14.292  1.00  0.00     0.210 HD
ENDBRANCH  14  21
BRANCH   5  23
HETATM   23  O2  UNL     1      12.569  33.359  14.095  1.00  0.00    -0.386 OA
ATOM     24  H2  UNL     1      12.839  34.183  13.704  1.00  0.00     0.210 HD
ENDBRANCH   5  23
BRANCH  10  25
HETATM   25  C14 UNL     1       7.916  34.991  13.039  1.00  0.00    -0.010 A 
HETATM   26  C15 UNL     1       6.507  35.512  13.381  1.00  0.00     0.005 A 
HETATM   27  C16 UNL     1       7.599  36.427  13.012  1.00  0.00     0.005 A 
ENDBRANCH  10  25
TORSDOF 5
ENDMDL
MODEL 3
REMARK VINA RESULT: -6.744672069      2.386      3.052
REMARK  5 active torsions:
REMARK  status: ('A' for Active; 'I' for Inactive)
REMARK    1  A    between atoms: C2_2  and  N1_3 
REMARK       I    between atoms: N1_3  and  C3_5 
REMARK    2  A    between atoms: C3_5  and  C4_7 
REMARK    3  A    between atoms: C8_11  and  O2_12 
REMARK    4  A    between atoms: C13_18  and  C14_19 
REMARK    5  A    between atoms: C20_25  and  O3_26 
ROOT
HETATM    1  C4  UNL     1       9.340  34.087  13.969  1.00  0.00     0.071 C 
HETATM    2  C5  UNL     1       8.031  33.410  14.390  1.00  0.00     0.029 C 
HETATM    3  C6  UNL     1      10.246  32.941  13.548  1.00  0.00     0.025 C 
HETATM    4  C7  UNL     1      10.700  32.404  14.866  1.00  0.00     0.043 C 
HETATM    5  C8  UNL     1      10.730  33.556  15.828  1.00  0.00     0.097 C 
HETATM    6  C9  UNL     1      12.114  33.913  16.281  1.00  0.00    -0.006 C 
HETATM    7  C10 UNL     1      13.175  33.833  15.253  1.00  0.00     0.019 C 
HETATM    8  C11 UNL     1      12.530  33.066  17.481  1.00  0.00     0.013 C 
HETATM    9  C12 UNL     1      13.547  33.921  18.144  1.00  0.00     0.006 C 
HETATM   10  C13 UNL     1      13.419  35.340  17.567  1.00  0.00    -0.005 C 
HETATM   11  C17 UNL     1      12.076  35.295  16.935  1.00  0.00     0.001 C 
HETATM   12  C18 UNL     1      11.795  36.302  15.880  1.00  0.00     0.009 C 
HETATM   13  C19 UNL     1      10.914  35.809  14.753  1.00  0.00     0.042 C 
HETATM   14  C20 UNL     1       9.991  34.705  15.182  1.00  0.00     0.105 C 
ENDROOT
BRANCH   1  15
HETATM   15  C3  UNL     1       9.132  35.010  12.850  1.00  0.00     0.229 C 
HETATM   16  N1  UNL     1       8.131  36.009  12.941  1.00  0.00    -0.361 N 
ATOM     17  H1  UNL     1       7.567  36.074  13.789  1.00  0.00     0.162 HD
HETATM   18  O1  UNL     1       9.815  34.949  11.798  1.00  0.00    -0.273 OA
BRANCH  16  19
HETATM   19  C2  UNL     1       7.888  36.950  11.848  1.00  0.00     0.118 C 
HETATM   20  C1  UNL     1       6.478  37.443  11.870  1.00  0.00     0.026 C 
ENDBRANCH  16  19
ENDBRANCH   1  15
BRANCH  14  21
HETATM   21  O3  UNL     1       9.010  35.242  15.993  1.00  0.00    -0.385 OA
ATOM     22  H3  UNL     1       8.717  36.066  15.620  1.00  0.00     0.210 HD
ENDBRANCH  14  21
BRANCH   5  23
HETATM   23  O2  UNL     1      10.010  33.197  16.968  1.00  0.00    -0.386 OA
ATOM     24  H2  UNL     1      10.350  33.690  17.706  1.00  0.00     0.210 HD
ENDBRANCH   5  23
BRANCH  10  25
HETATM   25  C14 UNL     1      13.612  36.276  18.693  1.00  0.00    -0.010 A 
HETATM   26  C15 UNL     1      15.039  36.837  18.831  1.00  0.00     0.005 A 
HETATM   27  C16 UNL     1      13.891  37.713  18.549  1.00  0.00     0.005 A 
ENDBRANCH  10  25
TORSDOF 5
ENDMDL
MODEL 4
REMARK VINA RESULT: -6.687392552      1.739      2.070
REMARK  5 active torsions:
REMARK  status: ('A' for Active; 'I' for Inactive)
REMARK    1  A    between atoms: C2_2  and  N1_3 
REMARK       I    between atoms: N1_3  and  C3_5 
REMARK    2  A    between atoms: C3_5  and  C4_7 
REMARK    3  A    between atoms: C8_11  and  O2_12 
REMARK    4  A    between atoms: C13_18  and  C14_19 
REMARK    5  A    between atoms: C20_25  and  O3_26 
ROOT
HETATM    1  C4  UNL     1       9.660  34.196  14.073  1.00  0.00     0.071 C 
HETATM    2  C5  UNL     1       8.145  34.117  14.296  1.00  0.00     0.029 C 
HETATM    3  C6  UNL     1      10.142  32.761  14.204  1.00  0.00     0.025 C 
HETATM    4  C7  UNL     1      10.156  32.572  15.685  1.00  0.00     0.043 C 
HETATM    5  C8  UNL     1      10.451  33.909  16.300  1.00  0.00     0.097 C 
HETATM    6  C9  UNL     1      11.781  33.963  16.992  1.00  0.00    -0.006 C 
HETATM    7  C10 UNL     1      12.887  33.240  16.328  1.00  0.00     0.019 C 
HETATM    8  C11 UNL     1      11.666  33.469  18.432  1.00  0.00     0.013 C 
HETATM    9  C12 UNL     1      12.806  34.148  19.098  1.00  0.00     0.006 C 
HETATM   10  C13 UNL     1      13.294  35.272  18.170  1.00  0.00    -0.005 C 
HETATM   11  C17 UNL     1      12.144  35.428  17.243  1.00  0.00     0.001 C 
HETATM   12  C18 UNL     1      12.418  36.071  15.934  1.00  0.00     0.009 C 
HETATM   13  C19 UNL     1      11.606  35.526  14.779  1.00  0.00     0.042 C 
HETATM   14  C20 UNL     1      10.290  34.951  15.217  1.00  0.00     0.105 C 
ENDROOT
BRANCH   1  15
HETATM   15  C3  UNL     1       9.980  34.723  12.743  1.00  0.00     0.229 C 
HETATM   16  N1  UNL     1       9.572  36.034  12.390  1.00  0.00    -0.361 N 
ATOM     17  H1  UNL     1       9.060  36.596  13.070  1.00  0.00     0.162 HD
HETATM   18  O1  UNL     1      10.609  34.048  11.891  1.00  0.00    -0.273 OA
BRANCH  16  19
HETATM   19  C2  UNL     1       9.869  36.598  11.075  1.00  0.00     0.118 C 
HETATM   20  C1  UNL     1      11.069  37.486  11.132  1.00  0.00     0.026 C 
ENDBRANCH  16  19
ENDBRANCH   1  15
BRANCH  14  21
HETATM   21  O3  UNL     1       9.458  35.990  15.584  1.00  0.00    -0.385 OA
ATOM     22  H3  UNL     1       9.947  36.606  16.116  1.00  0.00     0.210 HD
ENDBRANCH  14  21
BRANCH   5  23
HETATM   23  O2  UNL     1       9.479  34.173  17.267  1.00  0.00    -0.386 OA
ATOM     24  H2  UNL     1       9.151  33.344  17.596  1.00  0.00     0.210 HD
ENDBRANCH   5  23
BRANCH  10  25
HETATM   25  C14 UNL     1      13.634  36.420  19.034  1.00  0.00    -0.010 A 
HETATM   26  C15 UNL     1      15.117  36.834  19.007  1.00  0.00     0.005 A 
HETATM   27  C16 UNL     1      14.055  37.742  18.544  1.00  0.00     0.005 A 
ENDBRANCH  10  25
TORSDOF 5
ENDMDL
MODEL 5
REMARK VINA RESULT: -6.586037667      1.754      1.984
REMARK  5 active torsions:
REMARK  status: ('A' for Active; 'I' for Inactive)
REMARK    1  A    between atoms: C2_2  and  N1_3 
REMARK       I    between atoms: N1_3  and  C3_5 
REMARK    2  A    between atoms: C3_5  and  C4_7 
REMARK    3  A    between atoms: C8_11  and  O2_12 
REMARK    4  A    between atoms: C13_18  and  C14_19 
REMARK    5  A    between atoms: C20_25  and  O3_26 
ROOT
HETATM    1  C4  UNL     1      10.182  34.069  13.821  1.00  0.00     0.071 C 
HETATM    2  C5  UNL     1       8.657  34.224  13.801  1.00  0.00     0.029 C 
HETATM    3  C6  UNL     1      10.415  32.605  14.156  1.00  0.00     0.025 C 
HETATM    4  C7  UNL     1      10.182  32.584  15.631  1.00  0.00     0.043 C 
HETATM    5  C8  UNL     1      10.583  33.929  16.163  1.00  0.00     0.097 C 
HETATM    6  C9  UNL     1      11.789  33.878  17.054  1.00  0.00    -0.006 C 
HETATM    7  C10 UNL     1      12.858  32.941  16.646  1.00  0.00     0.019 C 
HETATM    8  C11 UNL     1      11.389  33.569  18.495  1.00  0.00     0.013 C 
HETATM    9  C12 UNL     1      12.508  34.157  19.273  1.00  0.00     0.006 C 
HETATM   10  C13 UNL     1      13.294  35.092  18.339  1.00  0.00    -0.005 C 
HETATM   11  C17 UNL     1      12.330  35.298  17.229  1.00  0.00     0.001 C 
HETATM   12  C18 UNL     1      12.889  35.747  15.928  1.00  0.00     0.009 C 
HETATM   13  C19 UNL     1      12.183  35.191  14.711  1.00  0.00     0.042 C 
HETATM   14  C20 UNL     1      10.745  34.854  14.980  1.00  0.00     0.105 C 
ENDROOT
BRANCH   1  15
HETATM   15  C3  UNL     1      10.771  34.394  12.518  1.00  0.00     0.229 C 
HETATM   16  N1  UNL     1      11.590  33.442  11.861  1.00  0.00    -0.361 N 
ATOM     17  H1  UNL     1      11.759  32.539  12.304  1.00  0.00     0.162 HD
HETATM   18  O1  UNL     1      10.577  35.499  11.955  1.00  0.00    -0.273 OA
BRANCH  16  19
HETATM   19  C2  UNL     1      12.198  33.725  10.562  1.00  0.00     0.118 C 
HETATM   20  C1  UNL     1      13.656  34.021  10.707  1.00  0.00     0.026 C 
ENDBRANCH  16  19
ENDBRANCH   1  15
BRANCH  14  21
HETATM   21  O3  UNL     1      10.035  36.032  15.111  1.00  0.00    -0.385 OA
ATOM     22  H3  UNL     1      10.281  36.622  14.408  1.00  0.00     0.210 HD
ENDBRANCH  14  21
BRANCH   5  23
HETATM   23  O2  UNL     1       9.531  34.430  16.932  1.00  0.00    -0.386 OA
ATOM     24  H2  UNL     1       9.487  35.371  16.803  1.00  0.00     0.210 HD
ENDBRANCH   5  23
BRANCH  10  25
HETATM   25  C14 UNL     1      13.673  36.273  19.141  1.00  0.00    -0.010 A 
HETATM   26  C15 UNL     1      15.107  36.781  18.905  1.00  0.00     0.005 A 
HETATM   27  C16 UNL     1      13.934  37.611  18.589  1.00  0.00     0.005 A 
ENDBRANCH  10  25
TORSDOF 5
ENDMDL
