MODEL 1
REMARK VINA RESULT: -6.803918415      0.000      0.000
REMARK  10 active torsions:
REMARK  status: ('A' for Active; 'I' for Inactive)
REMARK    1  A    between atoms: C2_2  and  C3_3 
REMARK    2  A    between atoms: C3_3  and  C4_4 
REMARK    3  A    between atoms: C4_4  and  C5_5 
REMARK    4  A    between atoms: C6_6  and  C8_8 
REMARK    5  A    between atoms: C9_9  and  C10_10 
REMARK    6  A    between atoms: C11_11  and  C12_12 
REMARK    7  A    between atoms: C13_13  and  C14_14 
REMARK    8  A    between atoms: C19_20  and  C20_21 
REMARK    9  A    between atoms: C20_21  and  C21_22 
REMARK   10  A    between atoms: C22_24  and  O3_25 
ROOT
HETATM    1  C3  UNL     1     -46.092  12.804  -8.998  1.00  0.00    -0.009 C 
HETATM    2  C16 UNL     1     -44.960  11.997  -8.278  1.00  0.00     0.093 C 
HETATM    3  C17 UNL     1     -44.022  12.977  -7.889  1.00  0.00    -0.182 C 
HETATM    4  C18 UNL     1     -43.111  13.964  -7.520  1.00  0.00     0.087 C 
HETATM    5  C19 UNL     1     -43.894  15.335  -7.786  1.00  0.00     0.031 C 
HETATM    6  C22 UNL     1     -44.875  15.142  -8.866  1.00  0.00     0.127 C 
HETATM    7  C24 UNL     1     -46.046  14.271  -8.711  1.00  0.00     0.047 C 
ENDROOT
BRANCH   1   8
HETATM    8  C2  UNL     1     -46.108  12.449 -10.408  1.00  0.00    -0.026 C 
HETATM    9  C1  UNL     1     -47.124  12.074 -11.156  1.00  0.00     0.008 C 
ENDBRANCH   1   8
BRANCH   1  10
HETATM   10  C4  UNL     1     -47.433  12.338  -8.391  1.00  0.00     0.042 C 
BRANCH  10  11
HETATM   11  C5  UNL     1     -47.479  12.501  -6.961  1.00  0.00    -0.019 C 
HETATM   12  C6  UNL     1     -47.539  11.476  -6.105  1.00  0.00    -0.066 C 
HETATM   13  C7  UNL     1     -47.560  10.074  -6.576  1.00  0.00     0.048 C 
BRANCH  12  14
HETATM   14  C8  UNL     1     -47.582  11.788  -4.695  1.00  0.00     0.006 C 
HETATM   15  C9  UNL     1     -46.713  12.116  -3.814  1.00  0.00     0.001 C 
BRANCH  15  16
HETATM   16  C10 UNL     1     -45.300  12.296  -3.936  1.00  0.00     0.000 C 
HETATM   17  C11 UNL     1     -44.793  13.562  -4.030  1.00  0.00     0.000 C 
BRANCH  17  18
HETATM   18  C12 UNL     1     -43.369  13.773  -4.154  1.00  0.00     0.004 C 
HETATM   19  C13 UNL     1     -42.740  14.816  -3.711  1.00  0.00     0.049 C 
BRANCH  19  20
HETATM   20  C14 UNL     1     -43.223  15.976  -3.025  1.00  0.00     0.145 C 
HETATM   21  C15 UNL     1     -43.573  15.900  -1.561  1.00  0.00     0.096 C 
HETATM   22  O1  UNL     1     -43.382  17.078  -3.556  1.00  0.00    -0.294 OA
ENDBRANCH  19  20
ENDBRANCH  17  18
ENDBRANCH  15  16
ENDBRANCH  12  14
ENDBRANCH  10  11
ENDBRANCH   1  10
BRANCH   6  23
HETATM   23  O3  UNL     1     -45.389  16.394  -9.192  1.00  0.00    -0.390 OA
HETATM   24  C23 UNL     1     -46.745  16.534  -8.866  1.00  0.00     0.202 C 
ENDBRANCH   6  23
BRANCH   5  25
HETATM   25  C20 UNL     1     -42.827  16.320  -8.088  1.00  0.00     0.077 C 
BRANCH  25  26
HETATM   26  C21 UNL     1     -42.007  16.803  -6.983  1.00  0.00     0.231 C 
HETATM   27  O2  UNL     1     -42.218  17.939  -6.538  1.00  0.00    -0.307 OA
ENDBRANCH  25  26
ENDBRANCH   5  25
TORSDOF 10
ENDMDL
MODEL 2
REMARK VINA RESULT: -6.748412873      2.939      5.791
REMARK  10 active torsions:
REMARK  status: ('A' for Active; 'I' for Inactive)
REMARK    1  A    between atoms: C2_2  and  C3_3 
REMARK    2  A    between atoms: C3_3  and  C4_4 
REMARK    3  A    between atoms: C4_4  and  C5_5 
REMARK    4  A    between atoms: C6_6  and  C8_8 
REMARK    5  A    between atoms: C9_9  and  C10_10 
REMARK    6  A    between atoms: C11_11  and  C12_12 
REMARK    7  A    between atoms: C13_13  and  C14_14 
REMARK    8  A    between atoms: C19_20  and  C20_21 
REMARK    9  A    between atoms: C20_21  and  C21_22 
REMARK   10  A    between atoms: C22_24  and  O3_25 
ROOT
HETATM    1  C3  UNL     1     -46.280  13.025  -6.862  1.00  0.00    -0.009 C 
HETATM    2  C16 UNL     1     -47.566  12.133  -6.824  1.00  0.00     0.093 C 
HETATM    3  C17 UNL     1     -47.824  11.830  -8.178  1.00  0.00    -0.182 C 
HETATM    4  C18 UNL     1     -48.058  11.549  -9.522  1.00  0.00     0.087 C 
HETATM    5  C19 UNL     1     -46.729  12.049 -10.261  1.00  0.00     0.031 C 
HETATM    6  C22 UNL     1     -46.121  13.148  -9.494  1.00  0.00     0.127 C 
HETATM    7  C24 UNL     1     -45.542  12.943  -8.160  1.00  0.00     0.047 C 
ENDROOT
BRANCH   1   8
HETATM    8  C2  UNL     1     -46.619  14.371  -6.426  1.00  0.00    -0.026 C 
HETATM    9  C1  UNL     1     -47.679  15.094  -6.721  1.00  0.00     0.008 C 
ENDBRANCH   1   8
BRANCH   1  10
HETATM   10  C4  UNL     1     -45.296  12.440  -5.826  1.00  0.00     0.042 C 
BRANCH  10  11
HETATM   11  C5  UNL     1     -45.599  12.854  -4.480  1.00  0.00    -0.019 C 
HETATM   12  C6  UNL     1     -44.663  13.141  -3.571  1.00  0.00    -0.066 C 
HETATM   13  C7  UNL     1     -43.221  13.056  -3.889  1.00  0.00     0.048 C 
BRANCH  12  14
HETATM   14  C8  UNL     1     -45.112  13.542  -2.258  1.00  0.00     0.006 C 
HETATM   15  C9  UNL     1     -45.785  12.984  -1.322  1.00  0.00     0.001 C 
BRANCH  15  16
HETATM   16  C10 UNL     1     -46.364  11.678  -1.256  1.00  0.00     0.000 C 
HETATM   17  C11 UNL     1     -47.314  11.322  -2.173  1.00  0.00     0.000 C 
BRANCH  17  18
HETATM   18  C12 UNL     1     -47.915  10.009  -2.130  1.00  0.00     0.004 C 
HETATM   19  C13 UNL     1     -49.085   9.721  -2.608  1.00  0.00     0.049 C 
BRANCH  19  20
HETATM   20  C14 UNL     1     -50.053  10.545  -3.266  1.00  0.00     0.145 C 
HETATM   21  C15 UNL     1     -50.564  10.169  -4.633  1.00  0.00     0.096 C 
HETATM   22  O1  UNL     1     -50.522  11.580  -2.786  1.00  0.00    -0.294 OA
ENDBRANCH  19  20
ENDBRANCH  17  18
ENDBRANCH  15  16
ENDBRANCH  12  14
ENDBRANCH  10  11
ENDBRANCH   1  10
BRANCH   6  23
HETATM   23  O3  UNL     1     -45.090  13.675 -10.265  1.00  0.00    -0.390 OA
HETATM   24  C23 UNL     1     -44.407  14.721  -9.630  1.00  0.00     0.202 C 
ENDBRANCH   6  23
BRANCH   5  25
HETATM   25  C20 UNL     1     -47.179  12.422 -11.624  1.00  0.00     0.077 C 
BRANCH  25  26
HETATM   26  C21 UNL     1     -48.254  11.642 -12.229  1.00  0.00     0.231 C 
HETATM   27  O2  UNL     1     -47.974  10.570 -12.778  1.00  0.00    -0.307 OA
ENDBRANCH  25  26
ENDBRANCH   5  25
TORSDOF 10
ENDMDL
MODEL 3
REMARK VINA RESULT: -6.648961996      1.069      1.172
REMARK  10 active torsions:
REMARK  status: ('A' for Active; 'I' for Inactive)
REMARK    1  A    between atoms: C2_2  and  C3_3 
REMARK    2  A    between atoms: C3_3  and  C4_4 
REMARK    3  A    between atoms: C4_4  and  C5_5 
REMARK    4  A    between atoms: C6_6  and  C8_8 
REMARK    5  A    between atoms: C9_9  and  C10_10 
REMARK    6  A    between atoms: C11_11  and  C12_12 
REMARK    7  A    between atoms: C13_13  and  C14_14 
REMARK    8  A    between atoms: C19_20  and  C20_21 
REMARK    9  A    between atoms: C20_21  and  C21_22 
REMARK   10  A    between atoms: C22_24  and  O3_25 
ROOT
HETATM    1  C3  UNL     1     -46.214  12.594  -8.865  1.00  0.00    -0.009 C 
HETATM    2  C16 UNL     1     -45.094  11.617  -8.372  1.00  0.00     0.093 C 
HETATM    3  C17 UNL     1     -44.180  12.448  -7.688  1.00  0.00    -0.182 C 
HETATM    4  C18 UNL     1     -43.293  13.289  -7.021  1.00  0.00     0.087 C 
HETATM    5  C19 UNL     1     -44.084  14.675  -6.906  1.00  0.00     0.031 C 
HETATM    6  C22 UNL     1     -45.031  14.799  -8.026  1.00  0.00     0.127 C 
HETATM    7  C24 UNL     1     -46.196  13.916  -8.166  1.00  0.00     0.047 C 
ENDROOT
BRANCH   1   8
HETATM    8  C2  UNL     1     -46.184  12.661 -10.317  1.00  0.00    -0.026 C 
HETATM    9  C1  UNL     1     -47.031  12.151 -11.187  1.00  0.00     0.008 C 
ENDBRANCH   1   8
BRANCH   1  10
HETATM   10  C4  UNL     1     -47.567  11.968  -8.461  1.00  0.00     0.042 C 
BRANCH  10  11
HETATM   11  C5  UNL     1     -47.847  12.118  -7.056  1.00  0.00    -0.019 C 
HETATM   12  C6  UNL     1     -47.872  11.093  -6.197  1.00  0.00    -0.066 C 
HETATM   13  C7  UNL     1     -47.604   9.707  -6.638  1.00  0.00     0.048 C 
BRANCH  12  14
HETATM   14  C8  UNL     1     -48.169  11.390  -4.816  1.00  0.00     0.006 C 
HETATM   15  C9  UNL     1     -47.471  11.670  -3.779  1.00  0.00     0.001 C 
BRANCH  15  16
HETATM   16  C10 UNL     1     -46.055  11.791  -3.628  1.00  0.00     0.000 C 
HETATM   17  C11 UNL     1     -45.481  13.031  -3.684  1.00  0.00     0.000 C 
BRANCH  17  18
HETATM   18  C12 UNL     1     -44.051  13.182  -3.534  1.00  0.00     0.004 C 
HETATM   19  C13 UNL     1     -43.483  13.953  -2.661  1.00  0.00     0.049 C 
BRANCH  19  20
HETATM   20  C14 UNL     1     -44.048  14.813  -1.666  1.00  0.00     0.145 C 
HETATM   21  C15 UNL     1     -44.940  14.248  -0.592  1.00  0.00     0.096 C 
HETATM   22  O1  UNL     1     -43.855  16.031  -1.615  1.00  0.00    -0.294 OA
ENDBRANCH  19  20
ENDBRANCH  17  18
ENDBRANCH  15  16
ENDBRANCH  12  14
ENDBRANCH  10  11
ENDBRANCH   1  10
BRANCH   6  23
HETATM   23  O3  UNL     1     -45.551  16.090  -7.994  1.00  0.00    -0.390 OA
HETATM   24  C23 UNL     1     -46.727  16.229  -8.743  1.00  0.00     0.202 C 
ENDBRANCH   6  23
BRANCH   5  25
HETATM   25  C20 UNL     1     -43.022  15.710  -6.878  1.00  0.00     0.077 C 
BRANCH  25  26
HETATM   26  C21 UNL     1     -42.264  15.881  -5.643  1.00  0.00     0.231 C 
HETATM   27  O2  UNL     1     -42.680  16.681  -4.796  1.00  0.00    -0.307 OA
ENDBRANCH  25  26
ENDBRANCH   5  25
TORSDOF 10
ENDMDL
MODEL 4
REMARK VINA RESULT: -6.465948655      2.966      5.541
REMARK  10 active torsions:
REMARK  status: ('A' for Active; 'I' for Inactive)
REMARK    1  A    between atoms: C2_2  and  C3_3 
REMARK    2  A    between atoms: C3_3  and  C4_4 
REMARK    3  A    between atoms: C4_4  and  C5_5 
REMARK    4  A    between atoms: C6_6  and  C8_8 
REMARK    5  A    between atoms: C9_9  and  C10_10 
REMARK    6  A    between atoms: C11_11  and  C12_12 
REMARK    7  A    between atoms: C13_13  and  C14_14 
REMARK    8  A    between atoms: C19_20  and  C20_21 
REMARK    9  A    between atoms: C20_21  and  C21_22 
REMARK   10  A    between atoms: C22_24  and  O3_25 
ROOT
HETATM    1  C3  UNL     1     -44.523  15.666  -8.635  1.00  0.00    -0.009 C 
HETATM    2  C16 UNL     1     -45.756  16.512  -9.097  1.00  0.00     0.093 C 
HETATM    3  C17 UNL     1     -45.250  17.823  -9.238  1.00  0.00    -0.182 C 
HETATM    4  C18 UNL     1     -44.725  19.106  -9.366  1.00  0.00     0.087 C 
HETATM    5  C19 UNL     1     -43.143  18.894  -9.252  1.00  0.00     0.031 C 
HETATM    6  C22 UNL     1     -42.862  17.706  -8.430  1.00  0.00     0.127 C 
HETATM    7  C24 UNL     1     -43.214  16.350  -8.868  1.00  0.00     0.047 C 
ENDROOT
BRANCH   1   8
HETATM    8  C2  UNL     1     -44.745  15.202  -7.274  1.00  0.00    -0.026 C 
HETATM    9  C1  UNL     1     -43.877  14.711  -6.415  1.00  0.00     0.008 C 
ENDBRANCH   1   8
BRANCH   1  10
HETATM   10  C4  UNL     1     -44.468  14.418  -9.542  1.00  0.00     0.042 C 
BRANCH  10  11
HETATM   11  C5  UNL     1     -45.740  13.749  -9.641  1.00  0.00    -0.019 C 
HETATM   12  C6  UNL     1     -45.958  12.512  -9.184  1.00  0.00    -0.066 C 
HETATM   13  C7  UNL     1     -44.888  11.728  -8.530  1.00  0.00     0.048 C 
BRANCH  12  14
HETATM   14  C8  UNL     1     -47.284  11.965  -9.353  1.00  0.00     0.006 C 
HETATM   15  C9  UNL     1     -48.243  11.656  -8.562  1.00  0.00     0.001 C 
BRANCH  15  16
HETATM   16  C10 UNL     1     -48.331  11.754  -7.138  1.00  0.00     0.000 C 
HETATM   17  C11 UNL     1     -47.566  10.927  -6.364  1.00  0.00     0.000 C 
BRANCH  17  18
HETATM   18  C12 UNL     1     -47.635  11.004  -4.922  1.00  0.00     0.004 C 
HETATM   19  C13 UNL     1     -48.405  10.268  -4.184  1.00  0.00     0.049 C 
BRANCH  19  20
HETATM   20  C14 UNL     1     -49.341   9.245  -4.540  1.00  0.00     0.145 C 
HETATM   21  C15 UNL     1     -50.809   9.428  -4.256  1.00  0.00     0.096 C 
HETATM   22  O1  UNL     1     -49.030   8.181  -5.082  1.00  0.00    -0.294 OA
ENDBRANCH  19  20
ENDBRANCH  17  18
ENDBRANCH  15  16
ENDBRANCH  12  14
ENDBRANCH  10  11
ENDBRANCH   1  10
BRANCH   6  23
HETATM   23  O3  UNL     1     -41.490  17.673  -8.199  1.00  0.00    -0.390 OA
HETATM   24  C23 UNL     1     -40.921  16.416  -8.444  1.00  0.00     0.202 C 
ENDBRANCH   6  23
BRANCH   5  25
HETATM   25  C20 UNL     1     -42.635  20.169  -8.691  1.00  0.00     0.077 C 
BRANCH  25  26
HETATM   26  C21 UNL     1     -42.498  21.308  -9.592  1.00  0.00     0.231 C 
HETATM   27  O2  UNL     1     -41.403  21.881  -9.664  1.00  0.00    -0.307 OA
ENDBRANCH  25  26
ENDBRANCH   5  25
TORSDOF 10
ENDMDL
MODEL 5
REMARK VINA RESULT: -6.453991887      1.154      1.222
REMARK  10 active torsions:
REMARK  status: ('A' for Active; 'I' for Inactive)
REMARK    1  A    between atoms: C2_2  and  C3_3 
REMARK    2  A    between atoms: C3_3  and  C4_4 
REMARK    3  A    between atoms: C4_4  and  C5_5 
REMARK    4  A    between atoms: C6_6  and  C8_8 
REMARK    5  A    between atoms: C9_9  and  C10_10 
REMARK    6  A    between atoms: C11_11  and  C12_12 
REMARK    7  A    between atoms: C13_13  and  C14_14 
REMARK    8  A    between atoms: C19_20  and  C20_21 
REMARK    9  A    between atoms: C20_21  and  C21_22 
REMARK   10  A    between atoms: C22_24  and  O3_25 
ROOT
HETATM    1  C3  UNL     1     -46.670  12.326  -8.209  1.00  0.00    -0.009 C 
HETATM    2  C16 UNL     1     -45.461  11.357  -7.986  1.00  0.00     0.093 C 
HETATM    3  C17 UNL     1     -44.397  12.204  -7.606  1.00  0.00    -0.182 C 
HETATM    4  C18 UNL     1     -43.365  13.062  -7.237  1.00  0.00     0.087 C 
HETATM    5  C19 UNL     1     -44.096  14.462  -6.979  1.00  0.00     0.031 C 
HETATM    6  C22 UNL     1     -45.305  14.549  -7.814  1.00  0.00     0.127 C 
HETATM    7  C24 UNL     1     -46.466  13.676  -7.601  1.00  0.00     0.047 C 
ENDROOT
BRANCH   1   8
HETATM    8  C2  UNL     1     -47.026  12.329  -9.620  1.00  0.00    -0.026 C 
HETATM    9  C1  UNL     1     -46.244  12.468 -10.670  1.00  0.00     0.008 C 
ENDBRANCH   1   8
BRANCH   1  10
HETATM   10  C4  UNL     1     -47.869  11.736  -7.435  1.00  0.00     0.042 C 
BRANCH  10  11
HETATM   11  C5  UNL     1     -47.782  11.975  -6.017  1.00  0.00    -0.019 C 
HETATM   12  C6  UNL     1     -47.863  11.004  -5.101  1.00  0.00    -0.066 C 
HETATM   13  C7  UNL     1     -48.048   9.588  -5.487  1.00  0.00     0.048 C 
BRANCH  12  14
HETATM   14  C8  UNL     1     -47.761  11.389  -3.713  1.00  0.00     0.006 C 
HETATM   15  C9  UNL     1     -46.799  11.708  -2.930  1.00  0.00     0.001 C 
BRANCH  15  16
HETATM   16  C10 UNL     1     -45.395  11.796  -3.184  1.00  0.00     0.000 C 
HETATM   17  C11 UNL     1     -44.835  13.019  -3.428  1.00  0.00     0.000 C 
BRANCH  17  18
HETATM   18  C12 UNL     1     -43.419  13.137  -3.688  1.00  0.00     0.004 C 
HETATM   19  C13 UNL     1     -42.737  14.231  -3.557  1.00  0.00     0.049 C 
BRANCH  19  20
HETATM   20  C14 UNL     1     -43.144  15.542  -3.152  1.00  0.00     0.145 C 
HETATM   21  C15 UNL     1     -43.332  15.860  -1.691  1.00  0.00     0.096 C 
HETATM   22  O1  UNL     1     -43.362  16.471  -3.933  1.00  0.00    -0.294 OA
ENDBRANCH  19  20
ENDBRANCH  17  18
ENDBRANCH  15  16
ENDBRANCH  12  14
ENDBRANCH  10  11
ENDBRANCH   1  10
BRANCH   6  23
HETATM   23  O3  UNL     1     -45.796  15.847  -7.704  1.00  0.00    -0.390 OA
HETATM   24  C23 UNL     1     -46.583  16.232  -8.798  1.00  0.00     0.202 C 
ENDBRANCH   6  23
BRANCH   5  25
HETATM   25  C20 UNL     1     -43.063  15.483  -7.280  1.00  0.00     0.077 C 
BRANCH  25  26
HETATM   26  C21 UNL     1     -41.668  15.143  -7.021  1.00  0.00     0.231 C 
HETATM   27  O2  UNL     1     -40.843  15.282  -7.933  1.00  0.00    -0.307 OA
ENDBRANCH  25  26
ENDBRANCH   5  25
TORSDOF 10
ENDMDL
