MODEL 1
REMARK VINA RESULT: -6.368543536      0.000      0.000
REMARK  4 active torsions:
REMARK  status: ('A' for Active; 'I' for Inactive)
REMARK    1  A    between atoms: N1_2  and  C2_4 
REMARK    2  A    between atoms: C3_7  and  N3_8 
REMARK    3  A    between atoms: N3_8  and  N4_10 
REMARK    4  A    between atoms: C5_17  and  N7_18 
ROOT
HETATM    1  C2  UNL     1      22.028 124.086  -9.463  1.00  0.00     0.153 A 
HETATM    2  N2  UNL     1      22.380 122.790  -9.387  1.00  0.00    -0.173 N 
ATOM      3  H2  UNL     1      23.152 122.438  -9.954  1.00  0.00     0.186 HD
HETATM    4  C3  UNL     1      21.717 121.959  -8.566  1.00  0.00     0.699 A 
HETATM    5  N5  UNL     1      20.711 122.453  -7.839  1.00  0.00    -0.175 N 
ATOM      6  H5  UNL     1      20.211 121.818  -7.216  1.00  0.00     0.185 HD
HETATM    7  C4  UNL     1      20.321 123.735  -7.879  1.00  0.00     0.168 A 
HETATM    8  N6  UNL     1      19.244 124.235  -7.091  1.00  0.00    -0.079 NA
HETATM    9  C5  UNL     1      20.976 124.622  -8.709  1.00  0.00     0.188 A 
ENDROOT
BRANCH   4  10
HETATM   10  N3  UNL     1      22.067 120.702  -8.499  1.00  0.00    -0.138 N 
ATOM     11  H3  UNL     1      21.940 120.089  -9.305  1.00  0.00     0.205 HD
BRANCH  10  12
HETATM   12  N4  UNL     1      22.617 120.203  -7.320  1.00  0.00    -0.331 N 
ATOM     13  H42 UNL     1      22.731 120.827  -6.520  1.00  0.00     0.177 HD
ATOM     14  H41 UNL     1      22.899 119.224  -7.270  1.00  0.00     0.177 HD
ENDBRANCH  10  12
ENDBRANCH   4  10
BRANCH   1  15
HETATM   15  N1  UNL     1      22.630 124.934 -10.236  1.00  0.00    -0.378 N 
HETATM   16  C1  UNL     1      23.581 124.386 -11.209  1.00  0.00     0.147 C 
ATOM     17  H1  UNL     1      22.451 125.936 -10.171  1.00  0.00     0.160 HD
ENDBRANCH   1  15
BRANCH   9  18
HETATM   18  N7  UNL     1      20.622 125.990  -8.805  1.00  0.00    -0.108 N 
HETATM   19  O1  UNL     1      19.772 126.405  -9.600  1.00  0.00    -0.532 OA
HETATM   20  O2  UNL     1      21.247 126.885  -7.984  1.00  0.00    -0.532 OA
ENDBRANCH   9  18
TORSDOF 4
ENDMDL
MODEL 2
REMARK VINA RESULT: -6.306577402      2.311      4.213
REMARK  4 active torsions:
REMARK  status: ('A' for Active; 'I' for Inactive)
REMARK    1  A    between atoms: N1_2  and  C2_4 
REMARK    2  A    between atoms: C3_7  and  N3_8 
REMARK    3  A    between atoms: N3_8  and  N4_10 
REMARK    4  A    between atoms: C5_17  and  N7_18 
ROOT
HETATM    1  C2  UNL     1      22.305 124.543  -8.993  1.00  0.00     0.153 A 
HETATM    2  N2  UNL     1      22.330 125.876  -9.164  1.00  0.00    -0.173 N 
ATOM      3  H2  UNL     1      23.111 126.313  -9.654  1.00  0.00     0.186 HD
HETATM    4  C3  UNL     1      21.327 126.634  -8.691  1.00  0.00     0.699 A 
HETATM    5  N5  UNL     1      20.319 126.030  -8.054  1.00  0.00    -0.175 N 
ATOM      6  H5  UNL     1      19.559 126.610  -7.697  1.00  0.00     0.185 HD
HETATM    7  C4  UNL     1      20.248 124.706  -7.858  1.00  0.00     0.168 A 
HETATM    8  N6  UNL     1      19.161 124.087  -7.176  1.00  0.00    -0.079 NA
HETATM    9  C5  UNL     1      21.258 123.891  -8.329  1.00  0.00     0.188 A 
ENDROOT
BRANCH   4  10
HETATM   10  N3  UNL     1      21.359 127.929  -8.863  1.00  0.00    -0.138 N 
ATOM     11  H3  UNL     1      21.162 128.330  -9.780  1.00  0.00     0.205 HD
BRANCH  10  12
HETATM   12  N4  UNL     1      21.663 128.759  -7.786  1.00  0.00    -0.331 N 
ATOM     13  H42 UNL     1      22.587 128.701  -7.357  1.00  0.00     0.177 HD
ATOM     14  H41 UNL     1      20.960 129.412  -7.439  1.00  0.00     0.177 HD
ENDBRANCH  10  12
ENDBRANCH   4  10
BRANCH   1  15
HETATM   15  N1  UNL     1      23.244 123.761  -9.427  1.00  0.00    -0.378 N 
HETATM   16  C1  UNL     1      23.344 123.588 -10.881  1.00  0.00     0.147 C 
ATOM     17  H1  UNL     1      23.883 123.289  -8.789  1.00  0.00     0.160 HD
ENDBRANCH   1  15
BRANCH   9  18
HETATM   18  N7  UNL     1      21.253 122.485  -8.159  1.00  0.00    -0.108 N 
HETATM   19  O1  UNL     1      21.711 121.932  -7.154  1.00  0.00    -0.532 OA
HETATM   20  O2  UNL     1      20.721 121.711  -9.150  1.00  0.00    -0.532 OA
ENDBRANCH   9  18
TORSDOF 4
ENDMDL
MODEL 3
REMARK VINA RESULT: -5.769710005      1.282      2.847
REMARK  4 active torsions:
REMARK  status: ('A' for Active; 'I' for Inactive)
REMARK    1  A    between atoms: N1_2  and  C2_4 
REMARK    2  A    between atoms: C3_7  and  N3_8 
REMARK    3  A    between atoms: N3_8  and  N4_10 
REMARK    4  A    between atoms: C5_17  and  N7_18 
ROOT
HETATM    1  C2  UNL     1      20.758 124.467  -7.916  1.00  0.00     0.153 A 
HETATM    2  N2  UNL     1      20.704 123.127  -8.022  1.00  0.00    -0.173 N 
ATOM      3  H2  UNL     1      19.871 122.624  -7.715  1.00  0.00     0.186 HD
HETATM    4  C3  UNL     1      21.746 122.450  -8.534  1.00  0.00     0.699 A 
HETATM    5  N5  UNL     1      22.821 123.139  -8.927  1.00  0.00    -0.175 N 
ATOM      6  H5  UNL     1      23.609 122.621  -9.315  1.00  0.00     0.185 HD
HETATM    7  C4  UNL     1      22.924 124.473  -8.841  1.00  0.00     0.168 A 
HETATM    8  N6  UNL     1      24.083 125.183  -9.268  1.00  0.00    -0.079 NA
HETATM    9  C5  UNL     1      21.876 125.206  -8.322  1.00  0.00     0.188 A 
ENDROOT
BRANCH   4  10
HETATM   10  N3  UNL     1      21.684 121.148  -8.634  1.00  0.00    -0.138 N 
ATOM     11  H3  UNL     1      21.120 120.717  -9.367  1.00  0.00     0.205 HD
BRANCH  10  12
HETATM   12  N4  UNL     1      22.392 120.354  -7.735  1.00  0.00    -0.331 N 
ATOM     13  H42 UNL     1      23.343 120.065  -7.967  1.00  0.00     0.177 HD
ATOM     14  H41 UNL     1      21.953 120.071  -6.859  1.00  0.00     0.177 HD
ENDBRANCH  10  12
ENDBRANCH   4  10
BRANCH   1  15
HETATM   15  N1  UNL     1      19.785 125.173  -7.431  1.00  0.00    -0.378 N 
HETATM   16  C1  UNL     1      18.622 125.385  -8.299  1.00  0.00     0.147 C 
ATOM     17  H1  UNL     1      19.826 125.562  -6.489  1.00  0.00     0.160 HD
ENDBRANCH   1  15
BRANCH   9  18
HETATM   18  N7  UNL     1      21.912 126.617  -8.200  1.00  0.00    -0.108 N 
HETATM   19  O1  UNL     1      21.458 127.374  -9.066  1.00  0.00    -0.532 OA
HETATM   20  O2  UNL     1      22.471 127.161  -7.080  1.00  0.00    -0.532 OA
ENDBRANCH   9  18
TORSDOF 4
ENDMDL
MODEL 4
REMARK VINA RESULT: -5.736274978      2.524      4.984
REMARK  4 active torsions:
REMARK  status: ('A' for Active; 'I' for Inactive)
REMARK    1  A    between atoms: N1_2  and  C2_4 
REMARK    2  A    between atoms: C3_7  and  N3_8 
REMARK    3  A    between atoms: N3_8  and  N4_10 
REMARK    4  A    between atoms: C5_17  and  N7_18 
ROOT
HETATM    1  C2  UNL     1      20.247 125.002  -7.842  1.00  0.00     0.153 A 
HETATM    2  N2  UNL     1      20.371 126.337  -7.750  1.00  0.00    -0.173 N 
ATOM      3  H2  UNL     1      19.594 126.900  -7.405  1.00  0.00     0.186 HD
HETATM    4  C3  UNL     1      21.520 126.932  -8.113  1.00  0.00     0.699 A 
HETATM    5  N5  UNL     1      22.519 126.166  -8.561  1.00  0.00    -0.175 N 
ATOM      6  H5  UNL     1      23.390 126.622  -8.835  1.00  0.00     0.185 HD
HETATM    7  C4  UNL     1      22.444 124.832  -8.671  1.00  0.00     0.168 A 
HETATM    8  N6  UNL     1      23.525 124.039  -9.152  1.00  0.00    -0.079 NA
HETATM    9  C5  UNL     1      21.282 124.182  -8.309  1.00  0.00     0.188 A 
ENDROOT
BRANCH   4  10
HETATM   10  N3  UNL     1      21.633 128.231  -8.020  1.00  0.00    -0.138 N 
ATOM     11  H3  UNL     1      21.169 128.836  -8.698  1.00  0.00     0.205 HD
BRANCH  10  12
HETATM   12  N4  UNL     1      22.390 128.784  -6.990  1.00  0.00    -0.331 N 
ATOM     13  H42 UNL     1      23.400 128.871  -7.105  1.00  0.00     0.177 HD
ATOM     14  H41 UNL     1      21.927 129.093  -6.134  1.00  0.00     0.177 HD
ENDBRANCH  10  12
ENDBRANCH   4  10
BRANCH   1  15
HETATM   15  N1  UNL     1      19.164 124.373  -7.506  1.00  0.00    -0.378 N 
HETATM   16  C1  UNL     1      17.905 125.121  -7.601  1.00  0.00     0.147 C 
ATOM     17  H1  UNL     1      19.185 123.403  -7.192  1.00  0.00     0.160 HD
ENDBRANCH   1  15
BRANCH   9  18
HETATM   18  N7  UNL     1      21.128 122.776  -8.397  1.00  0.00    -0.108 N 
HETATM   19  O1  UNL     1      20.705 122.214  -9.412  1.00  0.00    -0.532 OA
HETATM   20  O2  UNL     1      21.460 122.015  -7.314  1.00  0.00    -0.532 OA
ENDBRANCH   9  18
TORSDOF 4
ENDMDL
MODEL 5
REMARK VINA RESULT: -5.644915818      2.407      4.973
REMARK  4 active torsions:
REMARK  status: ('A' for Active; 'I' for Inactive)
REMARK    1  A    between atoms: N1_2  and  C2_4 
REMARK    2  A    between atoms: C3_7  and  N3_8 
REMARK    3  A    between atoms: N3_8  and  N4_10 
REMARK    4  A    between atoms: C5_17  and  N7_18 
ROOT
HETATM    1  C2  UNL     1      20.668 124.360  -8.391  1.00  0.00     0.153 A 
HETATM    2  N2  UNL     1      20.691 125.705  -8.375  1.00  0.00    -0.173 N 
ATOM      3  H2  UNL     1      19.985 126.221  -7.850  1.00  0.00     0.186 HD
HETATM    4  C3  UNL     1      21.646 126.369  -9.048  1.00  0.00     0.699 A 
HETATM    5  N5  UNL     1      22.556 125.663  -9.724  1.00  0.00    -0.175 N 
ATOM      6  H5  UNL     1      23.279 126.172 -10.233  1.00  0.00     0.185 HD
HETATM    7  C4  UNL     1      22.575 124.323  -9.772  1.00  0.00     0.168 A 
HETATM    8  N6  UNL     1      23.558 123.594 -10.501  1.00  0.00    -0.079 NA
HETATM    9  C5  UNL     1      21.612 123.602  -9.094  1.00  0.00     0.188 A 
ENDROOT
BRANCH   4  10
HETATM   10  N3  UNL     1      21.662 127.676  -9.025  1.00  0.00    -0.138 N 
ATOM     11  H3  UNL     1      21.673 128.204  -9.898  1.00  0.00     0.205 HD
BRANCH  10  12
HETATM   12  N4  UNL     1      21.662 128.343  -7.802  1.00  0.00    -0.331 N 
ATOM     13  H42 UNL     1      20.874 128.216  -7.165  1.00  0.00     0.177 HD
ATOM     14  H41 UNL     1      22.446 128.948  -7.558  1.00  0.00     0.177 HD
ENDBRANCH  10  12
ENDBRANCH   4  10
BRANCH   1  15
HETATM   15  N1  UNL     1      19.772 123.666  -7.761  1.00  0.00    -0.378 N 
HETATM   16  C1  UNL     1      18.601 124.392  -7.258  1.00  0.00     0.147 C 
ATOM     17  H1  UNL     1      19.877 122.661  -7.622  1.00  0.00     0.160 HD
ENDBRANCH   1  15
BRANCH   9  18
HETATM   18  N7  UNL     1      21.568 122.186  -9.098  1.00  0.00    -0.108 N 
HETATM   19  O1  UNL     1      22.062 121.501  -8.197  1.00  0.00    -0.532 OA
HETATM   20  O2  UNL     1      20.954 121.556 -10.142  1.00  0.00    -0.532 OA
ENDBRANCH   9  18
TORSDOF 4
ENDMDL
