MODEL 1
REMARK VINA RESULT: -3.632437805      0.000      0.000
REMARK  4 active torsions:
REMARK  status: ('A' for Active; 'I' for Inactive)
REMARK    1  A    between atoms: N1_2  and  C2_4 
REMARK    2  A    between atoms: C2_4  and  N2_5 
REMARK    3  A    between atoms: N2_5  and  C3_7 
REMARK    4  A    between atoms: C3_7  and  N3_8 
ROOT
HETATM    1  N2  UNL     1      51.649  71.907  39.464  1.00  0.00    -0.304 N 
ATOM      2  H2  UNL     1      50.667  71.643  39.384  1.00  0.00     0.177 HD
ENDROOT
BRANCH   1   3
HETATM    3  C2  UNL     1      52.197  72.934  38.606  1.00  0.00     0.184 C 
BRANCH   3   4
HETATM    4  N1  UNL     1      52.361  74.120  39.349  1.00  0.00    -0.390 N 
HETATM    5  C1  UNL     1      52.354  75.347  38.643  1.00  0.00     0.147 C 
ATOM      6  H1  UNL     1      52.481  74.096  40.362  1.00  0.00     0.159 HD
ENDBRANCH   3   4
ENDBRANCH   1   3
BRANCH   1   7
HETATM    7  C3  UNL     1      52.388  71.340  40.310  1.00  0.00     0.045 C 
BRANCH   7   8
HETATM    8  N3  UNL     1      53.221  70.903  41.188  1.00  0.00    -0.352 N 
ATOM      9  H32 UNL     1      53.933  71.290  40.568  1.00  0.00     0.167 HD
ATOM     10  H31 UNL     1      53.778  70.514  41.949  1.00  0.00     0.167 HD
ENDBRANCH   7   8
ENDBRANCH   1   7
TORSDOF 4
ENDMDL
MODEL 2
REMARK VINA RESULT: -3.539942139      1.358      3.933
REMARK  4 active torsions:
REMARK  status: ('A' for Active; 'I' for Inactive)
REMARK    1  A    between atoms: N1_2  and  C2_4 
REMARK    2  A    between atoms: C2_4  and  N2_5 
REMARK    3  A    between atoms: N2_5  and  C3_7 
REMARK    4  A    between atoms: C3_7  and  N3_8 
ROOT
HETATM    1  N2  UNL     1      52.600  74.165  38.812  1.00  0.00    -0.304 N 
ATOM      2  H2  UNL     1      53.511  73.832  38.496  1.00  0.00     0.177 HD
ENDROOT
BRANCH   1   3
HETATM    3  C2  UNL     1      51.700  73.269  39.504  1.00  0.00     0.184 C 
BRANCH   3   4
HETATM    4  N1  UNL     1      52.406  72.596  40.521  1.00  0.00    -0.390 N 
HETATM    5  C1  UNL     1      52.582  71.197  40.387  1.00  0.00     0.147 C 
ATOM      6  H1  UNL     1      52.778  73.098  41.327  1.00  0.00     0.159 HD
ENDBRANCH   3   4
ENDBRANCH   1   3
BRANCH   1   7
HETATM    7  C3  UNL     1      52.256  75.357  38.602  1.00  0.00     0.045 C 
BRANCH   7   8
HETATM    8  N3  UNL     1      52.027  76.582  38.279  1.00  0.00    -0.352 N 
ATOM      9  H32 UNL     1      52.542  76.805  39.130  1.00  0.00     0.167 HD
ATOM     10  H31 UNL     1      51.783  77.504  37.919  1.00  0.00     0.167 HD
ENDBRANCH   7   8
ENDBRANCH   1   7
TORSDOF 4
ENDMDL
MODEL 3
REMARK VINA RESULT: -3.137367873      8.039      8.999
REMARK  4 active torsions:
REMARK  status: ('A' for Active; 'I' for Inactive)
REMARK    1  A    between atoms: N1_2  and  C2_4 
REMARK    2  A    between atoms: C2_4  and  N2_5 
REMARK    3  A    between atoms: N2_5  and  C3_7 
REMARK    4  A    between atoms: C3_7  and  N3_8 
ROOT
HETATM    1  N2  UNL     1      60.667  69.348  37.065  1.00  0.00    -0.304 N 
ATOM      2  H2  UNL     1      61.364  69.219  36.331  1.00  0.00     0.177 HD
ENDROOT
BRANCH   1   3
HETATM    3  C2  UNL     1      60.183  68.209  37.815  1.00  0.00     0.184 C 
BRANCH   3   4
HETATM    4  N1  UNL     1      58.774  68.213  37.805  1.00  0.00    -0.390 N 
HETATM    5  C1  UNL     1      58.106  67.246  38.594  1.00  0.00     0.147 C 
ATOM      6  H1  UNL     1      58.251  68.889  37.248  1.00  0.00     0.159 HD
ENDBRANCH   3   4
ENDBRANCH   1   3
BRANCH   1   7
HETATM    7  C3  UNL     1      60.227  70.498  37.322  1.00  0.00     0.045 C 
BRANCH   7   8
HETATM    8  N3  UNL     1      59.746  71.687  37.425  1.00  0.00    -0.352 N 
ATOM      9  H32 UNL     1      60.468  71.818  38.133  1.00  0.00     0.167 HD
ATOM     10  H31 UNL     1      59.281  72.595  37.414  1.00  0.00     0.167 HD
ENDBRANCH   7   8
ENDBRANCH   1   7
TORSDOF 4
ENDMDL
MODEL 4
REMARK VINA RESULT: -3.125088618      1.525      3.322
REMARK  4 active torsions:
REMARK  status: ('A' for Active; 'I' for Inactive)
REMARK    1  A    between atoms: N1_2  and  C2_4 
REMARK    2  A    between atoms: C2_4  and  N2_5 
REMARK    3  A    between atoms: N2_5  and  C3_7 
REMARK    4  A    between atoms: C3_7  and  N3_8 
ROOT
HETATM    1  N2  UNL     1      52.033  73.429  39.056  1.00  0.00    -0.304 N 
ATOM      2  H2  UNL     1      51.696  74.373  39.248  1.00  0.00     0.177 HD
ENDROOT
BRANCH   1   3
HETATM    3  C2  UNL     1      51.518  72.306  39.808  1.00  0.00     0.184 C 
BRANCH   3   4
HETATM    4  N1  UNL     1      52.431  71.975  40.830  1.00  0.00    -0.390 N 
HETATM    5  C1  UNL     1      53.029  70.692  40.789  1.00  0.00     0.147 C 
ATOM      6  H1  UNL     1      52.654  72.637  41.574  1.00  0.00     0.159 HD
ENDBRANCH   3   4
ENDBRANCH   1   3
BRANCH   1   7
HETATM    7  C3  UNL     1      52.898  73.239  38.162  1.00  0.00     0.045 C 
BRANCH   7   8
HETATM    8  N3  UNL     1      53.854  72.941  37.354  1.00  0.00    -0.352 N 
ATOM      9  H32 UNL     1      54.408  72.819  38.201  1.00  0.00     0.167 HD
ATOM     10  H31 UNL     1      54.526  72.725  36.618  1.00  0.00     0.167 HD
ENDBRANCH   7   8
ENDBRANCH   1   7
TORSDOF 4
ENDMDL
MODEL 5
REMARK VINA RESULT: -3.118442472      1.041      1.245
REMARK  4 active torsions:
REMARK  status: ('A' for Active; 'I' for Inactive)
REMARK    1  A    between atoms: N1_2  and  C2_4 
REMARK    2  A    between atoms: C2_4  and  N2_5 
REMARK    3  A    between atoms: N2_5  and  C3_7 
REMARK    4  A    between atoms: C3_7  and  N3_8 
ROOT
HETATM    1  N2  UNL     1      51.746  71.976  39.433  1.00  0.00    -0.304 N 
ATOM      2  H2  UNL     1      51.218  71.419  38.761  1.00  0.00     0.177 HD
ENDROOT
BRANCH   1   3
HETATM    3  C2  UNL     1      51.737  73.420  39.345  1.00  0.00     0.184 C 
BRANCH   3   4
HETATM    4  N1  UNL     1      52.844  73.845  38.582  1.00  0.00    -0.390 N 
HETATM    5  C1  UNL     1      53.225  73.052  37.474  1.00  0.00     0.147 C 
ATOM      6  H1  UNL     1      53.353  74.696  38.821  1.00  0.00     0.159 HD
ENDBRANCH   3   4
ENDBRANCH   1   3
BRANCH   1   7
HETATM    7  C3  UNL     1      52.407  71.410  40.342  1.00  0.00     0.045 C 
BRANCH   7   8
HETATM    8  N3  UNL     1      53.215  70.903  41.206  1.00  0.00    -0.352 N 
ATOM      9  H32 UNL     1      53.941  71.370  40.663  1.00  0.00     0.167 HD
ATOM     10  H31 UNL     1      53.750  70.449  41.946  1.00  0.00     0.167 HD
ENDBRANCH   7   8
ENDBRANCH   1   7
TORSDOF 4
ENDMDL
