MODEL 1
REMARK VINA RESULT: -8.208045090      0.000      0.000
REMARK  21 active torsions:
REMARK  status: ('A' for Active; 'I' for Inactive)
REMARK    1  A    between atoms: C2_2  and  C3_3 
REMARK    2  A    between atoms: C3_3  and  N1_4 
REMARK    3  A    between atoms: C5_8  and  C6_9 
REMARK    4  A    between atoms: C6_9  and  C7_10 
REMARK    5  A    between atoms: C7_10  and  C8_11 
REMARK    6  A    between atoms: C8_11  and  N3_15 
REMARK    7  A    between atoms: N3_15  and  C9_17 
REMARK    8  A    between atoms: C9_17  and  C10_18 
REMARK    9  A    between atoms: C10_18  and  C11_19 
REMARK   10  A    between atoms: C12_20  and  C13_21 
REMARK   11  A    between atoms: N6_28  and  C15_29 
REMARK   12  A    between atoms: C15_29  and  C16_30 
REMARK       I    between atoms: C16_30  and  N7_32 
REMARK   13  A    between atoms: N7_32  and  C17_34 
REMARK   14  A    between atoms: C17_34  and  C18_35 
REMARK   15  A    between atoms: C17_34  and  C24_46 
REMARK   16  A    between atoms: C18_35  and  C19_36 
REMARK   17  A    between atoms: C19_36  and  C20_37 
REMARK   18  A    between atoms: C20_37  and  C21_38 
REMARK   19  A    between atoms: C21_38  and  N8_39 
REMARK   20  A    between atoms: N8_39  and  C22_41 
REMARK   21  A    between atoms: C22_41  and  N9_43 
ROOT
HETATM    1  N1  UNL     1       8.423 -14.809 -22.436  1.00  0.00    -0.256 N 
HETATM    2  C4  UNL     1       8.161 -16.175 -22.738  1.00  0.00     0.232 C 
HETATM    3  S1  UNL     1       9.044 -17.375 -22.066  1.00  0.00    -0.031 SA
HETATM    4  O1  UNL     1       7.126 -16.527 -23.628  1.00  0.00    -0.311 OA
HETATM    5  C5  UNL     1       5.970 -15.674 -23.739  1.00  0.00     0.225 C 
HETATM    6  C14 UNL     1       6.568 -14.309 -23.969  1.00  0.00     0.268 C 
HETATM    7  O2  UNL     1       6.205 -13.573 -24.887  1.00  0.00    -0.269 OA
HETATM    8  N6  UNL     1       7.607 -13.865 -23.063  1.00  0.00    -0.245 N 
ENDROOT
BRANCH   8   9
HETATM    9  C15 UNL     1       7.759 -12.462 -22.820  1.00  0.00     0.255 C 
BRANCH   9  10
HETATM   10  C16 UNL     1       8.526 -11.732 -23.848  1.00  0.00     0.238 C 
HETATM   11  O3  UNL     1       9.760 -11.655 -23.776  1.00  0.00    -0.272 OA
HETATM   12  N7  UNL     1       7.818 -11.135 -24.897  1.00  0.00    -0.347 N 
ATOM     13  H7  UNL     1       6.802 -11.223 -24.914  1.00  0.00     0.163 HD
BRANCH  12  14
HETATM   14  C17 UNL     1       8.481 -10.384 -25.977  1.00  0.00     0.173 C 
BRANCH  14  15
HETATM   15  C18 UNL     1       7.735  -9.083 -26.093  1.00  0.00     0.035 C 
BRANCH  15  16
HETATM   16  C19 UNL     1       6.303  -9.158 -26.393  1.00  0.00     0.007 C 
BRANCH  16  17
HETATM   17  C20 UNL     1       5.679  -8.803 -27.658  1.00  0.00     0.044 C 
BRANCH  17  18
HETATM   18  C21 UNL     1       5.867  -9.623 -28.858  1.00  0.00     0.063 C 
BRANCH  18  19
HETATM   19  N8  UNL     1       5.199 -10.854 -28.997  1.00  0.00    -0.347 N 
ATOM     20  H8  UNL     1       5.733 -11.672 -29.288  1.00  0.00     0.167 HD
BRANCH  19  21
HETATM   21  C22 UNL     1       3.790 -11.001 -28.743  1.00  0.00     0.170 C 
HETATM   22  S2  UNL     1       3.305 -11.890 -27.489  1.00  0.00    -0.041 SA
BRANCH  21  23
HETATM   23  N9  UNL     1       2.871 -10.371 -29.587  1.00  0.00    -0.371 N 
HETATM   24  C23 UNL     1       2.318  -9.076 -29.235  1.00  0.00     0.148 C 
ATOM     25  H9  UNL     1       2.587 -10.824 -30.455  1.00  0.00     0.161 HD
ENDBRANCH  21  23
ENDBRANCH  19  21
ENDBRANCH  18  19
ENDBRANCH  17  18
ENDBRANCH  16  17
ENDBRANCH  15  16
ENDBRANCH  14  15
BRANCH  14  26
HETATM   26  C24 UNL     1       8.753 -11.180 -27.124  1.00  0.00     0.254 C 
HETATM   27  N10 UNL     1       7.977 -12.275 -27.561  1.00  0.00    -0.060 NA
HETATM   28  O4  UNL     1       9.769 -10.926 -27.876  1.00  0.00    -0.275 OA
ENDBRANCH  14  26
ENDBRANCH  12  14
ENDBRANCH   9  10
ENDBRANCH   8   9
BRANCH   1  29
HETATM   29  C3  UNL     1       9.481 -14.403 -21.549  1.00  0.00     0.152 C 
BRANCH  29  30
HETATM   30  C2  UNL     1       9.207 -14.739 -20.090  1.00  0.00     0.017 C 
HETATM   31  C1  UNL     1       8.309 -13.637 -19.535  1.00  0.00     0.007 C 
ENDBRANCH  29  30
ENDBRANCH   1  29
BRANCH   5  32
HETATM   32  C6  UNL     1       5.250 -15.646 -22.418  1.00  0.00     0.050 C 
BRANCH  32  33
HETATM   33  C7  UNL     1       5.036 -16.999 -21.862  1.00  0.00     0.078 C 
BRANCH  33  34
HETATM   34  C8  UNL     1       5.195 -17.085 -20.411  1.00  0.00     0.070 C 
HETATM   35  N2  UNL     1       6.028 -17.852 -19.834  1.00  0.00    -0.389 N 
ATOM     36  H22 UNL     1       6.648 -18.412 -20.418  1.00  0.00     0.157 HD
ATOM     37  H21 UNL     1       6.139 -17.912 -18.822  1.00  0.00     0.157 HD
BRANCH  34  38
HETATM   38  N3  UNL     1       4.315 -16.291 -19.583  1.00  0.00    -0.380 N 
ATOM     39  H3  UNL     1       3.417 -16.662 -19.270  1.00  0.00     0.160 HD
BRANCH  38  40
HETATM   40  C9  UNL     1       4.731 -14.972 -19.212  1.00  0.00     0.124 C 
BRANCH  40  41
HETATM   41  C10 UNL     1       3.482 -14.080 -19.108  1.00  0.00     0.047 C 
BRANCH  41  42
HETATM   42  C11 UNL     1       3.335 -13.307 -20.340  1.00  0.00    -0.022 C 
HETATM   43  C12 UNL     1       2.600 -13.455 -21.382  1.00  0.00     0.040 C 
BRANCH  43  44
HETATM   44  C13 UNL     1       1.629 -14.421 -21.774  1.00  0.00     0.109 C 
HETATM   45  N4  UNL     1       1.759 -15.661 -21.766  1.00  0.00    -0.388 N 
ATOM     46  H42 UNL     1       2.661 -16.005 -21.439  1.00  0.00     0.157 HD
ATOM     47  H41 UNL     1       1.063 -16.352 -22.047  1.00  0.00     0.157 HD
HETATM   48  N5  UNL     1       0.315 -13.920 -22.249  1.00  0.00    -0.083 NA
ENDBRANCH  43  44
ENDBRANCH  41  42
ENDBRANCH  40  41
ENDBRANCH  38  40
ENDBRANCH  34  38
ENDBRANCH  33  34
ENDBRANCH  32  33
ENDBRANCH   5  32
TORSDOF 21
ENDMDL
MODEL 2
REMARK VINA RESULT: -8.185923201      1.974      2.992
REMARK  21 active torsions:
REMARK  status: ('A' for Active; 'I' for Inactive)
REMARK    1  A    between atoms: C2_2  and  C3_3 
REMARK    2  A    between atoms: C3_3  and  N1_4 
REMARK    3  A    between atoms: C5_8  and  C6_9 
REMARK    4  A    between atoms: C6_9  and  C7_10 
REMARK    5  A    between atoms: C7_10  and  C8_11 
REMARK    6  A    between atoms: C8_11  and  N3_15 
REMARK    7  A    between atoms: N3_15  and  C9_17 
REMARK    8  A    between atoms: C9_17  and  C10_18 
REMARK    9  A    between atoms: C10_18  and  C11_19 
REMARK   10  A    between atoms: C12_20  and  C13_21 
REMARK   11  A    between atoms: N6_28  and  C15_29 
REMARK   12  A    between atoms: C15_29  and  C16_30 
REMARK       I    between atoms: C16_30  and  N7_32 
REMARK   13  A    between atoms: N7_32  and  C17_34 
REMARK   14  A    between atoms: C17_34  and  C18_35 
REMARK   15  A    between atoms: C17_34  and  C24_46 
REMARK   16  A    between atoms: C18_35  and  C19_36 
REMARK   17  A    between atoms: C19_36  and  C20_37 
REMARK   18  A    between atoms: C20_37  and  C21_38 
REMARK   19  A    between atoms: C21_38  and  N8_39 
REMARK   20  A    between atoms: N8_39  and  C22_41 
REMARK   21  A    between atoms: C22_41  and  N9_43 
ROOT
HETATM    1  N1  UNL     1       7.818 -13.775 -22.189  1.00  0.00    -0.256 N 
HETATM    2  C4  UNL     1       7.964 -14.065 -20.803  1.00  0.00     0.232 C 
HETATM    3  S1  UNL     1       6.706 -13.921 -19.770  1.00  0.00    -0.031 SA
HETATM    4  O1  UNL     1       9.206 -14.487 -20.286  1.00  0.00    -0.311 OA
HETATM    5  C5  UNL     1      10.110 -15.221 -21.134  1.00  0.00     0.225 C 
HETATM    6  C14 UNL     1      10.197 -14.365 -22.372  1.00  0.00     0.268 C 
HETATM    7  O2  UNL     1      11.271 -14.030 -22.872  1.00  0.00    -0.269 OA
HETATM    8  N6  UNL     1       8.956 -13.932 -22.982  1.00  0.00    -0.245 N 
ENDROOT
BRANCH   8   9
HETATM    9  C15 UNL     1       8.926 -13.693 -24.394  1.00  0.00     0.255 C 
BRANCH   9  10
HETATM   10  C16 UNL     1       9.109 -12.283 -24.789  1.00  0.00     0.238 C 
HETATM   11  O3  UNL     1       9.402 -11.426 -23.945  1.00  0.00    -0.272 OA
HETATM   12  N7  UNL     1       8.941 -11.951 -26.138  1.00  0.00    -0.347 N 
ATOM     13  H7  UNL     1       8.699 -12.690 -26.798  1.00  0.00     0.163 HD
BRANCH  12  14
HETATM   14  C17 UNL     1       9.101 -10.576 -26.643  1.00  0.00     0.173 C 
BRANCH  14  15
HETATM   15  C18 UNL     1       7.885 -10.303 -27.485  1.00  0.00     0.035 C 
BRANCH  15  16
HETATM   16  C19 UNL     1       6.829  -9.480 -26.888  1.00  0.00     0.007 C 
BRANCH  16  17
HETATM   17  C20 UNL     1       5.745  -8.834 -27.608  1.00  0.00     0.044 C 
BRANCH  17  18
HETATM   18  C21 UNL     1       4.480  -9.529 -27.867  1.00  0.00     0.063 C 
BRANCH  18  19
HETATM   19  N8  UNL     1       4.368 -10.438 -28.935  1.00  0.00    -0.347 N 
ATOM     20  H8  UNL     1       4.853 -10.231 -29.808  1.00  0.00     0.167 HD
BRANCH  19  21
HETATM   21  C22 UNL     1       3.596 -11.649 -28.843  1.00  0.00     0.170 C 
HETATM   22  S2  UNL     1       3.154 -12.192 -27.391  1.00  0.00    -0.041 SA
BRANCH  21  23
HETATM   23  N9  UNL     1       3.242 -12.328 -30.012  1.00  0.00    -0.371 N 
HETATM   24  C23 UNL     1       4.020 -13.466 -30.465  1.00  0.00     0.148 C 
ATOM     25  H9  UNL     1       2.432 -12.022 -30.551  1.00  0.00     0.161 HD
ENDBRANCH  21  23
ENDBRANCH  19  21
ENDBRANCH  18  19
ENDBRANCH  17  18
ENDBRANCH  16  17
ENDBRANCH  15  16
ENDBRANCH  14  15
BRANCH  14  26
HETATM   26  C24 UNL     1      10.409 -10.311 -27.135  1.00  0.00     0.254 C 
HETATM   27  N10 UNL     1      10.890 -10.669 -28.412  1.00  0.00    -0.060 NA
HETATM   28  O4  UNL     1      11.271  -9.687 -26.407  1.00  0.00    -0.275 OA
ENDBRANCH  14  26
ENDBRANCH  12  14
ENDBRANCH   9  10
ENDBRANCH   8   9
BRANCH   1  29
HETATM   29  C3  UNL     1       6.575 -13.321 -22.756  1.00  0.00     0.152 C 
BRANCH  29  30
HETATM   30  C2  UNL     1       5.753 -14.443 -23.377  1.00  0.00     0.017 C 
HETATM   31  C1  UNL     1       4.645 -13.787 -24.198  1.00  0.00     0.007 C 
ENDBRANCH  29  30
ENDBRANCH   1  29
BRANCH   5  32
HETATM   32  C6  UNL     1       9.472 -16.528 -21.520  1.00  0.00     0.050 C 
BRANCH  32  33
HETATM   33  C7  UNL     1       8.706 -17.133 -20.409  1.00  0.00     0.078 C 
BRANCH  33  34
HETATM   34  C8  UNL     1       7.588 -17.972 -20.837  1.00  0.00     0.070 C 
HETATM   35  N2  UNL     1       7.667 -18.840 -21.762  1.00  0.00    -0.389 N 
ATOM     36  H22 UNL     1       8.573 -18.985 -22.206  1.00  0.00     0.157 HD
ATOM     37  H21 UNL     1       6.888 -19.426 -22.061  1.00  0.00     0.157 HD
BRANCH  34  38
HETATM   38  N3  UNL     1       6.303 -17.765 -20.207  1.00  0.00    -0.380 N 
ATOM     39  H3  UNL     1       6.139 -18.065 -19.245  1.00  0.00     0.160 HD
BRANCH  38  40
HETATM   40  C9  UNL     1       5.266 -17.129 -20.963  1.00  0.00     0.124 C 
BRANCH  40  41
HETATM   41  C10 UNL     1       4.138 -16.730 -19.997  1.00  0.00     0.047 C 
BRANCH  41  42
HETATM   42  C11 UNL     1       3.470 -15.531 -20.503  1.00  0.00    -0.022 C 
HETATM   43  C12 UNL     1       2.601 -15.339 -21.428  1.00  0.00     0.040 C 
BRANCH  43  44
HETATM   44  C13 UNL     1       1.928 -16.200 -22.341  1.00  0.00     0.109 C 
HETATM   45  N4  UNL     1       2.308 -16.526 -23.484  1.00  0.00    -0.388 N 
ATOM     46  H42 UNL     1       3.198 -16.127 -23.780  1.00  0.00     0.157 HD
ATOM     47  H41 UNL     1       1.825 -17.142 -24.138  1.00  0.00     0.157 HD
HETATM   48  N5  UNL     1       0.632 -16.780 -21.910  1.00  0.00    -0.083 NA
ENDBRANCH  43  44
ENDBRANCH  41  42
ENDBRANCH  40  41
ENDBRANCH  38  40
ENDBRANCH  34  38
ENDBRANCH  33  34
ENDBRANCH  32  33
ENDBRANCH   5  32
TORSDOF 21
ENDMDL
MODEL 3
REMARK VINA RESULT: -8.155050025      2.755      4.106
REMARK  21 active torsions:
REMARK  status: ('A' for Active; 'I' for Inactive)
REMARK    1  A    between atoms: C2_2  and  C3_3 
REMARK    2  A    between atoms: C3_3  and  N1_4 
REMARK    3  A    between atoms: C5_8  and  C6_9 
REMARK    4  A    between atoms: C6_9  and  C7_10 
REMARK    5  A    between atoms: C7_10  and  C8_11 
REMARK    6  A    between atoms: C8_11  and  N3_15 
REMARK    7  A    between atoms: N3_15  and  C9_17 
REMARK    8  A    between atoms: C9_17  and  C10_18 
REMARK    9  A    between atoms: C10_18  and  C11_19 
REMARK   10  A    between atoms: C12_20  and  C13_21 
REMARK   11  A    between atoms: N6_28  and  C15_29 
REMARK   12  A    between atoms: C15_29  and  C16_30 
REMARK       I    between atoms: C16_30  and  N7_32 
REMARK   13  A    between atoms: N7_32  and  C17_34 
REMARK   14  A    between atoms: C17_34  and  C18_35 
REMARK   15  A    between atoms: C17_34  and  C24_46 
REMARK   16  A    between atoms: C18_35  and  C19_36 
REMARK   17  A    between atoms: C19_36  and  C20_37 
REMARK   18  A    between atoms: C20_37  and  C21_38 
REMARK   19  A    between atoms: C21_38  and  N8_39 
REMARK   20  A    between atoms: N8_39  and  C22_41 
REMARK   21  A    between atoms: C22_41  and  N9_43 
ROOT
HETATM    1  N1  UNL     1       8.568 -14.291 -23.275  1.00  0.00    -0.256 N 
HETATM    2  C4  UNL     1       9.786 -15.028 -23.228  1.00  0.00     0.232 C 
HETATM    3  S1  UNL     1      11.234 -14.271 -23.236  1.00  0.00    -0.031 SA
HETATM    4  O1  UNL     1       9.770 -16.437 -23.172  1.00  0.00    -0.311 OA
HETATM    5  C5  UNL     1       8.660 -17.105 -22.543  1.00  0.00     0.225 C 
HETATM    6  C14 UNL     1       7.458 -16.484 -23.209  1.00  0.00     0.268 C 
HETATM    7  O2  UNL     1       6.551 -17.156 -23.699  1.00  0.00    -0.269 OA
HETATM    8  N6  UNL     1       7.388 -15.038 -23.262  1.00  0.00    -0.245 N 
ENDROOT
BRANCH   8   9
HETATM    9  C15 UNL     1       6.102 -14.408 -23.281  1.00  0.00     0.255 C 
BRANCH   9  10
HETATM   10  C16 UNL     1       5.695 -13.867 -24.592  1.00  0.00     0.238 C 
HETATM   11  O3  UNL     1       6.080 -14.402 -25.641  1.00  0.00    -0.272 OA
HETATM   12  N7  UNL     1       4.868 -12.739 -24.611  1.00  0.00    -0.347 N 
ATOM     13  H7  UNL     1       4.576 -12.331 -23.722  1.00  0.00     0.163 HD
BRANCH  12  14
HETATM   14  C17 UNL     1       4.400 -12.116 -25.862  1.00  0.00     0.173 C 
BRANCH  14  15
HETATM   15  C18 UNL     1       4.595 -10.636 -25.684  1.00  0.00     0.035 C 
BRANCH  15  16
HETATM   16  C19 UNL     1       5.649 -10.206 -24.761  1.00  0.00     0.007 C 
BRANCH  16  17
HETATM   17  C20 UNL     1       6.897  -9.562 -25.135  1.00  0.00     0.044 C 
BRANCH  17  18
HETATM   18  C21 UNL     1       7.962 -10.300 -25.821  1.00  0.00     0.063 C 
BRANCH  18  19
HETATM   19  N8  UNL     1       9.304 -10.156 -25.423  1.00  0.00    -0.347 N 
ATOM     20  H8  UNL     1       9.599 -10.564 -24.537  1.00  0.00     0.167 HD
BRANCH  19  21
HETATM   21  C22 UNL     1      10.276  -9.454 -26.219  1.00  0.00     0.170 C 
HETATM   22  S2  UNL     1      10.935 -10.195 -27.490  1.00  0.00    -0.041 SA
BRANCH  21  23
HETATM   23  N9  UNL     1      10.628  -8.146 -25.877  1.00  0.00    -0.371 N 
HETATM   24  C23 UNL     1       9.843  -7.023 -26.358  1.00  0.00     0.148 C 
ATOM     25  H9  UNL     1      11.442  -7.978 -25.286  1.00  0.00     0.161 HD
ENDBRANCH  21  23
ENDBRANCH  19  21
ENDBRANCH  18  19
ENDBRANCH  17  18
ENDBRANCH  16  17
ENDBRANCH  15  16
ENDBRANCH  14  15
BRANCH  14  26
HETATM   26  C24 UNL     1       3.160 -12.644 -26.318  1.00  0.00     0.254 C 
HETATM   27  N10 UNL     1       2.412 -13.649 -25.668  1.00  0.00    -0.060 NA
HETATM   28  O4  UNL     1       2.617 -12.205 -27.402  1.00  0.00    -0.275 OA
ENDBRANCH  14  26
ENDBRANCH  12  14
ENDBRANCH   9  10
ENDBRANCH   8   9
BRANCH   1  29
HETATM   29  C3  UNL     1       8.537 -12.855 -23.353  1.00  0.00     0.152 C 
BRANCH  29  30
HETATM   30  C2  UNL     1       7.965 -12.197 -22.105  1.00  0.00     0.017 C 
HETATM   31  C1  UNL     1       8.506 -12.966 -20.902  1.00  0.00     0.007 C 
ENDBRANCH  29  30
ENDBRANCH   1  29
BRANCH   5  32
HETATM   32  C6  UNL     1       8.624 -16.735 -21.085  1.00  0.00     0.050 C 
BRANCH  32  33
HETATM   33  C7  UNL     1       7.854 -17.704 -20.275  1.00  0.00     0.078 C 
BRANCH  33  34
HETATM   34  C8  UNL     1       6.495 -17.272 -19.953  1.00  0.00     0.070 C 
HETATM   35  N2  UNL     1       5.539 -18.070 -19.698  1.00  0.00    -0.389 N 
ATOM     36  H22 UNL     1       5.742 -19.069 -19.680  1.00  0.00     0.157 HD
ATOM     37  H21 UNL     1       4.591 -17.769 -19.474  1.00  0.00     0.157 HD
BRANCH  34  38
HETATM   38  N3  UNL     1       6.208 -15.855 -19.980  1.00  0.00    -0.380 N 
ATOM     39  H3  UNL     1       6.964 -15.170 -20.011  1.00  0.00     0.160 HD
BRANCH  38  40
HETATM   40  C9  UNL     1       4.839 -15.434 -19.962  1.00  0.00     0.124 C 
BRANCH  40  41
HETATM   41  C10 UNL     1       4.760 -14.071 -19.254  1.00  0.00     0.047 C 
BRANCH  41  42
HETATM   42  C11 UNL     1       3.371 -13.613 -19.240  1.00  0.00    -0.022 C 
HETATM   43  C12 UNL     1       2.614 -13.092 -20.136  1.00  0.00     0.040 C 
BRANCH  43  44
HETATM   44  C13 UNL     1       2.803 -12.742 -21.504  1.00  0.00     0.109 C 
HETATM   45  N4  UNL     1       2.329 -13.325 -22.500  1.00  0.00    -0.388 N 
ATOM     46  H42 UNL     1       1.745 -14.135 -22.296  1.00  0.00     0.157 HD
ATOM     47  H41 UNL     1       2.465 -13.074 -23.480  1.00  0.00     0.157 HD
HETATM   48  N5  UNL     1       3.654 -11.562 -21.801  1.00  0.00    -0.083 NA
ENDBRANCH  43  44
ENDBRANCH  41  42
ENDBRANCH  40  41
ENDBRANCH  38  40
ENDBRANCH  34  38
ENDBRANCH  33  34
ENDBRANCH  32  33
ENDBRANCH   5  32
TORSDOF 21
ENDMDL
MODEL 4
REMARK VINA RESULT: -8.141379252      2.508      4.670
REMARK  21 active torsions:
REMARK  status: ('A' for Active; 'I' for Inactive)
REMARK    1  A    between atoms: C2_2  and  C3_3 
REMARK    2  A    between atoms: C3_3  and  N1_4 
REMARK    3  A    between atoms: C5_8  and  C6_9 
REMARK    4  A    between atoms: C6_9  and  C7_10 
REMARK    5  A    between atoms: C7_10  and  C8_11 
REMARK    6  A    between atoms: C8_11  and  N3_15 
REMARK    7  A    between atoms: N3_15  and  C9_17 
REMARK    8  A    between atoms: C9_17  and  C10_18 
REMARK    9  A    between atoms: C10_18  and  C11_19 
REMARK   10  A    between atoms: C12_20  and  C13_21 
REMARK   11  A    between atoms: N6_28  and  C15_29 
REMARK   12  A    between atoms: C15_29  and  C16_30 
REMARK       I    between atoms: C16_30  and  N7_32 
REMARK   13  A    between atoms: N7_32  and  C17_34 
REMARK   14  A    between atoms: C17_34  and  C18_35 
REMARK   15  A    between atoms: C17_34  and  C24_46 
REMARK   16  A    between atoms: C18_35  and  C19_36 
REMARK   17  A    between atoms: C19_36  and  C20_37 
REMARK   18  A    between atoms: C20_37  and  C21_38 
REMARK   19  A    between atoms: C21_38  and  N8_39 
REMARK   20  A    between atoms: N8_39  and  C22_41 
REMARK   21  A    between atoms: C22_41  and  N9_43 
ROOT
HETATM    1  N1  UNL     1       3.877 -13.973 -23.793  1.00  0.00    -0.256 N 
HETATM    2  C4  UNL     1       2.461 -14.096 -23.719  1.00  0.00     0.232 C 
HETATM    3  S1  UNL     1       1.655 -15.176 -24.644  1.00  0.00    -0.031 SA
HETATM    4  O1  UNL     1       1.715 -13.284 -22.840  1.00  0.00    -0.311 OA
HETATM    5  C5  UNL     1       2.325 -12.822 -21.619  1.00  0.00     0.225 C 
HETATM    6  C14 UNL     1       3.626 -12.222 -22.087  1.00  0.00     0.268 C 
HETATM    7  O2  UNL     1       3.992 -11.094 -21.755  1.00  0.00    -0.269 OA
HETATM    8  N6  UNL     1       4.464 -13.020 -22.958  1.00  0.00    -0.245 N 
ENDROOT
BRANCH   8   9
HETATM    9  C15 UNL     1       5.882 -12.821 -22.926  1.00  0.00     0.255 C 
BRANCH   9  10
HETATM   10  C16 UNL     1       6.362 -11.646 -23.679  1.00  0.00     0.238 C 
HETATM   11  O3  UNL     1       6.903 -10.700 -23.090  1.00  0.00    -0.272 OA
HETATM   12  N7  UNL     1       6.186 -11.636 -25.066  1.00  0.00    -0.347 N 
ATOM     13  H7  UNL     1       5.734 -12.436 -25.508  1.00  0.00     0.163 HD
BRANCH  12  14
HETATM   14  C17 UNL     1       6.627 -10.515 -25.915  1.00  0.00     0.173 C 
BRANCH  14  15
HETATM   15  C18 UNL     1       5.441  -9.597 -26.036  1.00  0.00     0.035 C 
BRANCH  15  16
HETATM   16  C19 UNL     1       5.509  -8.549 -27.057  1.00  0.00     0.007 C 
BRANCH  16  17
HETATM   17  C20 UNL     1       4.480  -8.249 -28.039  1.00  0.00     0.044 C 
BRANCH  17  18
HETATM   18  C21 UNL     1       3.619  -9.301 -28.588  1.00  0.00     0.063 C 
BRANCH  18  19
HETATM   19  N8  UNL     1       4.174 -10.500 -29.072  1.00  0.00    -0.347 N 
ATOM     20  H8  UNL     1       5.070 -10.465 -29.557  1.00  0.00     0.167 HD
BRANCH  19  21
HETATM   21  C22 UNL     1       3.525 -11.774 -28.908  1.00  0.00     0.170 C 
HETATM   22  S2  UNL     1       3.203 -12.308 -27.422  1.00  0.00    -0.041 SA
BRANCH  21  23
HETATM   23  N9  UNL     1       3.185 -12.522 -30.039  1.00  0.00    -0.371 N 
HETATM   24  C23 UNL     1       3.944 -13.708 -30.392  1.00  0.00     0.148 C 
ATOM     25  H9  UNL     1       2.400 -12.231 -30.621  1.00  0.00     0.161 HD
ENDBRANCH  21  23
ENDBRANCH  19  21
ENDBRANCH  18  19
ENDBRANCH  17  18
ENDBRANCH  16  17
ENDBRANCH  15  16
ENDBRANCH  14  15
BRANCH  14  26
HETATM   26  C24 UNL     1       7.349 -10.937 -27.066  1.00  0.00     0.254 C 
HETATM   27  N10 UNL     1       8.674 -10.565 -27.381  1.00  0.00    -0.060 NA
HETATM   28  O4  UNL     1       6.811 -11.733 -27.925  1.00  0.00    -0.275 OA
ENDBRANCH  14  26
ENDBRANCH  12  14
ENDBRANCH   9  10
ENDBRANCH   8   9
BRANCH   1  29
HETATM   29  C3  UNL     1       4.676 -14.765 -24.690  1.00  0.00     0.152 C 
BRANCH  29  30
HETATM   30  C2  UNL     1       5.538 -15.798 -23.976  1.00  0.00     0.017 C 
HETATM   31  C1  UNL     1       4.712 -17.077 -23.870  1.00  0.00     0.007 C 
ENDBRANCH  29  30
ENDBRANCH   1  29
BRANCH   5  32
HETATM   32  C6  UNL     1       2.649 -14.008 -20.751  1.00  0.00     0.050 C 
BRANCH  32  33
HETATM   33  C7  UNL     1       3.341 -13.621 -19.502  1.00  0.00     0.078 C 
BRANCH  33  34
HETATM   34  C8  UNL     1       4.525 -14.424 -19.199  1.00  0.00     0.070 C 
HETATM   35  N2  UNL     1       4.501 -15.489 -18.507  1.00  0.00    -0.389 N 
ATOM     36  H22 UNL     1       3.597 -15.825 -18.176  1.00  0.00     0.157 HD
ATOM     37  H21 UNL     1       5.326 -16.049 -18.295  1.00  0.00     0.157 HD
BRANCH  34  38
HETATM   38  N3  UNL     1       5.807 -13.947 -19.667  1.00  0.00    -0.380 N 
ATOM     39  H3  UNL     1       5.938 -12.967 -19.923  1.00  0.00     0.160 HD
BRANCH  38  40
HETATM   40  C9  UNL     1       6.890 -14.880 -19.764  1.00  0.00     0.124 C 
BRANCH  40  41
HETATM   41  C10 UNL     1       8.212 -14.102 -19.652  1.00  0.00     0.047 C 
BRANCH  41  42
HETATM   42  C11 UNL     1       8.567 -13.560 -20.963  1.00  0.00    -0.022 C 
HETATM   43  C12 UNL     1       9.412 -13.924 -21.858  1.00  0.00     0.040 C 
BRANCH  43  44
HETATM   44  C13 UNL     1      10.348 -14.994 -21.953  1.00  0.00     0.109 C 
HETATM   45  N4  UNL     1      10.120 -16.208 -21.785  1.00  0.00    -0.388 N 
ATOM     46  H42 UNL     1       9.154 -16.445 -21.558  1.00  0.00     0.157 HD
ATOM     47  H41 UNL     1      10.791 -16.974 -21.853  1.00  0.00     0.157 HD
HETATM   48  N5  UNL     1      11.754 -14.649 -22.284  1.00  0.00    -0.083 NA
ENDBRANCH  43  44
ENDBRANCH  41  42
ENDBRANCH  40  41
ENDBRANCH  38  40
ENDBRANCH  34  38
ENDBRANCH  33  34
ENDBRANCH  32  33
ENDBRANCH   5  32
TORSDOF 21
ENDMDL
MODEL 5
REMARK VINA RESULT: -8.087546875      2.473      7.032
REMARK  21 active torsions:
REMARK  status: ('A' for Active; 'I' for Inactive)
REMARK    1  A    between atoms: C2_2  and  C3_3 
REMARK    2  A    between atoms: C3_3  and  N1_4 
REMARK    3  A    between atoms: C5_8  and  C6_9 
REMARK    4  A    between atoms: C6_9  and  C7_10 
REMARK    5  A    between atoms: C7_10  and  C8_11 
REMARK    6  A    between atoms: C8_11  and  N3_15 
REMARK    7  A    between atoms: N3_15  and  C9_17 
REMARK    8  A    between atoms: C9_17  and  C10_18 
REMARK    9  A    between atoms: C10_18  and  C11_19 
REMARK   10  A    between atoms: C12_20  and  C13_21 
REMARK   11  A    between atoms: N6_28  and  C15_29 
REMARK   12  A    between atoms: C15_29  and  C16_30 
REMARK       I    between atoms: C16_30  and  N7_32 
REMARK   13  A    between atoms: N7_32  and  C17_34 
REMARK   14  A    between atoms: C17_34  and  C18_35 
REMARK   15  A    between atoms: C17_34  and  C24_46 
REMARK   16  A    between atoms: C18_35  and  C19_36 
REMARK   17  A    between atoms: C19_36  and  C20_37 
REMARK   18  A    between atoms: C20_37  and  C21_38 
REMARK   19  A    between atoms: C21_38  and  N8_39 
REMARK   20  A    between atoms: N8_39  and  C22_41 
REMARK   21  A    between atoms: C22_41  and  N9_43 
ROOT
HETATM    1  N1  UNL     1       6.234  -9.711 -25.973  1.00  0.00    -0.256 N 
HETATM    2  C4  UNL     1       4.829  -9.489 -26.037  1.00  0.00     0.232 C 
HETATM    3  S1  UNL     1       4.165  -8.607 -27.243  1.00  0.00    -0.031 SA
HETATM    4  O1  UNL     1       3.972 -10.029 -25.057  1.00  0.00    -0.311 OA
HETATM    5  C5  UNL     1       4.338 -11.257 -24.399  1.00  0.00     0.225 C 
HETATM    6  C14 UNL     1       5.748 -10.995 -23.934  1.00  0.00     0.268 C 
HETATM    7  O2  UNL     1       6.112 -11.201 -22.776  1.00  0.00    -0.269 OA
HETATM    8  N6  UNL     1       6.694 -10.480 -24.902  1.00  0.00    -0.245 N 
ENDROOT
BRANCH   8   9
HETATM    9  C15 UNL     1       8.083 -10.792 -24.745  1.00  0.00     0.255 C 
BRANCH   9  10
HETATM   10  C16 UNL     1       8.394 -12.233 -24.692  1.00  0.00     0.238 C 
HETATM   11  O3  UNL     1       8.297 -12.935 -25.708  1.00  0.00    -0.272 OA
HETATM   12  N7  UNL     1       8.798 -12.775 -23.467  1.00  0.00    -0.347 N 
ATOM     13  H7  UNL     1       8.863 -12.159 -22.657  1.00  0.00     0.163 HD
BRANCH  12  14
HETATM   14  C17 UNL     1       9.134 -14.200 -23.301  1.00  0.00     0.173 C 
BRANCH  14  15
HETATM   15  C18 UNL     1       8.177 -14.732 -22.269  1.00  0.00     0.035 C 
BRANCH  15  16
HETATM   16  C19 UNL     1       8.403 -14.330 -20.878  1.00  0.00     0.007 C 
BRANCH  16  17
HETATM   17  C20 UNL     1       9.412 -14.880 -19.987  1.00  0.00     0.044 C 
BRANCH  17  18
HETATM   18  C21 UNL     1       9.477 -16.316 -19.701  1.00  0.00     0.063 C 
BRANCH  18  19
HETATM   19  N8  UNL     1       9.469 -17.256 -20.748  1.00  0.00    -0.347 N 
ATOM     20  H8  UNL     1      10.306 -17.360 -21.321  1.00  0.00     0.167 HD
BRANCH  19  21
HETATM   21  C22 UNL     1       8.323 -18.076 -21.043  1.00  0.00     0.170 C 
HETATM   22  S2  UNL     1       8.382 -19.089 -22.295  1.00  0.00    -0.041 SA
BRANCH  21  23
HETATM   23  N9  UNL     1       7.185 -17.979 -20.238  1.00  0.00    -0.371 N 
HETATM   24  C23 UNL     1       5.954 -17.420 -20.767  1.00  0.00     0.148 C 
ATOM     25  H9  UNL     1       7.218 -18.304 -19.271  1.00  0.00     0.161 HD
ENDBRANCH  21  23
ENDBRANCH  19  21
ENDBRANCH  18  19
ENDBRANCH  17  18
ENDBRANCH  16  17
ENDBRANCH  15  16
ENDBRANCH  14  15
BRANCH  14  26
HETATM   26  C24 UNL     1      10.533 -14.435 -23.195  1.00  0.00     0.254 C 
HETATM   27  N10 UNL     1      11.141 -15.702 -23.069  1.00  0.00    -0.060 NA
HETATM   28  O4  UNL     1      11.369 -13.454 -23.221  1.00  0.00    -0.275 OA
ENDBRANCH  14  26
ENDBRANCH  12  14
ENDBRANCH   9  10
ENDBRANCH   8   9
BRANCH   1  29
HETATM   29  C3  UNL     1       7.148  -9.163 -26.940  1.00  0.00     0.152 C 
BRANCH  29  30
HETATM   30  C2  UNL     1       7.496  -7.704 -26.678  1.00  0.00     0.017 C 
HETATM   31  C1  UNL     1       8.958  -7.661 -26.241  1.00  0.00     0.007 C 
ENDBRANCH  29  30
ENDBRANCH   1  29
BRANCH   5  32
HETATM   32  C6  UNL     1       4.386 -12.365 -25.416  1.00  0.00     0.050 C 
BRANCH  32  33
HETATM   33  C7  UNL     1       3.779 -13.618 -24.916  1.00  0.00     0.078 C 
BRANCH  33  34
HETATM   34  C8  UNL     1       4.738 -14.693 -24.668  1.00  0.00     0.070 C 
HETATM   35  N2  UNL     1       5.929 -14.696 -25.111  1.00  0.00    -0.389 N 
ATOM     36  H22 UNL     1       6.246 -13.884 -25.639  1.00  0.00     0.157 HD
ATOM     37  H21 UNL     1       6.598 -15.446 -24.938  1.00  0.00     0.157 HD
BRANCH  34  38
HETATM   38  N3  UNL     1       4.288 -15.845 -23.919  1.00  0.00    -0.380 N 
ATOM     39  H3  UNL     1       4.946 -16.569 -23.629  1.00  0.00     0.160 HD
BRANCH  38  40
HETATM   40  C9  UNL     1       2.896 -15.948 -23.595  1.00  0.00     0.124 C 
BRANCH  40  41
HETATM   41  C10 UNL     1       2.760 -16.022 -22.064  1.00  0.00     0.047 C 
BRANCH  41  42
HETATM   42  C11 UNL     1       1.937 -14.907 -21.598  1.00  0.00    -0.022 C 
HETATM   43  C12 UNL     1       2.218 -13.716 -21.212  1.00  0.00     0.040 C 
BRANCH  43  44
HETATM   44  C13 UNL     1       3.432 -12.984 -21.076  1.00  0.00     0.109 C 
HETATM   45  N4  UNL     1       4.588 -13.401 -21.293  1.00  0.00    -0.388 N 
ATOM     46  H42 UNL     1       4.653 -14.370 -21.602  1.00  0.00     0.157 HD
ATOM     47  H41 UNL     1       5.457 -12.877 -21.195  1.00  0.00     0.157 HD
HETATM   48  N5  UNL     1       3.337 -11.573 -20.626  1.00  0.00    -0.083 NA
ENDBRANCH  43  44
ENDBRANCH  41  42
ENDBRANCH  40  41
ENDBRANCH  38  40
ENDBRANCH  34  38
ENDBRANCH  33  34
ENDBRANCH  32  33
ENDBRANCH   5  32
TORSDOF 21
ENDMDL
