MODEL 1
REMARK VINA RESULT: -6.204115349      0.000      0.000
REMARK  8 active torsions:
REMARK  status: ('A' for Active; 'I' for Inactive)
REMARK    1  A    between atoms: C2_2  and  C3_3 
REMARK    2  A    between atoms: C8_9  and  C9_10 
REMARK       I    between atoms: C9_10  and  N2_12 
REMARK    3  A    between atoms: N2_12  and  C10_14 
REMARK    4  A    between atoms: C11_16  and  C12_17 
REMARK    5  A    between atoms: C17_22  and  C18_23 
REMARK    6  A    between atoms: C18_23  and  O2_24 
REMARK    7  A    between atoms: C18_23  and  C19_26 
REMARK    8  A    between atoms: C19_26  and  N3_27 
ROOT
HETATM    1  C10 UNL     1      30.034  95.266  27.421  1.00  0.00     0.086 A 
HETATM    2  S1  UNL     1      29.469  93.592  27.673  1.00  0.00    -0.075 SA
HETATM    3  C11 UNL     1      28.004  93.655  26.889  1.00  0.00    -0.007 A 
HETATM    4  C16 UNL     1      27.942  94.942  26.434  1.00  0.00     0.028 A 
HETATM    5  C17 UNL     1      28.977  95.760  26.712  1.00  0.00     0.007 A 
ENDROOT
BRANCH   1   6
HETATM    6  N2  UNL     1      31.236  95.705  27.984  1.00  0.00    -0.319 N 
HETATM    7  C9  UNL     1      32.422  96.178  27.531  1.00  0.00     0.256 C 
HETATM    8  O1  UNL     1      32.749  96.299  26.335  1.00  0.00    -0.271 OA
ATOM      9  H2  UNL     1      31.215  95.656  29.002  1.00  0.00     0.169 HD
BRANCH   7  10
HETATM   10  C8  UNL     1      33.469  96.619  28.472  1.00  0.00     0.314 C 
HETATM   11  N1  UNL     1      33.990  95.648  29.410  1.00  0.00     0.103 N 
HETATM   12  C4  UNL     1      35.021  94.804  28.767  1.00  0.00     0.282 C 
HETATM   13  C5  UNL     1      34.840  96.639  30.153  1.00  0.00     0.279 C 
HETATM   14  C3  UNL     1      36.318  95.613  28.771  1.00  0.00     0.041 C 
HETATM   15  C6  UNL     1      35.720  96.998  28.956  1.00  0.00     0.026 C 
HETATM   16  C7  UNL     1      34.710  97.202  27.859  1.00  0.00     0.053 C 
BRANCH  14  17
HETATM   17  C2  UNL     1      37.104  95.503  27.545  1.00  0.00    -0.030 C 
HETATM   18  C1  UNL     1      38.451  95.542  27.601  1.00  0.00     0.007 C 
ENDBRANCH  14  17
ENDBRANCH   7  10
ENDBRANCH   1   6
BRANCH   5  19
HETATM   19  C18 UNL     1      28.957  97.179  26.169  1.00  0.00     0.182 C 
BRANCH  19  20
HETATM   20  O2  UNL     1      27.543  97.315  25.785  1.00  0.00    -0.389 OA
ATOM     21  H2  UNL     1      27.579  98.080  25.223  1.00  0.00     0.210 HD
ENDBRANCH  19  20
BRANCH  19  22
HETATM   22  C19 UNL     1      29.161  98.303  27.076  1.00  0.00     0.307 C 
BRANCH  22  23
HETATM   23  N3  UNL     1      29.788  99.529  26.841  1.00  0.00     0.082 N 
HETATM   24  C20 UNL     1      29.002 100.291  25.793  1.00  0.00     0.309 C 
HETATM   25  C21 UNL     1      31.063  99.188  26.077  1.00  0.00     0.309 C 
ENDBRANCH  22  23
ENDBRANCH  19  22
ENDBRANCH   5  19
BRANCH   3  26
HETATM   26  C12 UNL     1      26.925  92.624  26.665  1.00  0.00    -0.018 C 
HETATM   27  C13 UNL     1      27.541  91.266  26.472  1.00  0.00     0.020 C 
HETATM   28  C14 UNL     1      26.097  92.600  27.959  1.00  0.00     0.020 C 
HETATM   29  C15 UNL     1      26.004  93.036  25.572  1.00  0.00     0.020 C 
ENDBRANCH   3  26
TORSDOF 8
ENDMDL
MODEL 2
REMARK VINA RESULT: -5.908960592      1.447      1.805
REMARK  8 active torsions:
REMARK  status: ('A' for Active; 'I' for Inactive)
REMARK    1  A    between atoms: C2_2  and  C3_3 
REMARK    2  A    between atoms: C8_9  and  C9_10 
REMARK       I    between atoms: C9_10  and  N2_12 
REMARK    3  A    between atoms: N2_12  and  C10_14 
REMARK    4  A    between atoms: C11_16  and  C12_17 
REMARK    5  A    between atoms: C17_22  and  C18_23 
REMARK    6  A    between atoms: C18_23  and  O2_24 
REMARK    7  A    between atoms: C18_23  and  C19_26 
REMARK    8  A    between atoms: C19_26  and  N3_27 
ROOT
HETATM    1  C10 UNL     1      31.363  95.628  27.964  1.00  0.00     0.086 A 
HETATM    2  S1  UNL     1      30.552  94.046  27.797  1.00  0.00    -0.075 SA
HETATM    3  C11 UNL     1      29.071  94.535  27.222  1.00  0.00    -0.007 A 
HETATM    4  C16 UNL     1      29.189  95.895  27.154  1.00  0.00     0.028 A 
HETATM    5  C17 UNL     1      30.357  96.446  27.537  1.00  0.00     0.007 A 
ENDROOT
BRANCH   1   6
HETATM    6  N2  UNL     1      32.653  95.714  28.495  1.00  0.00    -0.319 N 
HETATM    7  C9  UNL     1      33.809  96.345  28.179  1.00  0.00     0.256 C 
HETATM    8  O1  UNL     1      34.001  97.055  27.173  1.00  0.00    -0.271 OA
ATOM      9  H2  UNL     1      32.749  95.156  29.343  1.00  0.00     0.169 HD
BRANCH   7  10
HETATM   10  C8  UNL     1      34.991  96.243  29.057  1.00  0.00     0.314 C 
HETATM   11  N1  UNL     1      35.403  94.925  29.489  1.00  0.00     0.103 N 
HETATM   12  C4  UNL     1      36.210  94.263  28.441  1.00  0.00     0.282 C 
HETATM   13  C5  UNL     1      36.474  95.428  30.414  1.00  0.00     0.279 C 
HETATM   14  C3  UNL     1      37.627  94.823  28.556  1.00  0.00     0.041 C 
HETATM   15  C6  UNL     1      37.305  96.098  29.321  1.00  0.00     0.026 C 
HETATM   16  C7  UNL     1      36.263  96.843  28.530  1.00  0.00     0.053 C 
BRANCH  14  17
HETATM   17  C2  UNL     1      38.280  95.089  27.278  1.00  0.00    -0.030 C 
HETATM   18  C1  UNL     1      39.588  95.416  27.242  1.00  0.00     0.007 C 
ENDBRANCH  14  17
ENDBRANCH   7  10
ENDBRANCH   1   6
BRANCH   5  19
HETATM   19  C18 UNL     1      30.533  97.951  27.417  1.00  0.00     0.182 C 
BRANCH  19  20
HETATM   20  O2  UNL     1      31.471  98.037  26.287  1.00  0.00    -0.389 OA
ATOM     21  H2  UNL     1      31.167  97.321  25.741  1.00  0.00     0.210 HD
ENDBRANCH  19  20
BRANCH  19  22
HETATM   22  C19 UNL     1      29.413  98.777  26.978  1.00  0.00     0.307 C 
BRANCH  22  23
HETATM   23  N3  UNL     1      29.011  99.108  25.681  1.00  0.00     0.082 N 
HETATM   24  C20 UNL     1      28.943 100.617  25.558  1.00  0.00     0.309 C 
HETATM   25  C21 UNL     1      27.535  98.729  25.610  1.00  0.00     0.309 C 
ENDBRANCH  22  23
ENDBRANCH  19  22
ENDBRANCH   5  19
BRANCH   3  26
HETATM   26  C12 UNL     1      27.828  93.772  26.835  1.00  0.00    -0.018 C 
HETATM   27  C13 UNL     1      28.130  92.302  26.751  1.00  0.00     0.020 C 
HETATM   28  C14 UNL     1      26.829  93.995  27.981  1.00  0.00     0.020 C 
HETATM   29  C15 UNL     1      27.208  94.337  25.608  1.00  0.00     0.020 C 
ENDBRANCH   3  26
TORSDOF 8
ENDMDL
MODEL 3
REMARK VINA RESULT: -5.879227760      1.982      7.091
REMARK  8 active torsions:
REMARK  status: ('A' for Active; 'I' for Inactive)
REMARK    1  A    between atoms: C2_2  and  C3_3 
REMARK    2  A    between atoms: C8_9  and  C9_10 
REMARK       I    between atoms: C9_10  and  N2_12 
REMARK    3  A    between atoms: N2_12  and  C10_14 
REMARK    4  A    between atoms: C11_16  and  C12_17 
REMARK    5  A    between atoms: C17_22  and  C18_23 
REMARK    6  A    between atoms: C18_23  and  O2_24 
REMARK    7  A    between atoms: C18_23  and  C19_26 
REMARK    8  A    between atoms: C19_26  and  N3_27 
ROOT
HETATM    1  C10 UNL     1      32.243  95.473  27.810  1.00  0.00     0.086 A 
HETATM    2  S1  UNL     1      33.084  94.462  29.018  1.00  0.00    -0.075 SA
HETATM    3  C11 UNL     1      34.511  95.303  29.162  1.00  0.00    -0.007 A 
HETATM    4  C16 UNL     1      34.353  96.350  28.298  1.00  0.00     0.028 A 
HETATM    5  C17 UNL     1      33.197  96.429  27.609  1.00  0.00     0.007 A 
ENDROOT
BRANCH   1   6
HETATM    6  N2  UNL     1      30.988  95.101  27.319  1.00  0.00    -0.319 N 
HETATM    7  C9  UNL     1      30.459  94.033  26.676  1.00  0.00     0.256 C 
HETATM    8  O1  UNL     1      31.087  93.026  26.296  1.00  0.00    -0.271 OA
ATOM      9  H2  UNL     1      30.288  95.822  27.489  1.00  0.00     0.169 HD
BRANCH   7  10
HETATM   10  C8  UNL     1      29.017  93.974  26.369  1.00  0.00     0.314 C 
HETATM   11  N1  UNL     1      28.237  92.920  26.981  1.00  0.00     0.103 N 
HETATM   12  C4  UNL     1      27.857  93.289  28.362  1.00  0.00     0.282 C 
HETATM   13  C5  UNL     1      26.977  93.248  26.231  1.00  0.00     0.279 C 
HETATM   14  C3  UNL     1      26.650  94.220  28.255  1.00  0.00     0.041 C 
HETATM   15  C6  UNL     1      26.829  94.655  26.808  1.00  0.00     0.026 C 
HETATM   16  C7  UNL     1      28.222  95.210  26.676  1.00  0.00     0.053 C 
BRANCH  14  17
HETATM   17  C2  UNL     1      26.668  95.347  29.183  1.00  0.00    -0.030 C 
HETATM   18  C1  UNL     1      27.382  95.271  30.324  1.00  0.00     0.007 C 
ENDBRANCH  14  17
ENDBRANCH   7  10
ENDBRANCH   1   6
BRANCH   5  19
HETATM   19  C18 UNL     1      32.974  97.615  26.685  1.00  0.00     0.182 C 
BRANCH  19  20
HETATM   20  O2  UNL     1      32.605  96.933  25.434  1.00  0.00    -0.389 OA
ATOM     21  H2  UNL     1      32.090  97.606  25.004  1.00  0.00     0.210 HD
ENDBRANCH  19  20
BRANCH  19  22
HETATM   22  C19 UNL     1      31.845  98.510  26.917  1.00  0.00     0.307 C 
BRANCH  22  23
HETATM   23  N3  UNL     1      30.555  98.467  26.381  1.00  0.00     0.082 N 
HETATM   24  C20 UNL     1      30.214  99.829  25.812  1.00  0.00     0.309 C 
HETATM   25  C21 UNL     1      29.623  98.397  27.586  1.00  0.00     0.309 C 
ENDBRANCH  22  23
ENDBRANCH  19  22
ENDBRANCH   5  19
BRANCH   3  26
HETATM   26  C12 UNL     1      35.747  95.074  29.997  1.00  0.00    -0.018 C 
HETATM   27  C13 UNL     1      35.413  95.200  31.458  1.00  0.00     0.020 C 
HETATM   28  C14 UNL     1      36.172  93.623  29.722  1.00  0.00     0.020 C 
HETATM   29  C15 UNL     1      36.868  95.943  29.552  1.00  0.00     0.020 C 
ENDBRANCH   3  26
TORSDOF 8
ENDMDL
MODEL 4
REMARK VINA RESULT: -5.856213534      1.930      7.229
REMARK  8 active torsions:
REMARK  status: ('A' for Active; 'I' for Inactive)
REMARK    1  A    between atoms: C2_2  and  C3_3 
REMARK    2  A    between atoms: C8_9  and  C9_10 
REMARK       I    between atoms: C9_10  and  N2_12 
REMARK    3  A    between atoms: N2_12  and  C10_14 
REMARK    4  A    between atoms: C11_16  and  C12_17 
REMARK    5  A    between atoms: C17_22  and  C18_23 
REMARK    6  A    between atoms: C18_23  and  O2_24 
REMARK    7  A    between atoms: C18_23  and  C19_26 
REMARK    8  A    between atoms: C19_26  and  N3_27 
ROOT
HETATM    1  C10 UNL     1      31.383  95.812  27.550  1.00  0.00     0.086 A 
HETATM    2  S1  UNL     1      32.664  94.832  28.316  1.00  0.00    -0.075 SA
HETATM    3  C11 UNL     1      33.844  95.988  28.506  1.00  0.00    -0.007 A 
HETATM    4  C16 UNL     1      33.270  97.116  27.991  1.00  0.00     0.028 A 
HETATM    5  C17 UNL     1      32.018  97.020  27.502  1.00  0.00     0.007 A 
ENDROOT
BRANCH   1   6
HETATM    6  N2  UNL     1      30.185  95.221  27.137  1.00  0.00    -0.319 N 
HETATM    7  C9  UNL     1      29.817  94.098  26.475  1.00  0.00     0.256 C 
HETATM    8  O1  UNL     1      30.592  93.251  25.989  1.00  0.00    -0.271 OA
ATOM      9  H2  UNL     1      29.377  95.783  27.403  1.00  0.00     0.169 HD
BRANCH   7  10
HETATM   10  C8  UNL     1      28.393  93.769  26.279  1.00  0.00     0.314 C 
HETATM   11  N1  UNL     1      27.854  92.632  26.994  1.00  0.00     0.103 N 
HETATM   12  C4  UNL     1      27.505  93.008  28.381  1.00  0.00     0.282 C 
HETATM   13  C5  UNL     1      26.511  92.690  26.324  1.00  0.00     0.279 C 
HETATM   14  C3  UNL     1      26.146  93.706  28.320  1.00  0.00     0.041 C 
HETATM   15  C6  UNL     1      26.151  94.080  26.846  1.00  0.00     0.026 C 
HETATM   16  C7  UNL     1      27.410  94.863  26.586  1.00  0.00     0.053 C 
BRANCH  14  17
HETATM   17  C2  UNL     1      26.022  94.871  29.192  1.00  0.00    -0.030 C 
HETATM   18  C1  UNL     1      25.350  94.774  30.357  1.00  0.00     0.007 C 
ENDBRANCH  14  17
ENDBRANCH   7  10
ENDBRANCH   1   6
BRANCH   5  19
HETATM   19  C18 UNL     1      31.336  98.273  26.977  1.00  0.00     0.182 C 
BRANCH  19  20
HETATM   20  O2  UNL     1      32.241  98.647  25.879  1.00  0.00    -0.389 OA
ATOM     21  H2  UNL     1      31.759  99.363  25.481  1.00  0.00     0.210 HD
ENDBRANCH  19  20
BRANCH  19  22
HETATM   22  C19 UNL     1      30.041  98.168  26.315  1.00  0.00     0.307 C 
BRANCH  22  23
HETATM   23  N3  UNL     1      28.899  98.957  26.472  1.00  0.00     0.082 N 
HETATM   24  C20 UNL     1      27.796  98.406  25.591  1.00  0.00     0.309 C 
HETATM   25  C21 UNL     1      29.220 100.273  25.771  1.00  0.00     0.309 C 
ENDBRANCH  22  23
ENDBRANCH  19  22
ENDBRANCH   5  19
BRANCH   3  26
HETATM   26  C12 UNL     1      35.237  95.934  29.083  1.00  0.00    -0.018 C 
HETATM   27  C13 UNL     1      35.999  97.175  28.708  1.00  0.00     0.020 C 
HETATM   28  C14 UNL     1      35.055  95.922  30.609  1.00  0.00     0.020 C 
HETATM   29  C15 UNL     1      35.923  94.666  28.721  1.00  0.00     0.020 C 
ENDBRANCH   3  26
TORSDOF 8
ENDMDL
MODEL 5
REMARK VINA RESULT: -5.847332710      2.674      8.150
REMARK  8 active torsions:
REMARK  status: ('A' for Active; 'I' for Inactive)
REMARK    1  A    between atoms: C2_2  and  C3_3 
REMARK    2  A    between atoms: C8_9  and  C9_10 
REMARK       I    between atoms: C9_10  and  N2_12 
REMARK    3  A    between atoms: N2_12  and  C10_14 
REMARK    4  A    between atoms: C11_16  and  C12_17 
REMARK    5  A    between atoms: C17_22  and  C18_23 
REMARK    6  A    between atoms: C18_23  and  O2_24 
REMARK    7  A    between atoms: C18_23  and  C19_26 
REMARK    8  A    between atoms: C19_26  and  N3_27 
ROOT
HETATM    1  C10 UNL     1      34.053  96.660  29.595  1.00  0.00     0.086 A 
HETATM    2  S1  UNL     1      33.622  95.969  31.183  1.00  0.00    -0.075 SA
HETATM    3  C11 UNL     1      35.044  95.195  31.562  1.00  0.00    -0.007 A 
HETATM    4  C16 UNL     1      35.847  95.460  30.488  1.00  0.00     0.028 A 
HETATM    5  C17 UNL     1      35.335  96.204  29.487  1.00  0.00     0.007 A 
ENDROOT
BRANCH   1   6
HETATM    6  N2  UNL     1      33.107  97.365  28.844  1.00  0.00    -0.319 N 
HETATM    7  C9  UNL     1      31.763  97.343  28.682  1.00  0.00     0.256 C 
HETATM    8  O1  UNL     1      30.976  96.540  29.220  1.00  0.00    -0.271 OA
ATOM      9  H2  UNL     1      33.544  98.083  28.267  1.00  0.00     0.169 HD
BRANCH   7  10
HETATM   10  C8  UNL     1      31.090  98.329  27.815  1.00  0.00     0.314 C 
HETATM   11  N1  UNL     1      31.178  98.145  26.383  1.00  0.00     0.103 N 
HETATM   12  C4  UNL     1      30.175  97.159  25.922  1.00  0.00     0.282 C 
HETATM   13  C5  UNL     1      30.494  99.440  26.049  1.00  0.00     0.279 C 
HETATM   14  C3  UNL     1      28.843  97.901  25.818  1.00  0.00     0.041 C 
HETATM   15  C6  UNL     1      29.170  99.080  26.722  1.00  0.00     0.026 C 
HETATM   16  C7  UNL     1      29.618  98.520  28.045  1.00  0.00     0.053 C 
BRANCH  14  17
HETATM   17  C2  UNL     1      27.687  97.141  26.287  1.00  0.00    -0.030 C 
HETATM   18  C1  UNL     1      27.679  95.796  26.191  1.00  0.00     0.007 C 
ENDBRANCH  14  17
ENDBRANCH   7  10
ENDBRANCH   1   6
BRANCH   5  19
HETATM   19  C18 UNL     1      36.227  96.560  28.309  1.00  0.00     0.182 C 
BRANCH  19  20
HETATM   20  O2  UNL     1      36.331  98.019  28.465  1.00  0.00    -0.389 OA
ATOM     21  H2  UNL     1      37.210  98.103  28.816  1.00  0.00     0.210 HD
ENDBRANCH  19  20
BRANCH  19  22
HETATM   22  C19 UNL     1      37.620  96.129  28.300  1.00  0.00     0.307 C 
BRANCH  22  23
HETATM   23  N3  UNL     1      38.310  95.378  27.345  1.00  0.00     0.082 N 
HETATM   24  C20 UNL     1      37.883  93.929  27.459  1.00  0.00     0.309 C 
HETATM   25  C21 UNL     1      39.749  95.313  27.848  1.00  0.00     0.309 C 
ENDBRANCH  22  23
ENDBRANCH  19  22
ENDBRANCH   5  19
BRANCH   3  26
HETATM   26  C12 UNL     1      35.469  94.375  32.755  1.00  0.00    -0.018 C 
HETATM   27  C13 UNL     1      34.713  93.075  32.783  1.00  0.00     0.020 C 
HETATM   28  C14 UNL     1      36.957  94.063  32.537  1.00  0.00     0.020 C 
HETATM   29  C15 UNL     1      35.373  95.161  34.013  1.00  0.00     0.020 C 
ENDBRANCH   3  26
TORSDOF 8
ENDMDL
