MODEL 1
REMARK VINA RESULT: -5.600092268      0.000      0.000
REMARK  9 active torsions:
REMARK  status: ('A' for Active; 'I' for Inactive)
REMARK    1  A    between atoms: C2_2  and  C3_3 
REMARK    2  A    between atoms: C3_3  and  C4_4 
REMARK    3  A    between atoms: C4_4  and  N1_5 
REMARK       I    between atoms: N1_5  and  C5_7 
REMARK    4  A    between atoms: C5_7  and  C6_9 
REMARK    5  A    between atoms: C9_12  and  C10_13 
REMARK       I    between atoms: C10_13  and  N2_15 
REMARK    6  A    between atoms: N2_15  and  C11_17 
REMARK    7  A    between atoms: N3_22  and  C15_23 
REMARK    8  A    between atoms: C15_23  and  O4_24 
REMARK    9  A    between atoms: C15_23  and  C16_26 
ROOT
HETATM    1  C6  UNL     1      31.261  96.149  27.837  1.00  0.00     0.061 A 
HETATM    2  C7  UNL     1      32.466  95.984  28.496  1.00  0.00    -0.023 A 
HETATM    3  C8  UNL     1      33.124  97.144  29.162  1.00  0.00     0.050 C 
HETATM    4  C9  UNL     1      33.014  94.729  28.610  1.00  0.00     0.107 A 
HETATM    5  C14 UNL     1      32.300  93.655  28.045  1.00  0.00     0.270 A 
HETATM    6  O3  UNL     1      32.880  92.569  28.203  1.00  0.00    -0.266 OA
HETATM    7  N3  UNL     1      31.128  93.772  27.401  1.00  0.00    -0.264 N 
HETATM    8  C20 UNL     1      30.630  95.036  27.306  1.00  0.00     0.034 A 
HETATM    9  C21 UNL     1      29.422  95.284  26.526  1.00  0.00     0.070 C 
ENDROOT
BRANCH   1  10
HETATM   10  C5  UNL     1      30.782  97.512  27.714  1.00  0.00     0.254 C 
HETATM   11  N1  UNL     1      31.157  98.474  26.775  1.00  0.00    -0.357 N 
ATOM     12  H1  UNL     1      31.857  98.219  26.077  1.00  0.00     0.162 HD
HETATM   13  O1  UNL     1      29.897  97.882  28.566  1.00  0.00    -0.268 OA
BRANCH  11  14
HETATM   14  C4  UNL     1      30.616  99.800  26.734  1.00  0.00     0.123 C 
BRANCH  14  15
HETATM   15  C3  UNL     1      29.609  99.956  25.615  1.00  0.00     0.019 C 
BRANCH  15  16
HETATM   16  C2  UNL     1      28.202  99.704  26.111  1.00  0.00    -0.003 C 
HETATM   17  C1  UNL     1      27.617  98.440  25.547  1.00  0.00     0.005 C 
ENDBRANCH  15  16
ENDBRANCH  14  15
ENDBRANCH  11  14
ENDBRANCH   1  10
BRANCH   4  18
HETATM   18  C10 UNL     1      34.326  94.556  29.216  1.00  0.00     0.258 C 
HETATM   19  O2  UNL     1      34.333  94.385  30.501  1.00  0.00    -0.267 OA
HETATM   20  N2  UNL     1      35.576  94.547  28.593  1.00  0.00    -0.352 N 
ATOM     21  H2  UNL     1      35.620  94.671  27.581  1.00  0.00     0.163 HD
BRANCH  20  22
HETATM   22  C11 UNL     1      36.823  94.368  29.333  1.00  0.00     0.084 A 
HETATM   23  C12 UNL     1      37.604  95.526  29.787  1.00  0.00     0.027 A 
HETATM   24  C13 UNL     1      38.086  94.766  28.549  1.00  0.00     0.027 A 
ENDBRANCH  20  22
ENDBRANCH   4  18
BRANCH   7  25
HETATM   25  C15 UNL     1      30.436  92.673  26.881  1.00  0.00     0.133 C 
BRANCH  25  26
HETATM   26  O4  UNL     1      30.780  92.356  25.664  1.00  0.00    -0.348 OA
ATOM     27  H4  UNL     1      30.072  92.415  25.034  1.00  0.00     0.219 HD
ENDBRANCH  25  26
BRANCH  25  28
HETATM   28  C16 UNL     1      29.408  91.792  27.392  1.00  0.00     0.014 C 
HETATM   29  C17 UNL     1      28.100  91.762  26.654  1.00  0.00     0.023 C 
HETATM   30  C18 UNL     1      30.006  90.339  27.346  1.00  0.00     0.023 C 
HETATM   31  C19 UNL     1      29.128  92.002  28.862  1.00  0.00     0.023 C 
ENDBRANCH  25  28
ENDBRANCH   7  25
TORSDOF 9
ENDMDL
MODEL 2
REMARK VINA RESULT: -5.402456735      2.944      5.409
REMARK  9 active torsions:
REMARK  status: ('A' for Active; 'I' for Inactive)
REMARK    1  A    between atoms: C2_2  and  C3_3 
REMARK    2  A    between atoms: C3_3  and  C4_4 
REMARK    3  A    between atoms: C4_4  and  N1_5 
REMARK       I    between atoms: N1_5  and  C5_7 
REMARK    4  A    between atoms: C5_7  and  C6_9 
REMARK    5  A    between atoms: C9_12  and  C10_13 
REMARK       I    between atoms: C10_13  and  N2_15 
REMARK    6  A    between atoms: N2_15  and  C11_17 
REMARK    7  A    between atoms: N3_22  and  C15_23 
REMARK    8  A    between atoms: C15_23  and  O4_24 
REMARK    9  A    between atoms: C15_23  and  C16_26 
ROOT
HETATM    1  C6  UNL     1      31.922  97.018  28.129  1.00  0.00     0.061 A 
HETATM    2  C7  UNL     1      31.167  96.473  29.150  1.00  0.00    -0.023 A 
HETATM    3  C8  UNL     1      29.679  96.454  29.059  1.00  0.00     0.050 C 
HETATM    4  C9  UNL     1      31.794  95.868  30.214  1.00  0.00     0.107 A 
HETATM    5  C14 UNL     1      33.200  95.830  30.202  1.00  0.00     0.270 A 
HETATM    6  O3  UNL     1      33.666  95.265  31.204  1.00  0.00    -0.266 OA
HETATM    7  N3  UNL     1      33.970  96.343  29.229  1.00  0.00    -0.264 N 
HETATM    8  C20 UNL     1      33.304  96.939  28.201  1.00  0.00     0.034 A 
HETATM    9  C21 UNL     1      34.050  97.628  27.153  1.00  0.00     0.070 C 
ENDROOT
BRANCH   1  10
HETATM   10  C5  UNL     1      31.184  97.684  27.074  1.00  0.00     0.254 C 
HETATM   11  N1  UNL     1      30.709  98.997  27.052  1.00  0.00    -0.357 N 
ATOM     12  H1  UNL     1      30.884  99.585  27.867  1.00  0.00     0.162 HD
HETATM   13  O1  UNL     1      30.941  96.988  26.023  1.00  0.00    -0.268 OA
BRANCH  11  14
HETATM   14  C4  UNL     1      29.991  99.566  25.952  1.00  0.00     0.123 C 
BRANCH  14  15
HETATM   15  C3  UNL     1      28.504  99.627  26.229  1.00  0.00     0.019 C 
BRANCH  15  16
HETATM   16  C2  UNL     1      27.752  98.624  25.382  1.00  0.00    -0.003 C 
HETATM   17  C1  UNL     1      27.583  97.304  26.079  1.00  0.00     0.005 C 
ENDBRANCH  15  16
ENDBRANCH  14  15
ENDBRANCH  11  14
ENDBRANCH   1  10
BRANCH   4  18
HETATM   18  C10 UNL     1      31.014  95.377  31.340  1.00  0.00     0.258 C 
HETATM   19  O2  UNL     1      30.618  96.278  32.185  1.00  0.00    -0.267 OA
HETATM   20  N2  UNL     1      30.634  94.064  31.628  1.00  0.00    -0.352 N 
ATOM     21  H2  UNL     1      30.916  93.322  30.988  1.00  0.00     0.163 HD
BRANCH  20  22
HETATM   22  C11 UNL     1      29.848  93.712  32.808  1.00  0.00     0.084 A 
HETATM   23  C12 UNL     1      30.497  93.188  34.017  1.00  0.00     0.027 A 
HETATM   24  C13 UNL     1      29.779  92.201  33.093  1.00  0.00     0.027 A 
ENDBRANCH  20  22
ENDBRANCH   4  18
BRANCH   7  25
HETATM   25  C15 UNL     1      35.366  96.255  29.240  1.00  0.00     0.133 C 
BRANCH  25  26
HETATM   26  O4  UNL     1      35.965  97.359  29.588  1.00  0.00    -0.348 OA
ATOM     27  H4  UNL     1      36.870  97.242  29.854  1.00  0.00     0.219 HD
ENDBRANCH  25  26
BRANCH  25  28
HETATM   28  C16 UNL     1      36.314  95.202  28.950  1.00  0.00     0.014 C 
HETATM   29  C17 UNL     1      35.756  93.846  28.622  1.00  0.00     0.023 C 
HETATM   30  C18 UNL     1      37.142  95.682  27.703  1.00  0.00     0.023 C 
HETATM   31  C19 UNL     1      37.367  95.043  30.021  1.00  0.00     0.023 C 
ENDBRANCH  25  28
ENDBRANCH   7  25
TORSDOF 9
ENDMDL
MODEL 3
REMARK VINA RESULT: -5.377042366      1.242      5.269
REMARK  9 active torsions:
REMARK  status: ('A' for Active; 'I' for Inactive)
REMARK    1  A    between atoms: C2_2  and  C3_3 
REMARK    2  A    between atoms: C3_3  and  C4_4 
REMARK    3  A    between atoms: C4_4  and  N1_5 
REMARK       I    between atoms: N1_5  and  C5_7 
REMARK    4  A    between atoms: C5_7  and  C6_9 
REMARK    5  A    between atoms: C9_12  and  C10_13 
REMARK       I    between atoms: C10_13  and  N2_15 
REMARK    6  A    between atoms: N2_15  and  C11_17 
REMARK    7  A    between atoms: N3_22  and  C15_23 
REMARK    8  A    between atoms: C15_23  and  O4_24 
REMARK    9  A    between atoms: C15_23  and  C16_26 
ROOT
HETATM    1  C6  UNL     1      31.748  96.249  27.959  1.00  0.00     0.061 A 
HETATM    2  C7  UNL     1      31.094  95.133  27.471  1.00  0.00    -0.023 A 
HETATM    3  C8  UNL     1      29.834  95.281  26.688  1.00  0.00     0.050 C 
HETATM    4  C9  UNL     1      31.654  93.888  27.635  1.00  0.00     0.107 A 
HETATM    5  C14 UNL     1      32.894  93.817  28.297  1.00  0.00     0.270 A 
HETATM    6  O3  UNL     1      33.311  92.652  28.393  1.00  0.00    -0.266 OA
HETATM    7  N3  UNL     1      33.563  94.875  28.782  1.00  0.00    -0.264 N 
HETATM    8  C20 UNL     1      32.963  96.085  28.604  1.00  0.00     0.034 A 
HETATM    9  C21 UNL     1      33.552  97.282  29.196  1.00  0.00     0.070 C 
ENDROOT
BRANCH   1  10
HETATM   10  C5  UNL     1      31.061  97.515  27.793  1.00  0.00     0.254 C 
HETATM   11  N1  UNL     1      31.317  98.516  26.855  1.00  0.00    -0.357 N 
ATOM     12  H1  UNL     1      32.078  98.371  26.191  1.00  0.00     0.162 HD
HETATM   13  O1  UNL     1      30.091  97.745  28.602  1.00  0.00    -0.268 OA
BRANCH  11  14
HETATM   14  C4  UNL     1      30.571  99.736  26.769  1.00  0.00     0.123 C 
BRANCH  14  15
HETATM   15  C3  UNL     1      29.619  99.725  25.592  1.00  0.00     0.019 C 
BRANCH  15  16
HETATM   16  C2  UNL     1      28.191  99.534  26.050  1.00  0.00    -0.003 C 
HETATM   17  C1  UNL     1      27.655  98.177  25.690  1.00  0.00     0.005 C 
ENDBRANCH  15  16
ENDBRANCH  14  15
ENDBRANCH  11  14
ENDBRANCH   1  10
BRANCH   4  18
HETATM   18  C10 UNL     1      30.931  92.698  27.211  1.00  0.00     0.258 C 
HETATM   19  O2  UNL     1      29.971  92.315  27.996  1.00  0.00    -0.267 OA
HETATM   20  N2  UNL     1      31.134  91.918  26.071  1.00  0.00    -0.352 N 
ATOM     21  H2  UNL     1      31.873  92.184  25.420  1.00  0.00     0.163 HD
BRANCH  20  22
HETATM   22  C11 UNL     1      30.328  90.736  25.772  1.00  0.00     0.084 A 
HETATM   23  C12 UNL     1      30.819  89.389  26.091  1.00  0.00     0.027 A 
HETATM   24  C13 UNL     1      30.888  89.861  24.637  1.00  0.00     0.027 A 
ENDBRANCH  20  22
ENDBRANCH   4  18
BRANCH   7  25
HETATM   25  C15 UNL     1      34.808  94.762  29.408  1.00  0.00     0.133 C 
BRANCH  25  26
HETATM   26  O4  UNL     1      34.742  94.495  30.682  1.00  0.00    -0.348 OA
ATOM     27  H4  UNL     1      34.998  93.608  30.906  1.00  0.00     0.219 HD
ENDBRANCH  25  26
BRANCH  25  28
HETATM   28  C16 UNL     1      36.179  94.877  28.958  1.00  0.00     0.014 C 
HETATM   29  C17 UNL     1      36.455  95.835  27.834  1.00  0.00     0.023 C 
HETATM   30  C18 UNL     1      37.014  95.358  30.199  1.00  0.00     0.023 C 
HETATM   31  C19 UNL     1      36.803  93.544  28.619  1.00  0.00     0.023 C 
ENDBRANCH  25  28
ENDBRANCH   7  25
TORSDOF 9
ENDMDL
MODEL 4
REMARK VINA RESULT: -5.352786440      1.037      5.489
REMARK  9 active torsions:
REMARK  status: ('A' for Active; 'I' for Inactive)
REMARK    1  A    between atoms: C2_2  and  C3_3 
REMARK    2  A    between atoms: C3_3  and  C4_4 
REMARK    3  A    between atoms: C4_4  and  N1_5 
REMARK       I    between atoms: N1_5  and  C5_7 
REMARK    4  A    between atoms: C5_7  and  C6_9 
REMARK    5  A    between atoms: C9_12  and  C10_13 
REMARK       I    between atoms: C10_13  and  N2_15 
REMARK    6  A    between atoms: N2_15  and  C11_17 
REMARK    7  A    between atoms: N3_22  and  C15_23 
REMARK    8  A    between atoms: C15_23  and  O4_24 
REMARK    9  A    between atoms: C15_23  and  C16_26 
ROOT
HETATM    1  C6  UNL     1      31.531  96.260  27.909  1.00  0.00     0.061 A 
HETATM    2  C7  UNL     1      30.851  95.209  27.321  1.00  0.00    -0.023 A 
HETATM    3  C8  UNL     1      29.671  95.470  26.448  1.00  0.00     0.050 C 
HETATM    4  C9  UNL     1      31.318  93.925  27.473  1.00  0.00     0.107 A 
HETATM    5  C14 UNL     1      32.492  93.747  28.229  1.00  0.00     0.270 A 
HETATM    6  O3  UNL     1      32.827  92.554  28.305  1.00  0.00    -0.266 OA
HETATM    7  N3  UNL     1      33.183  94.739  28.812  1.00  0.00    -0.264 N 
HETATM    8  C20 UNL     1      32.676  95.991  28.640  1.00  0.00     0.034 A 
HETATM    9  C21 UNL     1      33.287  97.123  29.330  1.00  0.00     0.070 C 
ENDROOT
BRANCH   1  10
HETATM   10  C5  UNL     1      30.940  97.574  27.745  1.00  0.00     0.254 C 
HETATM   11  N1  UNL     1      31.265  98.553  26.805  1.00  0.00    -0.357 N 
ATOM     12  H1  UNL     1      32.010  98.351  26.139  1.00  0.00     0.162 HD
HETATM   13  O1  UNL     1      29.993  97.876  28.558  1.00  0.00    -0.268 OA
BRANCH  11  14
HETATM   14  C4  UNL     1      30.612  99.825  26.723  1.00  0.00     0.123 C 
BRANCH  14  15
HETATM   15  C3  UNL     1      29.596  99.858  25.601  1.00  0.00     0.019 C 
BRANCH  15  16
HETATM   16  C2  UNL     1      28.195  99.648  26.130  1.00  0.00    -0.003 C 
HETATM   17  C1  UNL     1      27.561  98.400  25.582  1.00  0.00     0.005 C 
ENDBRANCH  15  16
ENDBRANCH  14  15
ENDBRANCH  11  14
ENDBRANCH   1  10
BRANCH   4  18
HETATM   18  C10 UNL     1      30.559  92.803  26.941  1.00  0.00     0.258 C 
HETATM   19  O2  UNL     1      30.835  92.466  25.719  1.00  0.00    -0.267 OA
HETATM   20  N2  UNL     1      29.575  92.040  27.576  1.00  0.00    -0.352 N 
ATOM     21  H2  UNL     1      29.329  92.263  28.540  1.00  0.00     0.163 HD
BRANCH  20  22
HETATM   22  C11 UNL     1      28.885  90.936  26.913  1.00  0.00     0.084 A 
HETATM   23  C12 UNL     1      27.450  91.015  26.613  1.00  0.00     0.027 A 
HETATM   24  C13 UNL     1      27.895  90.178  27.814  1.00  0.00     0.027 A 
ENDBRANCH  20  22
ENDBRANCH   4  18
BRANCH   7  25
HETATM   25  C15 UNL     1      34.363  94.521  29.529  1.00  0.00     0.133 C 
BRANCH  25  26
HETATM   26  O4  UNL     1      34.176  94.218  30.783  1.00  0.00    -0.348 OA
ATOM     27  H4  UNL     1      34.405  94.913  31.388  1.00  0.00     0.219 HD
ENDBRANCH  25  26
BRANCH  25  28
HETATM   28  C16 UNL     1      35.771  94.555  29.192  1.00  0.00     0.014 C 
HETATM   29  C17 UNL     1      36.213  95.582  28.189  1.00  0.00     0.023 C 
HETATM   30  C18 UNL     1      36.540  94.847  30.532  1.00  0.00     0.023 C 
HETATM   31  C19 UNL     1      36.310  93.208  28.773  1.00  0.00     0.023 C 
ENDBRANCH  25  28
ENDBRANCH   7  25
TORSDOF 9
ENDMDL
MODEL 5
REMARK VINA RESULT: -5.347986436      1.678      5.528
REMARK  9 active torsions:
REMARK  status: ('A' for Active; 'I' for Inactive)
REMARK    1  A    between atoms: C2_2  and  C3_3 
REMARK    2  A    between atoms: C3_3  and  C4_4 
REMARK    3  A    between atoms: C4_4  and  N1_5 
REMARK       I    between atoms: N1_5  and  C5_7 
REMARK    4  A    between atoms: C5_7  and  C6_9 
REMARK    5  A    between atoms: C9_12  and  C10_13 
REMARK       I    between atoms: C10_13  and  N2_15 
REMARK    6  A    between atoms: N2_15  and  C11_17 
REMARK    7  A    between atoms: N3_22  and  C15_23 
REMARK    8  A    between atoms: C15_23  and  O4_24 
REMARK    9  A    between atoms: C15_23  and  C16_26 
ROOT
HETATM    1  C6  UNL     1      31.789  96.283  27.340  1.00  0.00     0.061 A 
HETATM    2  C7  UNL     1      30.736  95.404  27.164  1.00  0.00    -0.023 A 
HETATM    3  C8  UNL     1      29.574  95.782  26.311  1.00  0.00     0.050 C 
HETATM    4  C9  UNL     1      30.802  94.143  27.709  1.00  0.00     0.107 A 
HETATM    5  C14 UNL     1      31.966  93.806  28.425  1.00  0.00     0.270 A 
HETATM    6  O3  UNL     1      31.925  92.650  28.874  1.00  0.00    -0.266 OA
HETATM    7  N3  UNL     1      33.011  94.627  28.615  1.00  0.00    -0.264 N 
HETATM    8  C20 UNL     1      32.895  95.867  28.064  1.00  0.00     0.034 A 
HETATM    9  C21 UNL     1      33.924  96.872  28.312  1.00  0.00     0.070 C 
ENDROOT
BRANCH   1  10
HETATM   10  C5  UNL     1      31.614  97.609  26.780  1.00  0.00     0.254 C 
HETATM   11  N1  UNL     1      30.819  98.649  27.265  1.00  0.00    -0.357 N 
ATOM     12  H1  UNL     1      30.279  98.486  28.115  1.00  0.00     0.162 HD
HETATM   13  O1  UNL     1      32.276  97.866  25.711  1.00  0.00    -0.268 OA
BRANCH  11  14
HETATM   14  C4  UNL     1      30.719  99.933  26.637  1.00  0.00     0.123 C 
BRANCH  14  15
HETATM   15  C3  UNL     1      29.558  99.989  25.667  1.00  0.00     0.019 C 
BRANCH  15  16
HETATM   16  C2  UNL     1      28.270  99.565  26.337  1.00  0.00    -0.003 C 
HETATM   17  C1  UNL     1      27.477  98.610  25.490  1.00  0.00     0.005 C 
ENDBRANCH  15  16
ENDBRANCH  14  15
ENDBRANCH  11  14
ENDBRANCH   1  10
BRANCH   4  18
HETATM   18  C10 UNL     1      29.662  93.244  27.614  1.00  0.00     0.258 C 
HETATM   19  O2  UNL     1      29.622  92.497  26.554  1.00  0.00    -0.267 OA
HETATM   20  N2  UNL     1      28.607  93.080  28.515  1.00  0.00    -0.352 N 
ATOM     21  H2  UNL     1      28.599  93.641  29.366  1.00  0.00     0.163 HD
BRANCH  20  22
HETATM   22  C11 UNL     1      27.516  92.135  28.286  1.00  0.00     0.084 A 
HETATM   23  C12 UNL     1      26.298  92.548  27.576  1.00  0.00     0.027 A 
HETATM   24  C13 UNL     1      26.244  92.430  29.101  1.00  0.00     0.027 A 
ENDBRANCH  20  22
ENDBRANCH   4  18
BRANCH   7  25
HETATM   25  C15 UNL     1      34.163  94.241  29.307  1.00  0.00     0.133 C 
BRANCH  25  26
HETATM   26  O4  UNL     1      35.033  93.601  28.577  1.00  0.00    -0.348 OA
ATOM     27  H4  UNL     1      34.653  93.125  27.848  1.00  0.00     0.219 HD
ENDBRANCH  25  26
BRANCH  25  28
HETATM   28  C16 UNL     1      34.619  94.390  30.672  1.00  0.00     0.014 C 
HETATM   29  C17 UNL     1      33.718  95.128  31.621  1.00  0.00     0.023 C 
HETATM   30  C18 UNL     1      34.807  92.936  31.239  1.00  0.00     0.023 C 
HETATM   31  C19 UNL     1      36.007  94.979  30.769  1.00  0.00     0.023 C 
ENDBRANCH  25  28
ENDBRANCH   7  25
TORSDOF 9
ENDMDL
