MODEL 1
REMARK VINA RESULT: -7.190005778      0.000      0.000
REMARK  7 active torsions:
REMARK  status: ('A' for Active; 'I' for Inactive)
REMARK    1  A    between atoms: O1_2  and  C2_3 
REMARK    2  A    between atoms: C2_3  and  C3_4 
REMARK    3  A    between atoms: C3_4  and  O2_6 
REMARK    4  A    between atoms: C3_4  and  C21_31 
REMARK    5  A    between atoms: O2_6  and  C5_7 
REMARK    6  A    between atoms: C7_11  and  C8_12 
REMARK    7  A    between atoms: N3_19  and  C13_20 
ROOT
HETATM    1  C5  UNL     1     -28.516  11.100 -90.471  1.00  0.00     0.159 A 
HETATM    2  N1  UNL     1     -28.629  10.163 -89.506  1.00  0.00    -0.345 N 
ATOM      3  H1  UNL     1     -27.924   9.428 -89.456  1.00  0.00     0.167 HD
HETATM    4  C6  UNL     1     -29.630  10.154 -88.609  1.00  0.00     0.100 A 
HETATM    5  C7  UNL     1     -30.623  11.109 -88.605  1.00  0.00    -0.006 A 
HETATM    6  C12 UNL     1     -30.549  12.093 -89.579  1.00  0.00     0.075 A 
HETATM    7  N2  UNL     1     -31.352  13.143 -89.832  1.00  0.00    -0.290 N 
ATOM      8  H2  UNL     1     -32.194  13.391 -89.312  1.00  0.00     0.187 HD
HETATM    9  N3  UNL     1     -30.867  13.793 -90.862  1.00  0.00    -0.239 N 
HETATM   10  C19 UNL     1     -29.726  13.170 -91.301  1.00  0.00     0.138 A 
HETATM   11  N4  UNL     1     -29.012  13.554 -92.289  1.00  0.00    -0.383 N 
ATOM     12  H41 UNL     1     -28.164  13.090 -92.616  1.00  0.00     0.157 HD
ATOM     13  H42 UNL     1     -29.180  14.364 -92.886  1.00  0.00     0.157 HD
HETATM   14  C20 UNL     1     -29.501  12.082 -90.500  1.00  0.00     0.089 A 
ENDROOT
BRANCH   1  15
HETATM   15  O2  UNL     1     -27.530  11.149 -91.392  1.00  0.00    -0.316 OA
BRANCH  15  16
HETATM   16  C3  UNL     1     -26.181  11.522 -91.263  1.00  0.00     0.145 C 
HETATM   17  C4  UNL     1     -26.186  12.449 -89.961  1.00  0.00     0.054 C 
BRANCH  16  18
HETATM   18  C2  UNL     1     -25.674  12.381 -92.323  1.00  0.00     0.210 C 
BRANCH  18  19
HETATM   19  O1  UNL     1     -26.463  12.691 -93.362  1.00  0.00    -0.393 OA
HETATM   20  C1  UNL     1     -26.247  13.799 -94.109  1.00  0.00     0.201 C 
ENDBRANCH  18  19
ENDBRANCH  16  18
BRANCH  16  21
HETATM   21  C21 UNL     1     -25.379  10.373 -90.806  1.00  0.00     0.389 C 
HETATM   22  F1  UNL     1     -25.257  10.278 -89.426  1.00  0.00    -0.211 F 
HETATM   23  F2  UNL     1     -25.976   9.170 -91.250  1.00  0.00    -0.211 F 
ENDBRANCH  16  21
ENDBRANCH  15  16
ENDBRANCH   1  15
BRANCH   5  24
HETATM   24  C8  UNL     1     -31.733  11.093 -87.606  1.00  0.00    -0.021 C 
HETATM   25  C9  UNL     1     -33.053  11.251 -88.289  1.00  0.00     0.019 C 
HETATM   26  C10 UNL     1     -31.708   9.734 -86.928  1.00  0.00     0.019 C 
HETATM   27  C11 UNL     1     -31.510  12.120 -86.519  1.00  0.00     0.019 C 
ENDBRANCH   5  24
BRANCH   9  28
HETATM   28  C13 UNL     1     -31.416  14.960 -91.449  1.00  0.00     0.058 A 
HETATM   29  C14 UNL     1     -32.273  14.933 -92.527  1.00  0.00     0.031 A 
HETATM   30  C15 UNL     1     -32.782  16.071 -93.066  1.00  0.00     0.002 A 
HETATM   31  C16 UNL     1     -32.454  17.312 -92.545  1.00  0.00     0.000 A 
HETATM   32  C17 UNL     1     -31.599  17.357 -91.467  1.00  0.00     0.002 A 
HETATM   33  C18 UNL     1     -31.079  16.187 -90.917  1.00  0.00     0.031 A 
ENDBRANCH   9  28
TORSDOF 7
ENDMDL
MODEL 2
REMARK VINA RESULT: -7.055095082      3.256      5.958
REMARK  7 active torsions:
REMARK  status: ('A' for Active; 'I' for Inactive)
REMARK    1  A    between atoms: O1_2  and  C2_3 
REMARK    2  A    between atoms: C2_3  and  C3_4 
REMARK    3  A    between atoms: C3_4  and  O2_6 
REMARK    4  A    between atoms: C3_4  and  C21_31 
REMARK    5  A    between atoms: O2_6  and  C5_7 
REMARK    6  A    between atoms: C7_11  and  C8_12 
REMARK    7  A    between atoms: N3_19  and  C13_20 
ROOT
HETATM    1  C5  UNL     1     -31.447  14.660 -90.890  1.00  0.00     0.159 A 
HETATM    2  N1  UNL     1     -32.395  15.139 -90.057  1.00  0.00    -0.345 N 
ATOM      3  H1  UNL     1     -33.085  15.792 -90.429  1.00  0.00     0.167 HD
HETATM    4  C6  UNL     1     -32.471  14.795 -88.760  1.00  0.00     0.100 A 
HETATM    5  C7  UNL     1     -31.580  13.919 -88.179  1.00  0.00    -0.006 A 
HETATM    6  C12 UNL     1     -30.588  13.401 -88.996  1.00  0.00     0.075 A 
HETATM    7  N2  UNL     1     -29.588  12.539 -88.729  1.00  0.00    -0.290 N 
ATOM      8  H2  UNL     1     -29.396  12.108 -87.825  1.00  0.00     0.187 HD
HETATM    9  N3  UNL     1     -28.905  12.349 -89.831  1.00  0.00    -0.239 N 
HETATM   10  C19 UNL     1     -29.453  13.092 -90.846  1.00  0.00     0.138 A 
HETATM   11  N4  UNL     1     -29.021  13.129 -92.048  1.00  0.00    -0.383 N 
ATOM     12  H41 UNL     1     -29.429  13.681 -92.802  1.00  0.00     0.157 HD
ATOM     13  H42 UNL     1     -28.220  12.621 -92.425  1.00  0.00     0.157 HD
HETATM   14  C20 UNL     1     -30.529  13.773 -90.340  1.00  0.00     0.089 A 
ENDROOT
BRANCH   1  15
HETATM   15  O2  UNL     1     -31.332  14.977 -92.198  1.00  0.00    -0.316 OA
BRANCH  15  16
HETATM   16  C3  UNL     1     -30.816  16.132 -92.813  1.00  0.00     0.145 C 
HETATM   17  C4  UNL     1     -32.131  16.902 -93.294  1.00  0.00     0.054 C 
BRANCH  16  18
HETATM   18  C2  UNL     1     -30.061  15.895 -94.035  1.00  0.00     0.210 C 
BRANCH  18  19
HETATM   19  O1  UNL     1     -30.052  14.671 -94.584  1.00  0.00    -0.393 OA
HETATM   20  C1  UNL     1     -29.022  14.250 -95.356  1.00  0.00     0.201 C 
ENDBRANCH  18  19
ENDBRANCH  16  18
BRANCH  16  21
HETATM   21  C21 UNL     1     -30.288  17.055 -91.793  1.00  0.00     0.389 C 
HETATM   22  F1  UNL     1     -29.214  17.822 -92.223  1.00  0.00    -0.211 F 
HETATM   23  F2  UNL     1     -31.303  17.956 -91.394  1.00  0.00    -0.211 F 
ENDBRANCH  16  21
ENDBRANCH  15  16
ENDBRANCH   1  15
BRANCH   5  24
HETATM   24  C8  UNL     1     -31.669  13.541 -86.736  1.00  0.00    -0.021 C 
HETATM   25  C9  UNL     1     -30.771  14.408 -85.914  1.00  0.00     0.019 C 
HETATM   26  C10 UNL     1     -33.102  13.786 -86.295  1.00  0.00     0.019 C 
HETATM   27  C11 UNL     1     -31.403  12.067 -86.537  1.00  0.00     0.019 C 
ENDBRANCH   5  24
BRANCH   9  28
HETATM   28  C13 UNL     1     -27.771  11.511 -89.978  1.00  0.00     0.058 A 
HETATM   29  C14 UNL     1     -26.494  11.992 -90.164  1.00  0.00     0.031 A 
HETATM   30  C15 UNL     1     -25.428  11.161 -90.301  1.00  0.00     0.002 A 
HETATM   31  C16 UNL     1     -25.590   9.787 -90.258  1.00  0.00     0.000 A 
HETATM   32  C17 UNL     1     -26.860   9.288 -90.072  1.00  0.00     0.002 A 
HETATM   33  C18 UNL     1     -27.951  10.144 -89.932  1.00  0.00     0.031 A 
ENDBRANCH   9  28
TORSDOF 7
ENDMDL
MODEL 3
REMARK VINA RESULT: -7.034107078      3.055      6.058
REMARK  7 active torsions:
REMARK  status: ('A' for Active; 'I' for Inactive)
REMARK    1  A    between atoms: O1_2  and  C2_3 
REMARK    2  A    between atoms: C2_3  and  C3_4 
REMARK    3  A    between atoms: C3_4  and  O2_6 
REMARK    4  A    between atoms: C3_4  and  C21_31 
REMARK    5  A    between atoms: O2_6  and  C5_7 
REMARK    6  A    between atoms: C7_11  and  C8_12 
REMARK    7  A    between atoms: N3_19  and  C13_20 
ROOT
HETATM    1  C5  UNL     1     -31.389  14.484 -91.155  1.00  0.00     0.159 A 
HETATM    2  N1  UNL     1     -32.371  14.963 -90.362  1.00  0.00    -0.345 N 
ATOM      3  H1  UNL     1     -33.062  15.593 -90.770  1.00  0.00     0.167 HD
HETATM    4  C6  UNL     1     -32.478  14.650 -89.059  1.00  0.00     0.100 A 
HETATM    5  C7  UNL     1     -31.587  13.808 -88.430  1.00  0.00    -0.006 A 
HETATM    6  C12 UNL     1     -30.561  13.290 -89.205  1.00  0.00     0.075 A 
HETATM    7  N2  UNL     1     -29.553  12.456 -88.887  1.00  0.00    -0.290 N 
ATOM      8  H2  UNL     1     -29.379  12.052 -87.967  1.00  0.00     0.187 HD
HETATM    9  N3  UNL     1     -28.833  12.253 -89.964  1.00  0.00    -0.239 N 
HETATM   10  C19 UNL     1     -29.366  12.959 -91.013  1.00  0.00     0.138 A 
HETATM   11  N4  UNL     1     -28.899  12.975 -92.202  1.00  0.00    -0.383 N 
ATOM     12  H41 UNL     1     -29.296  13.499 -92.982  1.00  0.00     0.157 HD
ATOM     13  H42 UNL     1     -28.078  12.475 -92.543  1.00  0.00     0.157 HD
HETATM   14  C20 UNL     1     -30.470  13.629 -90.555  1.00  0.00     0.089 A 
ENDROOT
BRANCH   1  15
HETATM   15  O2  UNL     1     -31.242  14.770 -92.466  1.00  0.00    -0.316 OA
BRANCH  15  16
HETATM   16  C3  UNL     1     -31.015  16.000 -93.109  1.00  0.00     0.145 C 
HETATM   17  C4  UNL     1     -30.362  16.894 -91.958  1.00  0.00     0.054 C 
BRANCH  16  18
HETATM   18  C2  UNL     1     -32.217  16.723 -93.499  1.00  0.00     0.210 C 
BRANCH  18  19
HETATM   19  O1  UNL     1     -33.293  16.044 -93.924  1.00  0.00    -0.393 OA
HETATM   20  C1  UNL     1     -34.537  16.342 -93.482  1.00  0.00     0.201 C 
ENDBRANCH  18  19
ENDBRANCH  16  18
BRANCH  16  21
HETATM   21  C21 UNL     1     -29.895  15.876 -94.059  1.00  0.00     0.389 C 
HETATM   22  F1  UNL     1     -28.641  16.013 -93.481  1.00  0.00    -0.211 F 
HETATM   23  F2  UNL     1     -29.929  14.601 -94.672  1.00  0.00    -0.211 F 
ENDBRANCH  16  21
ENDBRANCH  15  16
ENDBRANCH   1  15
BRANCH   5  24
HETATM   24  C8  UNL     1     -31.711  13.464 -86.982  1.00  0.00    -0.021 C 
HETATM   25  C9  UNL     1     -30.834  14.350 -86.159  1.00  0.00     0.019 C 
HETATM   26  C10 UNL     1     -33.154  13.719 -86.581  1.00  0.00     0.019 C 
HETATM   27  C11 UNL     1     -31.451  11.994 -86.741  1.00  0.00     0.019 C 
ENDBRANCH   5  24
BRANCH   9  28
HETATM   28  C13 UNL     1     -27.679  11.436 -90.056  1.00  0.00     0.058 A 
HETATM   29  C14 UNL     1     -26.406  11.938 -90.209  1.00  0.00     0.031 A 
HETATM   30  C15 UNL     1     -25.320  11.126 -90.295  1.00  0.00     0.002 A 
HETATM   31  C16 UNL     1     -25.457   9.750 -90.229  1.00  0.00     0.000 A 
HETATM   32  C17 UNL     1     -26.722   9.230 -90.076  1.00  0.00     0.002 A 
HETATM   33  C18 UNL     1     -27.834  10.066 -89.989  1.00  0.00     0.031 A 
ENDBRANCH   9  28
TORSDOF 7
ENDMDL
MODEL 4
REMARK VINA RESULT: -6.876126283      3.570      6.248
REMARK  7 active torsions:
REMARK  status: ('A' for Active; 'I' for Inactive)
REMARK    1  A    between atoms: O1_2  and  C2_3 
REMARK    2  A    between atoms: C2_3  and  C3_4 
REMARK    3  A    between atoms: C3_4  and  O2_6 
REMARK    4  A    between atoms: C3_4  and  C21_31 
REMARK    5  A    between atoms: O2_6  and  C5_7 
REMARK    6  A    between atoms: C7_11  and  C8_12 
REMARK    7  A    between atoms: N3_19  and  C13_20 
ROOT
HETATM    1  C5  UNL     1     -31.266  14.788 -90.955  1.00  0.00     0.159 A 
HETATM    2  N1  UNL     1     -32.232  15.268 -90.144  1.00  0.00    -0.345 N 
ATOM      3  H1  UNL     1     -32.883  15.959 -90.519  1.00  0.00     0.167 HD
HETATM    4  C6  UNL     1     -32.375  14.879 -88.866  1.00  0.00     0.100 A 
HETATM    5  C7  UNL     1     -31.540  13.951 -88.282  1.00  0.00    -0.006 A 
HETATM    6  C12 UNL     1     -30.532  13.429 -89.077  1.00  0.00     0.075 A 
HETATM    7  N2  UNL     1     -29.574  12.523 -88.802  1.00  0.00    -0.290 N 
ATOM      8  H2  UNL     1     -29.435  12.053 -87.908  1.00  0.00     0.187 HD
HETATM    9  N3  UNL     1     -28.850  12.351 -89.882  1.00  0.00    -0.239 N 
HETATM   10  C19 UNL     1     -29.330  13.150 -90.889  1.00  0.00     0.138 A 
HETATM   11  N4  UNL     1     -28.845  13.216 -92.069  1.00  0.00    -0.383 N 
ATOM     12  H41 UNL     1     -29.202  13.810 -92.818  1.00  0.00     0.157 HD
ATOM     13  H42 UNL     1     -28.046  12.696 -92.432  1.00  0.00     0.157 HD
HETATM   14  C20 UNL     1     -30.403  13.849 -90.401  1.00  0.00     0.089 A 
ENDROOT
BRANCH   1  15
HETATM   15  O2  UNL     1     -31.085  15.149 -92.244  1.00  0.00    -0.316 OA
BRANCH  15  16
HETATM   16  C3  UNL     1     -30.587  16.344 -92.792  1.00  0.00     0.145 C 
HETATM   17  C4  UNL     1     -29.932  15.865 -94.168  1.00  0.00     0.054 C 
BRANCH  16  18
HETATM   18  C2  UNL     1     -29.489  16.951 -92.054  1.00  0.00     0.210 C 
BRANCH  18  19
HETATM   19  O1  UNL     1     -29.055  18.175 -92.394  1.00  0.00    -0.393 OA
HETATM   20  C1  UNL     1     -29.084  19.205 -91.516  1.00  0.00     0.201 C 
ENDBRANCH  18  19
ENDBRANCH  16  18
BRANCH  16  21
HETATM   21  C21 UNL     1     -31.700  17.184 -93.270  1.00  0.00     0.389 C 
HETATM   22  F1  UNL     1     -32.761  16.469 -93.809  1.00  0.00    -0.211 F 
HETATM   23  F2  UNL     1     -32.219  17.943 -92.196  1.00  0.00    -0.211 F 
ENDBRANCH  16  21
ENDBRANCH  15  16
ENDBRANCH   1  15
BRANCH   5  24
HETATM   24  C8  UNL     1     -31.703  13.523 -86.860  1.00  0.00    -0.021 C 
HETATM   25  C9  UNL     1     -30.821  14.333 -85.967  1.00  0.00     0.019 C 
HETATM   26  C10 UNL     1     -33.147  13.792 -86.473  1.00  0.00     0.019 C 
HETATM   27  C11 UNL     1     -31.486  12.035 -86.706  1.00  0.00     0.019 C 
ENDBRANCH   5  24
BRANCH   9  28
HETATM   28  C13 UNL     1     -27.740  11.480 -90.013  1.00  0.00     0.058 A 
HETATM   29  C14 UNL     1     -26.448  11.922 -90.192  1.00  0.00     0.031 A 
HETATM   30  C15 UNL     1     -25.406  11.060 -90.315  1.00  0.00     0.002 A 
HETATM   31  C16 UNL     1     -25.607   9.691 -90.264  1.00  0.00     0.000 A 
HETATM   32  C17 UNL     1     -26.893   9.231 -90.086  1.00  0.00     0.002 A 
HETATM   33  C18 UNL     1     -27.960  10.119 -89.960  1.00  0.00     0.031 A 
ENDBRANCH   9  28
TORSDOF 7
ENDMDL
MODEL 5
REMARK VINA RESULT: -6.689442192      2.765      5.782
REMARK  7 active torsions:
REMARK  status: ('A' for Active; 'I' for Inactive)
REMARK    1  A    between atoms: O1_2  and  C2_3 
REMARK    2  A    between atoms: C2_3  and  C3_4 
REMARK    3  A    between atoms: C3_4  and  O2_6 
REMARK    4  A    between atoms: C3_4  and  C21_31 
REMARK    5  A    between atoms: O2_6  and  C5_7 
REMARK    6  A    between atoms: C7_11  and  C8_12 
REMARK    7  A    between atoms: N3_19  and  C13_20 
ROOT
HETATM    1  C5  UNL     1     -29.634  11.933 -90.680  1.00  0.00     0.159 A 
HETATM    2  N1  UNL     1     -29.527  10.928 -89.785  1.00  0.00    -0.345 N 
ATOM      3  H1  UNL     1     -30.343  10.688 -89.223  1.00  0.00     0.167 HD
HETATM    4  C6  UNL     1     -28.393  10.229 -89.602  1.00  0.00     0.100 A 
HETATM    5  C7  UNL     1     -27.246  10.487 -90.320  1.00  0.00    -0.006 A 
HETATM    6  C12 UNL     1     -27.308  11.512 -91.251  1.00  0.00     0.075 A 
HETATM    7  N2  UNL     1     -26.373  11.996 -92.091  1.00  0.00    -0.290 N 
ATOM      8  H2  UNL     1     -25.414  11.661 -92.174  1.00  0.00     0.187 HD
HETATM    9  N3  UNL     1     -26.908  12.973 -92.782  1.00  0.00    -0.239 N 
HETATM   10  C19 UNL     1     -28.215  13.144 -92.400  1.00  0.00     0.138 A 
HETATM   11  N4  UNL     1     -29.015  14.016 -92.883  1.00  0.00    -0.383 N 
ATOM     12  H41 UNL     1     -29.987  14.142 -92.598  1.00  0.00     0.157 HD
ATOM     13  H42 UNL     1     -28.807  14.701 -93.609  1.00  0.00     0.157 HD
HETATM   14  C20 UNL     1     -28.495  12.224 -91.424  1.00  0.00     0.089 A 
ENDROOT
BRANCH   1  15
HETATM   15  O2  UNL     1     -30.750  12.661 -90.898  1.00  0.00    -0.316 OA
BRANCH  15  16
HETATM   16  C3  UNL     1     -31.246  13.791 -90.223  1.00  0.00     0.145 C 
HETATM   17  C4  UNL     1     -32.226  13.158 -89.132  1.00  0.00     0.054 C 
BRANCH  16  18
HETATM   18  C2  UNL     1     -32.097  14.661 -91.020  1.00  0.00     0.210 C 
BRANCH  18  19
HETATM   19  O1  UNL     1     -31.851  14.814 -92.330  1.00  0.00    -0.393 OA
HETATM   20  C1  UNL     1     -32.444  15.794 -93.052  1.00  0.00     0.201 C 
ENDBRANCH  18  19
ENDBRANCH  16  18
BRANCH  16  21
HETATM   21  C21 UNL     1     -30.193  14.375 -89.373  1.00  0.00     0.389 C 
HETATM   22  F1  UNL     1     -30.240  15.760 -89.281  1.00  0.00    -0.211 F 
HETATM   23  F2  UNL     1     -30.309  13.872 -88.056  1.00  0.00    -0.211 F 
ENDBRANCH  16  21
ENDBRANCH  15  16
ENDBRANCH   1  15
BRANCH   5  24
HETATM   24  C8  UNL     1     -25.989   9.708 -90.111  1.00  0.00    -0.021 C 
HETATM   25  C9  UNL     1     -24.798  10.607 -90.192  1.00  0.00     0.019 C 
HETATM   26  C10 UNL     1     -26.050   9.124 -88.710  1.00  0.00     0.019 C 
HETATM   27  C11 UNL     1     -25.904   8.536 -91.063  1.00  0.00     0.019 C 
ENDBRANCH   5  24
BRANCH   9  28
HETATM   28  C13 UNL     1     -26.259  13.749 -93.775  1.00  0.00     0.058 A 
HETATM   29  C14 UNL     1     -26.745  13.901 -95.054  1.00  0.00     0.031 A 
HETATM   30  C15 UNL     1     -26.097  14.652 -95.982  1.00  0.00     0.002 A 
HETATM   31  C16 UNL     1     -24.912  15.297 -95.671  1.00  0.00     0.000 A 
HETATM   32  C17 UNL     1     -24.411  15.155 -94.396  1.00  0.00     0.002 A 
HETATM   33  C18 UNL     1     -25.079  14.384 -93.447  1.00  0.00     0.031 A 
ENDBRANCH   9  28
TORSDOF 7
ENDMDL
