MODEL 1
REMARK VINA RESULT: -7.228824583      0.000      0.000
REMARK  8 active torsions:
REMARK  status: ('A' for Active; 'I' for Inactive)
REMARK    1  A    between atoms: N1_1  and  N2_4 
REMARK    2  A    between atoms: N2_4  and  C1_5 
REMARK    3  A    between atoms: C1_5  and  N3_6 
REMARK    4  A    between atoms: N4_9  and  C4_10 
REMARK    5  A    between atoms: C5_13  and  N6_14 
REMARK    6  A    between atoms: N6_14  and  C6_16 
REMARK    7  A    between atoms: C6_16  and  C7_17 
REMARK    8  A    between atoms: C7_17  and  N7_18 
ROOT
HETATM    1  C4  UNL     1     -21.800  -7.347 -15.577  1.00  0.00     0.127 A 
HETATM    2  N5  UNL     1     -20.684  -7.675 -14.875  1.00  0.00    -0.176 N 
ATOM      3  H5  UNL     1     -20.508  -8.655 -14.656  1.00  0.00     0.186 HD
HETATM    4  C5  UNL     1     -19.804  -6.747 -14.460  1.00  0.00     0.679 A 
HETATM    5  N10 UNL     1     -20.055  -5.459 -14.758  1.00  0.00    -0.195 N 
ATOM      6  H10 UNL     1     -19.393  -4.747 -14.447  1.00  0.00     0.184 HD
HETATM    7  C9  UNL     1     -21.148  -5.069 -15.455  1.00  0.00     0.036 A 
HETATM    8  C10 UNL     1     -22.039  -6.031 -15.875  1.00  0.00     0.009 A 
HETATM    9  C11 UNL     1     -23.218  -5.633 -16.643  1.00  0.00     0.044 C 
HETATM   10  C12 UNL     1     -22.764  -4.558 -17.636  1.00  0.00     0.005 C 
HETATM   11  C13 UNL     1     -22.144  -3.371 -16.993  1.00  0.00     0.006 C 
HETATM   12  C14 UNL     1     -21.383  -3.638 -15.750  1.00  0.00     0.058 C 
ENDROOT
BRANCH   1  13
HETATM   13  N4  UNL     1     -22.737  -8.324 -16.000  1.00  0.00    -0.363 N 
HETATM   14  C3  UNL     1     -23.951  -8.620 -15.258  1.00  0.00     0.144 C 
HETATM   15  C2  UNL     1     -24.010 -10.110 -14.936  1.00  0.00     0.144 C 
HETATM   16  N3  UNL     1     -23.411 -10.875 -16.003  1.00  0.00    -0.362 N 
HETATM   17  C16 UNL     1     -23.334 -10.270 -17.302  1.00  0.00     0.144 C 
HETATM   18  C15 UNL     1     -22.450  -9.052 -17.221  1.00  0.00     0.144 C 
BRANCH  16  19
HETATM   19  C1  UNL     1     -22.919 -12.168 -15.771  1.00  0.00     0.299 C 
BRANCH  19  20
HETATM   20  N2  UNL     1     -23.159 -12.840 -14.752  1.00  0.00    -0.329 NA
BRANCH  20  21
HETATM   21  N1  UNL     1     -23.669 -13.453 -13.789  1.00  0.00    -0.279 N 
ATOM     22  H12 UNL     1     -23.926 -12.579 -13.332  1.00  0.00     0.191 HD
ATOM     23  H11 UNL     1     -24.019 -14.141 -13.123  1.00  0.00     0.191 HD
ENDBRANCH  20  21
ENDBRANCH  19  20
ENDBRANCH  16  19
ENDBRANCH   1  13
BRANCH   4  24
HETATM   24  N6  UNL     1     -18.748  -7.085 -13.791  1.00  0.00    -0.224 N 
ATOM     25  H6  UNL     1     -18.876  -7.655 -12.955  1.00  0.00     0.177 HD
BRANCH  24  26
HETATM   26  C6  UNL     1     -17.418  -6.714 -14.143  1.00  0.00     0.157 C 
BRANCH  26  27
HETATM   27  C7  UNL     1     -16.424  -7.780 -13.739  1.00  0.00     0.142 C 
BRANCH  27  28
HETATM   28  N7  UNL     1     -16.153  -8.697 -14.827  1.00  0.00    -0.365 N 
HETATM   29  C8  UNL     1     -16.743  -9.835 -14.912  1.00  0.00     0.197 C 
HETATM   30  N8  UNL     1     -16.441 -10.693 -15.995  1.00  0.00    -0.067 NA
HETATM   31  N9  UNL     1     -17.679 -10.209 -13.928  1.00  0.00    -0.067 NA
ATOM     32  H7  UNL     1     -15.476  -8.434 -15.543  1.00  0.00     0.161 HD
ENDBRANCH  27  28
ENDBRANCH  26  27
ENDBRANCH  24  26
ENDBRANCH   4  24
TORSDOF 8
ENDMDL
MODEL 2
REMARK VINA RESULT: -7.154263953      1.227      1.688
REMARK  8 active torsions:
REMARK  status: ('A' for Active; 'I' for Inactive)
REMARK    1  A    between atoms: N1_1  and  N2_4 
REMARK    2  A    between atoms: N2_4  and  C1_5 
REMARK    3  A    between atoms: C1_5  and  N3_6 
REMARK    4  A    between atoms: N4_9  and  C4_10 
REMARK    5  A    between atoms: C5_13  and  N6_14 
REMARK    6  A    between atoms: N6_14  and  C6_16 
REMARK    7  A    between atoms: C6_16  and  C7_17 
REMARK    8  A    between atoms: C7_17  and  N7_18 
ROOT
HETATM    1  C4  UNL     1     -22.056  -6.027 -16.370  1.00  0.00     0.127 A 
HETATM    2  N5  UNL     1     -20.783  -6.150 -15.910  1.00  0.00    -0.176 N 
ATOM      3  H5  UNL     1     -20.424  -7.079 -15.691  1.00  0.00     0.186 HD
HETATM    4  C5  UNL     1     -19.984  -5.083 -15.732  1.00  0.00     0.679 A 
HETATM    5  N10 UNL     1     -20.477  -3.866 -16.025  1.00  0.00    -0.195 N 
ATOM      6  H10 UNL     1     -19.878  -3.051 -15.893  1.00  0.00     0.184 HD
HETATM    7  C9  UNL     1     -21.735  -3.679 -16.487  1.00  0.00     0.036 A 
HETATM    8  C10 UNL     1     -22.542  -4.780 -16.665  1.00  0.00     0.009 A 
HETATM    9  C11 UNL     1     -23.900  -4.603 -17.180  1.00  0.00     0.044 C 
HETATM   10  C12 UNL     1     -23.824  -3.551 -18.291  1.00  0.00     0.005 C 
HETATM   11  C13 UNL     1     -23.267  -2.248 -17.848  1.00  0.00     0.006 C 
HETATM   12  C14 UNL     1     -22.235  -2.318 -16.787  1.00  0.00     0.058 C 
ENDROOT
BRANCH   1  13
HETATM   13  N4  UNL     1     -22.905  -7.150 -16.540  1.00  0.00    -0.363 N 
HETATM   14  C3  UNL     1     -23.870  -7.564 -15.535  1.00  0.00     0.144 C 
HETATM   15  C2  UNL     1     -23.633  -9.025 -15.162  1.00  0.00     0.144 C 
HETATM   16  N3  UNL     1     -23.173  -9.765 -16.313  1.00  0.00    -0.362 N 
HETATM   17  C16 UNL     1     -23.473  -9.239 -17.613  1.00  0.00     0.144 C 
HETATM   18  C15 UNL     1     -22.786  -7.907 -17.771  1.00  0.00     0.144 C 
BRANCH  16  19
HETATM   19  C1  UNL     1     -22.455 -10.960 -16.157  1.00  0.00     0.299 C 
BRANCH  19  20
HETATM   20  N2  UNL     1     -22.603 -11.753 -15.211  1.00  0.00    -0.329 NA
BRANCH  20  21
HETATM   21  N1  UNL     1     -22.737 -12.315 -14.102  1.00  0.00    -0.279 N 
ATOM     22  H12 UNL     1     -22.723 -11.419 -13.615  1.00  0.00     0.191 HD
ATOM     23  H11 UNL     1     -22.848 -12.967 -13.326  1.00  0.00     0.191 HD
ENDBRANCH  20  21
ENDBRANCH  19  20
ENDBRANCH  16  19
ENDBRANCH   1  13
BRANCH   4  24
HETATM   24  N6  UNL     1     -18.774  -5.225 -15.291  1.00  0.00    -0.224 N 
ATOM     25  H6  UNL     1     -18.008  -5.087 -15.951  1.00  0.00     0.177 HD
BRANCH  24  26
HETATM   26  C6  UNL     1     -18.440  -5.562 -13.948  1.00  0.00     0.157 C 
BRANCH  26  27
HETATM   27  C7  UNL     1     -17.281  -6.532 -13.896  1.00  0.00     0.142 C 
BRANCH  27  28
HETATM   28  N7  UNL     1     -17.736  -7.900 -13.742  1.00  0.00    -0.365 N 
HETATM   29  C8  UNL     1     -17.068  -8.889 -14.217  1.00  0.00     0.197 C 
HETATM   30  N8  UNL     1     -17.557 -10.204 -14.039  1.00  0.00    -0.067 NA
HETATM   31  N9  UNL     1     -15.864  -8.649 -14.907  1.00  0.00    -0.067 NA
ATOM     32  H7  UNL     1     -18.607  -8.081 -13.243  1.00  0.00     0.161 HD
ENDBRANCH  27  28
ENDBRANCH  26  27
ENDBRANCH  24  26
ENDBRANCH   4  24
TORSDOF 8
ENDMDL
MODEL 3
REMARK VINA RESULT: -6.914976230      1.411      1.565
REMARK  8 active torsions:
REMARK  status: ('A' for Active; 'I' for Inactive)
REMARK    1  A    between atoms: N1_1  and  N2_4 
REMARK    2  A    between atoms: N2_4  and  C1_5 
REMARK    3  A    between atoms: C1_5  and  N3_6 
REMARK    4  A    between atoms: N4_9  and  C4_10 
REMARK    5  A    between atoms: C5_13  and  N6_14 
REMARK    6  A    between atoms: N6_14  and  C6_16 
REMARK    7  A    between atoms: C6_16  and  C7_17 
REMARK    8  A    between atoms: C7_17  and  N7_18 
ROOT
HETATM    1  C4  UNL     1     -22.731  -6.906 -15.792  1.00  0.00     0.127 A 
HETATM    2  N5  UNL     1     -21.543  -7.243 -15.225  1.00  0.00    -0.176 N 
ATOM      3  H5  UNL     1     -21.378  -8.215 -14.963  1.00  0.00     0.186 HD
HETATM    4  C5  UNL     1     -20.578  -6.335 -14.998  1.00  0.00     0.679 A 
HETATM    5  N10 UNL     1     -20.815  -5.058 -15.350  1.00  0.00    -0.195 N 
ATOM      6  H10 UNL     1     -20.088  -4.361 -15.181  1.00  0.00     0.184 HD
HETATM    7  C9  UNL     1     -21.976  -4.660 -15.919  1.00  0.00     0.036 A 
HETATM    8  C10 UNL     1     -22.955  -5.601 -16.146  1.00  0.00     0.009 A 
HETATM    9  C11 UNL     1     -24.212  -5.195 -16.774  1.00  0.00     0.044 C 
HETATM   10  C12 UNL     1     -23.857  -4.210 -17.892  1.00  0.00     0.005 C 
HETATM   11  C13 UNL     1     -23.106  -3.017 -17.424  1.00  0.00     0.006 C 
HETATM   12  C14 UNL     1     -22.192  -3.241 -16.279  1.00  0.00     0.058 C 
ENDROOT
BRANCH   1  13
HETATM   13  N4  UNL     1     -23.755  -7.860 -16.014  1.00  0.00    -0.363 N 
HETATM   14  C3  UNL     1     -24.758  -8.183 -15.013  1.00  0.00     0.144 C 
HETATM   15  C2  UNL     1     -24.759  -9.687 -14.749  1.00  0.00     0.144 C 
HETATM   16  N3  UNL     1     -24.446 -10.406 -15.959  1.00  0.00    -0.362 N 
HETATM   17  C16 UNL     1     -24.677  -9.746 -17.212  1.00  0.00     0.144 C 
HETATM   18  C15 UNL     1     -23.783  -8.536 -17.297  1.00  0.00     0.144 C 
BRANCH  16  19
HETATM   19  C1  UNL     1     -23.931 -11.710 -15.906  1.00  0.00     0.299 C 
BRANCH  19  20
HETATM   20  N2  UNL     1     -23.018 -12.077 -15.145  1.00  0.00    -0.329 NA
BRANCH  20  21
HETATM   21  N1  UNL     1     -22.215 -12.255 -14.204  1.00  0.00    -0.279 N 
ATOM     22  H12 UNL     1     -22.021 -11.256 -14.143  1.00  0.00     0.191 HD
ATOM     23  H11 UNL     1     -21.616 -12.624 -13.465  1.00  0.00     0.191 HD
ENDBRANCH  20  21
ENDBRANCH  19  20
ENDBRANCH  16  19
ENDBRANCH   1  13
BRANCH   4  24
HETATM   24  N6  UNL     1     -19.453  -6.681 -14.456  1.00  0.00    -0.224 N 
ATOM     25  H6  UNL     1     -19.447  -7.511 -13.863  1.00  0.00     0.177 HD
BRANCH  24  26
HETATM   26  C6  UNL     1     -18.224  -5.983 -14.633  1.00  0.00     0.157 C 
BRANCH  26  27
HETATM   27  C7  UNL     1     -17.330  -6.128 -13.422  1.00  0.00     0.142 C 
BRANCH  27  28
HETATM   28  N7  UNL     1     -15.988  -6.529 -13.793  1.00  0.00    -0.365 N 
HETATM   29  C8  UNL     1     -15.602  -7.751 -13.707  1.00  0.00     0.197 C 
HETATM   30  N8  UNL     1     -14.281  -8.088 -14.083  1.00  0.00    -0.067 NA
HETATM   31  N9  UNL     1     -16.498  -8.733 -13.242  1.00  0.00    -0.067 NA
ATOM     32  H7  UNL     1     -15.334  -5.823 -14.131  1.00  0.00     0.161 HD
ENDBRANCH  27  28
ENDBRANCH  26  27
ENDBRANCH  24  26
ENDBRANCH   4  24
TORSDOF 8
ENDMDL
MODEL 4
REMARK VINA RESULT: -6.905122877      3.257      6.404
REMARK  8 active torsions:
REMARK  status: ('A' for Active; 'I' for Inactive)
REMARK    1  A    between atoms: N1_1  and  N2_4 
REMARK    2  A    between atoms: N2_4  and  C1_5 
REMARK    3  A    between atoms: C1_5  and  N3_6 
REMARK    4  A    between atoms: N4_9  and  C4_10 
REMARK    5  A    between atoms: C5_13  and  N6_14 
REMARK    6  A    between atoms: N6_14  and  C6_16 
REMARK    7  A    between atoms: C6_16  and  C7_17 
REMARK    8  A    between atoms: C7_17  and  N7_18 
ROOT
HETATM    1  C4  UNL     1     -22.868  -5.214 -16.239  1.00  0.00     0.127 A 
HETATM    2  N5  UNL     1     -23.210  -3.935 -16.542  1.00  0.00    -0.176 N 
ATOM      3  H5  UNL     1     -24.179  -3.726 -16.781  1.00  0.00     0.186 HD
HETATM    4  C5  UNL     1     -22.310  -2.935 -16.537  1.00  0.00     0.679 A 
HETATM    5  N10 UNL     1     -21.036  -3.232 -16.220  1.00  0.00    -0.195 N 
ATOM      6  H10 UNL     1     -20.346  -2.481 -16.215  1.00  0.00     0.184 HD
HETATM    7  C9  UNL     1     -20.634  -4.486 -15.909  1.00  0.00     0.036 A 
HETATM    8  C10 UNL     1     -21.566  -5.498 -15.916  1.00  0.00     0.009 A 
HETATM    9  C11 UNL     1     -21.156  -6.858 -15.566  1.00  0.00     0.044 C 
HETATM   10  C12 UNL     1     -20.194  -6.744 -14.380  1.00  0.00     0.005 C 
HETATM   11  C13 UNL     1     -19.002  -5.901 -14.651  1.00  0.00     0.006 C 
HETATM   12  C14 UNL     1     -19.218  -4.763 -15.576  1.00  0.00     0.058 C 
ENDROOT
BRANCH   1  13
HETATM   13  N4  UNL     1     -23.813  -6.271 -16.261  1.00  0.00    -0.363 N 
HETATM   14  C3  UNL     1     -24.572  -6.670 -15.088  1.00  0.00     0.144 C 
HETATM   15  C2  UNL     1     -24.369  -8.160 -14.824  1.00  0.00     0.144 C 
HETATM   16  N3  UNL     1     -24.216  -8.871 -16.071  1.00  0.00    -0.362 N 
HETATM   17  C16 UNL     1     -24.745  -8.265 -17.258  1.00  0.00     0.144 C 
HETATM   18  C15 UNL     1     -24.011  -6.974 -17.514  1.00  0.00     0.144 C 
BRANCH  16  19
HETATM   19  C1  UNL     1     -23.570 -10.115 -16.112  1.00  0.00     0.299 C 
BRANCH  19  20
HETATM   20  N2  UNL     1     -22.338 -10.268 -16.195  1.00  0.00    -0.329 NA
BRANCH  20  21
HETATM   21  N1  UNL     1     -21.120 -10.468 -16.000  1.00  0.00    -0.279 N 
ATOM     22  H12 UNL     1     -20.958  -9.478 -15.815  1.00  0.00     0.191 HD
ATOM     23  H11 UNL     1     -20.182 -10.852 -15.885  1.00  0.00     0.191 HD
ENDBRANCH  20  21
ENDBRANCH  19  20
ENDBRANCH  16  19
ENDBRANCH   1  13
BRANCH   4  24
HETATM   24  N6  UNL     1     -22.661  -1.723 -16.830  1.00  0.00    -0.224 N 
ATOM     25  H6  UNL     1     -21.931  -1.011 -16.861  1.00  0.00     0.177 HD
BRANCH  24  26
HETATM   26  C6  UNL     1     -23.997  -1.317 -17.113  1.00  0.00     0.157 C 
BRANCH  26  27
HETATM   27  C7  UNL     1     -24.364  -0.065 -16.350  1.00  0.00     0.142 C 
BRANCH  27  28
HETATM   28  N7  UNL     1     -25.118  -0.371 -15.151  1.00  0.00    -0.365 N 
HETATM   29  C8  UNL     1     -24.550  -0.455 -14.002  1.00  0.00     0.197 C 
HETATM   30  N8  UNL     1     -25.333  -0.757 -12.863  1.00  0.00    -0.067 NA
HETATM   31  N9  UNL     1     -23.162  -0.247 -13.894  1.00  0.00    -0.067 NA
ATOM     32  H7  UNL     1     -26.124  -0.524 -15.221  1.00  0.00     0.161 HD
ENDBRANCH  27  28
ENDBRANCH  26  27
ENDBRANCH  24  26
ENDBRANCH   4  24
TORSDOF 8
ENDMDL
MODEL 5
REMARK VINA RESULT: -6.802549258      3.465      6.536
REMARK  8 active torsions:
REMARK  status: ('A' for Active; 'I' for Inactive)
REMARK    1  A    between atoms: N1_1  and  N2_4 
REMARK    2  A    between atoms: N2_4  and  C1_5 
REMARK    3  A    between atoms: C1_5  and  N3_6 
REMARK    4  A    between atoms: N4_9  and  C4_10 
REMARK    5  A    between atoms: C5_13  and  N6_14 
REMARK    6  A    between atoms: N6_14  and  C6_16 
REMARK    7  A    between atoms: C6_16  and  C7_17 
REMARK    8  A    between atoms: C7_17  and  N7_18 
ROOT
HETATM    1  C4  UNL     1     -22.722  -5.179 -16.273  1.00  0.00     0.127 A 
HETATM    2  N5  UNL     1     -23.011  -3.898 -16.621  1.00  0.00    -0.176 N 
ATOM      3  H5  UNL     1     -23.965  -3.662 -16.891  1.00  0.00     0.186 HD
HETATM    4  C5  UNL     1     -22.076  -2.931 -16.619  1.00  0.00     0.679 A 
HETATM    5  N10 UNL     1     -20.822  -3.262 -16.260  1.00  0.00    -0.195 N 
ATOM      6  H10 UNL     1     -20.107  -2.535 -16.257  1.00  0.00     0.184 HD
HETATM    7  C9  UNL     1     -20.473  -4.519 -15.903  1.00  0.00     0.036 A 
HETATM    8  C10 UNL     1     -21.440  -5.499 -15.908  1.00  0.00     0.009 A 
HETATM    9  C11 UNL     1     -21.087  -6.861 -15.509  1.00  0.00     0.044 C 
HETATM   10  C12 UNL     1     -20.153  -6.747 -14.300  1.00  0.00     0.005 C 
HETATM   11  C13 UNL     1     -18.926  -5.953 -14.563  1.00  0.00     0.006 C 
HETATM   12  C14 UNL     1     -19.077  -4.835 -15.524  1.00  0.00     0.058 C 
ENDROOT
BRANCH   1  13
HETATM   13  N4  UNL     1     -23.703  -6.202 -16.291  1.00  0.00    -0.363 N 
HETATM   14  C3  UNL     1     -24.489  -6.558 -15.121  1.00  0.00     0.144 C 
HETATM   15  C2  UNL     1     -24.341  -8.050 -14.834  1.00  0.00     0.144 C 
HETATM   16  N3  UNL     1     -24.199  -8.784 -16.068  1.00  0.00    -0.362 N 
HETATM   17  C16 UNL     1     -24.692  -8.178 -17.271  1.00  0.00     0.144 C 
HETATM   18  C15 UNL     1     -23.911  -6.917 -17.536  1.00  0.00     0.144 C 
BRANCH  16  19
HETATM   19  C1  UNL     1     -23.596 -10.051 -16.083  1.00  0.00     0.299 C 
BRANCH  19  20
HETATM   20  N2  UNL     1     -22.372 -10.247 -16.193  1.00  0.00    -0.329 NA
BRANCH  20  21
HETATM   21  N1  UNL     1     -21.154 -10.468 -16.020  1.00  0.00    -0.279 N 
ATOM     22  H12 UNL     1     -21.321 -10.808 -15.073  1.00  0.00     0.191 HD
ATOM     23  H11 UNL     1     -20.142 -10.568 -16.096  1.00  0.00     0.191 HD
ENDBRANCH  20  21
ENDBRANCH  19  20
ENDBRANCH  16  19
ENDBRANCH   1  13
BRANCH   4  24
HETATM   24  N6  UNL     1     -22.376  -1.716 -16.956  1.00  0.00    -0.224 N 
ATOM     25  H6  UNL     1     -21.651  -1.152 -17.398  1.00  0.00     0.177 HD
BRANCH  24  26
HETATM   26  C6  UNL     1     -23.652  -1.114 -16.750  1.00  0.00     0.157 C 
BRANCH  26  27
HETATM   27  C7  UNL     1     -23.757  -0.506 -15.370  1.00  0.00     0.142 C 
BRANCH  27  28
HETATM   28  N7  UNL     1     -22.608   0.323 -15.063  1.00  0.00    -0.365 N 
HETATM   29  C8  UNL     1     -22.689   1.605 -15.042  1.00  0.00     0.197 C 
HETATM   30  N8  UNL     1     -21.537   2.366 -14.736  1.00  0.00    -0.067 NA
HETATM   31  N9  UNL     1     -23.919   2.230 -15.324  1.00  0.00    -0.067 NA
ATOM     32  H7  UNL     1     -21.713  -0.123 -14.858  1.00  0.00     0.161 HD
ENDBRANCH  27  28
ENDBRANCH  26  27
ENDBRANCH  24  26
ENDBRANCH   4  24
TORSDOF 8
ENDMDL
