MODEL 1
REMARK VINA RESULT: -9.748811933      0.000      0.000
REMARK  8 active torsions:
REMARK  status: ('A' for Active; 'I' for Inactive)
REMARK    1  A    between atoms: O1_2  and  C2_3 
REMARK    2  A    between atoms: C4_5  and  C5_6 
REMARK    3  A    between atoms: C12_13  and  O2_14 
REMARK    4  A    between atoms: C14_18  and  C15_19 
REMARK    5  A    between atoms: C15_19  and  O3_20 
REMARK    6  A    between atoms: C15_19  and  O4_22 
REMARK    7  A    between atoms: C21_31  and  O6_32 
REMARK    8  A    between atoms: C23_34  and  O7_35 
ROOT
HETATM    1  C5  UNL     1     -78.956 -18.941  83.871  1.00  0.00    -0.022 A 
HETATM    2  C6  UNL     1     -79.147 -18.963  82.527  1.00  0.00     0.013 A 
HETATM    3  C7  UNL     1     -78.154 -18.521  81.695  1.00  0.00     0.011 A 
HETATM    4  C8  UNL     1     -76.966 -18.057  82.214  1.00  0.00    -0.023 A 
HETATM    5  C9  UNL     1     -76.773 -18.036  83.601  1.00  0.00    -0.011 A 
HETATM    6  C10 UNL     1     -77.758 -18.475  84.432  1.00  0.00     0.025 A 
HETATM    7  C11 UNL     1     -75.501 -17.538  84.143  1.00  0.00     0.045 A 
HETATM    8  C12 UNL     1     -75.291 -17.509  85.490  1.00  0.00     0.102 A 
HETATM    9  C13 UNL     1     -74.061 -17.025  85.961  1.00  0.00     0.081 A 
HETATM   10 CL1  UNL     1     -73.729 -16.948  87.674  1.00  0.00    -0.081 Cl
HETATM   11  C14 UNL     1     -73.099 -16.594  85.080  1.00  0.00     0.045 A 
HETATM   12  C17 UNL     1     -73.327 -16.631  83.724  1.00  0.00     0.081 A 
HETATM   13 CL2  UNL     1     -72.122 -16.089  82.574  1.00  0.00    -0.081 Cl
HETATM   14  C18 UNL     1     -74.543 -17.108  83.232  1.00  0.00     0.105 A 
HETATM   15  O5  UNL     1     -74.768 -17.142  81.877  1.00  0.00    -0.344 OA
HETATM   16  C19 UNL     1     -75.933 -17.595  81.282  1.00  0.00     0.215 A 
ENDROOT
BRANCH   1  17
HETATM   17  C4  UNL     1     -80.018 -19.419  84.786  1.00  0.00     0.018 A 
HETATM   18  C3  UNL     1     -79.739 -20.349  85.766  1.00  0.00     0.055 A 
HETATM   19  C2  UNL     1     -80.689 -20.820  86.642  1.00  0.00     0.105 A 
HETATM   20  C23 UNL     1     -81.984 -20.327  86.521  1.00  0.00     0.138 A 
HETATM   21  C21 UNL     1     -82.311 -19.397  85.557  1.00  0.00     0.144 A 
HETATM   22  C20 UNL     1     -81.312 -18.957  84.701  1.00  0.00     0.163 A 
HETATM   23  F1  UNL     1     -81.654 -18.058  83.773  1.00  0.00    -0.202 F 
BRANCH  19  24
HETATM   24  O1  UNL     1     -80.424 -21.757  87.633  1.00  0.00    -0.353 OA
HETATM   25  C1  UNL     1     -79.978 -21.269  88.885  1.00  0.00     0.210 C 
ENDBRANCH  19  24
BRANCH  20  26
HETATM   26  O7  UNL     1     -82.970 -20.776  87.383  1.00  0.00    -0.351 OA
HETATM   27  C24 UNL     1     -83.943 -21.724  87.030  1.00  0.00     0.210 C 
ENDBRANCH  20  26
BRANCH  21  28
HETATM   28  O6  UNL     1     -83.621 -18.947  85.492  1.00  0.00    -0.350 OA
HETATM   29  C22 UNL     1     -83.919 -17.791  86.290  1.00  0.00     0.210 C 
ENDBRANCH  21  28
ENDBRANCH   1  17
BRANCH   8  30
HETATM   30  O2  UNL     1     -76.169 -17.909  86.460  1.00  0.00    -0.358 OA
ATOM     31  H2  UNL     1     -75.974 -18.467  87.204  1.00  0.00     0.217 HD
ENDBRANCH   8  30
BRANCH  11  32
HETATM   32  C15 UNL     1     -71.764 -16.079  85.530  1.00  0.00     0.294 C 
BRANCH  32  33
HETATM   33  O3  UNL     1     -71.052 -17.107  86.167  1.00  0.00    -0.367 OA
ATOM     34  H3  UNL     1     -70.209 -16.779  86.458  1.00  0.00     0.213 HD
ENDBRANCH  32  33
BRANCH  32  35
HETATM   35  O4  UNL     1     -71.880 -14.972  86.349  1.00  0.00    -0.362 OA
HETATM   36  C16 UNL     1     -70.859 -14.895  87.280  1.00  0.00     0.205 C 
ENDBRANCH  32  35
ENDBRANCH  11  32
TORSDOF 8
ENDMDL
MODEL 2
REMARK VINA RESULT: -9.309841738      0.827      2.164
REMARK  8 active torsions:
REMARK  status: ('A' for Active; 'I' for Inactive)
REMARK    1  A    between atoms: O1_2  and  C2_3 
REMARK    2  A    between atoms: C4_5  and  C5_6 
REMARK    3  A    between atoms: C12_13  and  O2_14 
REMARK    4  A    between atoms: C14_18  and  C15_19 
REMARK    5  A    between atoms: C15_19  and  O3_20 
REMARK    6  A    between atoms: C15_19  and  O4_22 
REMARK    7  A    between atoms: C21_31  and  O6_32 
REMARK    8  A    between atoms: C23_34  and  O7_35 
ROOT
HETATM    1  C5  UNL     1     -78.813 -18.842  83.824  1.00  0.00    -0.022 A 
HETATM    2  C6  UNL     1     -78.977 -18.870  82.476  1.00  0.00     0.013 A 
HETATM    3  C7  UNL     1     -77.967 -18.435  81.662  1.00  0.00     0.011 A 
HETATM    4  C8  UNL     1     -76.788 -17.971  82.202  1.00  0.00    -0.023 A 
HETATM    5  C9  UNL     1     -76.623 -17.944  83.593  1.00  0.00    -0.011 A 
HETATM    6  C10 UNL     1     -77.626 -18.375  84.407  1.00  0.00     0.025 A 
HETATM    7  C11 UNL     1     -75.360 -17.445  84.158  1.00  0.00     0.045 A 
HETATM    8  C12 UNL     1     -75.177 -17.410  85.508  1.00  0.00     0.102 A 
HETATM    9  C13 UNL     1     -73.956 -16.926  86.001  1.00  0.00     0.081 A 
HETATM   10 CL1  UNL     1     -73.658 -16.840  87.720  1.00  0.00    -0.081 Cl
HETATM   11  C14 UNL     1     -72.975 -16.502  85.137  1.00  0.00     0.045 A 
HETATM   12  C17 UNL     1     -73.177 -16.546  83.777  1.00  0.00     0.081 A 
HETATM   13 CL2  UNL     1     -71.947 -16.013  82.649  1.00  0.00    -0.081 Cl
HETATM   14  C18 UNL     1     -74.383 -17.022  83.263  1.00  0.00     0.105 A 
HETATM   15  O5  UNL     1     -74.581 -17.064  81.905  1.00  0.00    -0.344 OA
HETATM   16  C19 UNL     1     -75.735 -17.517  81.289  1.00  0.00     0.215 A 
ENDROOT
BRANCH   1  17
HETATM   17  C4  UNL     1     -79.894 -19.312  84.720  1.00  0.00     0.018 A 
HETATM   18  C3  UNL     1     -81.180 -18.830  84.587  1.00  0.00     0.055 A 
HETATM   19  C2  UNL     1     -82.219 -19.238  85.391  1.00  0.00     0.105 A 
HETATM   20  C23 UNL     1     -81.944 -20.180  86.377  1.00  0.00     0.138 A 
HETATM   21  C21 UNL     1     -80.675 -20.691  86.548  1.00  0.00     0.144 A 
HETATM   22  C20 UNL     1     -79.666 -20.243  85.709  1.00  0.00     0.163 A 
HETATM   23  F1  UNL     1     -78.443 -20.750  85.896  1.00  0.00    -0.202 F 
BRANCH  19  24
HETATM   24  O1  UNL     1     -83.518 -18.761  85.270  1.00  0.00    -0.353 OA
HETATM   25  C1  UNL     1     -83.928 -17.755  86.178  1.00  0.00     0.210 C 
ENDBRANCH  19  24
BRANCH  20  26
HETATM   26  O7  UNL     1     -82.962 -20.617  87.208  1.00  0.00    -0.351 OA
HETATM   27  C24 UNL     1     -83.846 -21.656  86.878  1.00  0.00     0.210 C 
ENDBRANCH  20  26
BRANCH  21  28
HETATM   28  O6  UNL     1     -80.471 -21.627  87.551  1.00  0.00    -0.350 OA
HETATM   29  C22 UNL     1     -79.999 -21.101  88.801  1.00  0.00     0.210 C 
ENDBRANCH  21  28
ENDBRANCH   1  17
BRANCH   8  30
HETATM   30  O2  UNL     1     -76.075 -17.802  86.462  1.00  0.00    -0.358 OA
ATOM     31  H2  UNL     1     -76.919 -18.212  86.310  1.00  0.00     0.217 HD
ENDBRANCH   8  30
BRANCH  11  32
HETATM   32  C15 UNL     1     -71.649 -15.988  85.611  1.00  0.00     0.294 C 
BRANCH  32  33
HETATM   33  O3  UNL     1     -70.984 -16.991  86.334  1.00  0.00    -0.367 OA
ATOM     34  H3  UNL     1     -71.574 -17.367  86.976  1.00  0.00     0.213 HD
ENDBRANCH  32  33
BRANCH  32  35
HETATM   35  O4  UNL     1     -71.773 -14.833  86.360  1.00  0.00    -0.362 OA
HETATM   36  C16 UNL     1     -70.819 -14.748  87.360  1.00  0.00     0.205 C 
ENDBRANCH  32  35
ENDBRANCH  11  32
TORSDOF 8
ENDMDL
MODEL 3
REMARK VINA RESULT: -9.253024004      2.955      8.568
REMARK  8 active torsions:
REMARK  status: ('A' for Active; 'I' for Inactive)
REMARK    1  A    between atoms: O1_2  and  C2_3 
REMARK    2  A    between atoms: C4_5  and  C5_6 
REMARK    3  A    between atoms: C12_13  and  O2_14 
REMARK    4  A    between atoms: C14_18  and  C15_19 
REMARK    5  A    between atoms: C15_19  and  O3_20 
REMARK    6  A    between atoms: C15_19  and  O4_22 
REMARK    7  A    between atoms: C21_31  and  O6_32 
REMARK    8  A    between atoms: C23_34  and  O7_35 
ROOT
HETATM    1  C5  UNL     1     -76.344 -18.069  82.634  1.00  0.00    -0.022 A 
HETATM    2  C6  UNL     1     -77.226 -17.906  81.614  1.00  0.00     0.013 A 
HETATM    3  C7  UNL     1     -78.529 -18.288  81.779  1.00  0.00     0.011 A 
HETATM    4  C8  UNL     1     -78.950 -18.833  82.971  1.00  0.00    -0.023 A 
HETATM    5  C9  UNL     1     -78.037 -18.999  84.021  1.00  0.00    -0.011 A 
HETATM    6  C10 UNL     1     -76.739 -18.621  83.861  1.00  0.00     0.025 A 
HETATM    7  C11 UNL     1     -78.498 -19.583  85.289  1.00  0.00     0.045 A 
HETATM    8  C12 UNL     1     -77.627 -19.753  86.324  1.00  0.00     0.102 A 
HETATM    9  C13 UNL     1     -78.112 -20.315  87.515  1.00  0.00     0.081 A 
HETATM   10 CL1  UNL     1     -77.050 -20.574  88.878  1.00  0.00    -0.081 Cl
HETATM   11  C14 UNL     1     -79.432 -20.681  87.626  1.00  0.00     0.045 A 
HETATM   12  C17 UNL     1     -80.296 -20.500  86.571  1.00  0.00     0.081 A 
HETATM   13 CL2  UNL     1     -81.985 -20.955  86.679  1.00  0.00    -0.081 Cl
HETATM   14  C18 UNL     1     -79.838 -19.944  85.377  1.00  0.00     0.105 A 
HETATM   15  O5  UNL     1     -80.703 -19.767  84.325  1.00  0.00    -0.344 OA
HETATM   16  C19 UNL     1     -80.356 -19.226  83.100  1.00  0.00     0.215 A 
ENDROOT
BRANCH   1  17
HETATM   17  C4  UNL     1     -74.930 -17.658  82.474  1.00  0.00     0.018 A 
HETATM   18  C3  UNL     1     -74.128 -18.246  81.518  1.00  0.00     0.055 A 
HETATM   19  C2  UNL     1     -72.812 -17.896  81.328  1.00  0.00     0.105 A 
HETATM   20  C23 UNL     1     -72.280 -16.903  82.144  1.00  0.00     0.138 A 
HETATM   21  C21 UNL     1     -73.042 -16.287  83.114  1.00  0.00     0.144 A 
HETATM   22  C20 UNL     1     -74.364 -16.680  83.261  1.00  0.00     0.163 A 
HETATM   23  F1  UNL     1     -75.082 -16.070  84.210  1.00  0.00    -0.202 F 
BRANCH  19  24
HETATM   24  O1  UNL     1     -71.992 -18.479  80.369  1.00  0.00    -0.353 OA
HETATM   25  C1  UNL     1     -71.468 -19.763  80.658  1.00  0.00     0.210 C 
ENDBRANCH  19  24
BRANCH  20  26
HETATM   26  O7  UNL     1     -70.959 -16.523  81.985  1.00  0.00    -0.351 OA
HETATM   27  C24 UNL     1     -70.539 -15.502  81.118  1.00  0.00     0.210 C 
ENDBRANCH  20  26
BRANCH  21  28
HETATM   28  O6  UNL     1     -72.449 -15.305  83.893  1.00  0.00    -0.350 OA
HETATM   29  C22 UNL     1     -72.010 -15.729  85.193  1.00  0.00     0.210 C 
ENDBRANCH  21  28
ENDBRANCH   1  17
BRANCH   8  30
HETATM   30  O2  UNL     1     -76.298 -19.431  86.332  1.00  0.00    -0.358 OA
ATOM     31  H2  UNL     1     -75.727 -19.402  87.092  1.00  0.00     0.217 HD
ENDBRANCH   8  30
BRANCH  11  32
HETATM   32  C15 UNL     1     -80.004 -21.273  88.879  1.00  0.00     0.294 C 
BRANCH  32  33
HETATM   33  O3  UNL     1     -81.029 -20.448  89.367  1.00  0.00    -0.367 OA
ATOM     34  H3  UNL     1     -80.800 -19.537  89.228  1.00  0.00     0.213 HD
ENDBRANCH  32  33
BRANCH  32  35
HETATM   35  O4  UNL     1     -79.037 -21.490  89.843  1.00  0.00    -0.362 OA
HETATM   36  C16 UNL     1     -79.490 -22.294  90.874  1.00  0.00     0.205 C 
ENDBRANCH  32  35
ENDBRANCH  11  32
TORSDOF 8
ENDMDL
MODEL 4
REMARK VINA RESULT: -9.052954831      2.979      8.745
REMARK  8 active torsions:
REMARK  status: ('A' for Active; 'I' for Inactive)
REMARK    1  A    between atoms: O1_2  and  C2_3 
REMARK    2  A    between atoms: C4_5  and  C5_6 
REMARK    3  A    between atoms: C12_13  and  O2_14 
REMARK    4  A    between atoms: C14_18  and  C15_19 
REMARK    5  A    between atoms: C15_19  and  O3_20 
REMARK    6  A    between atoms: C15_19  and  O4_22 
REMARK    7  A    between atoms: C21_31  and  O6_32 
REMARK    8  A    between atoms: C23_34  and  O7_35 
ROOT
HETATM    1  C5  UNL     1     -76.014 -17.730  82.262  1.00  0.00    -0.022 A 
HETATM    2  C6  UNL     1     -76.663 -17.388  81.119  1.00  0.00     0.013 A 
HETATM    3  C7  UNL     1     -78.002 -17.645  81.000  1.00  0.00     0.011 A 
HETATM    4  C8  UNL     1     -78.691 -18.245  82.030  1.00  0.00    -0.023 A 
HETATM    5  C9  UNL     1     -78.017 -18.596  83.206  1.00  0.00    -0.011 A 
HETATM    6  C10 UNL     1     -76.685 -18.342  83.330  1.00  0.00     0.025 A 
HETATM    7  C11 UNL     1     -78.763 -19.237  84.299  1.00  0.00     0.045 A 
HETATM    8  C12 UNL     1     -78.129 -19.586  85.454  1.00  0.00     0.102 A 
HETATM    9  C13 UNL     1     -78.882 -20.196  86.468  1.00  0.00     0.081 A 
HETATM   10 CL1  UNL     1     -78.131 -20.681  87.969  1.00  0.00    -0.081 Cl
HETATM   11  C14 UNL     1     -80.225 -20.430  86.294  1.00  0.00     0.045 A 
HETATM   12  C17 UNL     1     -80.849 -20.070  85.123  1.00  0.00     0.081 A 
HETATM   13 CL2  UNL     1     -82.559 -20.354  84.868  1.00  0.00    -0.081 Cl
HETATM   14  C18 UNL     1     -80.121 -19.463  84.099  1.00  0.00     0.105 A 
HETATM   15  O5  UNL     1     -80.747 -19.106  82.930  1.00  0.00    -0.344 OA
HETATM   16  C19 UNL     1     -80.124 -18.499  81.853  1.00  0.00     0.215 A 
ENDROOT
BRANCH   1  17
HETATM   17  C4  UNL     1     -74.566 -17.456  82.411  1.00  0.00     0.018 A 
HETATM   18  C3  UNL     1     -73.646 -18.052  81.574  1.00  0.00     0.055 A 
HETATM   19  C2  UNL     1     -72.292 -17.826  81.669  1.00  0.00     0.105 A 
HETATM   20  C23 UNL     1     -71.847 -16.956  82.658  1.00  0.00     0.138 A 
HETATM   21  C21 UNL     1     -72.729 -16.337  83.519  1.00  0.00     0.144 A 
HETATM   22  C20 UNL     1     -74.083 -16.602  83.377  1.00  0.00     0.163 A 
HETATM   23  F1  UNL     1     -74.918 -15.992  84.225  1.00  0.00    -0.202 F 
BRANCH  19  24
HETATM   24  O1  UNL     1     -71.354 -18.420  80.833  1.00  0.00    -0.353 OA
HETATM   25  C1  UNL     1     -71.347 -19.834  80.765  1.00  0.00     0.210 C 
ENDBRANCH  19  24
BRANCH  20  26
HETATM   26  O7  UNL     1     -70.492 -16.703  82.788  1.00  0.00    -0.351 OA
HETATM   27  C24 UNL     1     -69.619 -17.496  83.548  1.00  0.00     0.210 C 
ENDBRANCH  20  26
BRANCH  21  28
HETATM   28  O6  UNL     1     -72.218 -15.481  84.483  1.00  0.00    -0.350 OA
HETATM   29  C22 UNL     1     -72.217 -15.992  85.825  1.00  0.00     0.210 C 
ENDBRANCH  21  28
ENDBRANCH   1  17
BRANCH   8  30
HETATM   30  O2  UNL     1     -76.804 -19.406  85.741  1.00  0.00    -0.358 OA
ATOM     31  H2  UNL     1     -76.066 -19.757  85.255  1.00  0.00     0.217 HD
ENDBRANCH   8  30
BRANCH  11  32
HETATM   32  C15 UNL     1     -81.077 -21.067  87.350  1.00  0.00     0.294 C 
BRANCH  32  33
HETATM   33  O3  UNL     1     -82.017 -21.918  86.750  1.00  0.00    -0.367 OA
ATOM     34  H3  UNL     1     -82.869 -21.498  86.739  1.00  0.00     0.213 HD
ENDBRANCH  32  33
BRANCH  32  35
HETATM   35  O4  UNL     1     -81.697 -20.130  88.157  1.00  0.00    -0.362 OA
HETATM   36  C16 UNL     1     -83.067 -20.316  88.224  1.00  0.00     0.205 C 
ENDBRANCH  32  35
ENDBRANCH  11  32
TORSDOF 8
ENDMDL
MODEL 5
REMARK VINA RESULT: -8.998746448      3.139      8.905
REMARK  8 active torsions:
REMARK  status: ('A' for Active; 'I' for Inactive)
REMARK    1  A    between atoms: O1_2  and  C2_3 
REMARK    2  A    between atoms: C4_5  and  C5_6 
REMARK    3  A    between atoms: C12_13  and  O2_14 
REMARK    4  A    between atoms: C14_18  and  C15_19 
REMARK    5  A    between atoms: C15_19  and  O3_20 
REMARK    6  A    between atoms: C15_19  and  O4_22 
REMARK    7  A    between atoms: C21_31  and  O6_32 
REMARK    8  A    between atoms: C23_34  and  O7_35 
ROOT
HETATM    1  C5  UNL     1     -75.958 -17.872  82.250  1.00  0.00    -0.022 A 
HETATM    2  C6  UNL     1     -76.598 -17.508  81.109  1.00  0.00     0.013 A 
HETATM    3  C7  UNL     1     -77.948 -17.706  80.997  1.00  0.00     0.011 A 
HETATM    4  C8  UNL     1     -78.657 -18.271  82.034  1.00  0.00    -0.023 A 
HETATM    5  C9  UNL     1     -77.993 -18.644  83.209  1.00  0.00    -0.011 A 
HETATM    6  C10 UNL     1     -76.650 -18.449  83.325  1.00  0.00     0.025 A 
HETATM    7  C11 UNL     1     -78.760 -19.246  84.309  1.00  0.00     0.045 A 
HETATM    8  C12 UNL     1     -78.135 -19.617  85.463  1.00  0.00     0.102 A 
HETATM    9  C13 UNL     1     -78.908 -20.187  86.485  1.00  0.00     0.081 A 
HETATM   10 CL1  UNL     1     -78.171 -20.698  87.984  1.00  0.00    -0.081 Cl
HETATM   11  C14 UNL     1     -80.261 -20.363  86.319  1.00  0.00     0.045 A 
HETATM   12  C17 UNL     1     -80.876 -19.982  85.149  1.00  0.00     0.081 A 
HETATM   13 CL2  UNL     1     -82.598 -20.192  84.905  1.00  0.00    -0.081 Cl
HETATM   14  C18 UNL     1     -80.127 -19.413  84.118  1.00  0.00     0.105 A 
HETATM   15  O5  UNL     1     -80.744 -19.035  82.950  1.00  0.00    -0.344 OA
HETATM   16  C19 UNL     1     -80.101 -18.462  81.867  1.00  0.00     0.215 A 
ENDROOT
BRANCH   1  17
HETATM   17  C4  UNL     1     -74.499 -17.661  82.389  1.00  0.00     0.018 A 
HETATM   18  C3  UNL     1     -74.006 -16.556  83.051  1.00  0.00     0.055 A 
HETATM   19  C2  UNL     1     -72.660 -16.318  83.211  1.00  0.00     0.105 A 
HETATM   20  C23 UNL     1     -71.771 -17.243  82.675  1.00  0.00     0.138 A 
HETATM   21  C21 UNL     1     -72.216 -18.363  82.005  1.00  0.00     0.144 A 
HETATM   22  C20 UNL     1     -73.583 -18.551  81.874  1.00  0.00     0.163 A 
HETATM   23  F1  UNL     1     -73.991 -19.643  81.217  1.00  0.00    -0.202 F 
BRANCH  19  24
HETATM   24  O1  UNL     1     -72.149 -15.210  83.874  1.00  0.00    -0.353 OA
HETATM   25  C1  UNL     1     -72.115 -15.258  85.289  1.00  0.00     0.210 C 
ENDBRANCH  19  24
BRANCH  20  26
HETATM   26  O7  UNL     1     -70.408 -17.040  82.813  1.00  0.00    -0.351 OA
HETATM   27  C24 UNL     1     -69.619 -16.367  81.868  1.00  0.00     0.210 C 
ENDBRANCH  20  26
BRANCH  21  28
HETATM   28  O6  UNL     1     -71.274 -19.244  81.495  1.00  0.00    -0.350 OA
HETATM   29  C22 UNL     1     -71.109 -19.215  80.069  1.00  0.00     0.210 C 
ENDBRANCH  21  28
ENDBRANCH   1  17
BRANCH   8  30
HETATM   30  O2  UNL     1     -76.802 -19.493  85.742  1.00  0.00    -0.358 OA
ATOM     31  H2  UNL     1     -76.087 -19.530  85.117  1.00  0.00     0.217 HD
ENDBRANCH   8  30
BRANCH  11  32
HETATM   32  C15 UNL     1     -81.135 -20.956  87.383  1.00  0.00     0.294 C 
BRANCH  32  33
HETATM   33  O3  UNL     1     -81.978 -21.926  86.818  1.00  0.00    -0.367 OA
ATOM     34  H3  UNL     1     -82.861 -21.813  87.148  1.00  0.00     0.213 HD
ENDBRANCH  32  33
BRANCH  32  35
HETATM   35  O4  UNL     1     -81.864 -19.995  88.057  1.00  0.00    -0.362 OA
HETATM   36  C16 UNL     1     -83.192 -20.351  88.212  1.00  0.00     0.205 C 
ENDBRANCH  32  35
ENDBRANCH  11  32
TORSDOF 8
ENDMDL
