MODEL 1
REMARK VINA RESULT: -7.708942600      0.000      0.000
REMARK  6 active torsions:
REMARK  status: ('A' for Active; 'I' for Inactive)
REMARK    1  A    between atoms: O1_2  and  C2_3 
REMARK    2  A    between atoms: C4_5  and  C5_6 
REMARK    3  A    between atoms: N2_13  and  C8_14 
REMARK    4  A    between atoms: C11_18  and  O2_19 
REMARK    5  A    between atoms: C16_28  and  O4_29 
REMARK    6  A    between atoms: C18_31  and  O5_32 
ROOT
HETATM    1  C5  UNL     1     -75.050 -16.966  84.582  1.00  0.00     0.036 C 
HETATM    2  C6  UNL     1     -73.987 -17.051  83.828  1.00  0.00     0.077 C 
HETATM    3  S1  UNL     1     -72.582 -15.919  84.081  1.00  0.00    -0.048 SA
HETATM    4  C7  UNL     1     -71.426 -16.937  83.177  1.00  0.00     0.153 C 
HETATM    5  N1  UNL     1     -70.146 -16.803  83.259  1.00  0.00    -0.379 N 
ATOM      6  H11 UNL     1     -69.486 -17.384  82.742  1.00  0.00     0.158 HD
ATOM      7  H12 UNL     1     -69.583 -16.149  83.803  1.00  0.00     0.158 HD
HETATM    8  N2  UNL     1     -72.198 -17.833  82.432  1.00  0.00    -0.256 N 
HETATM    9  C14 UNL     1     -73.558 -17.902  82.771  1.00  0.00     0.271 C 
HETATM   10  O3  UNL     1     -74.360 -18.691  82.156  1.00  0.00    -0.266 OA
ENDROOT
BRANCH   1  11
HETATM   11  C4  UNL     1     -76.261 -17.779  84.518  1.00  0.00    -0.029 A 
HETATM   12  C3  UNL     1     -77.108 -17.856  83.439  1.00  0.00     0.051 A 
HETATM   13  C2  UNL     1     -78.221 -18.680  83.452  1.00  0.00     0.105 A 
HETATM   14  C18 UNL     1     -78.506 -19.448  84.558  1.00  0.00     0.135 A 
HETATM   15  C16 UNL     1     -77.679 -19.404  85.680  1.00  0.00     0.105 A 
HETATM   16  C15 UNL     1     -76.590 -18.571  85.613  1.00  0.00     0.051 A 
BRANCH  13  17
HETATM   17  O1  UNL     1     -79.044 -18.737  82.360  1.00  0.00    -0.353 OA
HETATM   18  C1  UNL     1     -78.821 -18.039  81.155  1.00  0.00     0.210 C 
ENDBRANCH  13  17
BRANCH  14  19
HETATM   19  O5  UNL     1     -79.602 -20.289  84.632  1.00  0.00    -0.351 OA
HETATM   20  C19 UNL     1     -80.905 -19.860  84.966  1.00  0.00     0.210 C 
ENDBRANCH  14  19
BRANCH  15  21
HETATM   21  O4  UNL     1     -77.975 -20.180  86.792  1.00  0.00    -0.353 OA
HETATM   22  C17 UNL     1     -77.077 -20.172  87.886  1.00  0.00     0.210 C 
ENDBRANCH  15  21
ENDBRANCH   1  11
BRANCH   8  23
HETATM   23  C8  UNL     1     -71.591 -18.622  81.388  1.00  0.00     0.067 A 
HETATM   24  C9  UNL     1     -71.046 -19.866  81.702  1.00  0.00     0.076 A 
HETATM   25  C10 UNL     1     -70.466 -20.619  80.700  1.00  0.00     0.153 A 
HETATM   26  F1  UNL     1     -69.936 -21.832  81.012  1.00  0.00    -0.203 F 
HETATM   27  C11 UNL     1     -70.406 -20.181  79.396  1.00  0.00     0.127 A 
HETATM   28  C12 UNL     1     -70.954 -18.944  79.114  1.00  0.00     0.089 A 
HETATM   29 CL1  UNL     1     -70.875 -18.385  77.438  1.00  0.00    -0.080 Cl
HETATM   30  C13 UNL     1     -71.537 -18.179  80.099  1.00  0.00     0.063 A 
HETATM   31 BR1  UNL     1     -72.261 -16.491  79.594  1.00  0.00    -0.047 Br
BRANCH  27  32
HETATM   32  O2  UNL     1     -69.807 -20.989  78.437  1.00  0.00    -0.356 OA
ATOM     33  H2  UNL     1     -68.874 -20.906  78.279  1.00  0.00     0.218 HD
ENDBRANCH  27  32
ENDBRANCH   8  23
TORSDOF 6
ENDMDL
MODEL 2
REMARK VINA RESULT: -7.649869756      0.158      2.412
REMARK  6 active torsions:
REMARK  status: ('A' for Active; 'I' for Inactive)
REMARK    1  A    between atoms: O1_2  and  C2_3 
REMARK    2  A    between atoms: C4_5  and  C5_6 
REMARK    3  A    between atoms: N2_13  and  C8_14 
REMARK    4  A    between atoms: C11_18  and  O2_19 
REMARK    5  A    between atoms: C16_28  and  O4_29 
REMARK    6  A    between atoms: C18_31  and  O5_32 
ROOT
HETATM    1  C5  UNL     1     -74.958 -16.953  84.580  1.00  0.00     0.036 C 
HETATM    2  C6  UNL     1     -73.922 -17.038  83.791  1.00  0.00     0.077 C 
HETATM    3  S1  UNL     1     -72.575 -15.814  83.900  1.00  0.00    -0.048 SA
HETATM    4  C7  UNL     1     -71.399 -16.833  83.025  1.00  0.00     0.153 C 
HETATM    5  N1  UNL     1     -70.126 -16.624  83.042  1.00  0.00    -0.379 N 
ATOM      6  H11 UNL     1     -69.454 -17.205  82.542  1.00  0.00     0.158 HD
ATOM      7  H12 UNL     1     -69.581 -15.901  83.511  1.00  0.00     0.158 HD
HETATM    8  N2  UNL     1     -72.145 -17.825  82.381  1.00  0.00    -0.256 N 
HETATM    9  C14 UNL     1     -73.486 -17.941  82.781  1.00  0.00     0.271 C 
HETATM   10  O3  UNL     1     -74.264 -18.817  82.261  1.00  0.00    -0.266 OA
ENDROOT
BRANCH   1  11
HETATM   11  C4  UNL     1     -76.122 -17.834  84.629  1.00  0.00    -0.029 A 
HETATM   12  C3  UNL     1     -76.468 -18.631  85.694  1.00  0.00     0.051 A 
HETATM   13  C2  UNL     1     -77.610 -19.414  85.668  1.00  0.00     0.105 A 
HETATM   14  C18 UNL     1     -78.431 -19.412  84.563  1.00  0.00     0.135 A 
HETATM   15  C16 UNL     1     -78.122 -18.623  83.456  1.00  0.00     0.105 A 
HETATM   16  C15 UNL     1     -76.980 -17.866  83.535  1.00  0.00     0.051 A 
BRANCH  13  17
HETATM   17  O1  UNL     1     -77.929 -20.195  86.746  1.00  0.00    -0.353 OA
HETATM   18  C1  UNL     1     -77.199 -20.229  87.951  1.00  0.00     0.210 C 
ENDBRANCH  13  17
BRANCH  14  19
HETATM   19  O5  UNL     1     -79.584 -20.173  84.478  1.00  0.00    -0.351 OA
HETATM   20  C19 UNL     1     -80.841 -19.757  84.969  1.00  0.00     0.210 C 
ENDBRANCH  14  19
BRANCH  15  21
HETATM   21  O4  UNL     1     -78.955 -18.628  82.346  1.00  0.00    -0.353 OA
HETATM   22  C17 UNL     1     -78.530 -17.961  81.173  1.00  0.00     0.210 C 
ENDBRANCH  15  21
ENDBRANCH   1  11
BRANCH   8  23
HETATM   23  C8  UNL     1     -71.534 -18.656  81.373  1.00  0.00     0.067 A 
HETATM   24  C9  UNL     1     -70.971 -19.876  81.744  1.00  0.00     0.076 A 
HETATM   25  C10 UNL     1     -70.387 -20.670  80.777  1.00  0.00     0.153 A 
HETATM   26  F1  UNL     1     -69.839 -21.859  81.144  1.00  0.00    -0.203 F 
HETATM   27  C11 UNL     1     -70.341 -20.296  79.452  1.00  0.00     0.127 A 
HETATM   28  C12 UNL     1     -70.908 -19.082  79.113  1.00  0.00     0.089 A 
HETATM   29 CL1  UNL     1     -70.847 -18.605  77.411  1.00  0.00    -0.080 Cl
HETATM   30  C13 UNL     1     -71.495 -18.277  80.064  1.00  0.00     0.063 A 
HETATM   31 BR1  UNL     1     -72.245 -16.626  79.481  1.00  0.00    -0.047 Br
BRANCH  27  32
HETATM   32  O2  UNL     1     -69.738 -21.143  78.530  1.00  0.00    -0.356 OA
ATOM     33  H2  UNL     1     -70.182 -21.326  77.711  1.00  0.00     0.218 HD
ENDBRANCH  27  32
ENDBRANCH   8  23
TORSDOF 6
ENDMDL
MODEL 3
REMARK VINA RESULT: -7.520910982      5.732      6.673
REMARK  6 active torsions:
REMARK  status: ('A' for Active; 'I' for Inactive)
REMARK    1  A    between atoms: O1_2  and  C2_3 
REMARK    2  A    between atoms: C4_5  and  C5_6 
REMARK    3  A    between atoms: N2_13  and  C8_14 
REMARK    4  A    between atoms: C11_18  and  O2_19 
REMARK    5  A    between atoms: C16_28  and  O4_29 
REMARK    6  A    between atoms: C18_31  and  O5_32 
ROOT
HETATM    1  C5  UNL     1     -77.174 -20.573  88.358  1.00  0.00     0.036 C 
HETATM    2  C6  UNL     1     -76.116 -19.884  88.690  1.00  0.00     0.077 C 
HETATM    3  S1  UNL     1     -75.128 -20.351  90.149  1.00  0.00    -0.048 SA
HETATM    4  C7  UNL     1     -73.695 -19.412  89.646  1.00  0.00     0.153 C 
HETATM    5  N1  UNL     1     -72.519 -19.589  90.144  1.00  0.00    -0.379 N 
ATOM      6  H11 UNL     1     -71.700 -19.053  89.857  1.00  0.00     0.158 HD
ATOM      7  H12 UNL     1     -72.195 -20.238  90.862  1.00  0.00     0.158 HD
HETATM    8  N2  UNL     1     -74.138 -18.523  88.662  1.00  0.00    -0.256 N 
HETATM    9  C14 UNL     1     -75.422 -18.765  88.148  1.00  0.00     0.271 C 
HETATM   10  O3  UNL     1     -75.929 -18.016  87.240  1.00  0.00    -0.266 OA
ENDROOT
BRANCH   1  11
HETATM   11  C4  UNL     1     -78.078 -20.342  87.235  1.00  0.00    -0.029 A 
HETATM   12  C3  UNL     1     -77.701 -19.885  85.996  1.00  0.00     0.051 A 
HETATM   13  C2  UNL     1     -78.621 -19.724  84.974  1.00  0.00     0.105 A 
HETATM   14  C18 UNL     1     -79.950 -20.021  85.181  1.00  0.00     0.135 A 
HETATM   15  C16 UNL     1     -80.383 -20.486  86.422  1.00  0.00     0.105 A 
HETATM   16  C15 UNL     1     -79.429 -20.627  87.398  1.00  0.00     0.051 A 
BRANCH  13  17
HETATM   17  O1  UNL     1     -78.214 -19.268  83.749  1.00  0.00    -0.353 OA
HETATM   18  C1  UNL     1     -77.386 -18.145  83.551  1.00  0.00     0.210 C 
ENDBRANCH  13  17
BRANCH  14  19
HETATM   19  O5  UNL     1     -80.916 -19.881  84.201  1.00  0.00    -0.351 OA
HETATM   20  C19 UNL     1     -81.611 -18.678  83.945  1.00  0.00     0.210 C 
ENDBRANCH  14  19
BRANCH  15  21
HETATM   21  O4  UNL     1     -81.725 -20.783  86.621  1.00  0.00    -0.353 OA
HETATM   22  C17 UNL     1     -82.493 -19.934  87.453  1.00  0.00     0.210 C 
ENDBRANCH  15  21
ENDBRANCH   1  11
BRANCH   8  23
HETATM   23  C8  UNL     1     -73.293 -17.437  88.229  1.00  0.00     0.067 A 
HETATM   24  C9  UNL     1     -72.452 -17.622  87.133  1.00  0.00     0.076 A 
HETATM   25  C10 UNL     1     -71.645 -16.580  86.721  1.00  0.00     0.153 A 
HETATM   26  F1  UNL     1     -70.826 -16.765  85.651  1.00  0.00    -0.203 F 
HETATM   27  C11 UNL     1     -71.641 -15.360  87.359  1.00  0.00     0.127 A 
HETATM   28  C12 UNL     1     -72.485 -15.205  88.443  1.00  0.00     0.089 A 
HETATM   29 CL1  UNL     1     -72.478 -13.637  89.260  1.00  0.00    -0.080 Cl
HETATM   30  C13 UNL     1     -73.298 -16.232  88.867  1.00  0.00     0.063 A 
HETATM   31 BR1  UNL     1     -74.420 -15.905  90.371  1.00  0.00    -0.047 Br
BRANCH  27  32
HETATM   32  O2  UNL     1     -70.803 -14.354  86.893  1.00  0.00    -0.356 OA
ATOM     33  H2  UNL     1     -70.964 -13.456  87.160  1.00  0.00     0.218 HD
ENDBRANCH  27  32
ENDBRANCH   8  23
TORSDOF 6
ENDMDL
MODEL 4
REMARK VINA RESULT: -7.400350521      2.923      3.342
REMARK  6 active torsions:
REMARK  status: ('A' for Active; 'I' for Inactive)
REMARK    1  A    between atoms: O1_2  and  C2_3 
REMARK    2  A    between atoms: C4_5  and  C5_6 
REMARK    3  A    between atoms: N2_13  and  C8_14 
REMARK    4  A    between atoms: C11_18  and  O2_19 
REMARK    5  A    between atoms: C16_28  and  O4_29 
REMARK    6  A    between atoms: C18_31  and  O5_32 
ROOT
HETATM    1  C5  UNL     1     -75.241 -18.799  86.043  1.00  0.00     0.036 C 
HETATM    2  C6  UNL     1     -74.235 -18.123  85.559  1.00  0.00     0.077 C 
HETATM    3  S1  UNL     1     -72.653 -18.044  86.460  1.00  0.00    -0.048 SA
HETATM    4  C7  UNL     1     -71.716 -17.505  85.039  1.00  0.00     0.153 C 
HETATM    5  N1  UNL     1     -70.429 -17.562  84.974  1.00  0.00    -0.379 N 
ATOM      6  H11 UNL     1     -69.894 -17.254  84.162  1.00  0.00     0.158 HD
ATOM      7  H12 UNL     1     -69.746 -17.892  85.655  1.00  0.00     0.158 HD
HETATM    8  N2  UNL     1     -72.652 -17.052  84.105  1.00  0.00    -0.256 N 
HETATM    9  C14 UNL     1     -73.992 -17.376  84.371  1.00  0.00     0.271 C 
HETATM   10  O3  UNL     1     -74.935 -17.015  83.582  1.00  0.00    -0.266 OA
ENDROOT
BRANCH   1  11
HETATM   11  C4  UNL     1     -76.571 -18.966  85.464  1.00  0.00    -0.029 A 
HETATM   12  C3  UNL     1     -76.958 -18.513  84.227  1.00  0.00     0.051 A 
HETATM   13  C2  UNL     1     -78.235 -18.742  83.740  1.00  0.00     0.105 A 
HETATM   14  C18 UNL     1     -79.153 -19.436  84.495  1.00  0.00     0.135 A 
HETATM   15  C16 UNL     1     -78.810 -19.915  85.759  1.00  0.00     0.105 A 
HETATM   16  C15 UNL     1     -77.532 -19.660  86.191  1.00  0.00     0.051 A 
BRANCH  13  17
HETATM   17  O1  UNL     1     -78.589 -18.279  82.502  1.00  0.00    -0.353 OA
HETATM   18  C1  UNL     1     -77.678 -17.815  81.532  1.00  0.00     0.210 C 
ENDBRANCH  13  17
BRANCH  14  19
HETATM   19  O5  UNL     1     -80.442 -19.696  84.065  1.00  0.00    -0.351 OA
HETATM   20  C19 UNL     1     -81.503 -18.768  84.146  1.00  0.00     0.210 C 
ENDBRANCH  14  19
BRANCH  15  21
HETATM   21  O4  UNL     1     -79.742 -20.613  86.514  1.00  0.00    -0.353 OA
HETATM   22  C17 UNL     1     -79.500 -20.795  87.896  1.00  0.00     0.210 C 
ENDBRANCH  15  21
ENDBRANCH   1  11
BRANCH   8  23
HETATM   23  C8  UNL     1     -72.223 -16.303  82.950  1.00  0.00     0.067 A 
HETATM   24  C9  UNL     1     -71.931 -14.947  83.086  1.00  0.00     0.076 A 
HETATM   25  C10 UNL     1     -71.519 -14.233  81.978  1.00  0.00     0.153 A 
HETATM   26  F1  UNL     1     -71.236 -12.910  82.116  1.00  0.00    -0.203 F 
HETATM   27  C11 UNL     1     -71.388 -14.817  80.737  1.00  0.00     0.127 A 
HETATM   28  C12 UNL     1     -71.684 -16.162  80.632  1.00  0.00     0.089 A 
HETATM   29 CL1  UNL     1     -71.513 -16.909  79.038  1.00  0.00    -0.080 Cl
HETATM   30  C13 UNL     1     -72.094 -16.891  81.726  1.00  0.00     0.063 A 
HETATM   31 BR1  UNL     1     -72.473 -18.739  81.463  1.00  0.00    -0.047 Br
BRANCH  27  32
HETATM   32  O2  UNL     1     -70.969 -14.039  79.664  1.00  0.00    -0.356 OA
ATOM     33  H2  UNL     1     -70.357 -13.330  79.817  1.00  0.00     0.218 HD
ENDBRANCH  27  32
ENDBRANCH   8  23
TORSDOF 6
ENDMDL
MODEL 5
REMARK VINA RESULT: -7.377417826      4.713      6.193
REMARK  6 active torsions:
REMARK  status: ('A' for Active; 'I' for Inactive)
REMARK    1  A    between atoms: O1_2  and  C2_3 
REMARK    2  A    between atoms: C4_5  and  C5_6 
REMARK    3  A    between atoms: N2_13  and  C8_14 
REMARK    4  A    between atoms: C11_18  and  O2_19 
REMARK    5  A    between atoms: C16_28  and  O4_29 
REMARK    6  A    between atoms: C18_31  and  O5_32 
ROOT
HETATM    1  C5  UNL     1     -79.298 -19.077  83.303  1.00  0.00     0.036 C 
HETATM    2  C6  UNL     1     -78.057 -18.684  83.399  1.00  0.00     0.077 C 
HETATM    3  S1  UNL     1     -77.112 -18.228  81.909  1.00  0.00    -0.048 SA
HETATM    4  C7  UNL     1     -75.856 -17.338  82.814  1.00  0.00     0.153 C 
HETATM    5  N1  UNL     1     -75.039 -16.506  82.264  1.00  0.00    -0.379 N 
ATOM      6  H11 UNL     1     -74.321 -15.998  82.780  1.00  0.00     0.158 HD
ATOM      7  H12 UNL     1     -74.948 -16.214  81.291  1.00  0.00     0.158 HD
HETATM    8  N2  UNL     1     -75.980 -17.739  84.148  1.00  0.00    -0.256 N 
HETATM    9  C14 UNL     1     -77.145 -18.453  84.469  1.00  0.00     0.271 C 
HETATM   10  O3  UNL     1     -77.367 -18.868  85.661  1.00  0.00    -0.266 OA
ENDROOT
BRANCH   1  11
HETATM   11  C4  UNL     1     -80.196 -19.482  84.380  1.00  0.00    -0.029 A 
HETATM   12  C3  UNL     1     -79.893 -20.392  85.364  1.00  0.00     0.051 A 
HETATM   13  C2  UNL     1     -80.795 -20.695  86.370  1.00  0.00     0.105 A 
HETATM   14  C18 UNL     1     -82.029 -20.085  86.406  1.00  0.00     0.135 A 
HETATM   15  C16 UNL     1     -82.385 -19.157  85.429  1.00  0.00     0.105 A 
HETATM   16  C15 UNL     1     -81.454 -18.893  84.456  1.00  0.00     0.051 A 
BRANCH  13  17
HETATM   17  O1  UNL     1     -80.463 -21.605  87.337  1.00  0.00    -0.353 OA
HETATM   18  C1  UNL     1     -79.988 -21.267  88.620  1.00  0.00     0.210 C 
ENDBRANCH  13  17
BRANCH  14  19
HETATM   19  O5  UNL     1     -82.973 -20.347  87.383  1.00  0.00    -0.351 OA
HETATM   20  C19 UNL     1     -83.964 -21.347  87.275  1.00  0.00     0.210 C 
ENDBRANCH  14  19
BRANCH  15  21
HETATM   21  O4  UNL     1     -83.632 -18.547  85.472  1.00  0.00    -0.353 OA
HETATM   22  C17 UNL     1     -83.902 -17.624  86.510  1.00  0.00     0.210 C 
ENDBRANCH  15  21
ENDBRANCH   1  11
BRANCH   8  23
HETATM   23  C8  UNL     1     -74.950 -17.414  85.103  1.00  0.00     0.067 A 
HETATM   24  C9  UNL     1     -75.243 -16.545  86.153  1.00  0.00     0.076 A 
HETATM   25  C10 UNL     1     -74.255 -16.236  87.067  1.00  0.00     0.153 A 
HETATM   26  F1  UNL     1     -74.545 -15.387  88.089  1.00  0.00    -0.203 F 
HETATM   27  C11 UNL     1     -72.984 -16.759  86.976  1.00  0.00     0.127 A 
HETATM   28  C12 UNL     1     -72.722 -17.618  85.925  1.00  0.00     0.089 A 
HETATM   29 CL1  UNL     1     -71.089 -18.288  85.811  1.00  0.00    -0.080 Cl
HETATM   30  C13 UNL     1     -73.695 -17.938  85.005  1.00  0.00     0.063 A 
HETATM   31 BR1  UNL     1     -73.221 -19.133  83.599  1.00  0.00    -0.047 Br
BRANCH  27  32
HETATM   32  O2  UNL     1     -72.036 -16.406  87.929  1.00  0.00    -0.356 OA
ATOM     33  H2  UNL     1     -71.193 -16.845  87.928  1.00  0.00     0.218 HD
ENDBRANCH  27  32
ENDBRANCH   8  23
TORSDOF 6
ENDMDL
