MODEL 1
REMARK VINA RESULT: -5.003111254      0.000      0.000
REMARK  5 active torsions:
REMARK  status: ('A' for Active; 'I' for Inactive)
REMARK    1  A    between atoms: C2_2  and  C3_3 
REMARK    2  A    between atoms: C3_3  and  N1_4 
REMARK    3  A    between atoms: N1_4  and  C4_5 
REMARK    4  A    between atoms: C4_5  and  C5_6 
REMARK    5  A    between atoms: C5_6  and  N2_7 
ROOT
HETATM    1  N1  UNL     1      11.417  19.992  21.721  1.00  0.00    -0.059 N 
HETATM    2  C6  UNL     1      12.424  20.273  20.745  1.00  0.00     0.270 C 
HETATM    3  C7  UNL     1      12.938  21.671  20.706  1.00  0.00     0.212 C 
HETATM    4  C8  UNL     1      12.029  22.689  20.094  1.00  0.00     0.037 C 
HETATM    5  C9  UNL     1      11.399  23.370  21.291  1.00  0.00     0.037 C 
HETATM    6  C10 UNL     1      11.687  22.363  22.389  1.00  0.00     0.212 C 
HETATM    7  C11 UNL     1      10.815  21.177  22.287  1.00  0.00     0.270 C 
HETATM    8  N3  UNL     1      13.100  22.107  22.103  1.00  0.00    -0.063 N 
ATOM      9  H31 UNL     1      13.751  22.873  22.274  1.00  0.00     0.278 HD
ATOM     10  H32 UNL     1      13.588  21.468  22.730  1.00  0.00     0.278 HD
ENDROOT
BRANCH   1  11
HETATM   11  C3  UNL     1      12.101  19.330  22.862  1.00  0.00     0.264 C 
BRANCH  11  12
HETATM   12  C2  UNL     1      13.080  18.330  22.386  1.00  0.00    -0.009 C 
HETATM   13  C1  UNL     1      14.055  17.952  23.180  1.00  0.00     0.008 C 
ENDBRANCH  11  12
ENDBRANCH   1  11
BRANCH   1  14
HETATM   14  C4  UNL     1      10.464  19.012  21.337  1.00  0.00     0.265 C 
BRANCH  14  15
HETATM   15  C5  UNL     1      10.178  18.721  19.940  1.00  0.00     0.257 C 
BRANCH  15  16
HETATM   16  N2  UNL     1       8.868  18.205  19.618  1.00  0.00    -0.078 N 
ATOM     17  H23 UNL     1       8.829  17.986  18.623  1.00  0.00     0.274 HD
ATOM     18  H22 UNL     1       8.765  17.275  20.024  1.00  0.00     0.274 HD
ATOM     19  H21 UNL     1       8.060  18.774  19.870  1.00  0.00     0.274 HD
ENDBRANCH  15  16
ENDBRANCH  14  15
ENDBRANCH   1  14
TORSDOF 5
ENDMDL
MODEL 2
REMARK VINA RESULT: -4.890497765      1.901      4.273
REMARK  5 active torsions:
REMARK  status: ('A' for Active; 'I' for Inactive)
REMARK    1  A    between atoms: C2_2  and  C3_3 
REMARK    2  A    between atoms: C3_3  and  N1_4 
REMARK    3  A    between atoms: N1_4  and  C4_5 
REMARK    4  A    between atoms: C4_5  and  C5_6 
REMARK    5  A    between atoms: C5_6  and  N2_7 
ROOT
HETATM    1  N1  UNL     1      12.261  21.626  21.263  1.00  0.00    -0.059 N 
HETATM    2  C6  UNL     1      11.270  21.169  22.187  1.00  0.00     0.270 C 
HETATM    3  C7  UNL     1      11.622  19.970  22.999  1.00  0.00     0.212 C 
HETATM    4  C8  UNL     1      11.593  18.658  22.283  1.00  0.00     0.037 C 
HETATM    5  C9  UNL     1      13.050  18.390  21.970  1.00  0.00     0.037 C 
HETATM    6  C10 UNL     1      13.649  19.772  22.146  1.00  0.00     0.212 C 
HETATM    7  C11 UNL     1      13.310  20.662  21.019  1.00  0.00     0.270 C 
HETATM    8  N3  UNL     1      13.024  20.136  23.418  1.00  0.00    -0.063 N 
ATOM      9  H31 UNL     1      13.322  19.616  24.243  1.00  0.00     0.278 HD
ATOM     10  H32 UNL     1      13.282  21.038  23.817  1.00  0.00     0.278 HD
ENDROOT
BRANCH   1  11
HETATM   11  C3  UNL     1      12.945  22.778  21.905  1.00  0.00     0.264 C 
BRANCH  11  12
HETATM   12  C2  UNL     1      11.963  23.765  22.404  1.00  0.00    -0.009 C 
HETATM   13  C1  UNL     1      12.283  24.536  23.418  1.00  0.00     0.008 C 
ENDBRANCH  11  12
ENDBRANCH   1  11
BRANCH   1  14
HETATM   14  C4  UNL     1      11.752  22.208  20.071  1.00  0.00     0.265 C 
BRANCH  14  15
HETATM   15  C5  UNL     1      12.591  22.431  18.904  1.00  0.00     0.257 C 
BRANCH  15  16
HETATM   16  N2  UNL     1      12.086  23.308  17.874  1.00  0.00    -0.078 N 
ATOM     17  H23 UNL     1      11.344  22.832  17.362  1.00  0.00     0.274 HD
ATOM     18  H22 UNL     1      11.562  24.069  18.308  1.00  0.00     0.274 HD
ATOM     19  H21 UNL     1      12.758  23.697  17.212  1.00  0.00     0.274 HD
ENDBRANCH  15  16
ENDBRANCH  14  15
ENDBRANCH   1  14
TORSDOF 5
ENDMDL
MODEL 3
REMARK VINA RESULT: -4.704587017      3.502      4.918
REMARK  5 active torsions:
REMARK  status: ('A' for Active; 'I' for Inactive)
REMARK    1  A    between atoms: C2_2  and  C3_3 
REMARK    2  A    between atoms: C3_3  and  N1_4 
REMARK    3  A    between atoms: N1_4  and  C4_5 
REMARK    4  A    between atoms: C4_5  and  C5_6 
REMARK    5  A    between atoms: C5_6  and  N2_7 
ROOT
HETATM    1  N1  UNL     1      13.829  21.738  18.677  1.00  0.00    -0.059 N 
HETATM    2  C6  UNL     1      15.257  21.694  18.715  1.00  0.00     0.270 C 
HETATM    3  C7  UNL     1      15.975  22.708  17.892  1.00  0.00     0.212 C 
HETATM    4  C8  UNL     1      15.984  22.470  16.416  1.00  0.00     0.037 C 
HETATM    5  C9  UNL     1      14.899  23.391  15.899  1.00  0.00     0.037 C 
HETATM    6  C10 UNL     1      14.130  23.684  17.173  1.00  0.00     0.212 C 
HETATM    7  C11 UNL     1      13.305  22.535  17.591  1.00  0.00     0.270 C 
HETATM    8  N3  UNL     1      15.255  23.982  18.060  1.00  0.00    -0.063 N 
ATOM      9  H31 UNL     1      15.779  24.836  17.870  1.00  0.00     0.278 HD
ATOM     10  H32 UNL     1      15.028  24.260  19.015  1.00  0.00     0.278 HD
ENDROOT
BRANCH   1  11
HETATM   11  C3  UNL     1      13.389  22.440  19.910  1.00  0.00     0.264 C 
BRANCH  11  12
HETATM   12  C2  UNL     1      11.915  22.539  19.966  1.00  0.00    -0.009 C 
HETATM   13  C1  UNL     1      11.344  23.098  21.009  1.00  0.00     0.008 C 
ENDBRANCH  11  12
ENDBRANCH   1  11
BRANCH   1  14
HETATM   14  C4  UNL     1      13.184  20.479  18.805  1.00  0.00     0.265 C 
BRANCH  14  15
HETATM   15  C5  UNL     1      13.091  19.545  17.693  1.00  0.00     0.257 C 
BRANCH  15  16
HETATM   16  N2  UNL     1      11.779  19.061  17.333  1.00  0.00    -0.078 N 
ATOM     17  H23 UNL     1      11.282  19.788  16.819  1.00  0.00     0.274 HD
ATOM     18  H22 UNL     1      11.872  18.345  16.612  1.00  0.00     0.274 HD
ATOM     19  H21 UNL     1      11.182  18.709  18.081  1.00  0.00     0.274 HD
ENDBRANCH  15  16
ENDBRANCH  14  15
ENDBRANCH   1  14
TORSDOF 5
ENDMDL
MODEL 4
REMARK VINA RESULT: -4.688273222      1.255      1.366
REMARK  5 active torsions:
REMARK  status: ('A' for Active; 'I' for Inactive)
REMARK    1  A    between atoms: C2_2  and  C3_3 
REMARK    2  A    between atoms: C3_3  and  N1_4 
REMARK    3  A    between atoms: N1_4  and  C4_5 
REMARK    4  A    between atoms: C4_5  and  C5_6 
REMARK    5  A    between atoms: C5_6  and  N2_7 
ROOT
HETATM    1  N1  UNL     1      11.992  19.736  20.621  1.00  0.00    -0.059 N 
HETATM    2  C6  UNL     1      12.628  20.544  19.627  1.00  0.00     0.270 C 
HETATM    3  C7  UNL     1      12.959  21.942  20.022  1.00  0.00     0.212 C 
HETATM    4  C8  UNL     1      11.810  22.895  20.095  1.00  0.00     0.037 C 
HETATM    5  C9  UNL     1      11.498  22.966  21.575  1.00  0.00     0.037 C 
HETATM    6  C10 UNL     1      12.203  21.723  22.085  1.00  0.00     0.212 C 
HETATM    7  C11 UNL     1      11.467  20.494  21.733  1.00  0.00     0.270 C 
HETATM    8  N3  UNL     1      13.484  21.884  21.396  1.00  0.00    -0.063 N 
ATOM      9  H31 UNL     1      14.074  22.660  21.697  1.00  0.00     0.278 HD
ATOM     10  H32 UNL     1      14.201  21.184  21.587  1.00  0.00     0.278 HD
ENDROOT
BRANCH   1  11
HETATM   11  C3  UNL     1      13.048  18.875  21.212  1.00  0.00     0.264 C 
BRANCH  11  12
HETATM   12  C2  UNL     1      13.569  17.915  20.215  1.00  0.00    -0.009 C 
HETATM   13  C1  UNL     1      14.650  17.222  20.491  1.00  0.00     0.008 C 
ENDBRANCH  11  12
ENDBRANCH   1  11
BRANCH   1  14
HETATM   14  C4  UNL     1      11.073  18.776  20.119  1.00  0.00     0.265 C 
BRANCH  14  15
HETATM   15  C5  UNL     1       9.677  18.758  20.529  1.00  0.00     0.257 C 
BRANCH  15  16
HETATM   16  N2  UNL     1       8.722  18.154  19.630  1.00  0.00    -0.078 N 
ATOM     17  H23 UNL     1       9.199  17.467  19.046  1.00  0.00     0.274 HD
ATOM     18  H22 UNL     1       8.094  17.551  20.162  1.00  0.00     0.274 HD
ATOM     19  H21 UNL     1       8.171  18.775  19.038  1.00  0.00     0.274 HD
ENDBRANCH  15  16
ENDBRANCH  14  15
ENDBRANCH   1  14
TORSDOF 5
ENDMDL
MODEL 5
REMARK VINA RESULT: -4.656709735      1.962      4.402
REMARK  5 active torsions:
REMARK  status: ('A' for Active; 'I' for Inactive)
REMARK    1  A    between atoms: C2_2  and  C3_3 
REMARK    2  A    between atoms: C3_3  and  N1_4 
REMARK    3  A    between atoms: N1_4  and  C4_5 
REMARK    4  A    between atoms: C4_5  and  C5_6 
REMARK    5  A    between atoms: C5_6  and  N2_7 
ROOT
HETATM    1  N1  UNL     1      13.015  20.980  20.464  1.00  0.00    -0.059 N 
HETATM    2  C6  UNL     1      11.727  20.448  20.140  1.00  0.00     0.270 C 
HETATM    3  C7  UNL     1      11.556  18.978  20.309  1.00  0.00     0.212 C 
HETATM    4  C8  UNL     1      12.199  18.117  19.269  1.00  0.00     0.037 C 
HETATM    5  C9  UNL     1      13.476  17.649  19.934  1.00  0.00     0.037 C 
HETATM    6  C10 UNL     1      13.603  18.650  21.066  1.00  0.00     0.212 C 
HETATM    7  C11 UNL     1      14.043  19.972  20.581  1.00  0.00     0.270 C 
HETATM    8  N3  UNL     1      12.229  18.610  21.566  1.00  0.00    -0.063 N 
ATOM      9  H31 UNL     1      11.926  17.746  22.015  1.00  0.00     0.278 HD
ATOM     10  H32 UNL     1      12.019  19.182  22.384  1.00  0.00     0.278 HD
ENDROOT
BRANCH   1  11
HETATM   11  C3  UNL     1      12.904  21.570  21.823  1.00  0.00     0.264 C 
BRANCH  11  12
HETATM   12  C2  UNL     1      11.986  22.730  21.824  1.00  0.00    -0.009 C 
HETATM   13  C1  UNL     1      12.180  23.705  22.681  1.00  0.00     0.008 C 
ENDBRANCH  11  12
ENDBRANCH   1  11
BRANCH   1  14
HETATM   14  C4  UNL     1      13.417  22.098  19.686  1.00  0.00     0.265 C 
BRANCH  14  15
HETATM   15  C5  UNL     1      12.905  22.327  18.344  1.00  0.00     0.257 C 
BRANCH  15  16
HETATM   16  N2  UNL     1      12.028  23.457  18.145  1.00  0.00    -0.078 N 
ATOM     17  H23 UNL     1      12.242  24.174  18.837  1.00  0.00     0.274 HD
ATOM     18  H22 UNL     1      12.289  23.937  17.283  1.00  0.00     0.274 HD
ATOM     19  H21 UNL     1      11.023  23.281  18.141  1.00  0.00     0.274 HD
ENDBRANCH  15  16
ENDBRANCH  14  15
ENDBRANCH   1  14
TORSDOF 5
ENDMDL
