MODEL 1
REMARK VINA RESULT: -7.477255215      0.000      0.000
REMARK  14 active torsions:
REMARK  status: ('A' for Active; 'I' for Inactive)
REMARK    1  A    between atoms: C2_2  and  C4_4 
REMARK    2  A    between atoms: C7_7  and  C8_8 
REMARK    3  A    between atoms: C8_8  and  O2_10 
REMARK    4  A    between atoms: O2_10  and  C9_11 
REMARK    5  A    between atoms: C9_11  and  C10_12 
REMARK    6  A    between atoms: C10_12  and  O3_13 
REMARK    7  A    between atoms: O3_13  and  S1_14 
REMARK    8  A    between atoms: C11_18  and  C12_19 
REMARK    9  A    between atoms: C12_19  and  C13_20 
REMARK   10  A    between atoms: C13_20  and  C14_21 
REMARK   11  A    between atoms: C14_21  and  C15_22 
REMARK   12  A    between atoms: C15_22  and  C16_23 
REMARK   13  A    between atoms: C16_23  and  O7_24 
REMARK   14  A    between atoms: C25_34  and  C26_35 
ROOT
HETATM    1  C4  UNL     1      11.792  -0.901  28.634  1.00  0.00     0.019 C 
HETATM    2  C5  UNL     1      10.524  -1.446  28.026  1.00  0.00     0.011 C 
HETATM    3  C6  UNL     1       9.636  -0.229  27.700  1.00  0.00     0.025 C 
HETATM    4  C7  UNL     1      10.641   0.838  27.552  1.00  0.00     0.076 C 
HETATM    5  C11 UNL     1      10.243   2.267  27.613  1.00  0.00    -0.064 C 
HETATM    6  C17 UNL     1      10.435   2.949  28.947  1.00  0.00     0.045 C 
HETATM    7  C18 UNL     1      11.765   2.704  29.592  1.00  0.00    -0.032 C 
HETATM    8  C19 UNL     1      11.467   2.173  31.000  1.00  0.00     0.016 C 
HETATM    9  C20 UNL     1      12.683   3.852  29.642  1.00  0.00    -0.001 C 
HETATM   10  C21 UNL     1      13.206   4.191  31.016  1.00  0.00     0.011 C 
HETATM   11  C22 UNL     1      14.386   5.075  30.784  1.00  0.00    -0.002 C 
HETATM   12  C23 UNL     1      15.639   4.468  31.381  1.00  0.00     0.032 C 
HETATM   13  C24 UNL     1      16.660   4.763  30.361  1.00  0.00    -0.023 C 
HETATM   14  C25 UNL     1      16.109   5.064  29.189  1.00  0.00    -0.075 C 
HETATM   15  C29 UNL     1      14.656   5.016  29.285  1.00  0.00     0.023 C 
HETATM   16  C30 UNL     1      13.961   3.762  28.850  1.00  0.00    -0.001 C 
HETATM   17  C31 UNL     1      14.702   2.498  28.968  1.00  0.00     0.006 C 
HETATM   18  C32 UNL     1      13.824   1.314  29.453  1.00  0.00     0.006 C 
HETATM   19  C33 UNL     1      12.503   1.553  28.866  1.00  0.00     0.001 C 
HETATM   20  C34 UNL     1      11.495   0.507  28.802  1.00  0.00     0.021 C 
ENDROOT
BRANCH   4  21
HETATM   21  C8  UNL     1      11.394   0.561  26.300  1.00  0.00     0.272 C 
HETATM   22  O1  UNL     1      10.766  -0.032  25.348  1.00  0.00    -0.264 OA
BRANCH  21  23
HETATM   23  O2  UNL     1      12.690   0.849  26.002  1.00  0.00    -0.318 OA
BRANCH  23  24
HETATM   24  C9  UNL     1      13.628   0.039  25.369  1.00  0.00     0.206 C 
BRANCH  24  25
HETATM   25  C10 UNL     1      14.971   0.766  25.492  1.00  0.00     0.220 C 
BRANCH  25  26
HETATM   26  O3  UNL     1      16.007  -0.099  25.109  1.00  0.00    -0.255 OA
BRANCH  26  27
HETATM   27  S1  UNL     1      16.972  -0.505  26.396  1.00  0.00     0.251 S 
HETATM   28  O4  UNL     1      17.711  -1.799  26.126  1.00  0.00    -0.572 OA
HETATM   29  O5  UNL     1      16.191  -0.698  27.668  1.00  0.00    -0.572 OA
HETATM   30  O6  UNL     1      18.093   0.717  26.679  1.00  0.00    -0.572 OA
ENDBRANCH  26  27
ENDBRANCH  25  26
ENDBRANCH  24  25
ENDBRANCH  23  24
ENDBRANCH  21  23
ENDBRANCH   4  21
BRANCH   5  31
HETATM   31  C12 UNL     1       9.022   2.669  26.915  1.00  0.00    -0.023 C 
BRANCH  31  32
HETATM   32  C13 UNL     1       8.994   3.023  25.493  1.00  0.00     0.027 C 
BRANCH  32  33
HETATM   33  C14 UNL     1       7.639   2.591  24.904  1.00  0.00     0.006 C 
BRANCH  33  34
HETATM   34  C15 UNL     1       7.424   1.108  24.995  1.00  0.00     0.026 C 
BRANCH  34  35
HETATM   35  C16 UNL     1       7.468   0.429  23.627  1.00  0.00     0.164 C 
BRANCH  35  36
HETATM   36  O7  UNL     1       8.775   0.147  23.256  1.00  0.00    -0.401 OA
ATOM     37  H7  UNL     1       8.797  -0.488  22.551  1.00  0.00     0.209 HD
ENDBRANCH  35  36
ENDBRANCH  34  35
ENDBRANCH  33  34
ENDBRANCH  32  33
ENDBRANCH  31  32
ENDBRANCH   5  31
BRANCH   1  38
HETATM   38  C2  UNL     1      11.988  -1.623  29.946  1.00  0.00    -0.088 C 
HETATM   39  C1  UNL     1      13.138  -2.203  30.195  1.00  0.00     0.014 C 
HETATM   40  C3  UNL     1      10.917  -1.700  30.969  1.00  0.00     0.043 C 
ENDBRANCH   1  38
BRANCH  14  41
HETATM   41  C26 UNL     1      16.906   5.405  27.990  1.00  0.00     0.006 C 
HETATM   42  C27 UNL     1      17.722   4.284  27.449  1.00  0.00     0.014 C 
HETATM   43  C28 UNL     1      15.954   5.816  26.847  1.00  0.00     0.014 C 
ENDBRANCH  14  41
TORSDOF 14
ENDMDL
MODEL 2
REMARK VINA RESULT: -7.368461287      0.753      1.126
REMARK  14 active torsions:
REMARK  status: ('A' for Active; 'I' for Inactive)
REMARK    1  A    between atoms: C2_2  and  C4_4 
REMARK    2  A    between atoms: C7_7  and  C8_8 
REMARK    3  A    between atoms: C8_8  and  O2_10 
REMARK    4  A    between atoms: O2_10  and  C9_11 
REMARK    5  A    between atoms: C9_11  and  C10_12 
REMARK    6  A    between atoms: C10_12  and  O3_13 
REMARK    7  A    between atoms: O3_13  and  S1_14 
REMARK    8  A    between atoms: C11_18  and  C12_19 
REMARK    9  A    between atoms: C12_19  and  C13_20 
REMARK   10  A    between atoms: C13_20  and  C14_21 
REMARK   11  A    between atoms: C14_21  and  C15_22 
REMARK   12  A    between atoms: C15_22  and  C16_23 
REMARK   13  A    between atoms: C16_23  and  O7_24 
REMARK   14  A    between atoms: C25_34  and  C26_35 
ROOT
HETATM    1  C4  UNL     1      11.852  -1.005  28.886  1.00  0.00     0.019 C 
HETATM    2  C5  UNL     1      10.601  -1.587  28.277  1.00  0.00     0.011 C 
HETATM    3  C6  UNL     1       9.725  -0.393  27.850  1.00  0.00     0.025 C 
HETATM    4  C7  UNL     1      10.735   0.663  27.665  1.00  0.00     0.076 C 
HETATM    5  C11 UNL     1      10.338   2.093  27.625  1.00  0.00    -0.064 C 
HETATM    6  C17 UNL     1      10.492   2.856  28.918  1.00  0.00     0.045 C 
HETATM    7  C18 UNL     1      11.803   2.653  29.616  1.00  0.00    -0.032 C 
HETATM    8  C19 UNL     1      11.464   2.211  31.045  1.00  0.00     0.016 C 
HETATM    9  C20 UNL     1      12.721   3.803  29.621  1.00  0.00    -0.001 C 
HETATM   10  C21 UNL     1      13.205   4.226  30.985  1.00  0.00     0.011 C 
HETATM   11  C22 UNL     1      14.392   5.094  30.733  1.00  0.00    -0.002 C 
HETATM   12  C23 UNL     1      15.627   4.527  31.403  1.00  0.00     0.032 C 
HETATM   13  C24 UNL     1      16.676   4.758  30.395  1.00  0.00    -0.023 C 
HETATM   14  C25 UNL     1      16.160   4.985  29.192  1.00  0.00    -0.075 C 
HETATM   15  C29 UNL     1      14.705   4.942  29.249  1.00  0.00     0.023 C 
HETATM   16  C30 UNL     1      14.021   3.663  28.873  1.00  0.00    -0.001 C 
HETATM   17  C31 UNL     1      14.756   2.410  29.091  1.00  0.00     0.006 C 
HETATM   18  C32 UNL     1      13.864   1.258  29.623  1.00  0.00     0.006 C 
HETATM   19  C33 UNL     1      12.560   1.459  28.984  1.00  0.00     0.001 C 
HETATM   20  C34 UNL     1      11.553   0.411  28.957  1.00  0.00     0.021 C 
ENDROOT
BRANCH   4  21
HETATM   21  C8  UNL     1      11.524   0.308  26.455  1.00  0.00     0.272 C 
HETATM   22  O1  UNL     1      11.005  -0.532  25.633  1.00  0.00    -0.264 OA
BRANCH  21  23
HETATM   23  O2  UNL     1      12.752   0.754  26.076  1.00  0.00    -0.318 OA
BRANCH  23  24
HETATM   24  C9  UNL     1      13.774   0.040  25.457  1.00  0.00     0.206 C 
BRANCH  24  25
HETATM   25  C10 UNL     1      15.063   0.823  25.721  1.00  0.00     0.220 C 
BRANCH  25  26
HETATM   26  O3  UNL     1      16.162   0.085  25.256  1.00  0.00    -0.255 OA
BRANCH  26  27
HETATM   27  S1  UNL     1      17.146  -0.398  26.502  1.00  0.00     0.251 S 
HETATM   28  O4  UNL     1      16.356  -0.538  27.786  1.00  0.00    -0.572 OA
HETATM   29  O5  UNL     1      18.262   0.574  26.770  1.00  0.00    -0.572 OA
HETATM   30  O6  UNL     1      17.852  -1.880  26.131  1.00  0.00    -0.572 OA
ENDBRANCH  26  27
ENDBRANCH  25  26
ENDBRANCH  24  25
ENDBRANCH  23  24
ENDBRANCH  21  23
ENDBRANCH   4  21
BRANCH   5  31
HETATM   31  C12 UNL     1       9.138   2.450  26.868  1.00  0.00    -0.023 C 
BRANCH  31  32
HETATM   32  C13 UNL     1       9.169   2.834  25.454  1.00  0.00     0.027 C 
BRANCH  32  33
HETATM   33  C14 UNL     1       8.530   1.707  24.623  1.00  0.00     0.006 C 
BRANCH  33  34
HETATM   34  C15 UNL     1       9.389   1.297  23.462  1.00  0.00     0.026 C 
BRANCH  34  35
HETATM   35  C16 UNL     1      10.664   2.131  23.359  1.00  0.00     0.164 C 
BRANCH  35  36
HETATM   36  O7  UNL     1      11.773   1.318  23.167  1.00  0.00    -0.401 OA
ATOM     37  H7  UNL     1      12.501   1.606  23.704  1.00  0.00     0.209 HD
ENDBRANCH  35  36
ENDBRANCH  34  35
ENDBRANCH  33  34
ENDBRANCH  32  33
ENDBRANCH  31  32
ENDBRANCH   5  31
BRANCH   1  38
HETATM   38  C2  UNL     1      12.010  -1.644  30.246  1.00  0.00    -0.088 C 
HETATM   39  C1  UNL     1      13.095  -2.331  30.511  1.00  0.00     0.014 C 
HETATM   40  C3  UNL     1      10.971  -1.520  31.298  1.00  0.00     0.043 C 
ENDBRANCH   1  38
BRANCH  14  41
HETATM   41  C26 UNL     1      16.992   5.251  27.997  1.00  0.00     0.006 C 
HETATM   42  C27 UNL     1      17.711   4.061  27.466  1.00  0.00     0.014 C 
HETATM   43  C28 UNL     1      16.087   5.738  26.846  1.00  0.00     0.014 C 
ENDBRANCH  14  41
TORSDOF 14
ENDMDL
MODEL 3
REMARK VINA RESULT: -7.361619481      2.486      6.769
REMARK  14 active torsions:
REMARK  status: ('A' for Active; 'I' for Inactive)
REMARK    1  A    between atoms: C2_2  and  C4_4 
REMARK    2  A    between atoms: C7_7  and  C8_8 
REMARK    3  A    between atoms: C8_8  and  O2_10 
REMARK    4  A    between atoms: O2_10  and  C9_11 
REMARK    5  A    between atoms: C9_11  and  C10_12 
REMARK    6  A    between atoms: C10_12  and  O3_13 
REMARK    7  A    between atoms: O3_13  and  S1_14 
REMARK    8  A    between atoms: C11_18  and  C12_19 
REMARK    9  A    between atoms: C12_19  and  C13_20 
REMARK   10  A    between atoms: C13_20  and  C14_21 
REMARK   11  A    between atoms: C14_21  and  C15_22 
REMARK   12  A    between atoms: C15_22  and  C16_23 
REMARK   13  A    between atoms: C16_23  and  O7_24 
REMARK   14  A    between atoms: C25_34  and  C26_35 
ROOT
HETATM    1  C4  UNL     1      13.641   1.250  32.074  1.00  0.00     0.019 C 
HETATM    2  C5  UNL     1      14.677   0.755  33.052  1.00  0.00     0.011 C 
HETATM    3  C6  UNL     1      15.161  -0.610  32.523  1.00  0.00     0.025 C 
HETATM    4  C7  UNL     1      14.874  -0.488  31.083  1.00  0.00     0.076 C 
HETATM    5  C11 UNL     1      14.815  -1.692  30.218  1.00  0.00    -0.064 C 
HETATM    6  C17 UNL     1      13.435  -2.241  29.944  1.00  0.00     0.045 C 
HETATM    7  C18 UNL     1      12.416  -1.213  29.554  1.00  0.00    -0.032 C 
HETATM    8  C19 UNL     1      11.237  -1.389  30.520  1.00  0.00     0.016 C 
HETATM    9  C20 UNL     1      11.963  -1.246  28.154  1.00  0.00    -0.001 C 
HETATM   10  C21 UNL     1      10.469  -1.338  27.970  1.00  0.00     0.011 C 
HETATM   11  C22 UNL     1      10.221  -0.953  26.550  1.00  0.00    -0.002 C 
HETATM   12  C23 UNL     1       9.306   0.252  26.470  1.00  0.00     0.032 C 
HETATM   13  C24 UNL     1       9.906   1.043  25.382  1.00  0.00    -0.023 C 
HETATM   14  C25 UNL     1      11.160   0.674  25.142  1.00  0.00    -0.075 C 
HETATM   15  C29 UNL     1      11.549  -0.411  26.032  1.00  0.00     0.023 C 
HETATM   16  C30 UNL     1      12.300  -0.066  27.281  1.00  0.00    -0.001 C 
HETATM   17  C31 UNL     1      12.064   1.258  27.873  1.00  0.00     0.006 C 
HETATM   18  C32 UNL     1      12.003   1.238  29.422  1.00  0.00     0.006 C 
HETATM   19  C33 UNL     1      12.965   0.209  29.829  1.00  0.00     0.001 C 
HETATM   20  C34 UNL     1      13.450   0.113  31.196  1.00  0.00     0.021 C 
ENDROOT
BRANCH   4  21
HETATM   21  C8  UNL     1      15.832   0.506  30.527  1.00  0.00     0.272 C 
HETATM   22  O1  UNL     1      17.076   0.354  30.812  1.00  0.00    -0.264 OA
BRANCH  21  23
HETATM   23  O2  UNL     1      15.580   1.585  29.739  1.00  0.00    -0.318 OA
BRANCH  23  24
HETATM   24  C9  UNL     1      16.385   2.700  29.524  1.00  0.00     0.206 C 
BRANCH  24  25
HETATM   25  C10 UNL     1      16.396   2.933  28.010  1.00  0.00     0.220 C 
BRANCH  25  26
HETATM   26  O3  UNL     1      15.426   2.121  27.404  1.00  0.00    -0.255 OA
BRANCH  26  27
HETATM   27  S1  UNL     1      16.116   0.876  26.552  1.00  0.00     0.251 S 
HETATM   28  O4  UNL     1      15.681   0.913  25.102  1.00  0.00    -0.572 OA
HETATM   29  O5  UNL     1      15.740  -0.477  27.093  1.00  0.00    -0.572 OA
HETATM   30  O6  UNL     1      17.793   0.994  26.624  1.00  0.00    -0.572 OA
ENDBRANCH  26  27
ENDBRANCH  25  26
ENDBRANCH  24  25
ENDBRANCH  23  24
ENDBRANCH  21  23
ENDBRANCH   4  21
BRANCH   5  31
HETATM   31  C12 UNL     1      15.832  -2.725  30.410  1.00  0.00    -0.023 C 
BRANCH  31  32
HETATM   32  C13 UNL     1      16.648  -3.257  29.314  1.00  0.00     0.027 C 
BRANCH  32  33
HETATM   33  C14 UNL     1      18.115  -2.855  29.550  1.00  0.00     0.006 C 
BRANCH  33  34
HETATM   34  C15 UNL     1      18.615  -1.889  28.516  1.00  0.00     0.026 C 
BRANCH  34  35
HETATM   35  C16 UNL     1      18.896  -2.566  27.176  1.00  0.00     0.164 C 
BRANCH  35  36
HETATM   36  O7  UNL     1      18.072  -2.056  26.182  1.00  0.00    -0.401 OA
ATOM     37  H7  UNL     1      18.525  -1.392  25.675  1.00  0.00     0.209 HD
ENDBRANCH  35  36
ENDBRANCH  34  35
ENDBRANCH  33  34
ENDBRANCH  32  33
ENDBRANCH  31  32
ENDBRANCH   5  31
BRANCH   1  38
HETATM   38  C2  UNL     1      12.409   1.586  32.881  1.00  0.00    -0.088 C 
HETATM   39  C1  UNL     1      11.969   2.821  32.897  1.00  0.00     0.014 C 
HETATM   40  C3  UNL     1      11.676   0.559  33.661  1.00  0.00     0.043 C 
ENDBRANCH   1  38
BRANCH  14  41
HETATM   41  C26 UNL     1      11.997   1.304  24.097  1.00  0.00     0.006 C 
HETATM   42  C27 UNL     1      12.788   0.347  23.276  1.00  0.00     0.014 C 
HETATM   43  C28 UNL     1      11.086   2.053  23.100  1.00  0.00     0.014 C 
ENDBRANCH  14  41
TORSDOF 14
ENDMDL
MODEL 4
REMARK VINA RESULT: -7.070930895      2.656      6.642
REMARK  14 active torsions:
REMARK  status: ('A' for Active; 'I' for Inactive)
REMARK    1  A    between atoms: C2_2  and  C4_4 
REMARK    2  A    between atoms: C7_7  and  C8_8 
REMARK    3  A    between atoms: C8_8  and  O2_10 
REMARK    4  A    between atoms: O2_10  and  C9_11 
REMARK    5  A    between atoms: C9_11  and  C10_12 
REMARK    6  A    between atoms: C10_12  and  O3_13 
REMARK    7  A    between atoms: O3_13  and  S1_14 
REMARK    8  A    between atoms: C11_18  and  C12_19 
REMARK    9  A    between atoms: C12_19  and  C13_20 
REMARK   10  A    between atoms: C13_20  and  C14_21 
REMARK   11  A    between atoms: C14_21  and  C15_22 
REMARK   12  A    between atoms: C15_22  and  C16_23 
REMARK   13  A    between atoms: C16_23  and  O7_24 
REMARK   14  A    between atoms: C25_34  and  C26_35 
ROOT
HETATM    1  C4  UNL     1      13.599   1.164  32.124  1.00  0.00     0.019 C 
HETATM    2  C5  UNL     1      14.654   0.686  33.091  1.00  0.00     0.011 C 
HETATM    3  C6  UNL     1      15.210  -0.632  32.516  1.00  0.00     0.025 C 
HETATM    4  C7  UNL     1      14.925  -0.471  31.080  1.00  0.00     0.076 C 
HETATM    5  C11 UNL     1      14.932  -1.644  30.170  1.00  0.00    -0.064 C 
HETATM    6  C17 UNL     1      13.583  -2.252  29.867  1.00  0.00     0.045 C 
HETATM    7  C18 UNL     1      12.516  -1.263  29.507  1.00  0.00    -0.032 C 
HETATM    8  C19 UNL     1      11.343  -1.534  30.458  1.00  0.00     0.016 C 
HETATM    9  C20 UNL     1      12.073  -1.268  28.104  1.00  0.00    -0.001 C 
HETATM   10  C21 UNL     1      10.586  -1.429  27.905  1.00  0.00     0.011 C 
HETATM   11  C22 UNL     1      10.326  -1.004  26.499  1.00  0.00    -0.002 C 
HETATM   12  C23 UNL     1       9.352   0.155  26.457  1.00  0.00     0.032 C 
HETATM   13  C24 UNL     1       9.917   1.015  25.403  1.00  0.00    -0.023 C 
HETATM   14  C25 UNL     1      11.189   0.719  25.159  1.00  0.00    -0.075 C 
HETATM   15  C29 UNL     1      11.628  -0.377  26.011  1.00  0.00     0.023 C 
HETATM   16  C30 UNL     1      12.354  -0.041  27.277  1.00  0.00    -0.001 C 
HETATM   17  C31 UNL     1      12.047   1.247  27.915  1.00  0.00     0.006 C 
HETATM   18  C32 UNL     1      11.979   1.166  29.462  1.00  0.00     0.006 C 
HETATM   19  C33 UNL     1      12.990   0.173  29.838  1.00  0.00     0.001 C 
HETATM   20  C34 UNL     1      13.472   0.052  31.204  1.00  0.00     0.021 C 
ENDROOT
BRANCH   4  21
HETATM   21  C8  UNL     1      15.834   0.590  30.568  1.00  0.00     0.272 C 
HETATM   22  O1  UNL     1      17.018   0.646  31.063  1.00  0.00    -0.264 OA
BRANCH  21  23
HETATM   23  O2  UNL     1      15.592   1.539  29.624  1.00  0.00    -0.318 OA
BRANCH  23  24
HETATM   24  C9  UNL     1      15.591   2.922  29.775  1.00  0.00     0.206 C 
BRANCH  24  25
HETATM   25  C10 UNL     1      15.882   3.503  28.388  1.00  0.00     0.220 C 
BRANCH  25  26
HETATM   26  O3  UNL     1      16.627   2.579  27.641  1.00  0.00    -0.255 OA
BRANCH  26  27
HETATM   27  S1  UNL     1      18.227   3.009  27.555  1.00  0.00     0.251 S 
HETATM   28  O4  UNL     1      19.033   1.942  26.846  1.00  0.00    -0.572 OA
HETATM   29  O5  UNL     1      18.848   3.206  28.911  1.00  0.00    -0.572 OA
HETATM   30  O6  UNL     1      18.385   4.461  26.718  1.00  0.00    -0.572 OA
ENDBRANCH  26  27
ENDBRANCH  25  26
ENDBRANCH  24  25
ENDBRANCH  23  24
ENDBRANCH  21  23
ENDBRANCH   4  21
BRANCH   5  31
HETATM   31  C12 UNL     1      16.000  -2.630  30.332  1.00  0.00    -0.023 C 
BRANCH  31  32
HETATM   32  C13 UNL     1      16.804  -3.129  29.212  1.00  0.00     0.027 C 
BRANCH  32  33
HETATM   33  C14 UNL     1      17.804  -2.034  28.798  1.00  0.00     0.006 C 
BRANCH  33  34
HETATM   34  C15 UNL     1      17.729  -1.717  27.332  1.00  0.00     0.026 C 
BRANCH  34  35
HETATM   35  C16 UNL     1      16.607  -0.733  27.008  1.00  0.00     0.164 C 
BRANCH  35  36
HETATM   36  O7  UNL     1      16.955   0.077  25.935  1.00  0.00    -0.401 OA
ATOM     37  H7  UNL     1      16.574   0.943  26.027  1.00  0.00     0.209 HD
ENDBRANCH  35  36
ENDBRANCH  34  35
ENDBRANCH  33  34
ENDBRANCH  32  33
ENDBRANCH  31  32
ENDBRANCH   5  31
BRANCH   1  38
HETATM   38  C2  UNL     1      12.348   1.407  32.934  1.00  0.00    -0.088 C 
HETATM   39  C1  UNL     1      11.881   2.627  33.044  1.00  0.00     0.014 C 
HETATM   40  C3  UNL     1      11.625   0.304  33.614  1.00  0.00     0.043 C 
ENDBRANCH   1  38
BRANCH  14  41
HETATM   41  C26 UNL     1      11.998   1.429  24.143  1.00  0.00     0.006 C 
HETATM   42  C27 UNL     1      12.985   0.574  23.427  1.00  0.00     0.014 C 
HETATM   43  C28 UNL     1      11.063   1.989  23.049  1.00  0.00     0.014 C 
ENDBRANCH  14  41
TORSDOF 14
ENDMDL
MODEL 5
REMARK VINA RESULT: -6.924257901      3.153      6.972
REMARK  14 active torsions:
REMARK  status: ('A' for Active; 'I' for Inactive)
REMARK    1  A    between atoms: C2_2  and  C4_4 
REMARK    2  A    between atoms: C7_7  and  C8_8 
REMARK    3  A    between atoms: C8_8  and  O2_10 
REMARK    4  A    between atoms: O2_10  and  C9_11 
REMARK    5  A    between atoms: C9_11  and  C10_12 
REMARK    6  A    between atoms: C10_12  and  O3_13 
REMARK    7  A    between atoms: O3_13  and  S1_14 
REMARK    8  A    between atoms: C11_18  and  C12_19 
REMARK    9  A    between atoms: C12_19  and  C13_20 
REMARK   10  A    between atoms: C13_20  and  C14_21 
REMARK   11  A    between atoms: C14_21  and  C15_22 
REMARK   12  A    between atoms: C15_22  and  C16_23 
REMARK   13  A    between atoms: C16_23  and  O7_24 
REMARK   14  A    between atoms: C25_34  and  C26_35 
ROOT
HETATM    1  C4  UNL     1      14.035   1.009  31.936  1.00  0.00     0.019 C 
HETATM    2  C5  UNL     1      15.080   0.418  32.848  1.00  0.00     0.011 C 
HETATM    3  C6  UNL     1      15.421  -0.974  32.281  1.00  0.00     0.025 C 
HETATM    4  C7  UNL     1      15.065  -0.810  30.861  1.00  0.00     0.076 C 
HETATM    5  C11 UNL     1      14.859  -1.994  29.989  1.00  0.00    -0.064 C 
HETATM    6  C17 UNL     1      13.426  -2.425  29.790  1.00  0.00     0.045 C 
HETATM    7  C18 UNL     1      12.474  -1.313  29.468  1.00  0.00    -0.032 C 
HETATM    8  C19 UNL     1      11.341  -1.406  30.498  1.00  0.00     0.016 C 
HETATM    9  C20 UNL     1      11.942  -1.291  28.096  1.00  0.00    -0.001 C 
HETATM   10  C21 UNL     1      10.438  -1.259  27.996  1.00  0.00     0.011 C 
HETATM   11  C22 UNL     1      10.142  -0.835  26.596  1.00  0.00    -0.002 C 
HETATM   12  C23 UNL     1       9.326   0.441  26.580  1.00  0.00     0.032 C 
HETATM   13  C24 UNL     1       9.927   1.196  25.467  1.00  0.00    -0.023 C 
HETATM   14  C25 UNL     1      11.131   0.730  25.152  1.00  0.00    -0.075 C 
HETATM   15  C29 UNL     1      11.479  -0.396  26.009  1.00  0.00     0.023 C 
HETATM   16  C30 UNL     1      12.325  -0.130  27.216  1.00  0.00    -0.001 C 
HETATM   17  C31 UNL     1      12.231   1.201  27.832  1.00  0.00     0.006 C 
HETATM   18  C32 UNL     1      12.256   1.165  29.382  1.00  0.00     0.006 C 
HETATM   19  C33 UNL     1      13.152   0.056  29.724  1.00  0.00     0.001 C 
HETATM   20  C34 UNL     1      13.703  -0.097  31.060  1.00  0.00     0.021 C 
ENDROOT
BRANCH   4  21
HETATM   21  C8  UNL     1      16.068   0.110  30.260  1.00  0.00     0.272 C 
HETATM   22  O1  UNL     1      17.227   0.166  30.812  1.00  0.00    -0.264 OA
BRANCH  21  23
HETATM   23  O2  UNL     1      15.938   0.927  29.181  1.00  0.00    -0.318 OA
BRANCH  23  24
HETATM   24  C9  UNL     1      16.264   0.660  27.854  1.00  0.00     0.206 C 
BRANCH  24  25
HETATM   25  C10 UNL     1      15.726   1.837  27.036  1.00  0.00     0.220 C 
BRANCH  25  26
HETATM   26  O3  UNL     1      16.768   2.739  26.772  1.00  0.00    -0.255 OA
BRANCH  26  27
HETATM   27  S1  UNL     1      16.553   4.174  27.576  1.00  0.00     0.251 S 
HETATM   28  O4  UNL     1      15.283   4.142  28.400  1.00  0.00    -0.572 OA
HETATM   29  O5  UNL     1      16.448   5.351  26.645  1.00  0.00    -0.572 OA
HETATM   30  O6  UNL     1      17.860   4.459  28.597  1.00  0.00    -0.572 OA
ENDBRANCH  26  27
ENDBRANCH  25  26
ENDBRANCH  24  25
ENDBRANCH  23  24
ENDBRANCH  21  23
ENDBRANCH   4  21
BRANCH   5  31
HETATM   31  C12 UNL     1      15.799  -3.108  30.113  1.00  0.00    -0.023 C 
BRANCH  31  32
HETATM   32  C13 UNL     1      16.545  -3.654  28.977  1.00  0.00     0.027 C 
BRANCH  32  33
HETATM   33  C14 UNL     1      18.009  -3.190  29.080  1.00  0.00     0.006 C 
BRANCH  33  34
HETATM   34  C15 UNL     1      18.417  -2.328  27.920  1.00  0.00     0.026 C 
BRANCH  34  35
HETATM   35  C16 UNL     1      19.487  -2.989  27.053  1.00  0.00     0.164 C 
BRANCH  35  36
HETATM   36  O7  UNL     1      19.038  -3.148  25.749  1.00  0.00    -0.401 OA
ATOM     37  H7  UNL     1      19.767  -3.212  25.145  1.00  0.00     0.209 HD
ENDBRANCH  35  36
ENDBRANCH  34  35
ENDBRANCH  33  34
ENDBRANCH  32  33
ENDBRANCH  31  32
ENDBRANCH   5  31
BRANCH   1  38
HETATM   38  C2  UNL     1      12.882   1.432  32.815  1.00  0.00    -0.088 C 
HETATM   39  C1  UNL     1      12.253   0.529  33.528  1.00  0.00     0.014 C 
HETATM   40  C3  UNL     1      12.435   2.844  32.899  1.00  0.00     0.043 C 
ENDBRANCH   1  38
BRANCH  14  41
HETATM   41  C26 UNL     1      11.956   1.304  24.066  1.00  0.00     0.006 C 
HETATM   42  C27 UNL     1      12.795   0.315  23.336  1.00  0.00     0.014 C 
HETATM   43  C28 UNL     1      11.030   1.931  23.002  1.00  0.00     0.014 C 
ENDBRANCH  14  41
TORSDOF 14
ENDMDL
