MODEL 1
REMARK VINA RESULT: -8.911602597      0.000      0.000
REMARK  14 active torsions:
REMARK  status: ('A' for Active; 'I' for Inactive)
REMARK    1  A    between atoms: C3_3  and  C5_5 
REMARK    2  A    between atoms: C5_5  and  O2_7 
REMARK    3  A    between atoms: O2_7  and  C6_8 
REMARK    4  A    between atoms: C9_11  and  C11_13 
REMARK    5  A    between atoms: C11_13  and  C12_14 
REMARK    6  A    between atoms: C12_14  and  C13_15 
REMARK    7  A    between atoms: C14_16  and  C16_18 
REMARK    8  A    between atoms: C16_18  and  C17_19 
REMARK    9  A    between atoms: C17_19  and  C18_20 
REMARK   10  A    between atoms: C19_21  and  C21_23 
REMARK   11  A    between atoms: C21_23  and  C22_24 
REMARK   12  A    between atoms: C22_24  and  C23_25 
REMARK   13  A    between atoms: C32_37  and  O6_38 
REMARK   14  A    between atoms: C33_40  and  O7_41 
ROOT
HETATM    1  C6  UNL     1      12.402   0.246  30.783  1.00  0.00     0.141 C 
HETATM    2  C7  UNL     1      10.970   0.755  30.705  1.00  0.00     0.034 C 
HETATM    3  C8  UNL     1      10.417   0.849  29.330  1.00  0.00     0.012 C 
HETATM    4  C9  UNL     1      11.189   0.064  28.316  1.00  0.00    -0.039 C 
HETATM    5  C10 UNL     1      10.769  -1.404  28.533  1.00  0.00     0.015 C 
HETATM    6  C27 UNL     1      12.670   0.210  28.359  1.00  0.00     0.005 C 
HETATM    7  C28 UNL     1      13.280   1.010  27.259  1.00  0.00     0.024 C 
HETATM    8  C29 UNL     1      14.443   0.236  26.613  1.00  0.00     0.133 C 
HETATM    9  C30 UNL     1      14.911   1.151  25.547  1.00  0.00     0.274 C 
HETATM   10  O3  UNL     1      14.593   1.113  24.355  1.00  0.00    -0.264 OA
HETATM   11  O4  UNL     1      15.767   2.054  26.143  1.00  0.00    -0.242 OA
HETATM   12  C31 UNL     1      16.090   1.621  27.433  1.00  0.00     0.304 C 
HETATM   13  O5  UNL     1      16.662   2.317  28.286  1.00  0.00    -0.261 OA
HETATM   14  C32 UNL     1      15.626   0.250  27.524  1.00  0.00     0.184 C 
HETATM   15  C33 UNL     1      15.470  -0.270  28.876  1.00  0.00     0.164 C 
HETATM   16  C34 UNL     1      14.660   0.472  29.873  1.00  0.00     0.047 C 
HETATM   17  C35 UNL     1      13.240   0.759  29.644  1.00  0.00    -0.010 C 
HETATM   18  C36 UNL     1      13.060   2.292  29.695  1.00  0.00     0.018 C 
ENDROOT
BRANCH   4  19
HETATM   19  C11 UNL     1      10.663   0.424  26.951  1.00  0.00     0.013 C 
BRANCH  19  20
HETATM   20  C12 UNL     1       9.685   1.575  26.948  1.00  0.00     0.028 C 
BRANCH  20  21
HETATM   21  C13 UNL     1       8.349   1.111  26.409  1.00  0.00    -0.024 C 
HETATM   22  C14 UNL     1       7.663   1.787  25.522  1.00  0.00    -0.087 C 
HETATM   23  C15 UNL     1       8.200   3.099  24.978  1.00  0.00     0.043 C 
BRANCH  22  24
HETATM   24  C16 UNL     1       6.341   1.392  25.014  1.00  0.00     0.037 C 
BRANCH  24  25
HETATM   25  C17 UNL     1       6.208   1.086  23.570  1.00  0.00     0.031 C 
BRANCH  25  26
HETATM   26  C18 UNL     1       5.670  -0.282  23.377  1.00  0.00    -0.024 C 
HETATM   27  C19 UNL     1       6.271  -1.233  22.734  1.00  0.00    -0.087 C 
HETATM   28  C20 UNL     1       5.590  -2.583  22.623  1.00  0.00     0.043 C 
BRANCH  27  29
HETATM   29  C21 UNL     1       7.621  -1.158  22.042  1.00  0.00     0.037 C 
BRANCH  29  30
HETATM   30  C22 UNL     1       8.717  -1.231  23.033  1.00  0.00     0.031 C 
BRANCH  30  31
HETATM   31  C23 UNL     1       9.593  -0.086  23.146  1.00  0.00    -0.024 C 
HETATM   32  C24 UNL     1      10.781   0.132  23.583  1.00  0.00    -0.091 C 
HETATM   33  C25 UNL     1      11.700  -0.847  24.162  1.00  0.00     0.042 C 
HETATM   34  C26 UNL     1      11.317   1.560  23.498  1.00  0.00     0.042 C 
ENDBRANCH  30  31
ENDBRANCH  29  30
ENDBRANCH  27  29
ENDBRANCH  25  26
ENDBRANCH  24  25
ENDBRANCH  22  24
ENDBRANCH  20  21
ENDBRANCH  19  20
ENDBRANCH   4  19
BRANCH   1  35
HETATM   35  O2  UNL     1      13.026   0.771  31.970  1.00  0.00    -0.311 OA
BRANCH  35  36
HETATM   36  C5  UNL     1      13.008   0.134  33.181  1.00  0.00     0.289 C 
HETATM   37  O1  UNL     1      13.885  -0.724  33.394  1.00  0.00    -0.260 OA
BRANCH  36  38
HETATM   38  C3  UNL     1      11.979   0.492  34.142  1.00  0.00     0.009 C 
HETATM   39  C2  UNL     1      10.789  -0.087  34.149  1.00  0.00    -0.018 C 
HETATM   40  C1  UNL     1       9.740   0.290  35.139  1.00  0.00     0.036 C 
HETATM   41  C4  UNL     1      12.258   1.539  35.146  1.00  0.00     0.054 C 
ENDBRANCH  36  38
ENDBRANCH  35  36
ENDBRANCH   1  35
BRANCH  14  42
HETATM   42  O6  UNL     1      16.611  -0.544  26.878  1.00  0.00    -0.376 OA
ATOM     43  H6  UNL     1      17.098  -0.962  27.578  1.00  0.00     0.211 HD
ENDBRANCH  14  42
BRANCH  15  44
HETATM   44  O7  UNL     1      15.266  -1.672  28.892  1.00  0.00    -0.392 OA
ATOM     45  H7  UNL     1      15.922  -2.126  29.408  1.00  0.00     0.210 HD
ENDBRANCH  15  44
TORSDOF 14
ENDMDL
MODEL 2
REMARK VINA RESULT: -8.530723232      1.947      5.352
REMARK  14 active torsions:
REMARK  status: ('A' for Active; 'I' for Inactive)
REMARK    1  A    between atoms: C3_3  and  C5_5 
REMARK    2  A    between atoms: C5_5  and  O2_7 
REMARK    3  A    between atoms: O2_7  and  C6_8 
REMARK    4  A    between atoms: C9_11  and  C11_13 
REMARK    5  A    between atoms: C11_13  and  C12_14 
REMARK    6  A    between atoms: C12_14  and  C13_15 
REMARK    7  A    between atoms: C14_16  and  C16_18 
REMARK    8  A    between atoms: C16_18  and  C17_19 
REMARK    9  A    between atoms: C17_19  and  C18_20 
REMARK   10  A    between atoms: C19_21  and  C21_23 
REMARK   11  A    between atoms: C21_23  and  C22_24 
REMARK   12  A    between atoms: C22_24  and  C23_25 
REMARK   13  A    between atoms: C32_37  and  O6_38 
REMARK   14  A    between atoms: C33_40  and  O7_41 
ROOT
HETATM    1  C6  UNL     1      15.218   1.350  26.641  1.00  0.00     0.141 C 
HETATM    2  C7  UNL     1      15.486   0.579  25.357  1.00  0.00     0.034 C 
HETATM    3  C8  UNL     1      14.334  -0.209  24.851  1.00  0.00     0.012 C 
HETATM    4  C9  UNL     1      13.020   0.201  25.441  1.00  0.00    -0.039 C 
HETATM    5  C10 UNL     1      12.632   1.499  24.706  1.00  0.00     0.015 C 
HETATM    6  C27 UNL     1      12.993   0.392  26.918  1.00  0.00     0.005 C 
HETATM    7  C28 UNL     1      12.286  -0.663  27.700  1.00  0.00     0.024 C 
HETATM    8  C29 UNL     1      11.275  -0.025  28.669  1.00  0.00     0.133 C 
HETATM    9  C30 UNL     1      10.659  -1.194  29.338  1.00  0.00     0.274 C 
HETATM   10  O3  UNL     1       9.595  -1.739  29.031  1.00  0.00    -0.264 OA
HETATM   11  O4  UNL     1      11.505  -1.558  30.366  1.00  0.00    -0.242 OA
HETATM   12  C31 UNL     1      12.457  -0.555  30.573  1.00  0.00     0.304 C 
HETATM   13  O5  UNL     1      13.471  -0.684  31.275  1.00  0.00    -0.261 OA
HETATM   14  C32 UNL     1      12.001   0.595  29.818  1.00  0.00     0.184 C 
HETATM   15  C33 UNL     1      13.015   1.604  29.538  1.00  0.00     0.164 C 
HETATM   16  C34 UNL     1      14.298   1.216  28.902  1.00  0.00     0.047 C 
HETATM   17  C35 UNL     1      14.334   0.578  27.582  1.00  0.00    -0.010 C 
HETATM   18  C36 UNL     1      15.044  -0.784  27.743  1.00  0.00     0.018 C 
ENDROOT
BRANCH   4  19
HETATM   19  C11 UNL     1      11.986  -0.811  25.021  1.00  0.00     0.013 C 
BRANCH  19  20
HETATM   20  C12 UNL     1      10.908  -0.258  24.120  1.00  0.00     0.028 C 
BRANCH  20  21
HETATM   21  C13 UNL     1       9.919  -1.350  23.772  1.00  0.00    -0.024 C 
HETATM   22  C14 UNL     1       8.901  -1.162  22.971  1.00  0.00    -0.087 C 
HETATM   23  C15 UNL     1       8.668   0.197  22.335  1.00  0.00     0.043 C 
BRANCH  22  24
HETATM   24  C16 UNL     1       7.895  -2.185  22.650  1.00  0.00     0.037 C 
BRANCH  24  25
HETATM   25  C17 UNL     1       6.622  -1.748  22.032  1.00  0.00     0.031 C 
BRANCH  25  26
HETATM   26  C18 UNL     1       5.539  -1.708  23.045  1.00  0.00    -0.024 C 
HETATM   27  C19 UNL     1       5.020  -0.627  23.536  1.00  0.00    -0.087 C 
HETATM   28  C20 UNL     1       3.916  -0.752  24.567  1.00  0.00     0.043 C 
BRANCH  27  29
HETATM   29  C21 UNL     1       5.401   0.804  23.201  1.00  0.00     0.037 C 
BRANCH  29  30
HETATM   30  C22 UNL     1       5.562   1.601  24.438  1.00  0.00     0.031 C 
BRANCH  30  31
HETATM   31  C23 UNL     1       6.636   1.235  25.334  1.00  0.00    -0.024 C 
HETATM   32  C24 UNL     1       7.808   1.682  25.607  1.00  0.00    -0.091 C 
HETATM   33  C25 UNL     1       8.469   2.843  25.010  1.00  0.00     0.042 C 
HETATM   34  C26 UNL     1       8.621   0.943  26.668  1.00  0.00     0.042 C 
ENDBRANCH  30  31
ENDBRANCH  29  30
ENDBRANCH  27  29
ENDBRANCH  25  26
ENDBRANCH  24  25
ENDBRANCH  22  24
ENDBRANCH  20  21
ENDBRANCH  19  20
ENDBRANCH   4  19
BRANCH   1  35
HETATM   35  O2  UNL     1      16.457   1.527  27.353  1.00  0.00    -0.311 OA
BRANCH  35  36
HETATM   36  C5  UNL     1      17.182   2.687  27.339  1.00  0.00     0.289 C 
HETATM   37  O1  UNL     1      18.310   2.655  26.811  1.00  0.00    -0.260 OA
BRANCH  36  38
HETATM   38  C3  UNL     1      16.601   3.879  27.930  1.00  0.00     0.009 C 
HETATM   39  C2  UNL     1      16.113   4.865  27.194  1.00  0.00    -0.018 C 
HETATM   40  C1  UNL     1      15.521   6.087  27.812  1.00  0.00     0.036 C 
HETATM   41  C4  UNL     1      16.552   4.009  29.401  1.00  0.00     0.054 C 
ENDBRANCH  36  38
ENDBRANCH  35  36
ENDBRANCH   1  35
BRANCH  14  42
HETATM   42  O6  UNL     1      10.997   1.215  30.610  1.00  0.00    -0.376 OA
ATOM     43  H6  UNL     1      10.832   2.055  30.197  1.00  0.00     0.211 HD
ENDBRANCH  14  42
BRANCH  15  44
HETATM   44  O7  UNL     1      12.454   2.802  29.030  1.00  0.00    -0.392 OA
ATOM     45  H7  UNL     1      11.625   2.653  28.589  1.00  0.00     0.210 HD
ENDBRANCH  15  44
TORSDOF 14
ENDMDL
MODEL 3
REMARK VINA RESULT: -8.289890335      2.482      8.271
REMARK  14 active torsions:
REMARK  status: ('A' for Active; 'I' for Inactive)
REMARK    1  A    between atoms: C3_3  and  C5_5 
REMARK    2  A    between atoms: C5_5  and  O2_7 
REMARK    3  A    between atoms: O2_7  and  C6_8 
REMARK    4  A    between atoms: C9_11  and  C11_13 
REMARK    5  A    between atoms: C11_13  and  C12_14 
REMARK    6  A    between atoms: C12_14  and  C13_15 
REMARK    7  A    between atoms: C14_16  and  C16_18 
REMARK    8  A    between atoms: C16_18  and  C17_19 
REMARK    9  A    between atoms: C17_19  and  C18_20 
REMARK   10  A    between atoms: C19_21  and  C21_23 
REMARK   11  A    between atoms: C21_23  and  C22_24 
REMARK   12  A    between atoms: C22_24  and  C23_25 
REMARK   13  A    between atoms: C32_37  and  O6_38 
REMARK   14  A    between atoms: C33_40  and  O7_41 
ROOT
HETATM    1  C6  UNL     1       7.879   1.620  24.610  1.00  0.00     0.141 C 
HETATM    2  C7  UNL     1       7.022   1.401  25.849  1.00  0.00     0.034 C 
HETATM    3  C8  UNL     1       7.749   1.521  27.138  1.00  0.00     0.012 C 
HETATM    4  C9  UNL     1       9.067   2.221  27.022  1.00  0.00    -0.039 C 
HETATM    5  C10 UNL     1       8.723   3.721  26.918  1.00  0.00     0.015 C 
HETATM    6  C27 UNL     1       9.943   1.792  25.897  1.00  0.00     0.005 C 
HETATM    7  C28 UNL     1      11.135   0.978  26.270  1.00  0.00     0.024 C 
HETATM    8  C29 UNL     1      12.408   1.564  25.632  1.00  0.00     0.133 C 
HETATM    9  C30 UNL     1      13.478   0.662  26.115  1.00  0.00     0.274 C 
HETATM   10  O3  UNL     1      14.215   0.853  27.086  1.00  0.00    -0.264 OA
HETATM   11  O4  UNL     1      13.489  -0.431  25.274  1.00  0.00    -0.242 OA
HETATM   12  C31 UNL     1      12.706  -0.169  24.145  1.00  0.00     0.304 C 
HETATM   13  O5  UNL     1      12.352  -1.026  23.321  1.00  0.00    -0.261 OA
HETATM   14  C32 UNL     1      12.427   1.253  24.172  1.00  0.00     0.184 C 
HETATM   15  C33 UNL     1      11.303   1.687  23.352  1.00  0.00     0.164 C 
HETATM   16  C34 UNL     1       9.977   1.038  23.499  1.00  0.00     0.047 C 
HETATM   17  C35 UNL     1       9.259   1.047  24.778  1.00  0.00    -0.010 C 
HETATM   18  C36 UNL     1       9.018  -0.423  25.187  1.00  0.00     0.018 C 
ENDROOT
BRANCH   4  19
HETATM   19  C11 UNL     1       9.788   2.075  28.337  1.00  0.00     0.013 C 
BRANCH  19  20
HETATM   20  C12 UNL     1      10.580   3.294  28.748  1.00  0.00     0.028 C 
BRANCH  20  21
HETATM   21  C13 UNL     1      11.890   2.867  29.375  1.00  0.00    -0.024 C 
HETATM   22  C14 UNL     1      12.845   3.710  29.675  1.00  0.00    -0.087 C 
HETATM   23  C15 UNL     1      12.670   5.194  29.404  1.00  0.00     0.043 C 
BRANCH  22  24
HETATM   24  C16 UNL     1      14.148   3.325  30.239  1.00  0.00     0.037 C 
BRANCH  24  25
HETATM   25  C17 UNL     1      14.205   2.927  31.665  1.00  0.00     0.031 C 
BRANCH  25  26
HETATM   26  C18 UNL     1      14.562   1.493  31.790  1.00  0.00    -0.024 C 
HETATM   27  C19 UNL     1      13.716   0.532  31.991  1.00  0.00    -0.087 C 
HETATM   28  C20 UNL     1      14.237  -0.888  32.095  1.00  0.00     0.043 C 
BRANCH  27  29
HETATM   29  C21 UNL     1      12.211   0.656  32.150  1.00  0.00     0.037 C 
BRANCH  29  30
HETATM   30  C22 UNL     1      11.567  -0.672  32.043  1.00  0.00     0.031 C 
BRANCH  30  31
HETATM   31  C23 UNL     1      10.751  -0.927  30.876  1.00  0.00    -0.024 C 
HETATM   32  C24 UNL     1      10.962  -1.198  29.639  1.00  0.00    -0.091 C 
HETATM   33  C25 UNL     1      12.259  -1.347  28.979  1.00  0.00     0.042 C 
HETATM   34  C26 UNL     1       9.745  -1.393  28.737  1.00  0.00     0.042 C 
ENDBRANCH  30  31
ENDBRANCH  29  30
ENDBRANCH  27  29
ENDBRANCH  25  26
ENDBRANCH  24  25
ENDBRANCH  22  24
ENDBRANCH  20  21
ENDBRANCH  19  20
ENDBRANCH   4  19
BRANCH   1  35
HETATM   35  O2  UNL     1       7.306   0.894  23.506  1.00  0.00    -0.311 OA
BRANCH  35  36
HETATM   36  C5  UNL     1       5.959   0.755  23.308  1.00  0.00     0.289 C 
HETATM   37  O1  UNL     1       5.291   1.793  23.139  1.00  0.00    -0.260 OA
BRANCH  36  38
HETATM   38  C3  UNL     1       5.390  -0.581  23.302  1.00  0.00     0.009 C 
HETATM   39  C2  UNL     1       5.869  -1.548  22.536  1.00  0.00    -0.018 C 
HETATM   40  C1  UNL     1       5.275  -2.916  22.536  1.00  0.00     0.036 C 
HETATM   41  C4  UNL     1       4.236  -0.881  24.174  1.00  0.00     0.054 C 
ENDBRANCH  36  38
ENDBRANCH  35  36
ENDBRANCH   1  35
BRANCH  14  42
HETATM   42  O6  UNL     1      13.590   1.894  23.664  1.00  0.00    -0.376 OA
ATOM     43  H6  UNL     1      13.313   2.324  22.864  1.00  0.00     0.211 HD
ENDBRANCH  14  42
BRANCH  15  44
HETATM   44  O7  UNL     1      11.246   3.097  23.221  1.00  0.00    -0.392 OA
ATOM     45  H7  UNL     1      10.644   3.372  22.540  1.00  0.00     0.210 HD
ENDBRANCH  15  44
TORSDOF 14
ENDMDL
MODEL 4
REMARK VINA RESULT: -8.211557636      2.207      8.331
REMARK  14 active torsions:
REMARK  status: ('A' for Active; 'I' for Inactive)
REMARK    1  A    between atoms: C3_3  and  C5_5 
REMARK    2  A    between atoms: C5_5  and  O2_7 
REMARK    3  A    between atoms: O2_7  and  C6_8 
REMARK    4  A    between atoms: C9_11  and  C11_13 
REMARK    5  A    between atoms: C11_13  and  C12_14 
REMARK    6  A    between atoms: C12_14  and  C13_15 
REMARK    7  A    between atoms: C14_16  and  C16_18 
REMARK    8  A    between atoms: C16_18  and  C17_19 
REMARK    9  A    between atoms: C17_19  and  C18_20 
REMARK   10  A    between atoms: C19_21  and  C21_23 
REMARK   11  A    between atoms: C21_23  and  C22_24 
REMARK   12  A    between atoms: C22_24  and  C23_25 
REMARK   13  A    between atoms: C32_37  and  O6_38 
REMARK   14  A    between atoms: C33_40  and  O7_41 
ROOT
HETATM    1  C6  UNL     1       9.358   0.488  25.436  1.00  0.00     0.141 C 
HETATM    2  C7  UNL     1       8.810   0.117  26.806  1.00  0.00     0.034 C 
HETATM    3  C8  UNL     1       9.707   0.440  27.944  1.00  0.00     0.012 C 
HETATM    4  C9  UNL     1      10.785   1.420  27.601  1.00  0.00    -0.039 C 
HETATM    5  C10 UNL     1      10.091   2.797  27.578  1.00  0.00     0.015 C 
HETATM    6  C27 UNL     1      11.522   1.169  26.331  1.00  0.00     0.005 C 
HETATM    7  C28 UNL     1      12.917   0.662  26.474  1.00  0.00     0.024 C 
HETATM    8  C29 UNL     1      13.885   1.504  25.624  1.00  0.00     0.133 C 
HETATM    9  C30 UNL     1      15.203   0.887  25.896  1.00  0.00     0.274 C 
HETATM   10  O3  UNL     1      16.037   1.271  26.720  1.00  0.00    -0.264 OA
HETATM   11  O4  UNL     1      15.317  -0.200  25.053  1.00  0.00    -0.242 OA
HETATM   12  C31 UNL     1      14.306  -0.159  24.088  1.00  0.00     0.304 C 
HETATM   13  O5  UNL     1      14.019  -1.099  23.331  1.00  0.00    -0.261 OA
HETATM   14  C32 UNL     1      13.715   1.161  24.180  1.00  0.00     0.184 C 
HETATM   15  C33 UNL     1      12.393   1.301  23.582  1.00  0.00     0.164 C 
HETATM   16  C34 UNL     1      11.302   0.369  23.958  1.00  0.00     0.047 C 
HETATM   17  C35 UNL     1      10.841   0.252  25.346  1.00  0.00    -0.010 C 
HETATM   18  C36 UNL     1      11.022  -1.220  25.774  1.00  0.00     0.018 C 
ENDROOT
BRANCH   4  19
HETATM   19  C11 UNL     1      11.743   1.484  28.762  1.00  0.00     0.013 C 
BRANCH  19  20
HETATM   20  C12 UNL     1      11.075   1.471  30.117  1.00  0.00     0.028 C 
BRANCH  20  21
HETATM   21  C13 UNL     1      12.113   1.258  31.198  1.00  0.00    -0.024 C 
HETATM   22  C14 UNL     1      11.997   0.344  32.128  1.00  0.00    -0.087 C 
HETATM   23  C15 UNL     1      10.786  -0.571  32.155  1.00  0.00     0.043 C 
BRANCH  22  24
HETATM   24  C16 UNL     1      12.960   0.142  33.221  1.00  0.00     0.037 C 
BRANCH  24  25
HETATM   25  C17 UNL     1      14.234   0.897  33.181  1.00  0.00     0.031 C 
BRANCH  25  26
HETATM   26  C18 UNL     1      15.388  -0.034  33.146  1.00  0.00    -0.024 C 
HETATM   27  C19 UNL     1      16.160  -0.221  32.122  1.00  0.00    -0.087 C 
HETATM   28  C20 UNL     1      17.304  -1.209  32.241  1.00  0.00     0.043 C 
BRANCH  27  29
HETATM   29  C21 UNL     1      16.053   0.445  30.761  1.00  0.00     0.037 C 
BRANCH  29  30
HETATM   30  C22 UNL     1      15.882  -0.571  29.698  1.00  0.00     0.031 C 
BRANCH  30  31
HETATM   31  C23 UNL     1      14.532  -0.969  29.366  1.00  0.00    -0.024 C 
HETATM   32  C24 UNL     1      13.699  -1.853  29.779  1.00  0.00    -0.091 C 
HETATM   33  C25 UNL     1      13.910  -2.834  30.844  1.00  0.00     0.042 C 
HETATM   34  C26 UNL     1      12.330  -1.909  29.103  1.00  0.00     0.042 C 
ENDBRANCH  30  31
ENDBRANCH  29  30
ENDBRANCH  27  29
ENDBRANCH  25  26
ENDBRANCH  24  25
ENDBRANCH  22  24
ENDBRANCH  20  21
ENDBRANCH  19  20
ENDBRANCH   4  19
BRANCH   1  35
HETATM   35  O2  UNL     1       8.781  -0.383  24.445  1.00  0.00    -0.311 OA
BRANCH  35  36
HETATM   36  C5  UNL     1       7.782  -0.003  23.590  1.00  0.00     0.289 C 
HETATM   37  O1  UNL     1       7.473   1.204  23.567  1.00  0.00    -0.260 OA
BRANCH  36  38
HETATM   38  C3  UNL     1       7.148  -1.015  22.766  1.00  0.00     0.009 C 
HETATM   39  C2  UNL     1       5.917  -1.444  22.998  1.00  0.00    -0.018 C 
HETATM   40  C1  UNL     1       5.276  -2.486  22.146  1.00  0.00     0.036 C 
HETATM   41  C4  UNL     1       7.891  -1.596  21.629  1.00  0.00     0.054 C 
ENDBRANCH  36  38
ENDBRANCH  35  36
ENDBRANCH   1  35
BRANCH  14  42
HETATM   42  O6  UNL     1      14.589   2.035  23.479  1.00  0.00    -0.376 OA
ATOM     43  H6  UNL     1      14.328   1.976  22.567  1.00  0.00     0.211 HD
ENDBRANCH  14  42
BRANCH  15  44
HETATM   44  O7  UNL     1      11.990   2.655  23.479  1.00  0.00    -0.392 OA
ATOM     45  H7  UNL     1      11.444   2.925  24.208  1.00  0.00     0.210 HD
ENDBRANCH  15  44
TORSDOF 14
ENDMDL
MODEL 5
REMARK VINA RESULT: -8.083719631      2.283      3.866
REMARK  14 active torsions:
REMARK  status: ('A' for Active; 'I' for Inactive)
REMARK    1  A    between atoms: C3_3  and  C5_5 
REMARK    2  A    between atoms: C5_5  and  O2_7 
REMARK    3  A    between atoms: O2_7  and  C6_8 
REMARK    4  A    between atoms: C9_11  and  C11_13 
REMARK    5  A    between atoms: C11_13  and  C12_14 
REMARK    6  A    between atoms: C12_14  and  C13_15 
REMARK    7  A    between atoms: C14_16  and  C16_18 
REMARK    8  A    between atoms: C16_18  and  C17_19 
REMARK    9  A    between atoms: C17_19  and  C18_20 
REMARK   10  A    between atoms: C19_21  and  C21_23 
REMARK   11  A    between atoms: C21_23  and  C22_24 
REMARK   12  A    between atoms: C22_24  and  C23_25 
REMARK   13  A    between atoms: C32_37  and  O6_38 
REMARK   14  A    between atoms: C33_40  and  O7_41 
ROOT
HETATM    1  C6  UNL     1      12.953  -1.117  29.572  1.00  0.00     0.141 C 
HETATM    2  C7  UNL     1      11.864  -1.812  28.768  1.00  0.00     0.034 C 
HETATM    3  C8  UNL     1      11.019  -0.906  27.950  1.00  0.00     0.012 C 
HETATM    4  C9  UNL     1      11.621   0.449  27.738  1.00  0.00    -0.039 C 
HETATM    5  C10 UNL     1      12.698   0.250  26.653  1.00  0.00     0.015 C 
HETATM    6  C27 UNL     1      12.190   1.112  28.943  1.00  0.00     0.005 C 
HETATM    7  C28 UNL     1      11.404   2.255  29.493  1.00  0.00     0.024 C 
HETATM    8  C29 UNL     1      12.312   3.480  29.702  1.00  0.00     0.133 C 
HETATM    9  C30 UNL     1      11.383   4.508  30.222  1.00  0.00     0.274 C 
HETATM   10  O3  UNL     1      10.820   5.388  29.565  1.00  0.00    -0.264 OA
HETATM   11  O4  UNL     1      11.266   4.291  31.580  1.00  0.00    -0.242 OA
HETATM   12  C31 UNL     1      12.249   3.390  32.002  1.00  0.00     0.304 C 
HETATM   13  O5  UNL     1      12.267   2.840  33.113  1.00  0.00    -0.261 OA
HETATM   14  C32 UNL     1      13.180   3.265  30.898  1.00  0.00     0.184 C 
HETATM   15  C33 UNL     1      14.040   2.089  30.933  1.00  0.00     0.164 C 
HETATM   16  C34 UNL     1      13.449   0.737  31.086  1.00  0.00     0.047 C 
HETATM   17  C35 UNL     1      12.488   0.207  30.113  1.00  0.00    -0.010 C 
HETATM   18  C36 UNL     1      11.188  -0.125  30.876  1.00  0.00     0.018 C 
ENDROOT
BRANCH   4  19
HETATM   19  C11 UNL     1      10.576   1.326  27.097  1.00  0.00     0.013 C 
BRANCH  19  20
HETATM   20  C12 UNL     1       9.163   1.026  27.534  1.00  0.00     0.028 C 
BRANCH  20  21
HETATM   21  C13 UNL     1       8.245   1.008  26.330  1.00  0.00    -0.024 C 
HETATM   22  C14 UNL     1       7.291   1.884  26.146  1.00  0.00    -0.087 C 
HETATM   23  C15 UNL     1       7.062   2.990  27.161  1.00  0.00     0.043 C 
BRANCH  22  24
HETATM   24  C16 UNL     1       6.352   1.867  25.015  1.00  0.00     0.037 C 
BRANCH  24  25
HETATM   25  C17 UNL     1       6.852   1.415  23.695  1.00  0.00     0.031 C 
BRANCH  25  26
HETATM   26  C18 UNL     1       6.312   0.073  23.368  1.00  0.00    -0.024 C 
HETATM   27  C19 UNL     1       6.992  -0.890  22.829  1.00  0.00    -0.087 C 
HETATM   28  C20 UNL     1       6.297  -2.209  22.556  1.00  0.00     0.043 C 
BRANCH  27  29
HETATM   29  C21 UNL     1       8.452  -0.858  22.413  1.00  0.00     0.037 C 
BRANCH  29  30
HETATM   30  C22 UNL     1       9.332  -0.930  23.602  1.00  0.00     0.031 C 
BRANCH  30  31
HETATM   31  C23 UNL     1      10.643  -0.330  23.499  1.00  0.00    -0.024 C 
HETATM   32  C24 UNL     1      11.115   0.863  23.455  1.00  0.00    -0.091 C 
HETATM   33  C25 UNL     1      10.356   2.113  23.506  1.00  0.00     0.042 C 
HETATM   34  C26 UNL     1      12.629   1.024  23.340  1.00  0.00     0.042 C 
ENDBRANCH  30  31
ENDBRANCH  29  30
ENDBRANCH  27  29
ENDBRANCH  25  26
ENDBRANCH  24  25
ENDBRANCH  22  24
ENDBRANCH  20  21
ENDBRANCH  19  20
ENDBRANCH   4  19
BRANCH   1  35
HETATM   35  O2  UNL     1      13.259  -1.908  30.735  1.00  0.00    -0.311 OA
BRANCH  35  36
HETATM   36  C5  UNL     1      14.374  -2.693  30.847  1.00  0.00     0.289 C 
HETATM   37  O1  UNL     1      14.435  -3.712  30.132  1.00  0.00    -0.260 OA
BRANCH  36  38
HETATM   38  C3  UNL     1      15.414  -2.299  31.780  1.00  0.00     0.009 C 
HETATM   39  C2  UNL     1      15.150  -1.982  33.037  1.00  0.00    -0.018 C 
HETATM   40  C1  UNL     1      16.226  -1.576  33.987  1.00  0.00     0.036 C 
HETATM   41  C4  UNL     1      16.817  -2.242  31.321  1.00  0.00     0.054 C 
ENDBRANCH  36  38
ENDBRANCH  35  36
ENDBRANCH   1  35
BRANCH  14  42
HETATM   42  O6  UNL     1      14.024   4.407  30.962  1.00  0.00    -0.376 OA
ATOM     43  H6  UNL     1      13.554   5.040  31.491  1.00  0.00     0.211 HD
ENDBRANCH  14  42
BRANCH  15  44
HETATM   44  O7  UNL     1      15.086   2.160  29.980  1.00  0.00    -0.392 OA
ATOM     45  H7  UNL     1      15.165   1.361  29.471  1.00  0.00     0.210 HD
ENDBRANCH  15  44
TORSDOF 14
ENDMDL
