MODEL 1
REMARK VINA RESULT: -6.573603176      0.000      0.000
REMARK  12 active torsions:
REMARK  status: ('A' for Active; 'I' for Inactive)
REMARK    1  A    between atoms: C4_6  and  N2_7 
REMARK    2  A    between atoms: N2_7  and  C5_8 
REMARK    3  A    between atoms: C8_11  and  C9_12 
REMARK    4  A    between atoms: C9_12  and  N3_13 
REMARK    5  A    between atoms: C16_25  and  N6_26 
REMARK    6  A    between atoms: N8_32  and  C18_33 
REMARK    7  A    between atoms: C19_35  and  C20_36 
REMARK    8  A    between atoms: C20_36  and  O2_37 
REMARK    9  A    between atoms: C21_39  and  O3_40 
REMARK   10  A    between atoms: O3_40  and  C22_41 
REMARK   11  A    between atoms: C22_41  and  N9_43 
REMARK   12  A    between atoms: C25_46  and  O4_47 
ROOT
HETATM    1  C1  UNL     1     -13.101  -1.126  -2.777  1.00  0.00     0.089 C 
HETATM    2  C2  UNL     1     -14.189  -0.434  -2.048  1.00  0.00     0.083 A 
HETATM    3  N1  UNL     1     -13.965   0.050  -0.791  1.00  0.00    -0.339 N 
ATOM      4  H1  UNL     1     -13.090  -0.000  -0.270  1.00  0.00     0.167 HD
HETATM    5  C3  UNL     1     -15.107   0.603  -0.370  1.00  0.00     0.138 A 
HETATM    6  C4  UNL     1     -15.437   1.238   0.836  1.00  0.00     0.218 A 
HETATM    7  N5  UNL     1     -16.704   1.688   0.945  1.00  0.00    -0.163 N 
ATOM      8  H5  UNL     1     -16.978   2.154   1.810  1.00  0.00     0.187 HD
HETATM    9  C16 UNL     1     -17.613   1.557  -0.009  1.00  0.00     0.679 A 
HETATM   10  N7  UNL     1     -17.280   0.947  -1.157  1.00  0.00    -0.174 N 
ATOM     11  H7  UNL     1     -17.981   0.846  -1.891  1.00  0.00     0.186 HD
HETATM   12  C17 UNL     1     -16.030   0.461  -1.362  1.00  0.00     0.158 A 
HETATM   13  N8  UNL     1     -15.453  -0.191  -2.421  1.00  0.00    -0.290 N 
ENDROOT
BRANCH   6  14
HETATM   14  N2  UNL     1     -14.654   1.366   1.719  1.00  0.00    -0.422 NA
BRANCH  14  15
HETATM   15  C5  UNL     1     -13.799   1.527   2.733  1.00  0.00     0.165 C 
HETATM   16  C6  UNL     1     -12.400   2.028   2.396  1.00  0.00     0.040 C 
HETATM   17  C7  UNL     1     -11.649   1.101   1.516  1.00  0.00     0.009 C 
HETATM   18  C8  UNL     1     -11.758  -0.341   1.871  1.00  0.00     0.014 C 
HETATM   19  C14 UNL     1     -13.052  -0.779   2.464  1.00  0.00     0.009 C 
HETATM   20  C15 UNL     1     -13.552   0.202   3.483  1.00  0.00     0.040 C 
BRANCH  18  21
HETATM   21  C9  UNL     1     -10.631  -0.817   2.761  1.00  0.00     0.277 C 
BRANCH  21  22
HETATM   22  N3  UNL     1      -9.372  -0.229   2.433  1.00  0.00     0.092 N 
HETATM   23  C10 UNL     1      -8.541  -0.987   1.550  1.00  0.00     0.300 C 
HETATM   24  C11 UNL     1      -7.276  -0.151   1.317  1.00  0.00     0.262 C 
HETATM   25  N4  UNL     1      -6.516   0.020   2.519  1.00  0.00    -0.072 N 
HETATM   26  C12 UNL     1      -7.265  -0.330   3.693  1.00  0.00     0.262 C 
ATOM     27  H42 UNL     1      -5.638  -0.496   2.476  1.00  0.00     0.277 HD
ATOM     28  H41 UNL     1      -6.146   0.968   2.589  1.00  0.00     0.277 HD
HETATM   29  C13 UNL     1      -8.694   0.136   3.663  1.00  0.00     0.300 C 
ENDBRANCH  21  22
ENDBRANCH  18  21
ENDBRANCH  14  15
ENDBRANCH   6  14
BRANCH   9  30
HETATM   30  N6  UNL     1     -18.802   2.005   0.159  1.00  0.00    -0.234 N 
ATOM     31  H62 UNL     1     -18.947   2.934   0.556  1.00  0.00     0.174 HD
ATOM     32  H61 UNL     1     -19.610   1.441  -0.104  1.00  0.00     0.174 HD
ENDBRANCH   9  30
BRANCH  13  33
HETATM   33  C18 UNL     1     -16.152  -0.495  -3.627  1.00  0.00     0.263 C 
HETATM   34  O1  UNL     1     -15.791   0.459  -4.592  1.00  0.00    -0.353 OA
HETATM   35  C19 UNL     1     -14.983  -0.160  -5.527  1.00  0.00     0.180 C 
HETATM   36  C21 UNL     1     -15.765  -1.462  -5.734  1.00  0.00     0.195 C 
HETATM   37  C25 UNL     1     -15.937  -1.830  -4.235  1.00  0.00     0.199 C 
BRANCH  35  38
HETATM   38  C20 UNL     1     -15.003   0.578  -6.841  1.00  0.00     0.198 C 
BRANCH  38  39
HETATM   39  O2  UNL     1     -14.399  -0.170  -7.844  1.00  0.00    -0.398 OA
ATOM     40  H2  UNL     1     -14.960  -0.235  -8.607  1.00  0.00     0.209 HD
ENDBRANCH  38  39
ENDBRANCH  35  38
BRANCH  36  41
HETATM   41  O3  UNL     1     -15.012  -2.411  -6.418  1.00  0.00    -0.316 OA
BRANCH  41  42
HETATM   42  C22 UNL     1     -15.653  -3.495  -7.019  1.00  0.00     0.212 C 
HETATM   43  S1  UNL     1     -16.850  -3.192  -8.094  1.00  0.00    -0.033 SA
BRANCH  42  44
HETATM   44  N9  UNL     1     -15.312  -4.835  -6.736  1.00  0.00    -0.361 N 
HETATM   45  C23 UNL     1     -15.815  -5.946  -7.521  1.00  0.00     0.152 C 
HETATM   46  C24 UNL     1     -14.434  -5.140  -5.629  1.00  0.00     0.152 C 
ENDBRANCH  42  44
ENDBRANCH  41  42
ENDBRANCH  36  41
BRANCH  37  47
HETATM   47  O4  UNL     1     -17.111  -2.615  -4.242  1.00  0.00    -0.388 OA
ATOM     48  H4  UNL     1     -17.744  -2.314  -4.883  1.00  0.00     0.210 HD
ENDBRANCH  37  47
ENDBRANCH  13  33
TORSDOF 12
ENDMDL
MODEL 2
REMARK VINA RESULT: -6.512204508      1.714      2.131
REMARK  12 active torsions:
REMARK  status: ('A' for Active; 'I' for Inactive)
REMARK    1  A    between atoms: C4_6  and  N2_7 
REMARK    2  A    between atoms: N2_7  and  C5_8 
REMARK    3  A    between atoms: C8_11  and  C9_12 
REMARK    4  A    between atoms: C9_12  and  N3_13 
REMARK    5  A    between atoms: C16_25  and  N6_26 
REMARK    6  A    between atoms: N8_32  and  C18_33 
REMARK    7  A    between atoms: C19_35  and  C20_36 
REMARK    8  A    between atoms: C20_36  and  O2_37 
REMARK    9  A    between atoms: C21_39  and  O3_40 
REMARK   10  A    between atoms: O3_40  and  C22_41 
REMARK   11  A    between atoms: C22_41  and  N9_43 
REMARK   12  A    between atoms: C25_46  and  O4_47 
ROOT
HETATM    1  C1  UNL     1     -14.254  -2.935  -2.282  1.00  0.00     0.089 C 
HETATM    2  C2  UNL     1     -14.678  -1.725  -1.542  1.00  0.00     0.083 A 
HETATM    3  N1  UNL     1     -14.110  -1.432  -0.335  1.00  0.00    -0.339 N 
ATOM      4  H1  UNL     1     -13.384  -1.968   0.137  1.00  0.00     0.167 HD
HETATM    5  C3  UNL     1     -14.685  -0.309   0.110  1.00  0.00     0.138 A 
HETATM    6  C4  UNL     1     -14.484   0.426   1.288  1.00  0.00     0.218 A 
HETATM    7  N5  UNL     1     -15.246   1.530   1.437  1.00  0.00    -0.163 N 
ATOM      8  H5  UNL     1     -15.127   2.088   2.282  1.00  0.00     0.187 HD
HETATM    9  C16 UNL     1     -16.141   1.928   0.546  1.00  0.00     0.679 A 
HETATM   10  N7  UNL     1     -16.319   1.212  -0.574  1.00  0.00    -0.174 N 
ATOM     11  H7  UNL     1     -17.010   1.519  -1.259  1.00  0.00     0.186 HD
HETATM   12  C17 UNL     1     -15.601   0.088  -0.816  1.00  0.00     0.158 A 
HETATM   13  N8  UNL     1     -15.598  -0.803  -1.860  1.00  0.00    -0.290 N 
ENDROOT
BRANCH   6  14
HETATM   14  N2  UNL     1     -13.699   0.097   2.114  1.00  0.00    -0.422 NA
BRANCH  14  15
HETATM   15  C5  UNL     1     -12.803  -0.239   3.047  1.00  0.00     0.165 C 
HETATM   16  C6  UNL     1     -12.015   0.890   3.699  1.00  0.00     0.040 C 
HETATM   17  C7  UNL     1     -11.175   1.642   2.736  1.00  0.00     0.009 C 
HETATM   18  C8  UNL     1     -10.428   0.806   1.756  1.00  0.00     0.014 C 
HETATM   19  C14 UNL     1     -11.093  -0.454   1.323  1.00  0.00     0.009 C 
HETATM   20  C15 UNL     1     -11.717  -1.175   2.481  1.00  0.00     0.040 C 
BRANCH  18  21
HETATM   21  C9  UNL     1      -9.021   0.482   2.207  1.00  0.00     0.277 C 
BRANCH  21  22
HETATM   22  N3  UNL     1      -8.486   1.450   3.111  1.00  0.00     0.092 N 
HETATM   23  C10 UNL     1      -7.734   2.510   2.517  1.00  0.00     0.300 C 
HETATM   24  C11 UNL     1      -7.298   3.431   3.663  1.00  0.00     0.262 C 
HETATM   25  N4  UNL     1      -6.402   2.775   4.568  1.00  0.00    -0.072 N 
HETATM   26  C12 UNL     1      -6.389   1.351   4.387  1.00  0.00     0.262 C 
ATOM     27  H42 UNL     1      -5.461   3.163   4.500  1.00  0.00     0.277 HD
ATOM     28  H41 UNL     1      -6.611   3.021   5.535  1.00  0.00     0.277 HD
HETATM   29  C13 UNL     1      -7.750   0.756   4.152  1.00  0.00     0.300 C 
ENDBRANCH  21  22
ENDBRANCH  18  21
ENDBRANCH  14  15
ENDBRANCH   6  14
BRANCH   9  30
HETATM   30  N6  UNL     1     -16.835   2.986   0.750  1.00  0.00    -0.234 N 
ATOM     31  H62 UNL     1     -16.616   3.598   1.536  1.00  0.00     0.174 HD
ATOM     32  H61 UNL     1     -17.608   3.225   0.129  1.00  0.00     0.174 HD
ENDBRANCH   9  30
BRANCH  13  33
HETATM   33  C18 UNL     1     -16.444  -0.673  -3.001  1.00  0.00     0.263 C 
HETATM   34  O1  UNL     1     -16.268   0.617  -3.528  1.00  0.00    -0.353 OA
HETATM   35  C19 UNL     1     -15.570   0.504  -4.716  1.00  0.00     0.180 C 
HETATM   36  C21 UNL     1     -16.311  -0.680  -5.347  1.00  0.00     0.195 C 
HETATM   37  C25 UNL     1     -16.252  -1.628  -4.118  1.00  0.00     0.199 C 
BRANCH  35  38
HETATM   38  C20 UNL     1     -15.810   1.697  -5.606  1.00  0.00     0.198 C 
BRANCH  38  39
HETATM   39  O2  UNL     1     -17.146   2.080  -5.578  1.00  0.00    -0.398 OA
ATOM     40  H2  UNL     1     -17.300   2.731  -4.905  1.00  0.00     0.209 HD
ENDBRANCH  38  39
ENDBRANCH  35  38
BRANCH  36  41
HETATM   41  O3  UNL     1     -15.615  -1.200  -6.436  1.00  0.00    -0.316 OA
BRANCH  41  42
HETATM   42  C22 UNL     1     -14.722  -2.253  -6.240  1.00  0.00     0.212 C 
HETATM   43  S1  UNL     1     -13.196  -1.901  -5.764  1.00  0.00    -0.033 SA
BRANCH  42  44
HETATM   44  N9  UNL     1     -15.081  -3.604  -6.438  1.00  0.00    -0.361 N 
HETATM   45  C23 UNL     1     -14.613  -4.666  -5.569  1.00  0.00     0.152 C 
HETATM   46  C24 UNL     1     -15.943  -3.970  -7.539  1.00  0.00     0.152 C 
ENDBRANCH  42  44
ENDBRANCH  41  42
ENDBRANCH  36  41
BRANCH  37  47
HETATM   47  O4  UNL     1     -17.375  -2.460  -4.315  1.00  0.00    -0.388 OA
ATOM     48  H4  UNL     1     -17.630  -2.919  -3.524  1.00  0.00     0.210 HD
ENDBRANCH  37  47
ENDBRANCH  13  33
TORSDOF 12
ENDMDL
MODEL 3
REMARK VINA RESULT: -6.394991295      1.893      2.489
REMARK  12 active torsions:
REMARK  status: ('A' for Active; 'I' for Inactive)
REMARK    1  A    between atoms: C4_6  and  N2_7 
REMARK    2  A    between atoms: N2_7  and  C5_8 
REMARK    3  A    between atoms: C8_11  and  C9_12 
REMARK    4  A    between atoms: C9_12  and  N3_13 
REMARK    5  A    between atoms: C16_25  and  N6_26 
REMARK    6  A    between atoms: N8_32  and  C18_33 
REMARK    7  A    between atoms: C19_35  and  C20_36 
REMARK    8  A    between atoms: C20_36  and  O2_37 
REMARK    9  A    between atoms: C21_39  and  O3_40 
REMARK   10  A    between atoms: O3_40  and  C22_41 
REMARK   11  A    between atoms: C22_41  and  N9_43 
REMARK   12  A    between atoms: C25_46  and  O4_47 
ROOT
HETATM    1  C1  UNL     1     -14.253  -2.937  -2.233  1.00  0.00     0.089 C 
HETATM    2  C2  UNL     1     -14.680  -1.722  -1.502  1.00  0.00     0.083 A 
HETATM    3  N1  UNL     1     -14.114  -1.418  -0.297  1.00  0.00    -0.339 N 
ATOM      4  H1  UNL     1     -13.387  -1.950   0.180  1.00  0.00     0.167 HD
HETATM    5  C3  UNL     1     -14.691  -0.294   0.139  1.00  0.00     0.138 A 
HETATM    6  C4  UNL     1     -14.494   0.451   1.310  1.00  0.00     0.218 A 
HETATM    7  N5  UNL     1     -15.258   1.554   1.450  1.00  0.00    -0.163 N 
ATOM      8  H5  UNL     1     -15.141   2.119   2.291  1.00  0.00     0.187 HD
HETATM    9  C16 UNL     1     -16.153   1.944   0.555  1.00  0.00     0.679 A 
HETATM   10  N7  UNL     1     -16.328   1.219  -0.560  1.00  0.00    -0.174 N 
ATOM     11  H7  UNL     1     -17.019   1.519  -1.248  1.00  0.00     0.186 HD
HETATM   12  C17 UNL     1     -15.607   0.094  -0.792  1.00  0.00     0.158 A 
HETATM   13  N8  UNL     1     -15.601  -0.805  -1.829  1.00  0.00    -0.290 N 
ENDROOT
BRANCH   6  14
HETATM   14  N2  UNL     1     -13.709   0.130   2.141  1.00  0.00    -0.422 NA
BRANCH  14  15
HETATM   15  C5  UNL     1     -12.809  -0.198   3.072  1.00  0.00     0.165 C 
HETATM   16  C6  UNL     1     -12.018   0.935   3.712  1.00  0.00     0.040 C 
HETATM   17  C7  UNL     1     -11.182   1.679   2.739  1.00  0.00     0.009 C 
HETATM   18  C8  UNL     1     -10.440   0.835   1.763  1.00  0.00     0.014 C 
HETATM   19  C14 UNL     1     -11.106  -0.428   1.342  1.00  0.00     0.009 C 
HETATM   20  C15 UNL     1     -11.726  -1.140   2.509  1.00  0.00     0.040 C 
BRANCH  18  21
HETATM   21  C9  UNL     1      -9.030   0.515   2.210  1.00  0.00     0.277 C 
BRANCH  21  22
HETATM   22  N3  UNL     1      -8.506   1.468   3.134  1.00  0.00     0.092 N 
HETATM   23  C10 UNL     1      -7.798   2.569   2.560  1.00  0.00     0.300 C 
HETATM   24  C11 UNL     1      -7.366   3.466   3.727  1.00  0.00     0.262 C 
HETATM   25  N4  UNL     1      -6.432   2.809   4.592  1.00  0.00    -0.072 N 
HETATM   26  C12 UNL     1      -6.380   1.393   4.364  1.00  0.00     0.262 C 
ATOM     27  H42 UNL     1      -5.505   3.227   4.518  1.00  0.00     0.277 HD
ATOM     28  H41 UNL     1      -6.628   3.017   5.571  1.00  0.00     0.277 HD
HETATM   29  C13 UNL     1      -7.727   0.765   4.137  1.00  0.00     0.300 C 
ENDBRANCH  21  22
ENDBRANCH  18  21
ENDBRANCH  14  15
ENDBRANCH   6  14
BRANCH   9  30
HETATM   30  N6  UNL     1     -16.849   3.002   0.750  1.00  0.00    -0.234 N 
ATOM     31  H62 UNL     1     -16.847   3.455   1.665  1.00  0.00     0.174 HD
ATOM     32  H61 UNL     1     -17.408   3.400  -0.005  1.00  0.00     0.174 HD
ENDBRANCH   9  30
BRANCH  13  33
HETATM   33  C18 UNL     1     -16.446  -0.685  -2.972  1.00  0.00     0.263 C 
HETATM   34  O1  UNL     1     -16.311   0.618  -3.478  1.00  0.00    -0.353 OA
HETATM   35  C19 UNL     1     -15.605   0.547  -4.664  1.00  0.00     0.180 C 
HETATM   36  C21 UNL     1     -16.302  -0.651  -5.317  1.00  0.00     0.195 C 
HETATM   37  C25 UNL     1     -16.217  -1.616  -4.103  1.00  0.00     0.199 C 
BRANCH  35  38
HETATM   38  C20 UNL     1     -15.881   1.745  -5.537  1.00  0.00     0.198 C 
BRANCH  38  39
HETATM   39  O2  UNL     1     -17.242   2.024  -5.587  1.00  0.00    -0.398 OA
ATOM     40  H2  UNL     1     -17.518   2.515  -4.823  1.00  0.00     0.209 HD
ENDBRANCH  38  39
ENDBRANCH  35  38
BRANCH  36  41
HETATM   41  O3  UNL     1     -15.585  -1.130  -6.410  1.00  0.00    -0.316 OA
BRANCH  41  42
HETATM   42  C22 UNL     1     -14.344  -1.734  -6.206  1.00  0.00     0.212 C 
HETATM   43  S1  UNL     1     -14.267  -3.369  -6.192  1.00  0.00    -0.033 SA
BRANCH  42  44
HETATM   44  N9  UNL     1     -13.158  -0.993  -6.011  1.00  0.00    -0.361 N 
HETATM   45  C23 UNL     1     -12.703   0.005  -6.959  1.00  0.00     0.152 C 
HETATM   46  C24 UNL     1     -12.349  -1.219  -4.835  1.00  0.00     0.152 C 
ENDBRANCH  42  44
ENDBRANCH  41  42
ENDBRANCH  36  41
BRANCH  37  47
HETATM   47  O4  UNL     1     -17.311  -2.481  -4.318  1.00  0.00    -0.388 OA
ATOM     48  H4  UNL     1     -18.127  -2.011  -4.442  1.00  0.00     0.210 HD
ENDBRANCH  37  47
ENDBRANCH  13  33
TORSDOF 12
ENDMDL
MODEL 4
REMARK VINA RESULT: -6.361552964      2.143      3.470
REMARK  12 active torsions:
REMARK  status: ('A' for Active; 'I' for Inactive)
REMARK    1  A    between atoms: C4_6  and  N2_7 
REMARK    2  A    between atoms: N2_7  and  C5_8 
REMARK    3  A    between atoms: C8_11  and  C9_12 
REMARK    4  A    between atoms: C9_12  and  N3_13 
REMARK    5  A    between atoms: C16_25  and  N6_26 
REMARK    6  A    between atoms: N8_32  and  C18_33 
REMARK    7  A    between atoms: C19_35  and  C20_36 
REMARK    8  A    between atoms: C20_36  and  O2_37 
REMARK    9  A    between atoms: C21_39  and  O3_40 
REMARK   10  A    between atoms: O3_40  and  C22_41 
REMARK   11  A    between atoms: C22_41  and  N9_43 
REMARK   12  A    between atoms: C25_46  and  O4_47 
ROOT
HETATM    1  C1  UNL     1     -17.220   1.217  -0.612  1.00  0.00     0.089 C 
HETATM    2  C2  UNL     1     -16.104   0.253  -0.754  1.00  0.00     0.083 A 
HETATM    3  N1  UNL     1     -15.268   0.020   0.301  1.00  0.00    -0.339 N 
ATOM      4  H1  UNL     1     -15.328   0.445   1.225  1.00  0.00     0.167 HD
HETATM    5  C3  UNL     1     -14.356  -0.868  -0.106  1.00  0.00     0.138 A 
HETATM    6  C4  UNL     1     -13.270  -1.450   0.564  1.00  0.00     0.218 A 
HETATM    7  N5  UNL     1     -12.528  -2.322  -0.150  1.00  0.00    -0.163 N 
ATOM      8  H5  UNL     1     -11.730  -2.763   0.307  1.00  0.00     0.187 HD
HETATM    9  C16 UNL     1     -12.779  -2.637  -1.411  1.00  0.00     0.679 A 
HETATM   10  N7  UNL     1     -13.823  -2.071  -2.036  1.00  0.00    -0.174 N 
ATOM     11  H7  UNL     1     -14.014  -2.314  -3.008  1.00  0.00     0.186 HD
HETATM   12  C17 UNL     1     -14.628  -1.183  -1.404  1.00  0.00     0.158 A 
HETATM   13  N8  UNL     1     -15.731  -0.478  -1.813  1.00  0.00    -0.290 N 
ENDROOT
BRANCH   6  14
HETATM   14  N2  UNL     1     -13.006  -1.186   1.690  1.00  0.00    -0.422 NA
BRANCH  14  15
HETATM   15  C5  UNL     1     -12.691  -0.861   2.947  1.00  0.00     0.165 C 
HETATM   16  C6  UNL     1     -13.457   0.292   3.585  1.00  0.00     0.040 C 
HETATM   17  C7  UNL     1     -13.254   1.581   2.883  1.00  0.00     0.009 C 
HETATM   18  C8  UNL     1     -11.849   1.873   2.483  1.00  0.00     0.014 C 
HETATM   19  C14 UNL     1     -11.010   0.699   2.119  1.00  0.00     0.009 C 
HETATM   20  C15 UNL     1     -11.212  -0.442   3.072  1.00  0.00     0.040 C 
BRANCH  18  21
HETATM   21  C9  UNL     1     -11.105   2.704   3.506  1.00  0.00     0.277 C 
BRANCH  21  22
HETATM   22  N3  UNL     1      -9.999   3.416   2.950  1.00  0.00     0.092 N 
HETATM   23  C10 UNL     1      -8.766   3.310   3.666  1.00  0.00     0.300 C 
HETATM   24  C11 UNL     1      -7.730   4.116   2.873  1.00  0.00     0.262 C 
HETATM   25  N4  UNL     1      -8.046   5.512   2.841  1.00  0.00    -0.072 N 
HETATM   26  C12 UNL     1      -9.394   5.777   3.257  1.00  0.00     0.262 C 
ATOM     27  H42 UNL     1      -7.378   6.053   3.392  1.00  0.00     0.277 HD
ATOM     28  H41 UNL     1      -7.859   5.911   1.921  1.00  0.00     0.277 HD
HETATM   29  C13 UNL     1     -10.398   4.792   2.724  1.00  0.00     0.300 C 
ENDBRANCH  21  22
ENDBRANCH  18  21
ENDBRANCH  14  15
ENDBRANCH   6  14
BRANCH   9  30
HETATM   30  N6  UNL     1     -12.033  -3.474  -2.034  1.00  0.00    -0.234 N 
ATOM     31  H62 UNL     1     -11.545  -4.206  -1.518  1.00  0.00     0.174 HD
ATOM     32  H61 UNL     1     -11.923  -3.415  -3.046  1.00  0.00     0.174 HD
ENDBRANCH   9  30
BRANCH  13  33
HETATM   33  C18 UNL     1     -16.283  -0.582  -3.125  1.00  0.00     0.263 C 
HETATM   34  O1  UNL     1     -15.784   0.483  -3.893  1.00  0.00    -0.353 OA
HETATM   35  C19 UNL     1     -14.881  -0.032  -4.804  1.00  0.00     0.180 C 
HETATM   36  C21 UNL     1     -15.662  -1.259  -5.287  1.00  0.00     0.195 C 
HETATM   37  C25 UNL     1     -16.025  -1.826  -3.888  1.00  0.00     0.199 C 
BRANCH  35  38
HETATM   38  C20 UNL     1     -14.722   0.883  -5.991  1.00  0.00     0.198 C 
BRANCH  38  39
HETATM   39  O2  UNL     1     -15.205   0.287  -7.150  1.00  0.00    -0.398 OA
ATOM     40  H2  UNL     1     -14.618   0.436  -7.881  1.00  0.00     0.209 HD
ENDBRANCH  38  39
ENDBRANCH  35  38
BRANCH  36  41
HETATM   41  O3  UNL     1     -14.851  -2.134  -6.006  1.00  0.00    -0.316 OA
BRANCH  41  42
HETATM   42  C22 UNL     1     -15.409  -3.284  -6.566  1.00  0.00     0.212 C 
HETATM   43  S1  UNL     1     -16.569  -3.110  -7.706  1.00  0.00    -0.033 SA
BRANCH  42  44
HETATM   44  N9  UNL     1     -15.012  -4.585  -6.187  1.00  0.00    -0.361 N 
HETATM   45  C23 UNL     1     -14.181  -4.835  -5.025  1.00  0.00     0.152 C 
HETATM   46  C24 UNL     1     -15.432  -5.725  -6.969  1.00  0.00     0.152 C 
ENDBRANCH  42  44
ENDBRANCH  41  42
ENDBRANCH  36  41
BRANCH  37  47
HETATM   47  O4  UNL     1     -17.207  -2.554  -4.147  1.00  0.00    -0.388 OA
ATOM     48  H4  UNL     1     -17.256  -2.858  -5.046  1.00  0.00     0.210 HD
ENDBRANCH  37  47
ENDBRANCH  13  33
TORSDOF 12
ENDMDL
MODEL 5
REMARK VINA RESULT: -6.291379707      5.004      9.921
REMARK  12 active torsions:
REMARK  status: ('A' for Active; 'I' for Inactive)
REMARK    1  A    between atoms: C4_6  and  N2_7 
REMARK    2  A    between atoms: N2_7  and  C5_8 
REMARK    3  A    between atoms: C8_11  and  C9_12 
REMARK    4  A    between atoms: C9_12  and  N3_13 
REMARK    5  A    between atoms: C16_25  and  N6_26 
REMARK    6  A    between atoms: N8_32  and  C18_33 
REMARK    7  A    between atoms: C19_35  and  C20_36 
REMARK    8  A    between atoms: C20_36  and  O2_37 
REMARK    9  A    between atoms: C21_39  and  O3_40 
REMARK   10  A    between atoms: O3_40  and  C22_41 
REMARK   11  A    between atoms: C22_41  and  N9_43 
REMARK   12  A    between atoms: C25_46  and  O4_47 
ROOT
HETATM    1  C1  UNL     1     -12.312  -1.420   2.242  1.00  0.00     0.089 C 
HETATM    2  C2  UNL     1     -12.901  -0.065   2.141  1.00  0.00     0.083 A 
HETATM    3  N1  UNL     1     -14.034   0.130   1.403  1.00  0.00    -0.339 N 
ATOM      4  H1  UNL     1     -14.555  -0.583   0.895  1.00  0.00     0.167 HD
HETATM    5  C3  UNL     1     -14.331   1.432   1.471  1.00  0.00     0.138 A 
HETATM    6  C4  UNL     1     -15.377   2.172   0.901  1.00  0.00     0.218 A 
HETATM    7  N5  UNL     1     -15.384   3.495   1.166  1.00  0.00    -0.163 N 
ATOM      8  H5  UNL     1     -16.131   4.063   0.767  1.00  0.00     0.187 HD
HETATM    9  C16 UNL     1     -14.475   4.096   1.917  1.00  0.00     0.679 A 
HETATM   10  N7  UNL     1     -13.481   3.373   2.455  1.00  0.00    -0.174 N 
ATOM     11  H7  UNL     1     -12.780   3.838   3.032  1.00  0.00     0.186 HD
HETATM   12  C17 UNL     1     -13.387   2.036   2.246  1.00  0.00     0.158 A 
HETATM   13  N8  UNL     1     -12.486   1.093   2.671  1.00  0.00    -0.290 N 
ENDROOT
BRANCH   6  14
HETATM   14  N2  UNL     1     -16.206   1.671   0.214  1.00  0.00    -0.422 NA
BRANCH  14  15
HETATM   15  C5  UNL     1     -17.113   1.097  -0.581  1.00  0.00     0.165 C 
HETATM   16  C6  UNL     1     -16.846  -0.335  -1.027  1.00  0.00     0.040 C 
HETATM   17  C7  UNL     1     -15.611  -0.469  -1.837  1.00  0.00     0.009 C 
HETATM   18  C8  UNL     1     -15.413   0.584  -2.870  1.00  0.00     0.014 C 
HETATM   19  C14 UNL     1     -15.928   1.940  -2.538  1.00  0.00     0.009 C 
HETATM   20  C15 UNL     1     -17.285   1.874  -1.901  1.00  0.00     0.040 C 
BRANCH  18  21
HETATM   21  C9  UNL     1     -15.940   0.184  -4.231  1.00  0.00     0.277 C 
BRANCH  21  22
HETATM   22  N3  UNL     1     -15.452  -1.084  -4.670  1.00  0.00     0.092 N 
HETATM   23  C10 UNL     1     -14.339  -1.048  -5.566  1.00  0.00     0.300 C 
HETATM   24  C11 UNL     1     -13.974  -2.507  -5.867  1.00  0.00     0.262 C 
HETATM   25  N4  UNL     1     -15.020  -3.188  -6.569  1.00  0.00    -0.072 N 
HETATM   26  C12 UNL     1     -16.262  -2.471  -6.530  1.00  0.00     0.262 C 
ATOM     27  H42 UNL     1     -14.745  -3.394  -7.529  1.00  0.00     0.277 HD
ATOM     28  H41 UNL     1     -15.135  -4.141  -6.224  1.00  0.00     0.277 HD
HETATM   29  C13 UNL     1     -16.566  -1.855  -5.191  1.00  0.00     0.300 C 
ENDBRANCH  21  22
ENDBRANCH  18  21
ENDBRANCH  14  15
ENDBRANCH   6  14
BRANCH   9  30
HETATM   30  N6  UNL     1     -14.538   5.359   2.129  1.00  0.00    -0.234 N 
ATOM     31  H62 UNL     1     -14.056   6.007   1.506  1.00  0.00     0.174 HD
ATOM     32  H61 UNL     1     -15.071   5.724   2.918  1.00  0.00     0.174 HD
ENDBRANCH   9  30
BRANCH  13  33
HETATM   33  C18 UNL     1     -11.371   1.399   3.507  1.00  0.00     0.263 C 
HETATM   34  O1  UNL     1     -10.364   0.454   3.251  1.00  0.00    -0.353 OA
HETATM   35  C19 UNL     1      -9.347   1.087   2.562  1.00  0.00     0.180 C 
HETATM   36  C21 UNL     1      -9.241   2.382   3.375  1.00  0.00     0.195 C 
HETATM   37  C25 UNL     1     -10.753   2.739   3.376  1.00  0.00     0.199 C 
BRANCH  35  38
HETATM   38  C20 UNL     1      -8.038   0.357   2.727  1.00  0.00     0.198 C 
BRANCH  38  39
HETATM   39  O2  UNL     1      -7.535   0.517   4.013  1.00  0.00    -0.398 OA
ATOM     40  H2  UNL     1      -7.315   1.425   4.182  1.00  0.00     0.209 HD
ENDBRANCH  38  39
ENDBRANCH  35  38
BRANCH  36  41
HETATM   41  O3  UNL     1      -8.482   3.344   2.714  1.00  0.00    -0.316 OA
BRANCH  41  42
HETATM   42  C22 UNL     1      -7.596   4.139   3.441  1.00  0.00     0.212 C 
HETATM   43  S1  UNL     1      -6.040   3.650   3.571  1.00  0.00    -0.033 SA
BRANCH  42  44
HETATM   44  N9  UNL     1      -7.989   5.343   4.066  1.00  0.00    -0.361 N 
HETATM   45  C23 UNL     1      -8.978   6.230   3.487  1.00  0.00     0.152 C 
HETATM   46  C24 UNL     1      -7.397   5.729   5.326  1.00  0.00     0.152 C 
ENDBRANCH  42  44
ENDBRANCH  41  42
ENDBRANCH  36  41
BRANCH  37  47
HETATM   47  O4  UNL     1     -10.887   3.512   4.549  1.00  0.00    -0.388 OA
ATOM     48  H4  UNL     1     -11.095   4.420   4.364  1.00  0.00     0.210 HD
ENDBRANCH  37  47
ENDBRANCH  13  33
TORSDOF 12
ENDMDL
