MODEL 1
REMARK VINA RESULT: -5.904287274      0.000      0.000
REMARK  5 active torsions:
REMARK  status: ('A' for Active; 'I' for Inactive)
REMARK    1  A    between atoms: C2_2  and  C5_5 
REMARK    2  A    between atoms: C5_5  and  N1_6 
REMARK    3  A    between atoms: C6_7  and  C7_8 
REMARK    4  A    between atoms: C7_8  and  C8_9 
REMARK    5  A    between atoms: C8_9  and  N2_10 
REMARK       I    between atoms: N2_10  and  C9_12 
ROOT
HETATM    1  N1  UNL     1       7.157  11.157   0.646  1.00  0.00    -0.366 N 
HETATM    2  C6  UNL     1       8.112  11.221   1.643  1.00  0.00     0.095 C 
HETATM    3  C10 UNL     1       7.896  10.403   2.892  1.00  0.00     0.128 C 
HETATM    4  C11 UNL     1       7.226   9.134   2.534  1.00  0.00     0.223 C 
HETATM    5  O1  UNL     1       7.632   8.003   2.971  1.00  0.00    -0.273 OA
HETATM    6  N5  UNL     1       6.111   9.232   1.682  1.00  0.00    -0.331 N 
HETATM    7  C12 UNL     1       5.100   8.214   1.639  1.00  0.00     0.128 C 
HETATM    8  C13 UNL     1       3.754   8.858   1.484  1.00  0.00     0.020 C 
HETATM    9  C14 UNL     1       3.707  10.303   1.876  1.00  0.00     0.005 C 
HETATM   10  C15 UNL     1       4.768  11.154   1.277  1.00  0.00     0.047 C 
HETATM   11  C16 UNL     1       5.988  10.381   0.832  1.00  0.00     0.188 C 
ENDROOT
BRANCH   2  12
HETATM   12  C7  UNL     1       8.535  12.585   2.105  1.00  0.00     0.045 C 
BRANCH  12  13
HETATM   13  C8  UNL     1      10.039  12.684   2.213  1.00  0.00     0.124 C 
BRANCH  13  14
HETATM   14  N2  UNL     1      10.508  14.021   1.888  1.00  0.00    -0.365 N 
HETATM   15  C9  UNL     1      11.837  14.137   1.426  1.00  0.00     0.181 C 
HETATM   16  N3  UNL     1      12.198  13.503   0.380  1.00  0.00    -0.374 N 
HETATM   17  N4  UNL     1      12.740  14.963   2.145  1.00  0.00    -0.064 NA
ATOM     18  H32 UNL     1      11.549  12.910  -0.137  1.00  0.00     0.158 HD
ATOM     19  H31 UNL     1      13.158  13.587   0.046  1.00  0.00     0.158 HD
ATOM     20  H2  UNL     1       9.906  14.837   1.988  1.00  0.00     0.162 HD
ENDBRANCH  13  14
ENDBRANCH  12  13
ENDBRANCH   2  12
BRANCH   1  21
HETATM   21  C5  UNL     1       7.294  11.684  -0.627  1.00  0.00     0.069 C 
BRANCH  21  22
HETATM   22  C2  UNL     1       8.545  11.435  -1.406  1.00  0.00    -0.019 C 
HETATM   23  C1  UNL     1       8.278  11.032  -2.842  1.00  0.00     0.020 C 
HETATM   24  C3  UNL     1       9.545  10.508  -0.836  1.00  0.00     0.020 C 
HETATM   25  C4  UNL     1       9.235  12.817  -1.510  1.00  0.00     0.020 C 
ENDBRANCH  21  22
ENDBRANCH   1  21
TORSDOF 5
ENDMDL
MODEL 2
REMARK VINA RESULT: -5.789862900      2.783      6.322
REMARK  5 active torsions:
REMARK  status: ('A' for Active; 'I' for Inactive)
REMARK    1  A    between atoms: C2_2  and  C5_5 
REMARK    2  A    between atoms: C5_5  and  N1_6 
REMARK    3  A    between atoms: C6_7  and  C7_8 
REMARK    4  A    between atoms: C7_8  and  C8_9 
REMARK    5  A    between atoms: C8_9  and  N2_10 
REMARK       I    between atoms: N2_10  and  C9_12 
ROOT
HETATM    1  N1  UNL     1      10.580  13.669   0.863  1.00  0.00    -0.366 N 
HETATM    2  C6  UNL     1       9.979  12.601   1.505  1.00  0.00     0.095 C 
HETATM    3  C10 UNL     1       9.849  12.654   3.006  1.00  0.00     0.128 C 
HETATM    4  C11 UNL     1       9.612  14.051   3.427  1.00  0.00     0.223 C 
HETATM    5  O1  UNL     1       8.691  14.364   4.258  1.00  0.00    -0.273 OA
HETATM    6  N5  UNL     1      10.454  15.028   2.865  1.00  0.00    -0.331 N 
HETATM    7  C12 UNL     1      10.677  16.293   3.505  1.00  0.00     0.128 C 
HETATM    8  C13 UNL     1      12.113  16.691   3.329  1.00  0.00     0.020 C 
HETATM    9  C14 UNL     1      13.036  15.558   2.994  1.00  0.00     0.005 C 
HETATM   10  C15 UNL     1      12.590  14.694   1.871  1.00  0.00     0.047 C 
HETATM   11  C16 UNL     1      11.102  14.748   1.616  1.00  0.00     0.188 C 
ENDROOT
BRANCH   2  12
HETATM   12  C7  UNL     1      10.486  11.227   1.176  1.00  0.00     0.045 C 
BRANCH  12  13
HETATM   13  C8  UNL     1       9.469  10.447   0.375  1.00  0.00     0.124 C 
BRANCH  13  14
HETATM   14  N2  UNL     1       9.181   9.161   0.989  1.00  0.00    -0.365 N 
HETATM   15  C9  UNL     1       8.318   9.165   2.105  1.00  0.00     0.181 C 
HETATM   16  N3  UNL     1       7.139   9.635   1.987  1.00  0.00    -0.374 N 
HETATM   17  N4  UNL     1       8.791   8.642   3.336  1.00  0.00    -0.064 NA
ATOM     18  H32 UNL     1       6.798  10.012   1.102  1.00  0.00     0.158 HD
ATOM     19  H31 UNL     1       6.514   9.638   2.793  1.00  0.00     0.158 HD
ATOM     20  H2  UNL     1       9.585   8.296   0.629  1.00  0.00     0.162 HD
ENDBRANCH  13  14
ENDBRANCH  12  13
ENDBRANCH   2  12
BRANCH   1  21
HETATM   21  C5  UNL     1      10.603  13.868  -0.507  1.00  0.00     0.069 C 
BRANCH  21  22
HETATM   22  C2  UNL     1       9.400  14.422  -1.200  1.00  0.00    -0.019 C 
HETATM   23  C1  UNL     1       9.739  15.525  -2.182  1.00  0.00     0.020 C 
HETATM   24  C3  UNL     1       8.263  14.867  -0.367  1.00  0.00     0.020 C 
HETATM   25  C4  UNL     1       8.873  13.262  -2.080  1.00  0.00     0.020 C 
ENDBRANCH  21  22
ENDBRANCH   1  21
TORSDOF 5
ENDMDL
MODEL 3
REMARK VINA RESULT: -5.689479391      2.892      5.414
REMARK  5 active torsions:
REMARK  status: ('A' for Active; 'I' for Inactive)
REMARK    1  A    between atoms: C2_2  and  C5_5 
REMARK    2  A    between atoms: C5_5  and  N1_6 
REMARK    3  A    between atoms: C6_7  and  C7_8 
REMARK    4  A    between atoms: C7_8  and  C8_9 
REMARK    5  A    between atoms: C8_9  and  N2_10 
REMARK       I    between atoms: N2_10  and  C9_12 
ROOT
HETATM    1  N1  UNL     1      10.343  13.191   0.664  1.00  0.00    -0.366 N 
HETATM    2  C6  UNL     1       9.442  13.734  -0.234  1.00  0.00     0.095 C 
HETATM    3  C10 UNL     1       8.096  13.070  -0.383  1.00  0.00     0.128 C 
HETATM    4  C11 UNL     1       7.667  12.537   0.928  1.00  0.00     0.223 C 
HETATM    5  O1  UNL     1       6.490  12.735   1.390  1.00  0.00    -0.273 OA
HETATM    6  N5  UNL     1       8.622  11.799   1.649  1.00  0.00    -0.331 N 
HETATM    7  C12 UNL     1       8.241  10.843   2.650  1.00  0.00     0.128 C 
HETATM    8  C13 UNL     1       9.155   9.656   2.575  1.00  0.00     0.020 C 
HETATM    9  C14 UNL     1       9.879   9.509   1.271  1.00  0.00     0.005 C 
HETATM   10  C15 UNL     1      10.571  10.735   0.794  1.00  0.00     0.047 C 
HETATM   11  C16 UNL     1      10.014  12.013   1.376  1.00  0.00     0.188 C 
ENDROOT
BRANCH   2  12
HETATM   12  C7  UNL     1       9.934  14.000  -1.626  1.00  0.00     0.045 C 
BRANCH  12  13
HETATM   13  C8  UNL     1      10.036  15.484  -1.896  1.00  0.00     0.124 C 
BRANCH  13  14
HETATM   14  N2  UNL     1       9.295  15.859  -3.089  1.00  0.00    -0.365 N 
HETATM   15  C9  UNL     1       7.888  15.795  -3.014  1.00  0.00     0.181 C 
HETATM   16  N3  UNL     1       7.272  16.481  -2.133  1.00  0.00    -0.374 N 
HETATM   17  N4  UNL     1       7.192  14.961  -3.929  1.00  0.00    -0.064 NA
ATOM     18  H32 UNL     1       7.772  17.081  -1.476  1.00  0.00     0.158 HD
ATOM     19  H31 UNL     1       6.255  16.435  -2.079  1.00  0.00     0.158 HD
ATOM     20  H2  UNL     1       9.771  16.155  -3.941  1.00  0.00     0.162 HD
ENDBRANCH  13  14
ENDBRANCH  12  13
ENDBRANCH   2  12
BRANCH   1  21
HETATM   21  C5  UNL     1      11.530  13.783   1.061  1.00  0.00     0.069 C 
BRANCH  21  22
HETATM   22  C2  UNL     1      11.502  15.022   1.897  1.00  0.00    -0.019 C 
HETATM   23  C1  UNL     1      10.621  14.889   3.123  1.00  0.00     0.020 C 
HETATM   24  C3  UNL     1      11.188  16.303   1.230  1.00  0.00     0.020 C 
HETATM   25  C4  UNL     1      12.938  15.159   2.461  1.00  0.00     0.020 C 
ENDBRANCH  21  22
ENDBRANCH   1  21
TORSDOF 5
ENDMDL
MODEL 4
REMARK VINA RESULT: -5.674040864      3.432      6.069
REMARK  5 active torsions:
REMARK  status: ('A' for Active; 'I' for Inactive)
REMARK    1  A    between atoms: C2_2  and  C5_5 
REMARK    2  A    between atoms: C5_5  and  N1_6 
REMARK    3  A    between atoms: C6_7  and  C7_8 
REMARK    4  A    between atoms: C7_8  and  C8_9 
REMARK    5  A    between atoms: C8_9  and  N2_10 
REMARK       I    between atoms: N2_10  and  C9_12 
ROOT
HETATM    1  N1  UNL     1      10.006  14.397   0.375  1.00  0.00    -0.366 N 
HETATM    2  C6  UNL     1      10.147  13.519   1.434  1.00  0.00     0.095 C 
HETATM    3  C10 UNL     1       9.960  14.053   2.832  1.00  0.00     0.128 C 
HETATM    4  C11 UNL     1       8.914  15.099   2.819  1.00  0.00     0.223 C 
HETATM    5  O1  UNL     1       7.962  15.119   3.672  1.00  0.00    -0.273 OA
HETATM    6  N5  UNL     1       9.018  16.077   1.814  1.00  0.00    -0.331 N 
HETATM    7  C12 UNL     1       8.412  17.372   1.952  1.00  0.00     0.128 C 
HETATM    8  C13 UNL     1       9.324  18.410   1.371  1.00  0.00     0.020 C 
HETATM    9  C14 UNL     1      10.754  17.980   1.239  1.00  0.00     0.005 C 
HETATM   10  C15 UNL     1      10.958  16.669   0.569  1.00  0.00     0.047 C 
HETATM   11  C16 UNL     1       9.747  15.767   0.617  1.00  0.00     0.188 C 
ENDROOT
BRANCH   2  12
HETATM   12  C7  UNL     1      11.390  12.678   1.470  1.00  0.00     0.045 C 
BRANCH  12  13
HETATM   13  C8  UNL     1      11.052  11.210   1.593  1.00  0.00     0.124 C 
BRANCH  13  14
HETATM   14  N2  UNL     1      10.433  10.704   0.379  1.00  0.00    -0.365 N 
HETATM   15  C9  UNL     1       9.925   9.388   0.422  1.00  0.00     0.181 C 
HETATM   16  N3  UNL     1       9.032   9.086   1.282  1.00  0.00    -0.374 N 
HETATM   17  N4  UNL     1      10.425   8.432  -0.500  1.00  0.00    -0.064 NA
ATOM     18  H32 UNL     1       8.673   9.773   1.944  1.00  0.00     0.158 HD
ATOM     19  H31 UNL     1       8.664   8.135   1.313  1.00  0.00     0.158 HD
ATOM     20  H2  UNL     1      10.369  11.273  -0.464  1.00  0.00     0.162 HD
ENDBRANCH  13  14
ENDBRANCH  12  13
ENDBRANCH   2  12
BRANCH   1  21
HETATM   21  C5  UNL     1       9.953  14.036  -0.961  1.00  0.00     0.069 C 
BRANCH  21  22
HETATM   22  C2  UNL     1       8.653  13.614  -1.567  1.00  0.00    -0.019 C 
HETATM   23  C1  UNL     1       8.094  14.634  -2.538  1.00  0.00     0.020 C 
HETATM   24  C3  UNL     1       7.569  13.187  -0.658  1.00  0.00     0.020 C 
HETATM   25  C4  UNL     1       8.999  12.387  -2.446  1.00  0.00     0.020 C 
ENDBRANCH  21  22
ENDBRANCH   1  21
TORSDOF 5
ENDMDL
MODEL 5
REMARK VINA RESULT: -5.644548702      3.009      5.252
REMARK  5 active torsions:
REMARK  status: ('A' for Active; 'I' for Inactive)
REMARK    1  A    between atoms: C2_2  and  C5_5 
REMARK    2  A    between atoms: C5_5  and  N1_6 
REMARK    3  A    between atoms: C6_7  and  C7_8 
REMARK    4  A    between atoms: C7_8  and  C8_9 
REMARK    5  A    between atoms: C8_9  and  N2_10 
REMARK       I    between atoms: N2_10  and  C9_12 
ROOT
HETATM    1  N1  UNL     1       9.784  13.099   0.674  1.00  0.00    -0.366 N 
HETATM    2  C6  UNL     1       9.285  13.580  -0.522  1.00  0.00     0.095 C 
HETATM    3  C10 UNL     1       8.342  12.701  -1.305  1.00  0.00     0.128 C 
HETATM    4  C11 UNL     1       7.504  11.925  -0.365  1.00  0.00     0.223 C 
HETATM    5  O1  UNL     1       6.236  11.833  -0.501  1.00  0.00    -0.273 OA
HETATM    6  N5  UNL     1       8.175  11.288   0.694  1.00  0.00    -0.331 N 
HETATM    7  C12 UNL     1       7.617  10.150   1.368  1.00  0.00     0.128 C 
HETATM    8  C13 UNL     1       8.712   9.178   1.690  1.00  0.00     0.020 C 
HETATM    9  C14 UNL     1       9.956   9.348   0.872  1.00  0.00     0.005 C 
HETATM   10  C15 UNL     1      10.487  10.735   0.814  1.00  0.00     0.047 C 
HETATM   11  C16 UNL     1       9.452  11.795   1.110  1.00  0.00     0.188 C 
ENDROOT
BRANCH   2  12
HETATM   12  C7  UNL     1      10.273  14.120  -1.513  1.00  0.00     0.045 C 
BRANCH  12  13
HETATM   13  C8  UNL     1      10.063  15.599  -1.745  1.00  0.00     0.124 C 
BRANCH  13  14
HETATM   14  N2  UNL     1       9.455  15.853  -3.040  1.00  0.00    -0.365 N 
HETATM   15  C9  UNL     1       8.050  15.988  -3.071  1.00  0.00     0.181 C 
HETATM   16  N3  UNL     1       7.490  16.894  -2.369  1.00  0.00    -0.374 N 
HETATM   17  N4  UNL     1       7.297  15.106  -3.888  1.00  0.00    -0.064 NA
ATOM     18  H32 UNL     1       8.031  17.528  -1.782  1.00  0.00     0.158 HD
ATOM     19  H31 UNL     1       6.475  16.992  -2.391  1.00  0.00     0.158 HD
ATOM     20  H2  UNL     1      10.016  15.930  -3.888  1.00  0.00     0.162 HD
ENDBRANCH  13  14
ENDBRANCH  12  13
ENDBRANCH   2  12
BRANCH   1  21
HETATM   21  C5  UNL     1      10.496  13.844   1.600  1.00  0.00     0.069 C 
BRANCH  21  22
HETATM   22  C2  UNL     1       9.820  14.949   2.345  1.00  0.00    -0.019 C 
HETATM   23  C1  UNL     1      10.052  14.883   3.841  1.00  0.00     0.020 C 
HETATM   24  C3  UNL     1       8.379  15.171   2.102  1.00  0.00     0.020 C 
HETATM   25  C4  UNL     1      10.546  16.240   1.894  1.00  0.00     0.020 C 
ENDBRANCH  21  22
ENDBRANCH   1  21
TORSDOF 5
ENDMDL
