MODEL 1
REMARK VINA RESULT: -5.860807596      0.000      0.000
REMARK  8 active torsions:
REMARK  status: ('A' for Active; 'I' for Inactive)
REMARK    1  A    between atoms: C3_3  and  C4_4 
REMARK    2  A    between atoms: C4_4  and  N1_5 
REMARK       I    between atoms: N1_5  and  C5_7 
REMARK    3  A    between atoms: N3_9  and  C6_11 
REMARK    4  A    between atoms: C6_11  and  C7_12 
REMARK    5  A    between atoms: C7_12  and  C8_13 
REMARK    6  A    between atoms: N4_15  and  C10_17 
REMARK    7  A    between atoms: C10_17  and  C11_18 
REMARK    8  A    between atoms: C11_18  and  C14_21 
ROOT
HETATM    1  C1  UNL     1       7.723  48.465  72.891  1.00  0.00     0.012 C 
HETATM    2  C2  UNL     1       8.422  49.211  72.263  1.00  0.00    -0.116 C 
HETATM    3  C3  UNL     1       9.247  50.118  71.487  1.00  0.00     0.112 C 
ENDROOT
BRANCH   3   4
HETATM    4  C4  UNL     1       8.461  51.311  71.053  1.00  0.00     0.134 C 
BRANCH   4   5
HETATM    5  N1  UNL     1       7.993  52.083  72.177  1.00  0.00    -0.364 N 
HETATM    6  C5  UNL     1       6.647  52.486  72.303  1.00  0.00     0.189 C 
HETATM    7  N2  UNL     1       5.748  51.646  73.015  1.00  0.00    -0.064 NA
HETATM    8  N3  UNL     1       6.227  53.564  71.803  1.00  0.00    -0.321 N 
ATOM      9  H3  UNL     1       6.916  54.125  71.303  1.00  0.00     0.169 HD
ATOM     10  H1  UNL     1       8.656  52.348  72.904  1.00  0.00     0.162 HD
BRANCH   8  11
HETATM   11  C6  UNL     1       4.927  54.082  71.852  1.00  0.00     0.079 C 
HETATM   12  N4  UNL     1       4.019  53.390  71.253  1.00  0.00    -0.379 N 
ATOM     13  H4  UNL     1       4.297  52.525  70.789  1.00  0.00     0.160 HD
BRANCH  11  14
HETATM   14  C7  UNL     1       4.539  55.322  72.520  1.00  0.00     0.076 C 
BRANCH  14  15
HETATM   15  C8  UNL     1       5.387  56.513  72.162  1.00  0.00     0.003 C 
HETATM   16  C9  UNL     1       4.642  57.805  72.154  1.00  0.00     0.005 C 
ENDBRANCH  14  15
ENDBRANCH  11  14
BRANCH  12  17
HETATM   17  C10 UNL     1       2.636  53.776  71.206  1.00  0.00     0.130 C 
BRANCH  17  18
HETATM   18  C11 UNL     1       2.175  54.095  69.802  1.00  0.00    -0.025 C 
HETATM   19  C12 UNL     1       0.878  53.353  69.553  1.00  0.00     0.017 C 
HETATM   20  C13 UNL     1       3.212  53.613  68.826  1.00  0.00     0.017 C 
BRANCH  18  21
HETATM   21  C14 UNL     1       1.929  55.555  69.598  1.00  0.00    -0.043 C 
HETATM   22  C15 UNL     1       3.144  56.301  69.124  1.00  0.00     0.015 C 
HETATM   23  C16 UNL     1       0.840  55.700  68.549  1.00  0.00     0.015 C 
HETATM   24  C17 UNL     1       1.453  56.217  70.876  1.00  0.00     0.015 C 
ENDBRANCH  18  21
ENDBRANCH  17  18
ENDBRANCH  12  17
ENDBRANCH   8  11
ENDBRANCH   4   5
ENDBRANCH   3   4
TORSDOF 8
ENDMDL
MODEL 2
REMARK VINA RESULT: -5.740205818      0.670      1.766
REMARK  8 active torsions:
REMARK  status: ('A' for Active; 'I' for Inactive)
REMARK    1  A    between atoms: C3_3  and  C4_4 
REMARK    2  A    between atoms: C4_4  and  N1_5 
REMARK       I    between atoms: N1_5  and  C5_7 
REMARK    3  A    between atoms: N3_9  and  C6_11 
REMARK    4  A    between atoms: C6_11  and  C7_12 
REMARK    5  A    between atoms: C7_12  and  C8_13 
REMARK    6  A    between atoms: N4_15  and  C10_17 
REMARK    7  A    between atoms: C10_17  and  C11_18 
REMARK    8  A    between atoms: C11_18  and  C14_21 
ROOT
HETATM    1  C1  UNL     1       7.695  48.527  72.947  1.00  0.00     0.012 C 
HETATM    2  C2  UNL     1       8.410  49.247  72.306  1.00  0.00    -0.116 C 
HETATM    3  C3  UNL     1       9.255  50.122  71.516  1.00  0.00     0.112 C 
ENDROOT
BRANCH   3   4
HETATM    4  C4  UNL     1       8.508  51.345  71.097  1.00  0.00     0.134 C 
BRANCH   4   5
HETATM    5  N1  UNL     1       7.976  52.063  72.229  1.00  0.00    -0.364 N 
HETATM    6  C5  UNL     1       6.628  52.471  72.293  1.00  0.00     0.189 C 
HETATM    7  N2  UNL     1       5.682  51.603  72.904  1.00  0.00    -0.064 NA
HETATM    8  N3  UNL     1       6.246  53.577  71.825  1.00  0.00    -0.321 N 
ATOM      9  H3  UNL     1       6.968  54.157  71.398  1.00  0.00     0.169 HD
ATOM     10  H1  UNL     1       8.596  52.283  73.009  1.00  0.00     0.162 HD
BRANCH   8  11
HETATM   11  C6  UNL     1       4.949  54.104  71.821  1.00  0.00     0.079 C 
HETATM   12  N4  UNL     1       4.079  53.461  71.118  1.00  0.00    -0.379 N 
ATOM     13  H4  UNL     1       4.383  52.626  70.618  1.00  0.00     0.160 HD
BRANCH  11  14
HETATM   14  C7  UNL     1       4.523  55.301  72.542  1.00  0.00     0.076 C 
BRANCH  14  15
HETATM   15  C8  UNL     1       5.330  56.533  72.232  1.00  0.00     0.003 C 
HETATM   16  C9  UNL     1       5.296  56.932  70.795  1.00  0.00     0.005 C 
ENDBRANCH  14  15
ENDBRANCH  11  14
BRANCH  12  17
HETATM   17  C10 UNL     1       2.705  53.863  71.004  1.00  0.00     0.130 C 
BRANCH  17  18
HETATM   18  C11 UNL     1       2.325  54.217  69.584  1.00  0.00    -0.025 C 
HETATM   19  C12 UNL     1       3.495  53.873  68.685  1.00  0.00     0.017 C 
HETATM   20  C13 UNL     1       2.061  55.695  69.503  1.00  0.00     0.017 C 
BRANCH  18  21
HETATM   21  C14 UNL     1       1.127  53.462  69.106  1.00  0.00    -0.043 C 
HETATM   22  C15 UNL     1       1.474  52.147  68.465  1.00  0.00     0.015 C 
HETATM   23  C16 UNL     1       0.241  53.188  70.309  1.00  0.00     0.015 C 
HETATM   24  C17 UNL     1       0.332  54.268  68.099  1.00  0.00     0.015 C 
ENDBRANCH  18  21
ENDBRANCH  17  18
ENDBRANCH  12  17
ENDBRANCH   8  11
ENDBRANCH   4   5
ENDBRANCH   3   4
TORSDOF 8
ENDMDL
MODEL 3
REMARK VINA RESULT: -5.503033475      1.445      2.194
REMARK  8 active torsions:
REMARK  status: ('A' for Active; 'I' for Inactive)
REMARK    1  A    between atoms: C3_3  and  C4_4 
REMARK    2  A    between atoms: C4_4  and  N1_5 
REMARK       I    between atoms: N1_5  and  C5_7 
REMARK    3  A    between atoms: N3_9  and  C6_11 
REMARK    4  A    between atoms: C6_11  and  C7_12 
REMARK    5  A    between atoms: C7_12  and  C8_13 
REMARK    6  A    between atoms: N4_15  and  C10_17 
REMARK    7  A    between atoms: C10_17  and  C11_18 
REMARK    8  A    between atoms: C11_18  and  C14_21 
ROOT
HETATM    1  C1  UNL     1       7.757  48.542  72.898  1.00  0.00     0.012 C 
HETATM    2  C2  UNL     1       8.441  49.351  72.334  1.00  0.00    -0.116 C 
HETATM    3  C3  UNL     1       9.250  50.330  71.633  1.00  0.00     0.112 C 
ENDROOT
BRANCH   3   4
HETATM    4  C4  UNL     1       8.391  51.371  70.995  1.00  0.00     0.134 C 
BRANCH   4   5
HETATM    5  N1  UNL     1       8.024  52.409  71.927  1.00  0.00    -0.364 N 
HETATM    6  C5  UNL     1       6.690  52.612  72.338  1.00  0.00     0.189 C 
HETATM    7  N2  UNL     1       6.230  51.949  73.508  1.00  0.00    -0.064 NA
HETATM    8  N3  UNL     1       5.904  53.360  71.697  1.00  0.00    -0.321 N 
ATOM      9  H3  UNL     1       6.289  53.808  70.866  1.00  0.00     0.169 HD
ATOM     10  H1  UNL     1       8.753  53.016  72.300  1.00  0.00     0.162 HD
BRANCH   8  11
HETATM   11  C6  UNL     1       4.567  53.649  71.990  1.00  0.00     0.079 C 
HETATM   12  N4  UNL     1       3.774  52.635  72.078  1.00  0.00    -0.379 N 
ATOM     13  H4  UNL     1       4.163  51.703  71.932  1.00  0.00     0.160 HD
BRANCH  11  14
HETATM   14  C7  UNL     1       4.019  54.987  72.199  1.00  0.00     0.076 C 
BRANCH  14  15
HETATM   15  C8  UNL     1       4.428  55.995  71.158  1.00  0.00     0.003 C 
HETATM   16  C9  UNL     1       4.003  55.641  69.774  1.00  0.00     0.005 C 
ENDBRANCH  14  15
ENDBRANCH  11  14
BRANCH  12  17
HETATM   17  C10 UNL     1       2.373  52.752  72.372  1.00  0.00     0.130 C 
BRANCH  17  18
HETATM   18  C11 UNL     1       1.524  51.869  71.485  1.00  0.00    -0.025 C 
HETATM   19  C12 UNL     1       0.298  51.453  72.273  1.00  0.00     0.017 C 
HETATM   20  C13 UNL     1       2.312  50.643  71.118  1.00  0.00     0.017 C 
BRANCH  18  21
HETATM   21  C14 UNL     1       1.071  52.570  70.245  1.00  0.00    -0.043 C 
HETATM   22  C15 UNL     1       2.068  52.491  69.123  1.00  0.00     0.015 C 
HETATM   23  C16 UNL     1      -0.219  51.912  69.785  1.00  0.00     0.015 C 
HETATM   24  C17 UNL     1       0.792  54.036  70.511  1.00  0.00     0.015 C 
ENDBRANCH  18  21
ENDBRANCH  17  18
ENDBRANCH  12  17
ENDBRANCH   8  11
ENDBRANCH   4   5
ENDBRANCH   3   4
TORSDOF 8
ENDMDL
MODEL 4
REMARK VINA RESULT: -5.455085340      2.088      4.028
REMARK  8 active torsions:
REMARK  status: ('A' for Active; 'I' for Inactive)
REMARK    1  A    between atoms: C3_3  and  C4_4 
REMARK    2  A    between atoms: C4_4  and  N1_5 
REMARK       I    between atoms: N1_5  and  C5_7 
REMARK    3  A    between atoms: N3_9  and  C6_11 
REMARK    4  A    between atoms: C6_11  and  C7_12 
REMARK    5  A    between atoms: C7_12  and  C8_13 
REMARK    6  A    between atoms: N4_15  and  C10_17 
REMARK    7  A    between atoms: C10_17  and  C11_18 
REMARK    8  A    between atoms: C11_18  and  C14_21 
ROOT
HETATM    1  C1  UNL     1       3.908  51.910  75.662  1.00  0.00     0.012 C 
HETATM    2  C2  UNL     1       4.269  51.772  74.525  1.00  0.00    -0.116 C 
HETATM    3  C3  UNL     1       4.723  51.623  73.156  1.00  0.00     0.112 C 
ENDROOT
BRANCH   3   4
HETATM    4  C4  UNL     1       6.210  51.727  73.075  1.00  0.00     0.134 C 
BRANCH   4   5
HETATM    5  N1  UNL     1       6.627  52.819  72.232  1.00  0.00    -0.364 N 
HETATM    6  C5  UNL     1       5.734  53.826  71.810  1.00  0.00     0.189 C 
HETATM    7  N2  UNL     1       5.613  55.003  72.598  1.00  0.00    -0.064 NA
HETATM    8  N3  UNL     1       5.046  53.707  70.761  1.00  0.00    -0.321 N 
ATOM      9  H3  UNL     1       5.174  52.841  70.237  1.00  0.00     0.169 HD
ATOM     10  H1  UNL     1       7.600  52.865  71.930  1.00  0.00     0.162 HD
BRANCH   8  11
HETATM   11  C6  UNL     1       4.129  54.620  70.229  1.00  0.00     0.079 C 
HETATM   12  N4  UNL     1       4.578  55.809  70.007  1.00  0.00    -0.379 N 
ATOM     13  H4  UNL     1       5.555  56.007  70.228  1.00  0.00     0.160 HD
BRANCH  11  14
HETATM   14  C7  UNL     1       2.733  54.328  69.915  1.00  0.00     0.076 C 
BRANCH  14  15
HETATM   15  C8  UNL     1       2.106  53.277  70.792  1.00  0.00     0.003 C 
HETATM   16  C9  UNL     1       1.729  53.769  72.149  1.00  0.00     0.005 C 
ENDBRANCH  14  15
ENDBRANCH  11  14
BRANCH  12  17
HETATM   17  C10 UNL     1       3.774  56.868  69.465  1.00  0.00     0.130 C 
BRANCH  17  18
HETATM   18  C11 UNL     1       3.703  58.066  70.385  1.00  0.00    -0.025 C 
HETATM   19  C12 UNL     1       3.609  59.311  69.527  1.00  0.00     0.017 C 
HETATM   20  C13 UNL     1       4.962  58.127  71.204  1.00  0.00     0.017 C 
BRANCH  18  21
HETATM   21  C14 UNL     1       2.513  58.025  71.288  1.00  0.00    -0.043 C 
HETATM   22  C15 UNL     1       2.766  57.281  72.568  1.00  0.00     0.015 C 
HETATM   23  C16 UNL     1       2.143  59.458  71.633  1.00  0.00     0.015 C 
HETATM   24  C17 UNL     1       1.325  57.375  70.606  1.00  0.00     0.015 C 
ENDBRANCH  18  21
ENDBRANCH  17  18
ENDBRANCH  12  17
ENDBRANCH   8  11
ENDBRANCH   4   5
ENDBRANCH   3   4
TORSDOF 8
ENDMDL
MODEL 5
REMARK VINA RESULT: -5.430100583      1.786      3.601
REMARK  8 active torsions:
REMARK  status: ('A' for Active; 'I' for Inactive)
REMARK    1  A    between atoms: C3_3  and  C4_4 
REMARK    2  A    between atoms: C4_4  and  N1_5 
REMARK       I    between atoms: N1_5  and  C5_7 
REMARK    3  A    between atoms: N3_9  and  C6_11 
REMARK    4  A    between atoms: C6_11  and  C7_12 
REMARK    5  A    between atoms: C7_12  and  C8_13 
REMARK    6  A    between atoms: N4_15  and  C10_17 
REMARK    7  A    between atoms: C10_17  and  C11_18 
REMARK    8  A    between atoms: C11_18  and  C14_21 
ROOT
HETATM    1  C1  UNL     1       8.853  50.323  71.755  1.00  0.00     0.012 C 
HETATM    2  C2  UNL     1       7.987  50.421  72.581  1.00  0.00    -0.116 C 
HETATM    3  C3  UNL     1       6.939  50.565  73.572  1.00  0.00     0.112 C 
ENDROOT
BRANCH   3   4
HETATM    4  C4  UNL     1       5.828  51.415  73.051  1.00  0.00     0.134 C 
BRANCH   4   5
HETATM    5  N1  UNL     1       6.313  52.662  72.513  1.00  0.00    -0.364 N 
HETATM    6  C5  UNL     1       5.444  53.646  71.995  1.00  0.00     0.189 C 
HETATM    7  N2  UNL     1       4.971  54.663  72.867  1.00  0.00    -0.064 NA
HETATM    8  N3  UNL     1       5.081  53.642  70.788  1.00  0.00    -0.321 N 
ATOM      9  H3  UNL     1       5.452  52.887  70.211  1.00  0.00     0.169 HD
ATOM     10  H1  UNL     1       7.317  52.839  72.507  1.00  0.00     0.162 HD
BRANCH   8  11
HETATM   11  C6  UNL     1       4.231  54.549  70.147  1.00  0.00     0.079 C 
HETATM   12  N4  UNL     1       4.636  55.774  70.107  1.00  0.00    -0.379 N 
ATOM     13  H4  UNL     1       5.533  56.001  70.536  1.00  0.00     0.160 HD
BRANCH  11  14
HETATM   14  C7  UNL     1       2.949  54.214  69.533  1.00  0.00     0.076 C 
BRANCH  14  15
HETATM   15  C8  UNL     1       2.110  53.253  70.332  1.00  0.00     0.003 C 
HETATM   16  C9  UNL     1       1.517  53.848  71.565  1.00  0.00     0.005 C 
ENDBRANCH  14  15
ENDBRANCH  11  14
BRANCH  12  17
HETATM   17  C10 UNL     1       3.888  56.832  69.488  1.00  0.00     0.130 C 
BRANCH  17  18
HETATM   18  C11 UNL     1       3.730  58.031  70.395  1.00  0.00    -0.025 C 
HETATM   19  C12 UNL     1       3.791  59.279  69.538  1.00  0.00     0.017 C 
HETATM   20  C13 UNL     1       4.868  58.054  71.378  1.00  0.00     0.017 C 
BRANCH  18  21
HETATM   21  C14 UNL     1       2.428  58.027  71.129  1.00  0.00    -0.043 C 
HETATM   22  C15 UNL     1       2.494  57.313  72.449  1.00  0.00     0.015 C 
HETATM   23  C16 UNL     1       2.036  59.472  71.387  1.00  0.00     0.015 C 
HETATM   24  C17 UNL     1       1.335  57.374  70.307  1.00  0.00     0.015 C 
ENDBRANCH  18  21
ENDBRANCH  17  18
ENDBRANCH  12  17
ENDBRANCH   8  11
ENDBRANCH   4   5
ENDBRANCH   3   4
TORSDOF 8
ENDMDL
