MODEL 1
REMARK VINA RESULT: -7.479231365      0.000      0.000
REMARK  8 active torsions:
REMARK  status: ('A' for Active; 'I' for Inactive)
REMARK    1  A    between atoms: N1_1  and  C1_4 
REMARK    2  A    between atoms: C4_12  and  S1_13 
REMARK    3  A    between atoms: S1_13  and  C5_14 
REMARK    4  A    between atoms: C5_14  and  C6_15 
REMARK    5  A    between atoms: C6_15  and  O2_16 
REMARK    6  A    between atoms: C6_15  and  C7_18 
REMARK    7  A    between atoms: C7_18  and  O3_19 
REMARK    8  A    between atoms: N4_21  and  N5_22 
ROOT
HETATM    1  C1  UNL     1     127.663-111.160 101.880  1.00  0.00     0.679 A 
HETATM    2  N2  UNL     1     128.199-111.748 102.966  1.00  0.00    -0.154 N 
ATOM      3  H2  UNL     1     129.192-111.619 103.155  1.00  0.00     0.187 HD
HETATM    4  C2  UNL     1     127.471-112.499 103.808  1.00  0.00     0.288 A 
HETATM    5  O1  UNL     1     127.956-113.055 104.826  1.00  0.00    -0.265 OA
HETATM    6  C3  UNL     1     126.128-112.667 103.541  1.00  0.00     0.136 A 
HETATM    7  N3  UNL     1     125.336-113.413 104.350  1.00  0.00    -0.329 N 
ATOM      8  H3  UNL     1     125.749-113.856 105.171  1.00  0.00     0.168 HD
HETATM    9  C4  UNL     1     124.013-113.592 104.106  1.00  0.00     0.169 A 
HETATM   10  N4  UNL     1     123.503-113.002 103.026  1.00  0.00    -0.202 N 
HETATM   11  C8  UNL     1     124.232-112.246 102.179  1.00  0.00     0.298 A 
HETATM   12  O4  UNL     1     123.734-111.691 101.159  1.00  0.00    -0.264 OA
HETATM   13  C9  UNL     1     125.591-112.064 102.434  1.00  0.00     0.151 A 
HETATM   14  N6  UNL     1     126.359-111.326 101.627  1.00  0.00    -0.184 N 
ATOM     15  H6  UNL     1     125.945-110.883 100.806  1.00  0.00     0.184 HD
ENDROOT
BRANCH   9  16
HETATM   16  S1  UNL     1     122.990-114.585 105.164  1.00  0.00    -0.089 SA
BRANCH  16  17
HETATM   17  C5  UNL     1     122.064-113.672 106.381  1.00  0.00     0.116 C 
BRANCH  17  18
HETATM   18  C6  UNL     1     120.575-113.892 106.368  1.00  0.00     0.151 C 
BRANCH  18  19
HETATM   19  O2  UNL     1     120.011-113.075 107.385  1.00  0.00    -0.393 OA
ATOM     20  H2  UNL     1     119.251-112.641 107.017  1.00  0.00     0.210 HD
ENDBRANCH  18  19
BRANCH  18  21
HETATM   21  C7  UNL     1     120.291-115.318 106.885  1.00  0.00     0.196 C 
BRANCH  21  22
HETATM   22  O3  UNL     1     119.416-115.889 105.978  1.00  0.00    -0.398 OA
ATOM     23  H3  UNL     1     119.956-116.286 105.304  1.00  0.00     0.209 HD
ENDBRANCH  21  22
ENDBRANCH  18  21
ENDBRANCH  17  18
ENDBRANCH  16  17
ENDBRANCH   9  16
BRANCH  10  24
HETATM   24  N5  UNL     1     122.150-113.171 102.727  1.00  0.00    -0.334 N 
ATOM     25  H52 UNL     1     121.760-114.106 102.846  1.00  0.00     0.177 HD
ATOM     26  H51 UNL     1     121.602-112.369 102.413  1.00  0.00     0.177 HD
ENDBRANCH  10  24
BRANCH   1  27
HETATM   27  N1  UNL     1     128.420-110.436 101.090  1.00  0.00    -0.234 N 
ATOM     28  H12 UNL     1     128.943-109.636 101.447  1.00  0.00     0.174 HD
ATOM     29  H11 UNL     1     128.493-110.673 100.101  1.00  0.00     0.174 HD
ENDBRANCH   1  27
TORSDOF 8
ENDMDL
MODEL 2
REMARK VINA RESULT: -7.433842427      2.015      2.114
REMARK  8 active torsions:
REMARK  status: ('A' for Active; 'I' for Inactive)
REMARK    1  A    between atoms: N1_1  and  C1_4 
REMARK    2  A    between atoms: C4_12  and  S1_13 
REMARK    3  A    between atoms: S1_13  and  C5_14 
REMARK    4  A    between atoms: C5_14  and  C6_15 
REMARK    5  A    between atoms: C6_15  and  O2_16 
REMARK    6  A    between atoms: C6_15  and  C7_18 
REMARK    7  A    between atoms: C7_18  and  O3_19 
REMARK    8  A    between atoms: N4_21  and  N5_22 
ROOT
HETATM    1  C1  UNL     1     128.042-113.106  99.755  1.00  0.00     0.679 A 
HETATM    2  N2  UNL     1     128.640-113.862 100.695  1.00  0.00    -0.154 N 
ATOM      3  H2  UNL     1     129.535-114.301 100.478  1.00  0.00     0.187 HD
HETATM    4  C2  UNL     1     128.101-114.058 101.909  1.00  0.00     0.288 A 
HETATM    5  O1  UNL     1     128.647-114.760 102.798  1.00  0.00    -0.265 OA
HETATM    6  C3  UNL     1     126.890-113.458 102.191  1.00  0.00     0.136 A 
HETATM    7  N3  UNL     1     126.290-113.616 103.397  1.00  0.00    -0.329 N 
ATOM      8  H3  UNL     1     126.750-114.190 104.104  1.00  0.00     0.168 HD
HETATM    9  C4  UNL     1     125.100-113.037 103.696  1.00  0.00     0.169 A 
HETATM   10  N4  UNL     1     124.525-112.295 102.751  1.00  0.00    -0.202 N 
HETATM   11  C8  UNL     1     125.065-112.095 101.531  1.00  0.00     0.298 A 
HETATM   12  O4  UNL     1     124.508-111.387 100.645  1.00  0.00    -0.264 OA
HETATM   13  C9  UNL     1     126.289-112.691 101.228  1.00  0.00     0.151 A 
HETATM   14  N6  UNL     1     126.868-112.528 100.036  1.00  0.00    -0.184 N 
ATOM     15  H6  UNL     1     126.408-111.954  99.328  1.00  0.00     0.184 HD
ENDROOT
BRANCH   9  16
HETATM   16  S1  UNL     1     124.316-113.263 105.272  1.00  0.00    -0.089 SA
BRANCH  16  17
HETATM   17  C5  UNL     1     123.115-114.576 105.329  1.00  0.00     0.116 C 
BRANCH  17  18
HETATM   18  C6  UNL     1     121.675-114.147 105.250  1.00  0.00     0.151 C 
BRANCH  18  19
HETATM   19  O2  UNL     1     121.656-112.742 105.028  1.00  0.00    -0.393 OA
ATOM     20  H2  UNL     1     121.356-112.596 104.139  1.00  0.00     0.210 HD
ENDBRANCH  18  19
BRANCH  18  21
HETATM   21  C7  UNL     1     121.053-114.272 106.656  1.00  0.00     0.196 C 
BRANCH  21  22
HETATM   22  O3  UNL     1     119.769-113.767 106.556  1.00  0.00    -0.398 OA
ATOM     23  H3  UNL     1     119.185-114.480 106.788  1.00  0.00     0.209 HD
ENDBRANCH  21  22
ENDBRANCH  18  21
ENDBRANCH  17  18
ENDBRANCH  16  17
ENDBRANCH   9  16
BRANCH  10  24
HETATM   24  N5  UNL     1     123.292-111.692 103.008  1.00  0.00    -0.334 N 
ATOM     25  H52 UNL     1     123.296-110.855 103.591  1.00  0.00     0.177 HD
ATOM     26  H51 UNL     1     122.444-112.093 102.607  1.00  0.00     0.177 HD
ENDBRANCH  10  24
BRANCH   1  27
HETATM   27  N1  UNL     1     128.614-112.948  98.585  1.00  0.00    -0.234 N 
ATOM     28  H12 UNL     1     128.330-113.505  97.779  1.00  0.00     0.174 HD
ATOM     29  H11 UNL     1     129.357-112.258  98.473  1.00  0.00     0.174 HD
ENDBRANCH   1  27
TORSDOF 8
ENDMDL
MODEL 3
REMARK VINA RESULT: -7.372028271      1.441      2.841
REMARK  8 active torsions:
REMARK  status: ('A' for Active; 'I' for Inactive)
REMARK    1  A    between atoms: N1_1  and  C1_4 
REMARK    2  A    between atoms: C4_12  and  S1_13 
REMARK    3  A    between atoms: S1_13  and  C5_14 
REMARK    4  A    between atoms: C5_14  and  C6_15 
REMARK    5  A    between atoms: C6_15  and  O2_16 
REMARK    6  A    between atoms: C6_15  and  C7_18 
REMARK    7  A    between atoms: C7_18  and  O3_19 
REMARK    8  A    between atoms: N4_21  and  N5_22 
ROOT
HETATM    1  C1  UNL     1     127.743-110.515 101.353  1.00  0.00     0.679 A 
HETATM    2  N2  UNL     1     126.764-110.398 100.436  1.00  0.00    -0.154 N 
ATOM      3  H2  UNL     1     126.919-109.798  99.625  1.00  0.00     0.187 HD
HETATM    4  C2  UNL     1     125.592-111.041 100.550  1.00  0.00     0.288 A 
HETATM    5  O1  UNL     1     124.668-110.942  99.703  1.00  0.00    -0.265 OA
HETATM    6  C3  UNL     1     125.395-111.850 101.652  1.00  0.00     0.136 A 
HETATM    7  N3  UNL     1     124.234-112.528 101.830  1.00  0.00    -0.329 N 
ATOM      8  H3  UNL     1     123.497-112.433 101.131  1.00  0.00     0.168 HD
HETATM    9  C4  UNL     1     124.018-113.327 102.905  1.00  0.00     0.169 A 
HETATM   10  N4  UNL     1     124.998-113.428 103.800  1.00  0.00    -0.202 N 
HETATM   11  C8  UNL     1     126.178-112.783 103.686  1.00  0.00     0.298 A 
HETATM   12  O4  UNL     1     127.100-112.890 104.543  1.00  0.00    -0.264 OA
HETATM   13  C9  UNL     1     126.396-111.963 102.579  1.00  0.00     0.151 A 
HETATM   14  N6  UNL     1     127.545-111.301 102.418  1.00  0.00    -0.184 N 
ATOM     15  H6  UNL     1     128.282-111.395 103.117  1.00  0.00     0.184 HD
ENDROOT
BRANCH   9  16
HETATM   16  S1  UNL     1     122.488-114.197 103.135  1.00  0.00    -0.089 SA
BRANCH  16  17
HETATM   17  C5  UNL     1     121.399-113.487 104.352  1.00  0.00     0.116 C 
BRANCH  17  18
HETATM   18  C6  UNL     1     120.195-114.314 104.712  1.00  0.00     0.151 C 
BRANCH  18  19
HETATM   19  O2  UNL     1     119.056-113.465 104.650  1.00  0.00    -0.393 OA
ATOM     20  H2  UNL     1     118.318-113.947 105.003  1.00  0.00     0.210 HD
ENDBRANCH  18  19
BRANCH  18  21
HETATM   21  C7  UNL     1     120.275-114.660 106.213  1.00  0.00     0.196 C 
BRANCH  21  22
HETATM   22  O3  UNL     1     119.833-113.538 106.891  1.00  0.00    -0.398 OA
ATOM     23  H3  UNL     1     120.381-113.464 107.664  1.00  0.00     0.209 HD
ENDBRANCH  21  22
ENDBRANCH  18  21
ENDBRANCH  17  18
ENDBRANCH  16  17
ENDBRANCH   9  16
BRANCH  10  24
HETATM   24  N5  UNL     1     124.816-114.227 104.930  1.00  0.00    -0.334 N 
ATOM     25  H52 UNL     1     124.468-115.174 104.779  1.00  0.00     0.177 HD
ATOM     26  H51 UNL     1     125.038-113.851 105.852  1.00  0.00     0.177 HD
ENDBRANCH  10  24
BRANCH   1  27
HETATM   27  N1  UNL     1     128.869-109.863 101.191  1.00  0.00    -0.234 N 
ATOM     28  H12 UNL     1     129.300-109.773 100.270  1.00  0.00     0.174 HD
ATOM     29  H11 UNL     1     129.328-109.435 101.995  1.00  0.00     0.174 HD
ENDBRANCH   1  27
TORSDOF 8
ENDMDL
MODEL 4
REMARK VINA RESULT: -7.347195983      1.497      1.552
REMARK  8 active torsions:
REMARK  status: ('A' for Active; 'I' for Inactive)
REMARK    1  A    between atoms: N1_1  and  C1_4 
REMARK    2  A    between atoms: C4_12  and  S1_13 
REMARK    3  A    between atoms: S1_13  and  C5_14 
REMARK    4  A    between atoms: C5_14  and  C6_15 
REMARK    5  A    between atoms: C6_15  and  O2_16 
REMARK    6  A    between atoms: C6_15  and  C7_18 
REMARK    7  A    between atoms: C7_18  and  O3_19 
REMARK    8  A    between atoms: N4_21  and  N5_22 
ROOT
HETATM    1  C1  UNL     1     128.302-111.198 100.815  1.00  0.00     0.679 A 
HETATM    2  N2  UNL     1     128.774-111.440 102.053  1.00  0.00    -0.154 N 
ATOM      3  H2  UNL     1     129.776-111.363 102.221  1.00  0.00     0.187 HD
HETATM    4  C2  UNL     1     127.970-111.778 103.074  1.00  0.00     0.288 A 
HETATM    5  O1  UNL     1     128.395-112.007 104.235  1.00  0.00    -0.265 OA
HETATM    6  C3  UNL     1     126.615-111.878 102.834  1.00  0.00     0.136 A 
HETATM    7  N3  UNL     1     125.747-112.217 103.820  1.00  0.00    -0.329 N 
ATOM      8  H3  UNL     1     126.112-112.398 104.756  1.00  0.00     0.168 HD
HETATM    9  C4  UNL     1     124.411-112.322 103.607  1.00  0.00     0.169 A 
HETATM   10  N4  UNL     1     123.966-112.080 102.376  1.00  0.00    -0.202 N 
HETATM   11  C8  UNL     1     124.772-111.738 101.348  1.00  0.00     0.298 A 
HETATM   12  O4  UNL     1     124.335-111.510 100.185  1.00  0.00    -0.264 OA
HETATM   13  C9  UNL     1     126.144-111.630 101.572  1.00  0.00     0.151 A 
HETATM   14  N6  UNL     1     126.987-111.297 100.590  1.00  0.00    -0.184 N 
ATOM     15  H6  UNL     1     126.622-111.115  99.655  1.00  0.00     0.184 HD
ENDROOT
BRANCH   9  16
HETATM   16  S1  UNL     1     123.288-112.781 104.903  1.00  0.00    -0.089 SA
BRANCH  16  17
HETATM   17  C5  UNL     1     122.626-114.428 104.769  1.00  0.00     0.116 C 
BRANCH  17  18
HETATM   18  C6  UNL     1     121.125-114.526 104.725  1.00  0.00     0.151 C 
BRANCH  18  19
HETATM   19  O2  UNL     1     120.630-113.305 104.191  1.00  0.00    -0.393 OA
ATOM     20  H2  UNL     1     119.837-113.503 103.707  1.00  0.00     0.210 HD
ENDBRANCH  18  19
BRANCH  18  21
HETATM   21  C7  UNL     1     120.594-114.499 106.174  1.00  0.00     0.196 C 
BRANCH  21  22
HETATM   22  O3  UNL     1     119.403-113.795 106.134  1.00  0.00    -0.398 OA
ATOM     23  H3  UNL     1     118.850-114.173 106.808  1.00  0.00     0.209 HD
ENDBRANCH  21  22
ENDBRANCH  18  21
ENDBRANCH  17  18
ENDBRANCH  16  17
ENDBRANCH   9  16
BRANCH  10  24
HETATM   24  N5  UNL     1     122.601-112.191 102.105  1.00  0.00    -0.334 N 
ATOM     25  H52 UNL     1     122.186-111.476 101.508  1.00  0.00     0.177 HD
ATOM     26  H51 UNL     1     122.074-112.971 102.498  1.00  0.00     0.177 HD
ENDBRANCH  10  24
BRANCH   1  27
HETATM   27  N1  UNL     1     129.133-110.871  99.854  1.00  0.00    -0.234 N 
ATOM     28  H12 UNL     1     128.840-110.880  98.877  1.00  0.00     0.174 HD
ATOM     29  H11 UNL     1     130.090-110.602 100.082  1.00  0.00     0.174 HD
ENDBRANCH   1  27
TORSDOF 8
ENDMDL
MODEL 5
REMARK VINA RESULT: -7.334677386      2.337      3.489
REMARK  8 active torsions:
REMARK  status: ('A' for Active; 'I' for Inactive)
REMARK    1  A    between atoms: N1_1  and  C1_4 
REMARK    2  A    between atoms: C4_12  and  S1_13 
REMARK    3  A    between atoms: S1_13  and  C5_14 
REMARK    4  A    between atoms: C5_14  and  C6_15 
REMARK    5  A    between atoms: C6_15  and  O2_16 
REMARK    6  A    between atoms: C6_15  and  C7_18 
REMARK    7  A    between atoms: C7_18  and  O3_19 
REMARK    8  A    between atoms: N4_21  and  N5_22 
ROOT
HETATM    1  C1  UNL     1     129.439-112.091 100.429  1.00  0.00     0.679 A 
HETATM    2  N2  UNL     1     128.631-112.353  99.383  1.00  0.00    -0.154 N 
ATOM      3  H2  UNL     1     129.040-112.421  98.451  1.00  0.00     0.187 HD
HETATM    4  C2  UNL     1     127.308-112.529  99.524  1.00  0.00     0.288 A 
HETATM    5  O1  UNL     1     126.541-112.775  98.559  1.00  0.00    -0.265 OA
HETATM    6  C3  UNL     1     126.767-112.436 100.791  1.00  0.00     0.136 A 
HETATM    7  N3  UNL     1     125.438-112.601 101.004  1.00  0.00    -0.329 N 
ATOM      8  H3  UNL     1     124.833-112.800 100.206  1.00  0.00     0.168 HD
HETATM    9  C4  UNL     1     124.885-112.513 102.240  1.00  0.00     0.169 A 
HETATM   10  N4  UNL     1     125.701-112.252 103.259  1.00  0.00    -0.202 N 
HETATM   11  C8  UNL     1     127.031-112.076 103.120  1.00  0.00     0.298 A 
HETATM   12  O4  UNL     1     127.793-111.830 104.097  1.00  0.00    -0.264 OA
HETATM   13  C9  UNL     1     127.596-112.169 101.848  1.00  0.00     0.151 A 
HETATM   14  N6  UNL     1     128.907-112.002 101.654  1.00  0.00    -0.184 N 
ATOM     15  H6  UNL     1     129.512-111.803 102.451  1.00  0.00     0.184 HD
ENDROOT
BRANCH   9  16
HETATM   16  S1  UNL     1     123.141-112.716 102.503  1.00  0.00    -0.089 SA
BRANCH  16  17
HETATM   17  C5  UNL     1     122.689-114.165 103.434  1.00  0.00     0.116 C 
BRANCH  17  18
HETATM   18  C6  UNL     1     122.033-113.908 104.764  1.00  0.00     0.151 C 
BRANCH  18  19
HETATM   19  O2  UNL     1     122.121-112.513 105.024  1.00  0.00    -0.393 OA
ATOM     20  H2  UNL     1     121.277-112.129 104.819  1.00  0.00     0.210 HD
ENDBRANCH  18  19
BRANCH  18  21
HETATM   21  C7  UNL     1     122.923-114.513 105.870  1.00  0.00     0.196 C 
BRANCH  21  22
HETATM   22  O3  UNL     1     124.060-114.982 105.235  1.00  0.00    -0.398 OA
ATOM     23  H3  UNL     1     124.758-114.381 105.466  1.00  0.00     0.209 HD
ENDBRANCH  21  22
ENDBRANCH  18  21
ENDBRANCH  17  18
ENDBRANCH  16  17
ENDBRANCH   9  16
BRANCH  10  24
HETATM   24  N5  UNL     1     125.174-112.136 104.547  1.00  0.00    -0.334 N 
ATOM     25  H52 UNL     1     125.625-112.678 105.284  1.00  0.00     0.177 HD
ATOM     26  H51 UNL     1     124.377-111.520 104.710  1.00  0.00     0.177 HD
ENDBRANCH  10  24
BRANCH   1  27
HETATM   27  N1  UNL     1     130.725-111.928 100.233  1.00  0.00    -0.234 N 
ATOM     28  H12 UNL     1     131.386-111.964 101.009  1.00  0.00     0.174 HD
ATOM     29  H11 UNL     1     131.078-111.763  99.290  1.00  0.00     0.174 HD
ENDBRANCH   1  27
TORSDOF 8
ENDMDL
