MODEL 1
REMARK VINA RESULT: -7.266633266      0.000      0.000
REMARK  4 active torsions:
REMARK  status: ('A' for Active; 'I' for Inactive)
REMARK    1  A    between atoms: C6_8  and  C7_9 
REMARK    2  A    between atoms: C7_9  and  S1_10 
REMARK    3  A    between atoms: S1_10  and  C8_11 
REMARK    4  A    between atoms: C8_11  and  C9_12 
ROOT
HETATM    1  C8  UNL     1     -11.008  -4.328  11.703  1.00  0.00     0.140 C 
ENDROOT
BRANCH   1   2
HETATM    2  S1  UNL     1      -9.606  -3.201  11.764  1.00  0.00    -0.158 SA
BRANCH   2   3
HETATM    3  C7  UNL     1      -8.490  -3.538  13.136  1.00  0.00     0.115 C 
BRANCH   3   4
HETATM    4  C6  UNL     1      -7.404  -2.569  13.282  1.00  0.00    -0.018 A 
HETATM    5  C2  UNL     1      -7.005  -2.191  14.542  1.00  0.00     0.055 A 
HETATM    6  C1  UNL     1      -7.657  -2.772  15.717  1.00  0.00     0.077 C 
HETATM    7  O1  UNL     1      -6.043  -1.311  14.724  1.00  0.00    -0.326 OA
HETATM    8  C3  UNL     1      -5.421  -0.753  13.725  1.00  0.00     0.161 A 
HETATM    9  C4  UNL     1      -5.761  -1.078  12.433  1.00  0.00     0.034 A 
HETATM   10 BR1  UNL     1      -4.840  -0.253  10.969  1.00  0.00    -0.049 Br
HETATM   11  C5  UNL     1      -6.769  -2.000  12.212  1.00  0.00     0.031 A 
ENDBRANCH   3   4
ENDBRANCH   2   3
ENDBRANCH   1   2
BRANCH   1  12
HETATM   12  C9  UNL     1     -10.548  -5.755  11.575  1.00  0.00     0.079 A 
HETATM   13  N1  UNL     1     -10.610  -6.695  12.502  1.00  0.00    -0.295 N 
HETATM   14  N2  UNL     1     -10.181  -7.866  12.260  1.00  0.00    -0.279 N 
ATOM     15  H1  UNL     1     -11.003  -6.479  13.418  1.00  0.00     0.187 HD
HETATM   16  C10 UNL     1      -9.669  -8.121  11.050  1.00  0.00     0.158 A 
ATOM     17  H2  UNL     1     -10.226  -8.595  12.972  1.00  0.00     0.189 HD
HETATM   18  N3  UNL     1      -9.179  -9.254  10.604  1.00  0.00    -0.379 N 
HETATM   19  S2  UNL     1      -9.832  -6.606  10.279  1.00  0.00    -0.038 SA
ATOM     20  H32 UNL     1      -9.082 -10.159  11.065  1.00  0.00     0.158 HD
ATOM     21  H31 UNL     1      -8.789  -9.448   9.682  1.00  0.00     0.158 HD
ENDBRANCH   1  12
TORSDOF 4
ENDMDL
MODEL 2
REMARK VINA RESULT: -6.990697448      1.153      1.153
REMARK  4 active torsions:
REMARK  status: ('A' for Active; 'I' for Inactive)
REMARK    1  A    between atoms: C6_8  and  C7_9 
REMARK    2  A    between atoms: C7_9  and  S1_10 
REMARK    3  A    between atoms: S1_10  and  C8_11 
REMARK    4  A    between atoms: C8_11  and  C9_12 
ROOT
HETATM    1  C8  UNL     1     -10.831  -4.776  11.370  1.00  0.00     0.140 C 
ENDROOT
BRANCH   1   2
HETATM    2  S1  UNL     1      -9.570  -3.510  11.587  1.00  0.00    -0.158 SA
BRANCH   2   3
HETATM    3  C7  UNL     1      -8.591  -3.738  13.080  1.00  0.00     0.115 C 
BRANCH   3   4
HETATM    4  C6  UNL     1      -7.536  -2.742  13.268  1.00  0.00    -0.018 A 
HETATM    5  C2  UNL     1      -7.199  -2.352  14.542  1.00  0.00     0.055 A 
HETATM    6  C1  UNL     1      -7.884  -2.947  15.691  1.00  0.00     0.077 C 
HETATM    7  O1  UNL     1      -6.267  -1.448  14.760  1.00  0.00    -0.326 OA
HETATM    8  C3  UNL     1      -5.618  -0.877  13.786  1.00  0.00     0.161 A 
HETATM    9  C4  UNL     1      -5.897  -1.212  12.483  1.00  0.00     0.034 A 
HETATM   10 BR1  UNL     1      -4.936  -0.368  11.056  1.00  0.00    -0.049 Br
HETATM   11  C5  UNL     1      -6.871  -2.160  12.223  1.00  0.00     0.031 A 
ENDBRANCH   3   4
ENDBRANCH   2   3
ENDBRANCH   1   2
BRANCH   1  12
HETATM   12  C9  UNL     1     -10.217  -6.079  10.933  1.00  0.00     0.079 A 
HETATM   13  N1  UNL     1      -9.931  -6.444   9.695  1.00  0.00    -0.295 N 
HETATM   14  N2  UNL     1      -9.412  -7.580   9.464  1.00  0.00    -0.279 N 
ATOM     15  H1  UNL     1     -10.129  -5.811   8.921  1.00  0.00     0.187 HD
HETATM   16  C10 UNL     1      -9.164  -8.391  10.499  1.00  0.00     0.158 A 
ATOM     17  H2  UNL     1      -9.190  -7.868   8.511  1.00  0.00     0.189 HD
HETATM   18  N3  UNL     1      -8.636  -9.592  10.475  1.00  0.00    -0.379 N 
HETATM   19  S2  UNL     1      -9.708  -7.448  11.816  1.00  0.00    -0.038 SA
ATOM     20  H32 UNL     1      -8.311 -10.155   9.688  1.00  0.00     0.158 HD
ATOM     21  H31 UNL     1      -8.447 -10.210  11.264  1.00  0.00     0.158 HD
ENDBRANCH   1  12
TORSDOF 4
ENDMDL
MODEL 3
REMARK VINA RESULT: -6.900448045      4.562      7.062
REMARK  4 active torsions:
REMARK  status: ('A' for Active; 'I' for Inactive)
REMARK    1  A    between atoms: C6_8  and  C7_9 
REMARK    2  A    between atoms: C7_9  and  S1_10 
REMARK    3  A    between atoms: S1_10  and  C8_11 
REMARK    4  A    between atoms: C8_11  and  C9_12 
ROOT
HETATM    1  C8  UNL     1      -8.183  -4.120  12.996  1.00  0.00     0.140 C 
ENDROOT
BRANCH   1   2
HETATM    2  S1  UNL     1      -9.616  -3.351  12.225  1.00  0.00    -0.158 SA
BRANCH   2   3
HETATM    3  C7  UNL     1     -10.940  -4.520  11.873  1.00  0.00     0.115 C 
BRANCH   3   4
HETATM    4  C6  UNL     1     -10.603  -5.527  10.866  1.00  0.00    -0.018 A 
HETATM    5  C2  UNL     1     -11.063  -5.371   9.580  1.00  0.00     0.055 A 
HETATM    6  C1  UNL     1     -11.865  -4.198   9.231  1.00  0.00     0.077 C 
HETATM    7  O1  UNL     1     -10.799  -6.258   8.644  1.00  0.00    -0.326 OA
HETATM    8  C3  UNL     1     -10.093  -7.325   8.884  1.00  0.00     0.161 A 
HETATM    9  C4  UNL     1      -9.597  -7.554  10.145  1.00  0.00     0.034 A 
HETATM   10 BR1  UNL     1      -8.558  -9.127  10.490  1.00  0.00    -0.049 Br
HETATM   11  C5  UNL     1      -9.858  -6.639  11.150  1.00  0.00     0.031 A 
ENDBRANCH   3   4
ENDBRANCH   2   3
ENDBRANCH   1   2
BRANCH   1  12
HETATM   12  C9  UNL     1      -7.734  -3.336  14.200  1.00  0.00     0.079 A 
HETATM   13  N1  UNL     1      -8.217  -3.422  15.428  1.00  0.00    -0.295 N 
HETATM   14  N2  UNL     1      -7.744  -2.696  16.357  1.00  0.00    -0.279 N 
ATOM     15  H1  UNL     1      -8.974  -4.074  15.630  1.00  0.00     0.187 HD
HETATM   16  C10 UNL     1      -6.751  -1.849  16.062  1.00  0.00     0.158 A 
ATOM     17  H2  UNL     1      -8.113  -2.758  17.305  1.00  0.00     0.189 HD
HETATM   18  N3  UNL     1      -6.129  -1.022  16.869  1.00  0.00    -0.379 N 
HETATM   19  S2  UNL     1      -6.529  -2.143  14.394  1.00  0.00    -0.038 SA
ATOM     20  H32 UNL     1      -6.262  -0.846  17.866  1.00  0.00     0.158 HD
ATOM     21  H31 UNL     1      -5.373  -0.376  16.645  1.00  0.00     0.158 HD
ENDBRANCH   1  12
TORSDOF 4
ENDMDL
MODEL 4
REMARK VINA RESULT: -6.729816092      4.468      6.938
REMARK  4 active torsions:
REMARK  status: ('A' for Active; 'I' for Inactive)
REMARK    1  A    between atoms: C6_8  and  C7_9 
REMARK    2  A    between atoms: C7_9  and  S1_10 
REMARK    3  A    between atoms: S1_10  and  C8_11 
REMARK    4  A    between atoms: C8_11  and  C9_12 
ROOT
HETATM    1  C8  UNL     1      -8.372  -3.843  12.515  1.00  0.00     0.140 C 
ENDROOT
BRANCH   1   2
HETATM    2  S1  UNL     1     -10.026  -3.289  12.075  1.00  0.00    -0.158 SA
BRANCH   2   3
HETATM    3  C7  UNL     1     -10.990  -4.551  11.226  1.00  0.00     0.115 C 
BRANCH   3   4
HETATM    4  C6  UNL     1     -10.432  -5.900  11.319  1.00  0.00    -0.018 A 
HETATM    5  C2  UNL     1      -9.812  -6.447  10.221  1.00  0.00     0.055 A 
HETATM    6  C1  UNL     1      -9.702  -5.671   8.984  1.00  0.00     0.077 C 
HETATM    7  O1  UNL     1      -9.307  -7.663  10.251  1.00  0.00    -0.326 OA
HETATM    8  C3  UNL     1      -9.370  -8.409  11.316  1.00  0.00     0.161 A 
HETATM    9  C4  UNL     1      -9.975  -7.935  12.455  1.00  0.00     0.034 A 
HETATM   10 BR1  UNL     1     -10.061  -9.040  14.018  1.00  0.00    -0.049 Br
HETATM   11  C5  UNL     1     -10.513  -6.660  12.453  1.00  0.00     0.031 A 
ENDBRANCH   3   4
ENDBRANCH   2   3
ENDBRANCH   1   2
BRANCH   1  12
HETATM   12  C9  UNL     1      -7.923  -3.224  13.811  1.00  0.00     0.079 A 
HETATM   13  N1  UNL     1      -8.431  -3.442  15.012  1.00  0.00    -0.295 N 
HETATM   14  N2  UNL     1      -7.954  -2.848  16.029  1.00  0.00    -0.279 N 
ATOM     15  H1  UNL     1      -9.209  -4.091  15.123  1.00  0.00     0.187 HD
HETATM   16  C10 UNL     1      -6.932  -2.002  15.853  1.00  0.00     0.158 A 
ATOM     17  H2  UNL     1      -8.342  -3.012  16.957  1.00  0.00     0.189 HD
HETATM   18  N3  UNL     1      -6.303  -1.297  16.764  1.00  0.00    -0.379 N 
HETATM   19  S2  UNL     1      -6.688  -2.100  14.166  1.00  0.00    -0.038 SA
ATOM     20  H32 UNL     1      -6.449  -1.239  17.772  1.00  0.00     0.158 HD
ATOM     21  H31 UNL     1      -5.524  -0.653  16.630  1.00  0.00     0.158 HD
ENDBRANCH   1  12
TORSDOF 4
ENDMDL
MODEL 5
REMARK VINA RESULT: -6.518064056      1.456      1.490
REMARK  4 active torsions:
REMARK  status: ('A' for Active; 'I' for Inactive)
REMARK    1  A    between atoms: C6_8  and  C7_9 
REMARK    2  A    between atoms: C7_9  and  S1_10 
REMARK    3  A    between atoms: S1_10  and  C8_11 
REMARK    4  A    between atoms: C8_11  and  C9_12 
ROOT
HETATM    1  C8  UNL     1     -10.104  -3.380  11.247  1.00  0.00     0.140 C 
ENDROOT
BRANCH   1   2
HETATM    2  S1  UNL     1      -9.659  -3.366  12.991  1.00  0.00    -0.158 SA
BRANCH   2   3
HETATM    3  C7  UNL     1      -7.936  -3.800  13.282  1.00  0.00     0.115 C 
BRANCH   3   4
HETATM    4  C6  UNL     1      -7.036  -2.653  13.392  1.00  0.00    -0.018 A 
HETATM    5  C2  UNL     1      -6.746  -2.143  14.635  1.00  0.00     0.055 A 
HETATM    6  C1  UNL     1      -7.325  -2.761  15.829  1.00  0.00     0.077 C 
HETATM    7  O1  UNL     1      -5.953  -1.102  14.784  1.00  0.00    -0.326 OA
HETATM    8  C3  UNL     1      -5.405  -0.503  13.767  1.00  0.00     0.161 A 
HETATM    9  C4  UNL     1      -5.645  -0.951  12.490  1.00  0.00     0.034 A 
HETATM   10 BR1  UNL     1      -4.832  -0.063  10.999  1.00  0.00    -0.049 Br
HETATM   11  C5  UNL     1      -6.474  -2.044  12.304  1.00  0.00     0.031 A 
ENDBRANCH   3   4
ENDBRANCH   2   3
ENDBRANCH   1   2
BRANCH   1  12
HETATM   12  C9  UNL     1      -9.945  -4.757  10.661  1.00  0.00     0.079 A 
HETATM   13  N1  UNL     1      -9.770  -5.061   9.386  1.00  0.00    -0.295 N 
HETATM   14  N2  UNL     1      -9.649  -6.273   9.025  1.00  0.00    -0.279 N 
ATOM     15  H1  UNL     1      -9.732  -4.318   8.688  1.00  0.00     0.187 HD
HETATM   16  C10 UNL     1      -9.703  -7.227   9.962  1.00  0.00     0.158 A 
ATOM     17  H2  UNL     1      -9.515  -6.513   8.043  1.00  0.00     0.189 HD
HETATM   18  N3  UNL     1      -9.600  -8.524   9.799  1.00  0.00    -0.379 N 
HETATM   19  S2  UNL     1      -9.934  -6.304  11.382  1.00  0.00    -0.038 SA
ATOM     20  H32 UNL     1      -9.462  -9.075   8.951  1.00  0.00     0.158 HD
ATOM     21  H31 UNL     1      -9.641  -9.251  10.513  1.00  0.00     0.158 HD
ENDBRANCH   1  12
TORSDOF 4
ENDMDL
