MODEL 1
REMARK VINA RESULT: -8.297731715      0.000      0.000
REMARK  9 active torsions:
REMARK  status: ('A' for Active; 'I' for Inactive)
REMARK    1  A    between atoms: O1_2  and  C2_3 
REMARK    2  A    between atoms: C7_8  and  O2_9 
REMARK    3  A    between atoms: C8_11  and  N1_12 
REMARK       I    between atoms: N1_12  and  C9_14 
REMARK    4  A    between atoms: C11_17  and  S1_18 
REMARK    5  A    between atoms: C16_29  and  N5_30 
REMARK    6  A    between atoms: C18_39  and  N8_40 
REMARK    7  A    between atoms: N8_40  and  C19_42 
REMARK    8  A    between atoms: C19_42  and  C20_43 
REMARK    9  A    between atoms: C20_43  and  N9_44 
ROOT
HETATM    1  C2  UNL     1      -4.931  24.343  30.663  1.00  0.00     0.102 A 
HETATM    2  C3  UNL     1      -4.453  23.347  29.851  1.00  0.00     0.055 A 
HETATM    3  C4  UNL     1      -3.916  23.587  28.545  1.00  0.00     0.023 A 
HETATM    4  C5  UNL     1      -3.895  24.880  28.105  1.00  0.00     0.010 A 
HETATM    5  C6  UNL     1      -4.402  25.884  28.987  1.00  0.00     0.054 A 
HETATM    6  C7  UNL     1      -4.908  25.628  30.235  1.00  0.00     0.099 A 
HETATM    7  C8  UNL     1      -3.669  25.449  26.904  1.00  0.00     0.080 C 
HETATM    8  C11 UNL     1      -3.434  24.695  25.648  1.00  0.00     0.098 C 
HETATM    9  N2  UNL     1      -4.235  23.857  25.165  1.00  0.00    -0.345 N 
ATOM     10  H2  UNL     1      -3.870  23.466  24.296  1.00  0.00     0.167 HD
HETATM   11  C13 UNL     1      -5.459  23.314  25.469  1.00  0.00     0.182 C 
HETATM   12  N3  UNL     1      -5.475  21.968  25.449  1.00  0.00    -0.345 N 
ATOM     13  H3  UNL     1      -6.341  21.474  25.665  1.00  0.00     0.167 HD
HETATM   14  C14 UNL     1      -4.299  21.218  25.131  1.00  0.00     0.147 A 
HETATM   15  C15 UNL     1      -3.085  21.330  25.713  1.00  0.00     0.155 A 
HETATM   16  N4  UNL     1      -2.079  20.567  25.156  1.00  0.00    -0.174 N 
ATOM     17  H4  UNL     1      -1.151  20.637  25.574  1.00  0.00     0.186 HD
HETATM   18  C16 UNL     1      -2.222  19.746  24.119  1.00  0.00     0.680 A 
HETATM   19  N6  UNL     1      -3.427  19.618  23.532  1.00  0.00    -0.154 N 
ATOM     20  H6  UNL     1      -3.564  18.995  22.736  1.00  0.00     0.187 HD
HETATM   21  C17 UNL     1      -4.434  20.339  24.031  1.00  0.00     0.290 A 
HETATM   22  O4  UNL     1      -5.549  20.178  23.442  1.00  0.00    -0.265 OA
HETATM   23  N7  UNL     1      -2.738  22.058  26.923  1.00  0.00    -0.325 N 
ATOM     24  H7  UNL     1      -1.764  22.362  26.911  1.00  0.00     0.169 HD
HETATM   25  C18 UNL     1      -3.373  22.445  28.079  1.00  0.00     0.117 C 
ENDROOT
BRANCH  25  26
HETATM   26  N8  UNL     1      -3.270  21.376  29.138  1.00  0.00    -0.353 N 
ATOM     27  H8  UNL     1      -3.593  21.627  30.071  1.00  0.00     0.166 HD
BRANCH  26  28
HETATM   28  C19 UNL     1      -2.778  20.079  28.977  1.00  0.00     0.092 C 
BRANCH  28  29
HETATM   29  C20 UNL     1      -2.935  19.322  30.268  1.00  0.00     0.315 C 
BRANCH  29  30
HETATM   30  N9  UNL     1      -2.109  18.171  30.363  1.00  0.00     0.084 N 
HETATM   31  C21 UNL     1      -1.211  18.230  31.469  1.00  0.00     0.309 C 
HETATM   32  C22 UNL     1      -1.566  17.706  29.133  1.00  0.00     0.309 C 
ENDBRANCH  29  30
ENDBRANCH  28  29
ENDBRANCH  26  28
ENDBRANCH  25  26
BRANCH   1  33
HETATM   33  O1  UNL     1      -5.447  24.080  31.932  1.00  0.00    -0.353 OA
HETATM   34  C1  UNL     1      -4.601  24.240  33.052  1.00  0.00     0.210 C 
ENDBRANCH   1  33
BRANCH   7  35
HETATM   35  N1  UNL     1      -3.686  26.855  26.716  1.00  0.00    -0.324 N 
HETATM   36  C9  UNL     1      -2.621  27.722  26.785  1.00  0.00     0.218 C 
HETATM   37  C10 UNL     1      -2.843  29.232  26.585  1.00  0.00     0.117 C 
HETATM   38  O3  UNL     1      -1.436  27.467  26.996  1.00  0.00    -0.274 OA
ATOM     39  H1  UNL     1      -4.593  27.271  26.504  1.00  0.00     0.169 HD
ENDBRANCH   7  35
BRANCH   6  40
HETATM   40  O2  UNL     1      -5.388  26.667  31.049  1.00  0.00    -0.358 OA
ATOM     41  H2  UNL     1      -5.700  27.480  30.669  1.00  0.00     0.217 HD
ENDBRANCH   6  40
BRANCH   8  42
HETATM   42  S1  UNL     1      -1.842  24.935  24.807  1.00  0.00    -0.114 SA
HETATM   43  C12 UNL     1      -2.104  25.301  23.065  1.00  0.00     0.097 C 
ENDBRANCH   8  42
BRANCH  18  44
HETATM   44  N5  UNL     1      -1.244  19.051  23.637  1.00  0.00    -0.234 N 
ATOM     45  H52 UNL     1      -0.821  18.347  24.242  1.00  0.00     0.174 HD
ATOM     46  H51 UNL     1      -0.889  19.182  22.690  1.00  0.00     0.174 HD
ENDBRANCH  18  44
TORSDOF 9
ENDMDL
MODEL 2
REMARK VINA RESULT: -7.673316609      3.519      8.468
REMARK  9 active torsions:
REMARK  status: ('A' for Active; 'I' for Inactive)
REMARK    1  A    between atoms: O1_2  and  C2_3 
REMARK    2  A    between atoms: C7_8  and  O2_9 
REMARK    3  A    between atoms: C8_11  and  N1_12 
REMARK       I    between atoms: N1_12  and  C9_14 
REMARK    4  A    between atoms: C11_17  and  S1_18 
REMARK    5  A    between atoms: C16_29  and  N5_30 
REMARK    6  A    between atoms: C18_39  and  N8_40 
REMARK    7  A    between atoms: N8_40  and  C19_42 
REMARK    8  A    between atoms: C19_42  and  C20_43 
REMARK    9  A    between atoms: C20_43  and  N9_44 
ROOT
HETATM    1  C2  UNL     1      -4.567  24.134  26.165  1.00  0.00     0.102 A 
HETATM    2  C3  UNL     1      -4.367  25.215  26.986  1.00  0.00     0.055 A 
HETATM    3  C4  UNL     1      -4.109  25.099  28.390  1.00  0.00     0.023 A 
HETATM    4  C5  UNL     1      -4.070  23.840  28.917  1.00  0.00     0.010 A 
HETATM    5  C6  UNL     1      -4.282  22.745  28.023  1.00  0.00     0.054 A 
HETATM    6  C7  UNL     1      -4.524  22.883  26.681  1.00  0.00     0.099 A 
HETATM    7  C8  UNL     1      -4.062  23.359  30.177  1.00  0.00     0.080 C 
HETATM    8  C11 UNL     1      -4.174  24.197  31.396  1.00  0.00     0.098 C 
HETATM    9  N2  UNL     1      -5.132  24.974  31.636  1.00  0.00    -0.345 N 
ATOM     10  H2  UNL     1      -5.002  25.444  32.531  1.00  0.00     0.167 HD
HETATM   11  C13 UNL     1      -6.304  25.372  31.041  1.00  0.00     0.182 C 
HETATM   12  N3  UNL     1      -6.443  26.709  30.959  1.00  0.00    -0.345 N 
ATOM     13  H3  UNL     1      -7.281  27.100  30.529  1.00  0.00     0.167 HD
HETATM   14  C14 UNL     1      -5.436  27.591  31.464  1.00  0.00     0.147 A 
HETATM   15  C15 UNL     1      -4.118  27.573  31.162  1.00  0.00     0.155 A 
HETATM   16  N4  UNL     1      -3.330  28.463  31.862  1.00  0.00    -0.174 N 
ATOM     17  H4  UNL     1      -2.331  28.466  31.657  1.00  0.00     0.186 HD
HETATM   18  C16 UNL     1      -3.768  29.317  32.784  1.00  0.00     0.680 A 
HETATM   19  N6  UNL     1      -5.078  29.352  33.091  1.00  0.00    -0.154 N 
ATOM     20  H6  UNL     1      -5.440  29.998  33.792  1.00  0.00     0.187 HD
HETATM   21  C17 UNL     1      -5.884  28.507  32.443  1.00  0.00     0.290 A 
HETATM   22  O4  UNL     1      -7.110  28.584  32.769  1.00  0.00    -0.265 OA
HETATM   23  N7  UNL     1      -3.453  26.822  30.109  1.00  0.00    -0.325 N 
ATOM     24  H7  UNL     1      -2.483  26.620  30.349  1.00  0.00     0.169 HD
HETATM   25  C18 UNL     1      -3.784  26.313  28.876  1.00  0.00     0.117 C 
ENDROOT
BRANCH  25  26
HETATM   26  N8  UNL     1      -3.548  27.331  27.789  1.00  0.00    -0.353 N 
ATOM     27  H8  UNL     1      -4.238  27.365  27.039  1.00  0.00     0.166 HD
BRANCH  26  28
HETATM   28  C19 UNL     1      -2.485  28.231  27.698  1.00  0.00     0.092 C 
BRANCH  28  29
HETATM   29  C20 UNL     1      -2.156  28.470  26.249  1.00  0.00     0.315 C 
BRANCH  29  30
HETATM   30  N9  UNL     1      -1.747  27.303  25.552  1.00  0.00     0.084 N 
HETATM   31  C21 UNL     1      -1.010  26.402  26.375  1.00  0.00     0.309 C 
HETATM   32  C22 UNL     1      -1.236  27.522  24.241  1.00  0.00     0.309 C 
ENDBRANCH  29  30
ENDBRANCH  28  29
ENDBRANCH  26  28
ENDBRANCH  25  26
BRANCH   1  33
HETATM   33  O1  UNL     1      -4.816  24.277  24.801  1.00  0.00    -0.353 OA
HETATM   34  C1  UNL     1      -3.725  24.528  23.938  1.00  0.00     0.210 C 
ENDBRANCH   1  33
BRANCH   7  35
HETATM   35  N1  UNL     1      -3.996  21.971  30.459  1.00  0.00    -0.324 N 
HETATM   36  C9  UNL     1      -2.883  21.163  30.431  1.00  0.00     0.218 C 
HETATM   37  C10 UNL     1      -3.015  19.660  30.734  1.00  0.00     0.117 C 
HETATM   38  O3  UNL     1      -1.717  21.471  30.185  1.00  0.00    -0.274 OA
ATOM     39  H1  UNL     1      -4.874  21.519  30.712  1.00  0.00     0.169 HD
ENDBRANCH   7  35
BRANCH   6  40
HETATM   40  O2  UNL     1      -4.721  21.759  25.861  1.00  0.00    -0.358 OA
ATOM     41  H2  UNL     1      -3.983  21.281  25.503  1.00  0.00     0.217 HD
ENDBRANCH   6  40
BRANCH   8  42
HETATM   42  S1  UNL     1      -2.789  24.166  32.570  1.00  0.00    -0.114 SA
HETATM   43  C12 UNL     1      -3.087  25.317  33.921  1.00  0.00     0.097 C 
ENDBRANCH   8  42
BRANCH  18  44
HETATM   44  N5  UNL     1      -2.984  30.132  33.410  1.00  0.00    -0.234 N 
ATOM     45  H52 UNL     1      -3.246  31.118  33.432  1.00  0.00     0.174 HD
ATOM     46  H51 UNL     1      -2.129  29.827  33.874  1.00  0.00     0.174 HD
ENDBRANCH  18  44
TORSDOF 9
ENDMDL
MODEL 3
REMARK VINA RESULT: -7.437388120      2.441      5.184
REMARK  9 active torsions:
REMARK  status: ('A' for Active; 'I' for Inactive)
REMARK    1  A    between atoms: O1_2  and  C2_3 
REMARK    2  A    between atoms: C7_8  and  O2_9 
REMARK    3  A    between atoms: C8_11  and  N1_12 
REMARK       I    between atoms: N1_12  and  C9_14 
REMARK    4  A    between atoms: C11_17  and  S1_18 
REMARK    5  A    between atoms: C16_29  and  N5_30 
REMARK    6  A    between atoms: C18_39  and  N8_40 
REMARK    7  A    between atoms: N8_40  and  C19_42 
REMARK    8  A    between atoms: C19_42  and  C20_43 
REMARK    9  A    between atoms: C20_43  and  N9_44 
ROOT
HETATM    1  C2  UNL     1      -2.260  19.660  31.421  1.00  0.00     0.102 A 
HETATM    2  C3  UNL     1      -2.379  20.132  30.138  1.00  0.00     0.055 A 
HETATM    3  C4  UNL     1      -2.733  21.485  29.829  1.00  0.00     0.023 A 
HETATM    4  C5  UNL     1      -2.965  22.327  30.879  1.00  0.00     0.010 A 
HETATM    5  C6  UNL     1      -2.828  21.790  32.196  1.00  0.00     0.054 A 
HETATM    6  C7  UNL     1      -2.484  20.491  32.466  1.00  0.00     0.099 A 
HETATM    7  C8  UNL     1      -3.501  23.560  30.980  1.00  0.00     0.080 C 
HETATM    8  C11 UNL     1      -4.078  24.321  29.844  1.00  0.00     0.098 C 
HETATM    9  N2  UNL     1      -5.018  23.909  29.121  1.00  0.00    -0.345 N 
ATOM     10  H2  UNL     1      -5.254  24.597  28.406  1.00  0.00     0.167 HD
HETATM   11  C13 UNL     1      -5.820  22.799  29.014  1.00  0.00     0.182 C 
HETATM   12  N3  UNL     1      -5.860  22.278  27.772  1.00  0.00    -0.345 N 
ATOM     13  H3  UNL     1      -6.428  21.449  27.596  1.00  0.00     0.167 HD
HETATM   14  C14 UNL     1      -5.122  22.866  26.698  1.00  0.00     0.147 A 
HETATM   15  C15 UNL     1      -3.800  23.149  26.682  1.00  0.00     0.155 A 
HETATM   16  N4  UNL     1      -3.340  23.814  25.564  1.00  0.00    -0.174 N 
ATOM     17  H4  UNL     1      -2.347  24.043  25.530  1.00  0.00     0.186 HD
HETATM   18  C16 UNL     1      -4.089  24.179  24.526  1.00  0.00     0.680 A 
HETATM   19  N6  UNL     1      -5.406  23.900  24.523  1.00  0.00    -0.154 N 
ATOM     20  H6  UNL     1      -6.002  24.167  23.740  1.00  0.00     0.187 HD
HETATM   21  C17 UNL     1      -5.901  23.259  25.585  1.00  0.00     0.290 A 
HETATM   22  O4  UNL     1      -7.147  23.017  25.529  1.00  0.00    -0.265 OA
HETATM   23  N7  UNL     1      -2.786  22.731  27.638  1.00  0.00    -0.325 N 
ATOM     24  H7  UNL     1      -2.012  23.395  27.676  1.00  0.00     0.169 HD
HETATM   25  C18 UNL     1      -2.593  21.681  28.503  1.00  0.00     0.117 C 
ENDROOT
BRANCH  25  26
HETATM   26  N8  UNL     1      -1.886  20.538  27.817  1.00  0.00    -0.353 N 
ATOM     27  H8  UNL     1      -1.598  19.760  28.410  1.00  0.00     0.166 HD
BRANCH  26  28
HETATM   28  C19 UNL     1      -1.585  20.431  26.459  1.00  0.00     0.092 C 
BRANCH  28  29
HETATM   29  C20 UNL     1      -2.741  19.789  25.740  1.00  0.00     0.315 C 
BRANCH  29  30
HETATM   30  N9  UNL     1      -2.601  19.773  24.327  1.00  0.00     0.084 N 
HETATM   31  C21 UNL     1      -1.239  19.715  23.910  1.00  0.00     0.309 C 
HETATM   32  C22 UNL     1      -3.439  20.681  23.621  1.00  0.00     0.309 C 
ENDBRANCH  29  30
ENDBRANCH  28  29
ENDBRANCH  26  28
ENDBRANCH  25  26
BRANCH   1  33
HETATM   33  O1  UNL     1      -1.912  18.337  31.693  1.00  0.00    -0.353 OA
HETATM   34  C1  UNL     1      -0.556  17.959  31.583  1.00  0.00     0.210 C 
ENDBRANCH   1  33
BRANCH   7  35
HETATM   35  N1  UNL     1      -3.611  24.240  32.220  1.00  0.00    -0.324 N 
HETATM   36  C9  UNL     1      -4.760  24.517  32.924  1.00  0.00     0.218 C 
HETATM   37  C10 UNL     1      -4.682  25.303  34.245  1.00  0.00     0.117 C 
HETATM   38  O3  UNL     1      -5.921  24.217  32.648  1.00  0.00    -0.274 OA
ATOM     39  H1  UNL     1      -2.738  24.560  32.638  1.00  0.00     0.169 HD
ENDBRANCH   7  35
BRANCH   6  40
HETATM   40  O2  UNL     1      -2.365  20.033  33.789  1.00  0.00    -0.358 OA
ATOM     41  H2  UNL     1      -2.004  20.591  34.467  1.00  0.00     0.217 HD
ENDBRANCH   6  40
BRANCH   8  42
HETATM   42  S1  UNL     1      -3.310  25.910  29.419  1.00  0.00    -0.114 SA
HETATM   43  C12 UNL     1      -4.077  26.601  27.944  1.00  0.00     0.097 C 
ENDBRANCH   8  42
BRANCH  18  44
HETATM   44  N5  UNL     1      -3.606  24.801  23.501  1.00  0.00    -0.234 N 
ATOM     45  H52 UNL     1      -2.598  24.954  23.472  1.00  0.00     0.174 HD
ATOM     46  H51 UNL     1      -4.189  25.136  22.734  1.00  0.00     0.174 HD
ENDBRANCH  18  44
TORSDOF 9
ENDMDL
MODEL 4
REMARK VINA RESULT: -7.427874609      2.534      5.982
REMARK  9 active torsions:
REMARK  status: ('A' for Active; 'I' for Inactive)
REMARK    1  A    between atoms: O1_2  and  C2_3 
REMARK    2  A    between atoms: C7_8  and  O2_9 
REMARK    3  A    between atoms: C8_11  and  N1_12 
REMARK       I    between atoms: N1_12  and  C9_14 
REMARK    4  A    between atoms: C11_17  and  S1_18 
REMARK    5  A    between atoms: C16_29  and  N5_30 
REMARK    6  A    between atoms: C18_39  and  N8_40 
REMARK    7  A    between atoms: N8_40  and  C19_42 
REMARK    8  A    between atoms: C19_42  and  C20_43 
REMARK    9  A    between atoms: C20_43  and  N9_44 
ROOT
HETATM    1  C2  UNL     1      -2.001  27.362  26.530  1.00  0.00     0.102 A 
HETATM    2  C3  UNL     1      -2.295  26.275  25.746  1.00  0.00     0.055 A 
HETATM    3  C4  UNL     1      -3.201  25.240  26.145  1.00  0.00     0.023 A 
HETATM    4  C5  UNL     1      -3.785  25.359  27.374  1.00  0.00     0.010 A 
HETATM    5  C6  UNL     1      -3.450  26.509  28.153  1.00  0.00     0.054 A 
HETATM    6  C7  UNL     1      -2.580  27.488  27.747  1.00  0.00     0.099 A 
HETATM    7  C8  UNL     1      -4.499  24.518  28.149  1.00  0.00     0.080 C 
HETATM    8  C11 UNL     1      -4.775  23.099  27.816  1.00  0.00     0.098 C 
HETATM    9  N2  UNL     1      -3.886  22.238  27.598  1.00  0.00    -0.345 N 
ATOM     10  H2  UNL     1      -4.304  21.330  27.394  1.00  0.00     0.167 HD
HETATM   11  C13 UNL     1      -2.515  22.165  27.557  1.00  0.00     0.182 C 
HETATM   12  N3  UNL     1      -2.036  21.607  26.428  1.00  0.00    -0.345 N 
ATOM     13  H3  UNL     1      -1.029  21.512  26.305  1.00  0.00     0.167 HD
HETATM   14  C14 UNL     1      -2.916  21.144  25.400  1.00  0.00     0.147 A 
HETATM   15  C15 UNL     1      -3.898  21.849  24.795  1.00  0.00     0.155 A 
HETATM   16  N4  UNL     1      -4.682  21.146  23.904  1.00  0.00    -0.174 N 
ATOM     17  H4  UNL     1      -5.434  21.654  23.438  1.00  0.00     0.186 HD
HETATM   18  C16 UNL     1      -4.537  19.858  23.604  1.00  0.00     0.680 A 
HETATM   19  N6  UNL     1      -3.560  19.143  24.192  1.00  0.00    -0.154 N 
ATOM     20  H6  UNL     1      -3.425  18.154  23.979  1.00  0.00     0.187 HD
HETATM   21  C17 UNL     1      -2.774  19.777  25.067  1.00  0.00     0.290 A 
HETATM   22  O4  UNL     1      -1.868  19.057  25.590  1.00  0.00    -0.265 OA
HETATM   23  N7  UNL     1      -4.150  23.280  24.876  1.00  0.00    -0.325 N 
ATOM     24  H7  UNL     1      -5.136  23.495  24.727  1.00  0.00     0.169 HD
HETATM   25  C18 UNL     1      -3.413  24.418  25.099  1.00  0.00     0.117 C 
ENDROOT
BRANCH  25  26
HETATM   26  N8  UNL     1      -2.858  24.965  23.807  1.00  0.00    -0.353 N 
ATOM     27  H8  UNL     1      -3.160  25.902  23.543  1.00  0.00     0.166 HD
BRANCH  26  28
HETATM   28  C19 UNL     1      -1.976  24.326  22.935  1.00  0.00     0.092 C 
BRANCH  28  29
HETATM   29  C20 UNL     1      -2.037  24.991  21.586  1.00  0.00     0.315 C 
BRANCH  29  30
HETATM   30  N9  UNL     1      -1.067  26.011  21.403  1.00  0.00     0.084 N 
HETATM   31  C21 UNL     1      -0.685  26.168  20.038  1.00  0.00     0.309 C 
HETATM   32  C22 UNL     1      -0.013  26.029  22.360  1.00  0.00     0.309 C 
ENDBRANCH  29  30
ENDBRANCH  28  29
ENDBRANCH  26  28
ENDBRANCH  25  26
BRANCH   1  33
HETATM   33  O1  UNL     1      -1.114  28.355  26.115  1.00  0.00    -0.353 OA
HETATM   34  C1  UNL     1      -0.712  28.379  24.761  1.00  0.00     0.210 C 
ENDBRANCH   1  33
BRANCH   7  35
HETATM   35  N1  UNL     1      -5.023  24.907  29.408  1.00  0.00    -0.324 N 
HETATM   36  C9  UNL     1      -5.001  24.191  30.581  1.00  0.00     0.218 C 
HETATM   37  C10 UNL     1      -5.658  24.768  31.848  1.00  0.00     0.117 C 
HETATM   38  O3  UNL     1      -4.507  23.085  30.797  1.00  0.00    -0.274 OA
ATOM     39  H1  UNL     1      -5.466  25.825  29.448  1.00  0.00     0.169 HD
ENDBRANCH   7  35
BRANCH   6  40
HETATM   40  O2  UNL     1      -2.299  28.593  28.568  1.00  0.00    -0.358 OA
ATOM     41  H2  UNL     1      -2.927  28.893  29.214  1.00  0.00     0.217 HD
ENDBRANCH   6  40
BRANCH   8  42
HETATM   42  S1  UNL     1      -6.509  22.601  27.619  1.00  0.00    -0.114 SA
HETATM   43  C12 UNL     1      -7.141  23.148  26.026  1.00  0.00     0.097 C 
ENDBRANCH   8  42
BRANCH  18  44
HETATM   44  N5  UNL     1      -5.300  19.246  22.759  1.00  0.00    -0.234 N 
ATOM     45  H52 UNL     1      -5.952  19.813  22.215  1.00  0.00     0.174 HD
ATOM     46  H51 UNL     1      -5.273  18.237  22.620  1.00  0.00     0.174 HD
ENDBRANCH  18  44
TORSDOF 9
ENDMDL
MODEL 5
REMARK VINA RESULT: -7.410727352      5.379      9.926
REMARK  9 active torsions:
REMARK  status: ('A' for Active; 'I' for Inactive)
REMARK    1  A    between atoms: O1_2  and  C2_3 
REMARK    2  A    between atoms: C7_8  and  O2_9 
REMARK    3  A    between atoms: C8_11  and  N1_12 
REMARK       I    between atoms: N1_12  and  C9_14 
REMARK    4  A    between atoms: C11_17  and  S1_18 
REMARK    5  A    between atoms: C16_29  and  N5_30 
REMARK    6  A    between atoms: C18_39  and  N8_40 
REMARK    7  A    between atoms: N8_40  and  C19_42 
REMARK    8  A    between atoms: C19_42  and  C20_43 
REMARK    9  A    between atoms: C20_43  and  N9_44 
ROOT
HETATM    1  C2  UNL     1      -2.444  20.775  35.808  1.00  0.00     0.102 A 
HETATM    2  C3  UNL     1      -2.185  20.307  34.545  1.00  0.00     0.055 A 
HETATM    3  C4  UNL     1      -1.884  18.936  34.262  1.00  0.00     0.023 A 
HETATM    4  C5  UNL     1      -1.851  18.071  35.318  1.00  0.00     0.010 A 
HETATM    5  C6  UNL     1      -2.128  18.605  36.614  1.00  0.00     0.054 A 
HETATM    6  C7  UNL     1      -2.418  19.922  36.859  1.00  0.00     0.099 A 
HETATM    7  C8  UNL     1      -1.417  16.804  35.468  1.00  0.00     0.080 C 
HETATM    8  C11 UNL     1      -0.745  16.015  34.407  1.00  0.00     0.098 C 
HETATM    9  N2  UNL     1       0.310  16.368  33.823  1.00  0.00    -0.345 N 
ATOM     10  H2  UNL     1       0.594  15.671  33.134  1.00  0.00     0.167 HD
HETATM   11  C13 UNL     1       1.191  17.422  33.843  1.00  0.00     0.182 C 
HETATM   12  N3  UNL     1       1.433  17.949  32.628  1.00  0.00    -0.345 N 
ATOM     13  H3  UNL     1       2.073  18.739  32.543  1.00  0.00     0.167 HD
HETATM   14  C14 UNL     1       0.807  17.422  31.454  1.00  0.00     0.147 A 
HETATM   15  C15 UNL     1      -0.516  17.231  31.257  1.00  0.00     0.155 A 
HETATM   16  N4  UNL     1      -0.864  16.608  30.076  1.00  0.00    -0.174 N 
ATOM     17  H4  UNL     1      -1.857  16.447  29.906  1.00  0.00     0.186 HD
HETATM   18  C16 UNL     1      -0.009  16.201  29.141  1.00  0.00     0.680 A 
HETATM   19  N6  UNL     1       1.312  16.390  29.319  1.00  0.00    -0.154 N 
ATOM     20  H6  UNL     1       1.989  16.089  28.618  1.00  0.00     0.187 HD
HETATM   21  C17 UNL     1       1.702  16.986  30.449  1.00  0.00     0.290 A 
HETATM   22  O4  UNL     1       2.957  17.143  30.564  1.00  0.00    -0.265 OA
HETATM   23  N7  UNL     1      -1.619  17.708  32.076  1.00  0.00    -0.325 N 
ATOM     24  H7  UNL     1      -2.433  17.099  31.999  1.00  0.00     0.169 HD
HETATM   25  C18 UNL     1      -1.856  18.762  32.926  1.00  0.00     0.117 C 
ENDROOT
BRANCH  25  26
HETATM   26  N8  UNL     1      -2.387  19.956  32.172  1.00  0.00    -0.353 N 
ATOM     27  H8  UNL     1      -2.464  20.827  32.696  1.00  0.00     0.166 HD
BRANCH  26  28
HETATM   28  C19 UNL     1      -2.785  19.996  30.835  1.00  0.00     0.092 C 
BRANCH  28  29
HETATM   29  C20 UNL     1      -3.131  21.412  30.460  1.00  0.00     0.315 C 
BRANCH  29  30
HETATM   30  N9  UNL     1      -3.419  21.587  29.081  1.00  0.00     0.084 N 
HETATM   31  C21 UNL     1      -4.819  21.665  28.818  1.00  0.00     0.309 C 
HETATM   32  C22 UNL     1      -2.654  20.783  28.190  1.00  0.00     0.309 C 
ENDBRANCH  29  30
ENDBRANCH  28  29
ENDBRANCH  26  28
ENDBRANCH  25  26
BRANCH   1  33
HETATM   33  O1  UNL     1      -2.736  22.117  36.055  1.00  0.00    -0.353 OA
HETATM   34  C1  UNL     1      -2.424  23.069  35.059  1.00  0.00     0.210 C 
ENDBRANCH   1  33
BRANCH   7  35
HETATM   35  N1  UNL     1      -1.519  16.108  36.700  1.00  0.00    -0.324 N 
HETATM   36  C9  UNL     1      -0.516  15.462  37.383  1.00  0.00     0.218 C 
HETATM   37  C10 UNL     1      -0.830  14.725  38.698  1.00  0.00     0.117 C 
HETATM   38  O3  UNL     1       0.677  15.373  37.094  1.00  0.00    -0.274 OA
ATOM     39  H1  UNL     1      -2.445  16.083  37.128  1.00  0.00     0.169 HD
ENDBRANCH   7  35
BRANCH   6  40
HETATM   40  O2  UNL     1      -2.683  20.376  38.162  1.00  0.00    -0.358 OA
ATOM     41  H2  UNL     1      -2.402  21.238  38.445  1.00  0.00     0.217 HD
ENDBRANCH   6  40
BRANCH   8  42
HETATM   42  S1  UNL     1      -1.552  14.485  33.855  1.00  0.00    -0.114 SA
HETATM   43  C12 UNL     1      -3.292  14.495  34.315  1.00  0.00     0.097 C 
ENDBRANCH   8  42
BRANCH  18  44
HETATM   44  N5  UNL     1      -0.390  15.622  28.050  1.00  0.00    -0.234 N 
ATOM     45  H52 UNL     1      -1.162  16.046  27.535  1.00  0.00     0.174 HD
ATOM     46  H51 UNL     1       0.048  14.773  27.694  1.00  0.00     0.174 HD
ENDBRANCH  18  44
TORSDOF 9
ENDMDL
