MODEL 1
REMARK VINA RESULT: -10.764626529      0.000      0.000
REMARK  10 active torsions:
REMARK  status: ('A' for Active; 'I' for Inactive)
REMARK    1  A    between atoms: C2_2  and  C3_3 
REMARK    2  A    between atoms: C4_7  and  N2_8 
REMARK    3  A    between atoms: C6_13  and  N5_14 
REMARK    4  A    between atoms: C7_19  and  N7_20 
REMARK    5  A    between atoms: C10_26  and  C11_27 
REMARK       I    between atoms: C11_27  and  N9_29 
REMARK    6  A    between atoms: N9_29  and  N10_30 
REMARK    7  A    between atoms: N10_30  and  C12_32 
REMARK    8  A    between atoms: C14_34  and  O3_35 
REMARK    9  A    between atoms: C16_38  and  O4_39 
REMARK   10  A    between atoms: C18_41  and  O5_42 
ROOT
HETATM    1  C3  UNL     1      -2.269  28.640  28.100  1.00  0.00     0.097 A 
HETATM    2  O1  UNL     1      -1.589  29.529  28.801  1.00  0.00    -0.239 OA
HETATM    3  N1  UNL     1      -1.817  29.358  30.092  1.00  0.00    -0.242 N 
ATOM      4  H1  UNL     1      -1.417  29.925  30.840  1.00  0.00     0.196 HD
HETATM    5  C4  UNL     1      -2.656  28.325  30.270  1.00  0.00     0.167 A 
HETATM    6  C10 UNL     1      -2.968  27.857  29.008  1.00  0.00     0.127 A 
ENDROOT
BRANCH   6   7
HETATM    7  C11 UNL     1      -3.992  26.847  28.635  1.00  0.00     0.352 C 
HETATM    8  O2  UNL     1      -5.173  27.378  28.733  1.00  0.00    -0.249 OA
HETATM    9  N9  UNL     1      -3.792  25.575  28.249  1.00  0.00    -0.281 NA
BRANCH   9  10
HETATM   10  N10 UNL     1      -3.595  24.298  27.860  1.00  0.00    -0.235 N 
ATOM     11  H10 UNL     1      -3.402  23.633  28.609  1.00  0.00     0.201 HD
BRANCH  10  12
HETATM   12  C12 UNL     1      -3.620  23.746  26.526  1.00  0.00     0.056 C 
HETATM   13  C13 UNL     1      -3.167  22.505  26.252  1.00  0.00     0.035 A 
HETATM   14  C14 UNL     1      -2.632  21.716  27.269  1.00  0.00     0.081 A 
HETATM   15  C19 UNL     1      -3.092  22.074  24.978  1.00  0.00     0.011 A 
HETATM   16  C15 UNL     1      -2.018  20.546  26.918  1.00  0.00     0.077 A 
HETATM   17  C16 UNL     1      -1.902  20.090  25.615  1.00  0.00     0.104 A 
HETATM   18  C18 UNL     1      -2.464  20.878  24.609  1.00  0.00     0.110 A 
HETATM   19  C20 UNL     1      -3.711  22.669  23.953  1.00  0.00    -0.011 C 
HETATM   20  C21 UNL     1      -4.567  23.927  24.251  1.00  0.00     0.038 C 
HETATM   21  C22 UNL     1      -3.878  24.649  25.350  1.00  0.00     0.038 C 
HETATM   22  C23 UNL     1      -2.497  25.110  24.843  1.00  0.00     0.017 C 
BRANCH  14  23
HETATM   23  O3  UNL     1      -2.762  22.147  28.577  1.00  0.00    -0.360 OA
ATOM     24  H3  UNL     1      -3.182  21.570  29.205  1.00  0.00     0.217 HD
ENDBRANCH  14  23
BRANCH  17  25
HETATM   25  O4  UNL     1      -1.253  18.996  25.145  1.00  0.00    -0.353 OA
HETATM   26  C17 UNL     1      -0.467  17.981  25.710  1.00  0.00     0.210 C 
ENDBRANCH  17  25
BRANCH  18  27
HETATM   27  O5  UNL     1      -2.412  20.461  23.267  1.00  0.00    -0.357 OA
ATOM     28  H5  UNL     1      -3.179  20.087  22.850  1.00  0.00     0.217 HD
ENDBRANCH  18  27
ENDBRANCH  10  12
ENDBRANCH   9  10
ENDBRANCH   6   7
BRANCH   1  29
HETATM   29  C2  UNL     1      -2.252  28.494  26.586  1.00  0.00     0.064 C 
HETATM   30  C1  UNL     1      -1.057  27.471  26.412  1.00  0.00     0.012 C 
ENDBRANCH   1  29
BRANCH   5  31
HETATM   31  N2  UNL     1      -2.922  27.724  31.555  1.00  0.00    -0.202 N 
HETATM   32  N3  UNL     1      -1.995  27.370  32.458  1.00  0.00    -0.011 NA
HETATM   33  N4  UNL     1      -2.598  27.065  33.649  1.00  0.00    -0.277 N 
HETATM   34  C5  UNL     1      -3.911  27.220  33.477  1.00  0.00     0.136 A 
ATOM     35  H4  UNL     1      -2.130  26.774  34.508  1.00  0.00     0.184 HD
HETATM   36  C6  UNL     1      -4.972  27.050  34.400  1.00  0.00     0.146 A 
HETATM   37  C9  UNL     1      -4.116  27.621  32.189  1.00  0.00     0.174 A 
HETATM   38  N6  UNL     1      -6.164  27.288  33.995  1.00  0.00    -0.174 N 
HETATM   39  C7  UNL     1      -6.403  27.716  32.634  1.00  0.00     0.684 A 
ATOM     40  H6  UNL     1      -6.949  27.176  34.636  1.00  0.00     0.186 HD
HETATM   41  N8  UNL     1      -5.373  27.856  31.792  1.00  0.00    -0.172 N 
ATOM     42  H8  UNL     1      -5.549  28.148  30.830  1.00  0.00     0.186 HD
BRANCH  36  43
HETATM   43  N5  UNL     1      -4.741  26.659  35.564  1.00  0.00    -0.383 N 
ATOM     44  H52 UNL     1      -4.376  27.290  36.278  1.00  0.00     0.157 HD
ATOM     45  H51 UNL     1      -4.933  25.694  35.832  1.00  0.00     0.157 HD
ENDBRANCH  36  43
BRANCH  39  46
HETATM   46  N7  UNL     1      -7.592  27.853  32.386  1.00  0.00    -0.211 N 
HETATM   47  C8  UNL     1      -8.735  27.499  31.746  1.00  0.00     0.136 C 
ATOM     48  H7  UNL     1      -7.871  28.647  32.962  1.00  0.00     0.182 HD
ENDBRANCH  39  46
ENDBRANCH   5  31
TORSDOF 10
ENDMDL
MODEL 2
REMARK VINA RESULT: -10.374142362      4.064      9.152
REMARK  10 active torsions:
REMARK  status: ('A' for Active; 'I' for Inactive)
REMARK    1  A    between atoms: C2_2  and  C3_3 
REMARK    2  A    between atoms: C4_7  and  N2_8 
REMARK    3  A    between atoms: C6_13  and  N5_14 
REMARK    4  A    between atoms: C7_19  and  N7_20 
REMARK    5  A    between atoms: C10_26  and  C11_27 
REMARK       I    between atoms: C11_27  and  N9_29 
REMARK    6  A    between atoms: N9_29  and  N10_30 
REMARK    7  A    between atoms: N10_30  and  C12_32 
REMARK    8  A    between atoms: C14_34  and  O3_35 
REMARK    9  A    between atoms: C16_38  and  O4_39 
REMARK   10  A    between atoms: C18_41  and  O5_42 
ROOT
HETATM    1  C3  UNL     1      -2.719  21.070  24.312  1.00  0.00     0.097 A 
HETATM    2  O1  UNL     1      -2.438  20.300  23.277  1.00  0.00    -0.239 OA
HETATM    3  N1  UNL     1      -1.687  19.282  23.660  1.00  0.00    -0.242 N 
ATOM      4  H1  UNL     1      -1.330  18.552  23.044  1.00  0.00     0.196 HD
HETATM    5  C4  UNL     1      -1.466  19.356  24.982  1.00  0.00     0.167 A 
HETATM    6  C10 UNL     1      -2.107  20.499  25.419  1.00  0.00     0.127 A 
ENDROOT
BRANCH   6   7
HETATM    7  C11 UNL     1      -2.026  21.137  26.759  1.00  0.00     0.352 C 
HETATM    8  O2  UNL     1      -0.865  20.886  27.283  1.00  0.00    -0.249 OA
HETATM    9  N9  UNL     1      -2.967  21.869  27.381  1.00  0.00    -0.281 NA
BRANCH   9  10
HETATM   10  N10 UNL     1      -3.908  22.604  28.008  1.00  0.00    -0.235 N 
ATOM     11  H10 UNL     1      -4.675  22.076  28.426  1.00  0.00     0.201 HD
BRANCH  10  12
HETATM   12  C12 UNL     1      -3.976  24.038  28.168  1.00  0.00     0.056 C 
HETATM   13  C13 UNL     1      -4.420  24.615  29.304  1.00  0.00     0.035 A 
HETATM   14  C14 UNL     1      -4.853  23.824  30.367  1.00  0.00     0.081 A 
HETATM   15  C19 UNL     1      -4.586  25.950  29.368  1.00  0.00     0.011 A 
HETATM   16  C15 UNL     1      -5.466  24.444  31.420  1.00  0.00     0.077 A 
HETATM   17  C16 UNL     1      -5.675  25.811  31.502  1.00  0.00     0.104 A 
HETATM   18  C18 UNL     1      -5.213  26.594  30.442  1.00  0.00     0.110 A 
HETATM   19  C20 UNL     1      -4.065  26.809  28.485  1.00  0.00    -0.011 C 
HETATM   20  C21 UNL     1      -3.218  26.232  27.322  1.00  0.00     0.038 C 
HETATM   21  C22 UNL     1      -3.833  24.930  26.964  1.00  0.00     0.038 C 
HETATM   22  C23 UNL     1      -5.261  25.190  26.443  1.00  0.00     0.017 C 
BRANCH  14  23
HETATM   23  O3  UNL     1      -4.630  22.460  30.309  1.00  0.00    -0.360 OA
ATOM     24  H3  UNL     1      -5.355  21.891  30.081  1.00  0.00     0.217 HD
ENDBRANCH  14  23
BRANCH  17  25
HETATM   25  O4  UNL     1      -6.333  26.521  32.452  1.00  0.00    -0.353 OA
HETATM   26  C17 UNL     1      -7.610  26.472  33.030  1.00  0.00     0.210 C 
ENDBRANCH  17  25
BRANCH  18  27
HETATM   27  O5  UNL     1      -5.362  27.992  30.474  1.00  0.00    -0.357 OA
ATOM     28  H5  UNL     1      -5.521  28.476  29.672  1.00  0.00     0.217 HD
ENDBRANCH  18  27
ENDBRANCH  10  12
ENDBRANCH   9  10
ENDBRANCH   6   7
BRANCH   1  29
HETATM   29  C2  UNL     1      -3.579  22.325  24.286  1.00  0.00     0.064 C 
HETATM   30  C1  UNL     1      -2.582  23.338  23.590  1.00  0.00     0.012 C 
ENDBRANCH   1  29
BRANCH   5  31
HETATM   31  N2  UNL     1      -0.889  18.284  25.756  1.00  0.00    -0.202 N 
HETATM   32  N3  UNL     1       0.158  17.530  25.388  1.00  0.00    -0.011 NA
HETATM   33  N4  UNL     1       0.592  16.784  26.451  1.00  0.00    -0.277 N 
HETATM   34  C5  UNL     1      -0.202  17.069  27.483  1.00  0.00     0.136 A 
ATOM     35  H4  UNL     1       1.377  16.132  26.452  1.00  0.00     0.184 HD
HETATM   36  C6  UNL     1      -0.168  16.583  28.813  1.00  0.00     0.146 A 
HETATM   37  C9  UNL     1      -1.118  17.988  27.060  1.00  0.00     0.174 A 
HETATM   38  N6  UNL     1      -1.037  17.036  29.639  1.00  0.00    -0.174 N 
HETATM   39  C7  UNL     1      -2.016  18.011  29.212  1.00  0.00     0.684 A 
ATOM     40  H6  UNL     1      -1.038  16.707  30.604  1.00  0.00     0.186 HD
HETATM   41  N8  UNL     1      -2.017  18.437  27.944  1.00  0.00    -0.172 N 
ATOM     42  H8  UNL     1      -2.717  19.118  27.645  1.00  0.00     0.186 HD
BRANCH  36  43
HETATM   43  N5  UNL     1       0.674  15.725  29.152  1.00  0.00    -0.383 N 
ATOM     44  H52 UNL     1       0.813  14.869  28.614  1.00  0.00     0.157 HD
ATOM     45  H51 UNL     1       1.259  15.874  29.974  1.00  0.00     0.157 HD
ENDBRANCH  36  43
BRANCH  39  46
HETATM   46  N7  UNL     1      -2.805  18.305  30.098  1.00  0.00    -0.211 N 
HETATM   47  C8  UNL     1      -3.099  18.695  31.364  1.00  0.00     0.136 C 
ATOM     48  H7  UNL     1      -3.718  18.206  29.655  1.00  0.00     0.182 HD
ENDBRANCH  39  46
ENDBRANCH   5  31
TORSDOF 10
ENDMDL
MODEL 3
REMARK VINA RESULT: -10.275200714      2.985      5.272
REMARK  10 active torsions:
REMARK  status: ('A' for Active; 'I' for Inactive)
REMARK    1  A    between atoms: C2_2  and  C3_3 
REMARK    2  A    between atoms: C4_7  and  N2_8 
REMARK    3  A    between atoms: C6_13  and  N5_14 
REMARK    4  A    between atoms: C7_19  and  N7_20 
REMARK    5  A    between atoms: C10_26  and  C11_27 
REMARK       I    between atoms: C11_27  and  N9_29 
REMARK    6  A    between atoms: N9_29  and  N10_30 
REMARK    7  A    between atoms: N10_30  and  C12_32 
REMARK    8  A    between atoms: C14_34  and  O3_35 
REMARK    9  A    between atoms: C16_38  and  O4_39 
REMARK   10  A    between atoms: C18_41  and  O5_42 
ROOT
HETATM    1  C3  UNL     1      -4.511  24.378  30.593  1.00  0.00     0.097 A 
HETATM    2  O1  UNL     1      -3.990  23.947  31.727  1.00  0.00    -0.239 OA
HETATM    3  N1  UNL     1      -3.250  24.894  32.275  1.00  0.00    -0.242 N 
ATOM      4  H1  UNL     1      -2.734  24.804  33.150  1.00  0.00     0.196 HD
HETATM    5  C4  UNL     1      -3.280  25.993  31.505  1.00  0.00     0.167 A 
HETATM    6  C10 UNL     1      -4.072  25.683  30.416  1.00  0.00     0.127 A 
ENDROOT
BRANCH   6   7
HETATM    7  C11 UNL     1      -4.284  26.483  29.182  1.00  0.00     0.352 C 
HETATM    8  O2  UNL     1      -5.299  27.274  29.354  1.00  0.00    -0.249 OA
HETATM    9  N9  UNL     1      -3.573  26.442  28.041  1.00  0.00    -0.281 NA
BRANCH   9  10
HETATM   10  N10 UNL     1      -2.862  26.404  26.896  1.00  0.00    -0.235 N 
ATOM     11  H10 UNL     1      -2.287  27.226  26.706  1.00  0.00     0.201 HD
BRANCH  10  12
HETATM   12  C12 UNL     1      -2.805  25.358  25.902  1.00  0.00     0.056 C 
HETATM   13  C13 UNL     1      -2.094  25.486  24.762  1.00  0.00     0.035 A 
HETATM   14  C14 UNL     1      -1.399  26.667  24.500  1.00  0.00     0.081 A 
HETATM   15  C19 UNL     1      -2.167  24.541  23.806  1.00  0.00     0.011 A 
HETATM   16  C15 UNL     1      -0.849  26.825  23.259  1.00  0.00     0.077 A 
HETATM   17  C16 UNL     1      -0.930  25.883  22.247  1.00  0.00     0.104 A 
HETATM   18  C18 UNL     1      -1.607  24.696  22.531  1.00  0.00     0.110 A 
HETATM   19  C20 UNL     1      -2.664  23.316  24.006  1.00  0.00    -0.011 C 
HETATM   20  C21 UNL     1      -3.185  22.964  25.423  1.00  0.00     0.038 C 
HETATM   21  C22 UNL     1      -3.776  24.211  25.971  1.00  0.00     0.038 C 
HETATM   22  C23 UNL     1      -4.981  24.607  25.094  1.00  0.00     0.017 C 
BRANCH  14  23
HETATM   23  O3  UNL     1      -1.289  27.606  25.510  1.00  0.00    -0.360 OA
ATOM     24  H3  UNL     1      -0.683  28.328  25.393  1.00  0.00     0.217 HD
ENDBRANCH  14  23
BRANCH  17  25
HETATM   25  O4  UNL     1      -0.495  25.963  20.965  1.00  0.00    -0.353 OA
HETATM   26  C17 UNL     1      -1.031  26.428  19.755  1.00  0.00     0.210 C 
ENDBRANCH  17  25
BRANCH  18  27
HETATM   27  O5  UNL     1      -1.701  23.681  21.562  1.00  0.00    -0.357 OA
ATOM     28  H5  UNL     1      -1.039  23.001  21.513  1.00  0.00     0.217 HD
ENDBRANCH  18  27
ENDBRANCH  10  12
ENDBRANCH   9  10
ENDBRANCH   6   7
BRANCH   1  29
HETATM   29  C2  UNL     1      -5.440  23.593  29.680  1.00  0.00     0.064 C 
HETATM   30  C1  UNL     1      -4.442  22.492  29.135  1.00  0.00     0.012 C 
ENDBRANCH   1  29
BRANCH   5  31
HETATM   31  N2  UNL     1      -2.778  27.279  31.927  1.00  0.00    -0.202 N 
HETATM   32  N3  UNL     1      -3.492  28.413  31.993  1.00  0.00    -0.011 NA
HETATM   33  N4  UNL     1      -2.781  29.374  32.661  1.00  0.00    -0.277 N 
HETATM   34  C5  UNL     1      -1.611  28.832  33.000  1.00  0.00     0.136 A 
ATOM     35  H4  UNL     1      -3.089  30.325  32.862  1.00  0.00     0.184 HD
HETATM   36  C6  UNL     1      -0.526  29.395  33.717  1.00  0.00     0.146 A 
HETATM   37  C9  UNL     1      -1.602  27.545  32.548  1.00  0.00     0.174 A 
HETATM   38  N6  UNL     1       0.494  28.652  33.943  1.00  0.00    -0.174 N 
HETATM   39  C7  UNL     1       0.523  27.285  33.473  1.00  0.00     0.684 A 
ATOM     40  H6  UNL     1       1.290  29.028  34.457  1.00  0.00     0.186 HD
HETATM   41  N8  UNL     1      -0.520  26.796  32.793  1.00  0.00    -0.172 N 
ATOM     42  H8  UNL     1      -0.490  25.833  32.454  1.00  0.00     0.186 HD
BRANCH  36  43
HETATM   43  N5  UNL     1      -0.567  30.585  34.094  1.00  0.00    -0.383 N 
ATOM     44  H52 UNL     1      -0.782  31.345  33.448  1.00  0.00     0.157 HD
ATOM     45  H51 UNL     1      -0.401  30.823  35.072  1.00  0.00     0.157 HD
ENDBRANCH  36  43
BRANCH  39  46
HETATM   46  N7  UNL     1       1.580  26.725  33.721  1.00  0.00    -0.211 N 
HETATM   47  C8  UNL     1       2.306  25.700  34.235  1.00  0.00     0.136 C 
ATOM     48  H7  UNL     1       2.286  27.359  33.346  1.00  0.00     0.182 HD
ENDBRANCH  39  46
ENDBRANCH   5  31
TORSDOF 10
ENDMDL
MODEL 4
REMARK VINA RESULT: -10.269941169      2.532      4.681
REMARK  10 active torsions:
REMARK  status: ('A' for Active; 'I' for Inactive)
REMARK    1  A    between atoms: C2_2  and  C3_3 
REMARK    2  A    between atoms: C4_7  and  N2_8 
REMARK    3  A    between atoms: C6_13  and  N5_14 
REMARK    4  A    between atoms: C7_19  and  N7_20 
REMARK    5  A    between atoms: C10_26  and  C11_27 
REMARK       I    between atoms: C11_27  and  N9_29 
REMARK    6  A    between atoms: N9_29  and  N10_30 
REMARK    7  A    between atoms: N10_30  and  C12_32 
REMARK    8  A    between atoms: C14_34  and  O3_35 
REMARK    9  A    between atoms: C16_38  and  O4_39 
REMARK   10  A    between atoms: C18_41  and  O5_42 
ROOT
HETATM    1  C3  UNL     1      -3.537  22.505  30.732  1.00  0.00     0.097 A 
HETATM    2  O1  UNL     1      -2.715  22.171  31.710  1.00  0.00    -0.239 OA
HETATM    3  N1  UNL     1      -2.549  23.193  32.532  1.00  0.00    -0.242 N 
ATOM      4  H1  UNL     1      -1.954  23.190  33.360  1.00  0.00     0.196 HD
HETATM    5  C4  UNL     1      -3.285  24.234  32.112  1.00  0.00     0.167 A 
HETATM    6  C10 UNL     1      -3.916  23.822  30.954  1.00  0.00     0.127 A 
ENDROOT
BRANCH   6   7
HETATM    7  C11 UNL     1      -4.700  24.645  29.997  1.00  0.00     0.352 C 
HETATM    8  O2  UNL     1      -5.813  25.009  30.559  1.00  0.00    -0.249 OA
HETATM    9  N9  UNL     1      -4.366  24.993  28.742  1.00  0.00    -0.281 NA
BRANCH   9  10
HETATM   10  N10 UNL     1      -4.033  25.344  27.483  1.00  0.00    -0.235 N 
ATOM     11  H10 UNL     1      -3.942  26.346  27.314  1.00  0.00     0.201 HD
BRANCH  10  12
HETATM   12  C12 UNL     1      -3.789  24.493  26.342  1.00  0.00     0.056 C 
HETATM   13  C13 UNL     1      -2.884  24.805  25.392  1.00  0.00     0.035 A 
HETATM   14  C14 UNL     1      -2.161  25.994  25.479  1.00  0.00     0.081 A 
HETATM   15  C19 UNL     1      -2.775  24.049  24.283  1.00  0.00     0.011 A 
HETATM   16  C15 UNL     1      -1.396  26.359  24.406  1.00  0.00     0.077 A 
HETATM   17  C16 UNL     1      -1.285  25.617  23.242  1.00  0.00     0.104 A 
HETATM   18  C18 UNL     1      -1.994  24.416  23.179  1.00  0.00     0.110 A 
HETATM   19  C20 UNL     1      -3.292  22.822  24.164  1.00  0.00    -0.011 C 
HETATM   20  C21 UNL     1      -4.058  22.235  25.376  1.00  0.00     0.038 C 
HETATM   21  C22 UNL     1      -4.749  23.377  26.026  1.00  0.00     0.038 C 
HETATM   22  C23 UNL     1      -5.777  23.956  25.034  1.00  0.00     0.017 C 
BRANCH  14  23
HETATM   23  O3  UNL     1      -2.243  26.733  26.645  1.00  0.00    -0.360 OA
ATOM     24  H3  UNL     1      -2.905  27.412  26.706  1.00  0.00     0.217 HD
ENDBRANCH  14  23
BRANCH  17  25
HETATM   25  O4  UNL     1      -0.625  25.915  22.096  1.00  0.00    -0.353 OA
HETATM   26  C17 UNL     1      -0.997  26.269  20.791  1.00  0.00     0.210 C 
ENDBRANCH  17  25
BRANCH  18  27
HETATM   27  O5  UNL     1      -1.902  23.595  22.041  1.00  0.00    -0.357 OA
ATOM     28  H5  UNL     1      -2.689  23.296  21.600  1.00  0.00     0.217 HD
ENDBRANCH  18  27
ENDBRANCH  10  12
ENDBRANCH   9  10
ENDBRANCH   6   7
BRANCH   1  29
HETATM   29  C2  UNL     1      -3.997  21.598  29.601  1.00  0.00     0.064 C 
HETATM   30  C1  UNL     1      -2.704  21.600  28.690  1.00  0.00     0.012 C 
ENDBRANCH   1  29
BRANCH   5  31
HETATM   31  N2  UNL     1      -3.519  25.418  32.903  1.00  0.00    -0.202 N 
HETATM   32  N3  UNL     1      -3.908  25.435  34.187  1.00  0.00    -0.011 NA
HETATM   33  N4  UNL     1      -3.795  26.702  34.692  1.00  0.00    -0.277 N 
HETATM   34  C5  UNL     1      -3.343  27.479  33.708  1.00  0.00     0.136 A 
ATOM     35  H4  UNL     1      -4.015  26.997  35.644  1.00  0.00     0.184 HD
HETATM   36  C6  UNL     1      -3.038  28.863  33.713  1.00  0.00     0.146 A 
HETATM   37  C9  UNL     1      -3.175  26.696  32.604  1.00  0.00     0.174 A 
HETATM   38  N6  UNL     1      -2.586  29.382  32.632  1.00  0.00    -0.174 N 
HETATM   39  C7  UNL     1      -2.400  28.568  31.451  1.00  0.00     0.684 A 
ATOM     40  H6  UNL     1      -2.357  30.375  32.605  1.00  0.00     0.186 HD
HETATM   41  N8  UNL     1      -2.708  27.267  31.487  1.00  0.00    -0.172 N 
ATOM     42  H8  UNL     1      -2.585  26.700  30.648  1.00  0.00     0.186 HD
BRANCH  36  43
HETATM   43  N5  UNL     1      -3.227  29.548  34.740  1.00  0.00    -0.383 N 
ATOM     44  H52 UNL     1      -3.695  29.164  35.562  1.00  0.00     0.157 HD
ATOM     45  H51 UNL     1      -2.898  30.513  34.785  1.00  0.00     0.157 HD
ENDBRANCH  36  43
BRANCH  39  46
HETATM   46  N7  UNL     1      -2.013  29.217  30.490  1.00  0.00    -0.211 N 
HETATM   47  C8  UNL     1      -1.600  29.327  29.202  1.00  0.00     0.136 C 
ATOM     48  H7  UNL     1      -1.985  30.175  30.837  1.00  0.00     0.182 HD
ENDBRANCH  39  46
ENDBRANCH   5  31
TORSDOF 10
ENDMDL
MODEL 5
REMARK VINA RESULT: -10.233266913      4.152      8.243
REMARK  10 active torsions:
REMARK  status: ('A' for Active; 'I' for Inactive)
REMARK    1  A    between atoms: C2_2  and  C3_3 
REMARK    2  A    between atoms: C4_7  and  N2_8 
REMARK    3  A    between atoms: C6_13  and  N5_14 
REMARK    4  A    between atoms: C7_19  and  N7_20 
REMARK    5  A    between atoms: C10_26  and  C11_27 
REMARK       I    between atoms: C11_27  and  N9_29 
REMARK    6  A    between atoms: N9_29  and  N10_30 
REMARK    7  A    between atoms: N10_30  and  C12_32 
REMARK    8  A    between atoms: C14_34  and  O3_35 
REMARK    9  A    between atoms: C16_38  and  O4_39 
REMARK   10  A    between atoms: C18_41  and  O5_42 
ROOT
HETATM    1  C3  UNL     1      -3.408  22.491  30.664  1.00  0.00     0.097 A 
HETATM    2  O1  UNL     1      -2.505  21.554  30.885  1.00  0.00    -0.239 OA
HETATM    3  N1  UNL     1      -2.265  20.883  29.772  1.00  0.00    -0.242 N 
ATOM      4  H1  UNL     1      -1.614  20.103  29.684  1.00  0.00     0.196 HD
HETATM    5  C4  UNL     1      -3.009  21.385  28.773  1.00  0.00     0.167 A 
HETATM    6  C10 UNL     1      -3.758  22.407  29.323  1.00  0.00     0.127 A 
ENDROOT
BRANCH   6   7
HETATM    7  C11 UNL     1      -4.869  23.167  28.694  1.00  0.00     0.352 C 
HETATM    8  O2  UNL     1      -5.971  22.925  29.337  1.00  0.00    -0.249 OA
HETATM    9  N9  UNL     1      -4.808  23.989  27.632  1.00  0.00    -0.281 NA
BRANCH   9  10
HETATM   10  N10 UNL     1      -4.750  24.815  26.567  1.00  0.00    -0.235 N 
ATOM     11  H10 UNL     1      -5.506  24.714  25.889  1.00  0.00     0.201 HD
BRANCH  10  12
HETATM   12  C12 UNL     1      -3.763  25.823  26.257  1.00  0.00     0.056 C 
HETATM   13  C13 UNL     1      -3.058  25.810  25.108  1.00  0.00     0.035 A 
HETATM   14  C14 UNL     1      -3.253  24.789  24.179  1.00  0.00     0.081 A 
HETATM   15  C19 UNL     1      -2.061  26.694  24.912  1.00  0.00     0.011 A 
HETATM   16  C15 UNL     1      -2.391  24.710  23.121  1.00  0.00     0.077 A 
HETATM   17  C16 UNL     1      -1.340  25.588  22.908  1.00  0.00     0.104 A 
HETATM   18  C18 UNL     1      -1.172  26.621  23.832  1.00  0.00     0.110 A 
HETATM   19  C20 UNL     1      -1.889  27.798  25.647  1.00  0.00    -0.011 C 
HETATM   20  C21 UNL     1      -2.899  28.076  26.789  1.00  0.00     0.038 C 
HETATM   21  C22 UNL     1      -3.281  26.751  27.340  1.00  0.00     0.038 C 
HETATM   22  C23 UNL     1      -2.026  26.094  27.950  1.00  0.00     0.017 C 
BRANCH  14  23
HETATM   23  O3  UNL     1      -4.312  23.920  24.366  1.00  0.00    -0.360 OA
ATOM     24  H3  UNL     1      -4.190  23.002  24.151  1.00  0.00     0.217 HD
ENDBRANCH  14  23
BRANCH  17  25
HETATM   25  O4  UNL     1      -0.384  25.562  21.946  1.00  0.00    -0.353 OA
HETATM   26  C17 UNL     1      -0.296  25.987  20.613  1.00  0.00     0.210 C 
ENDBRANCH  17  25
BRANCH  18  27
HETATM   27  O5  UNL     1      -0.146  27.568  23.660  1.00  0.00    -0.357 OA
ATOM     28  H5  UNL     1      -0.295  28.482  23.875  1.00  0.00     0.217 HD
ENDBRANCH  18  27
ENDBRANCH  10  12
ENDBRANCH   9  10
ENDBRANCH   6   7
BRANCH   1  29
HETATM   29  C2  UNL     1      -3.931  23.488  31.686  1.00  0.00     0.064 C 
HETATM   30  C1  UNL     1      -2.628  23.717  32.554  1.00  0.00     0.012 C 
ENDBRANCH   1  29
BRANCH   5  31
HETATM   31  N2  UNL     1      -2.817  21.043  27.384  1.00  0.00    -0.202 N 
HETATM   32  N3  UNL     1      -3.044  21.857  26.342  1.00  0.00    -0.011 NA
HETATM   33  N4  UNL     1      -2.528  21.306  25.199  1.00  0.00    -0.277 N 
HETATM   34  C5  UNL     1      -1.988  20.135  25.536  1.00  0.00     0.136 A 
ATOM     35  H4  UNL     1      -2.553  21.715  24.265  1.00  0.00     0.184 HD
HETATM   36  C6  UNL     1      -1.311  19.185  24.733  1.00  0.00     0.146 A 
HETATM   37  C9  UNL     1      -2.166  19.966  26.879  1.00  0.00     0.174 A 
HETATM   38  N6  UNL     1      -0.853  18.133  25.304  1.00  0.00    -0.174 N 
HETATM   39  C7  UNL     1      -1.031  17.935  26.726  1.00  0.00     0.684 A 
ATOM     40  H6  UNL     1      -0.361  17.430  24.753  1.00  0.00     0.186 HD
HETATM   41  N8  UNL     1      -1.683  18.854  27.446  1.00  0.00    -0.172 N 
ATOM     42  H8  UNL     1      -1.814  18.705  28.448  1.00  0.00     0.186 HD
BRANCH  36  43
HETATM   43  N5  UNL     1      -1.189  19.368  23.503  1.00  0.00    -0.383 N 
ATOM     44  H52 UNL     1      -1.994  19.575  22.910  1.00  0.00     0.157 HD
ATOM     45  H51 UNL     1      -0.269  19.332  23.065  1.00  0.00     0.157 HD
ENDBRANCH  36  43
BRANCH  39  46
HETATM   46  N7  UNL     1      -0.585  16.864  27.111  1.00  0.00    -0.211 N 
HETATM   47  C8  UNL     1      -0.531  15.831  27.989  1.00  0.00     0.136 C 
ATOM     48  H7  UNL     1       0.106  16.619  26.403  1.00  0.00     0.182 HD
ENDBRANCH  39  46
ENDBRANCH   5  31
TORSDOF 10
ENDMDL
