MODEL 1
REMARK VINA RESULT: -8.458107217      0.000      0.000
REMARK  5 active torsions:
REMARK  status: ('A' for Active; 'I' for Inactive)
REMARK    1  A    between atoms: C2_2  and  C9_29 
REMARK    2  A    between atoms: N1_3  and  N2_5 
REMARK    3  A    between atoms: N2_5  and  C3_7 
REMARK    4  A    between atoms: C5_12  and  N4_13 
REMARK    5  A    between atoms: N4_13  and  N5_15 
REMARK       I    between atoms: C9_29  and  N9_31 
ROOT
HETATM    1  C3  UNL     1      65.609  28.579  12.664  1.00  0.00     0.141 A 
HETATM    2  N3  UNL     1      65.604  29.399  11.612  1.00  0.00    -0.310 N 
ATOM      3  H3  UNL     1      66.149  29.324  10.753  1.00  0.00     0.176 HD
HETATM    4  S1  UNL     1      64.486  30.588  12.032  1.00  0.00    -0.008 SA
HETATM    5  C4  UNL     1      64.028  30.019  13.568  1.00  0.00     0.084 A 
HETATM    6  C5  UNL     1      63.113  30.612  14.408  1.00  0.00     0.154 C 
HETATM    7  N6  UNL     1      63.019  30.497  15.770  1.00  0.00    -0.174 N 
ATOM      8  H6  UNL     1      62.496  31.211  16.277  1.00  0.00     0.186 HD
HETATM    9  C6  UNL     1      63.575  29.498  16.478  1.00  0.00     0.678 C 
HETATM   10  N7  UNL     1      63.473  29.648  17.750  1.00  0.00    -0.234 N 
ATOM     11  H71 UNL     1      63.895  28.890  18.287  1.00  0.00     0.174 HD
ATOM     12  H72 UNL     1      62.991  30.492  18.059  1.00  0.00     0.174 HD
HETATM   13  N8  UNL     1      64.217  28.373  16.065  1.00  0.00    -0.180 N 
ATOM     14  H8  UNL     1      64.326  27.646  16.772  1.00  0.00     0.185 HD
HETATM   15  C7  UNL     1      64.729  28.085  14.855  1.00  0.00     0.135 C 
HETATM   16 CL1  UNL     1      65.398  26.469  14.768  1.00  0.00    -0.063 Cl
HETATM   17  C8  UNL     1      64.796  28.884  13.693  1.00  0.00     0.071 A 
ENDROOT
BRANCH   1  18
HETATM   18  N2  UNL     1      66.382  27.516  12.682  1.00  0.00    -0.284 N 
ATOM     19  H2  UNL     1      66.103  26.680  13.193  1.00  0.00     0.188 HD
BRANCH  18  20
HETATM   20  N1  UNL     1      67.576  27.552  11.996  1.00  0.00    -0.298 N 
HETATM   21  C2  UNL     1      67.812  26.980  10.879  1.00  0.00     0.089 C 
HETATM   22  C1  UNL     1      66.784  26.173  10.156  1.00  0.00     0.076 C 
ATOM     23  H1  UNL     1      68.339  28.083  12.418  1.00  0.00     0.187 HD
BRANCH  21  24
HETATM   24  C9  UNL     1      69.125  27.111  10.279  1.00  0.00     0.266 C 
HETATM   25  O1  UNL     1      70.055  26.365  10.740  1.00  0.00    -0.266 OA
HETATM   26  N9  UNL     1      69.418  28.012   9.228  1.00  0.00    -0.356 N 
HETATM   27  C10 UNL     1      68.485  28.900   8.619  1.00  0.00     0.152 C 
HETATM   28  C11 UNL     1      70.793  28.031   8.727  1.00  0.00     0.152 C 
ENDBRANCH  21  24
ENDBRANCH  18  20
ENDBRANCH   1  18
BRANCH   6  29
HETATM   29  N4  UNL     1      62.255  31.351  13.840  1.00  0.00    -0.290 N 
ATOM     30  H4  UNL     1      62.116  31.242  12.835  1.00  0.00     0.188 HD
BRANCH  29  31
HETATM   31  N5  UNL     1      61.498  32.294  14.504  1.00  0.00    -0.344 N 
ATOM     32  H52 UNL     1      61.897  32.697  15.351  1.00  0.00     0.176 HD
ATOM     33  H51 UNL     1      60.577  32.601  14.192  1.00  0.00     0.176 HD
ENDBRANCH  29  31
ENDBRANCH   6  29
TORSDOF 5
ENDMDL
MODEL 2
REMARK VINA RESULT: -8.392568837      1.735      2.729
REMARK  5 active torsions:
REMARK  status: ('A' for Active; 'I' for Inactive)
REMARK    1  A    between atoms: C2_2  and  C9_29 
REMARK    2  A    between atoms: N1_3  and  N2_5 
REMARK    3  A    between atoms: N2_5  and  C3_7 
REMARK    4  A    between atoms: C5_12  and  N4_13 
REMARK    5  A    between atoms: N4_13  and  N5_15 
REMARK       I    between atoms: C9_29  and  N9_31 
ROOT
HETATM    1  C3  UNL     1      65.370  28.414  12.696  1.00  0.00     0.141 A 
HETATM    2  N3  UNL     1      65.702  27.420  13.521  1.00  0.00    -0.310 N 
ATOM      3  H3  UNL     1      66.240  26.580  13.309  1.00  0.00     0.176 HD
HETATM    4  S1  UNL     1      65.025  27.876  14.995  1.00  0.00    -0.008 SA
HETATM    5  C4  UNL     1      64.316  29.353  14.539  1.00  0.00     0.084 A 
HETATM    6  C5  UNL     1      63.602  30.193  15.362  1.00  0.00     0.154 C 
HETATM    7  N6  UNL     1      62.658  31.120  15.009  1.00  0.00    -0.174 N 
ATOM      8  H6  UNL     1      62.013  31.447  15.729  1.00  0.00     0.186 HD
HETATM    9  C6  UNL     1      62.530  31.625  13.769  1.00  0.00     0.678 C 
HETATM   10  N7  UNL     1      61.503  32.384  13.624  1.00  0.00    -0.234 N 
ATOM     11  H71 UNL     1      61.406  32.766  12.683  1.00  0.00     0.174 HD
ATOM     12  H72 UNL     1      60.923  32.507  14.453  1.00  0.00     0.174 HD
HETATM   13  N8  UNL     1      63.303  31.460  12.664  1.00  0.00    -0.180 N 
ATOM     14  H8  UNL     1      63.151  32.137  11.916  1.00  0.00     0.185 HD
HETATM   15  C7  UNL     1      64.242  30.528  12.417  1.00  0.00     0.135 C 
HETATM   16 CL1  UNL     1      65.043  30.762  10.877  1.00  0.00    -0.063 Cl
HETATM   17  C8  UNL     1      64.648  29.430  13.206  1.00  0.00     0.071 A 
ENDROOT
BRANCH   1  18
HETATM   18  N2  UNL     1      65.742  28.391  11.435  1.00  0.00    -0.284 N 
ATOM     19  H2  UNL     1      65.057  28.515  10.690  1.00  0.00     0.188 HD
BRANCH  18  20
HETATM   20  N1  UNL     1      67.073  28.197  11.139  1.00  0.00    -0.298 N 
HETATM   21  C2  UNL     1      67.544  27.268  10.400  1.00  0.00     0.089 C 
HETATM   22  C1  UNL     1      66.677  26.245   9.744  1.00  0.00     0.076 C 
ATOM     23  H1  UNL     1      67.740  28.853  11.546  1.00  0.00     0.187 HD
BRANCH  21  24
HETATM   24  C9  UNL     1      68.976  27.195  10.181  1.00  0.00     0.266 C 
HETATM   25  O1  UNL     1      69.643  26.416  10.943  1.00  0.00    -0.266 OA
HETATM   26  N9  UNL     1      69.653  27.933   9.182  1.00  0.00    -0.356 N 
HETATM   27  C10 UNL     1      69.040  28.837   8.266  1.00  0.00     0.152 C 
HETATM   28  C11 UNL     1      71.102  27.754   9.084  1.00  0.00     0.152 C 
ENDBRANCH  21  24
ENDBRANCH  18  20
ENDBRANCH   1  18
BRANCH   6  29
HETATM   29  N4  UNL     1      63.863  30.091  16.598  1.00  0.00    -0.290 N 
ATOM     30  H4  UNL     1      64.833  29.944  16.875  1.00  0.00     0.188 HD
BRANCH  29  31
HETATM   31  N5  UNL     1      62.906  30.166  17.590  1.00  0.00    -0.344 N 
ATOM     32  H52 UNL     1      62.044  29.641  17.446  1.00  0.00     0.176 HD
ATOM     33  H51 UNL     1      63.020  30.712  18.444  1.00  0.00     0.176 HD
ENDBRANCH  29  31
ENDBRANCH   6  29
TORSDOF 5
ENDMDL
MODEL 3
REMARK VINA RESULT: -8.176303576      2.104      3.175
REMARK  5 active torsions:
REMARK  status: ('A' for Active; 'I' for Inactive)
REMARK    1  A    between atoms: C2_2  and  C9_29 
REMARK    2  A    between atoms: N1_3  and  N2_5 
REMARK    3  A    between atoms: N2_5  and  C3_7 
REMARK    4  A    between atoms: C5_12  and  N4_13 
REMARK    5  A    between atoms: N4_13  and  N5_15 
REMARK       I    between atoms: C9_29  and  N9_31 
ROOT
HETATM    1  C3  UNL     1      65.285  29.138  11.883  1.00  0.00     0.141 A 
HETATM    2  N3  UNL     1      65.794  28.086  12.526  1.00  0.00    -0.310 N 
ATOM      3  H3  UNL     1      66.368  27.334  12.146  1.00  0.00     0.176 HD
HETATM    4  S1  UNL     1      65.266  28.289  14.113  1.00  0.00    -0.008 SA
HETATM    5  C4  UNL     1      64.389  29.736  13.940  1.00  0.00     0.084 A 
HETATM    6  C5  UNL     1      63.715  30.396  14.941  1.00  0.00     0.154 C 
HETATM    7  N6  UNL     1      62.663  31.265  14.821  1.00  0.00    -0.174 N 
ATOM      8  H6  UNL     1      62.086  31.437  15.644  1.00  0.00     0.186 HD
HETATM    9  C6  UNL     1      62.345  31.904  13.681  1.00  0.00     0.678 C 
HETATM   10  N7  UNL     1      61.250  32.573  13.752  1.00  0.00    -0.234 N 
ATOM     11  H71 UNL     1      61.010  33.058  12.887  1.00  0.00     0.174 HD
ATOM     12  H72 UNL     1      60.766  32.537  14.649  1.00  0.00     0.174 HD
HETATM   13  N8  UNL     1      62.990  31.952  12.486  1.00  0.00    -0.180 N 
ATOM     14  H8  UNL     1      62.695  32.699  11.857  1.00  0.00     0.185 HD
HETATM   15  C7  UNL     1      63.965  31.153  12.015  1.00  0.00     0.135 C 
HETATM   16 CL1  UNL     1      64.552  31.651  10.443  1.00  0.00    -0.063 Cl
HETATM   17  C8  UNL     1      64.551  30.010  12.601  1.00  0.00     0.071 A 
ENDROOT
BRANCH   1  18
HETATM   18  N2  UNL     1      65.503  29.307  10.598  1.00  0.00    -0.284 N 
ATOM     19  H2  UNL     1      64.729  29.498   9.961  1.00  0.00     0.188 HD
BRANCH  18  20
HETATM   20  N1  UNL     1      66.794  29.223  10.126  1.00  0.00    -0.298 N 
HETATM   21  C2  UNL     1      67.283  28.248   9.462  1.00  0.00     0.089 C 
HETATM   22  C1  UNL     1      66.483  27.039   9.103  1.00  0.00     0.076 C 
ATOM     23  H1  UNL     1      67.414  30.008  10.325  1.00  0.00     0.187 HD
BRANCH  21  24
HETATM   24  C9  UNL     1      68.666  28.306   9.032  1.00  0.00     0.266 C 
HETATM   25  O1  UNL     1      68.937  29.065   8.040  1.00  0.00    -0.266 OA
HETATM   26  N9  UNL     1      69.708  27.574   9.648  1.00  0.00    -0.356 N 
HETATM   27  C10 UNL     1      69.552  26.692  10.756  1.00  0.00     0.152 C 
HETATM   28  C11 UNL     1      71.055  27.736   9.099  1.00  0.00     0.152 C 
ENDBRANCH  21  24
ENDBRANCH  18  20
ENDBRANCH   1  18
BRANCH   6  29
HETATM   29  N4  UNL     1      64.130  30.167  16.116  1.00  0.00    -0.290 N 
ATOM     30  H4  UNL     1      65.118  29.948  16.244  1.00  0.00     0.188 HD
BRANCH  29  31
HETATM   31  N5  UNL     1      63.320  30.196  17.233  1.00  0.00    -0.344 N 
ATOM     32  H52 UNL     1      62.976  31.107  17.534  1.00  0.00     0.176 HD
ATOM     33  H51 UNL     1      63.055  29.364  17.761  1.00  0.00     0.176 HD
ENDBRANCH  29  31
ENDBRANCH   6  29
TORSDOF 5
ENDMDL
MODEL 4
REMARK VINA RESULT: -8.033575117      3.954      8.065
REMARK  5 active torsions:
REMARK  status: ('A' for Active; 'I' for Inactive)
REMARK    1  A    between atoms: C2_2  and  C9_29 
REMARK    2  A    between atoms: N1_3  and  N2_5 
REMARK    3  A    between atoms: N2_5  and  C3_7 
REMARK    4  A    between atoms: C5_12  and  N4_13 
REMARK    5  A    between atoms: N4_13  and  N5_15 
REMARK       I    between atoms: C9_29  and  N9_31 
ROOT
HETATM    1  C3  UNL     1      62.789  30.406  14.795  1.00  0.00     0.141 A 
HETATM    2  N3  UNL     1      62.028  31.500  14.733  1.00  0.00    -0.310 N 
ATOM      3  H3  UNL     1      61.277  31.780  15.365  1.00  0.00     0.176 HD
HETATM    4  S1  UNL     1      62.596  32.311  13.371  1.00  0.00    -0.008 SA
HETATM    5  C4  UNL     1      63.818  31.233  12.885  1.00  0.00     0.084 A 
HETATM    6  C5  UNL     1      64.641  31.385  11.793  1.00  0.00     0.154 C 
HETATM    7  N6  UNL     1      65.305  30.413  11.093  1.00  0.00    -0.174 N 
ATOM      8  H6  UNL     1      65.626  30.633  10.151  1.00  0.00     0.186 HD
HETATM    9  C6  UNL     1      65.558  29.183  11.576  1.00  0.00     0.678 C 
HETATM   10  N7  UNL     1      66.080  28.387  10.712  1.00  0.00    -0.234 N 
ATOM     11  H71 UNL     1      66.272  27.454  11.079  1.00  0.00     0.174 HD
ATOM     12  H72 UNL     1      66.234  28.780   9.784  1.00  0.00     0.174 HD
HETATM   13  N8  UNL     1      65.352  28.660  12.813  1.00  0.00    -0.180 N 
ATOM     14  H8  UNL     1      65.853  27.793  13.012  1.00  0.00     0.185 HD
HETATM   15  C7  UNL     1      64.581  29.124  13.813  1.00  0.00     0.135 C 
HETATM   16 CL1  UNL     1      64.692  28.151  15.265  1.00  0.00    -0.063 Cl
HETATM   17  C8  UNL     1      63.727  30.248  13.841  1.00  0.00     0.071 A 
ENDROOT
BRANCH   1  18
HETATM   18  N2  UNL     1      62.620  29.525  15.756  1.00  0.00    -0.284 N 
ATOM     19  H2  UNL     1      63.177  28.671  15.780  1.00  0.00     0.188 HD
BRANCH  18  20
HETATM   20  N1  UNL     1      61.677  29.776  16.728  1.00  0.00    -0.298 N 
HETATM   21  C2  UNL     1      61.272  28.941  17.606  1.00  0.00     0.089 C 
HETATM   22  C1  UNL     1      61.790  27.543  17.685  1.00  0.00     0.076 C 
ATOM     23  H1  UNL     1      61.268  30.710  16.749  1.00  0.00     0.187 HD
BRANCH  21  24
HETATM   24  C9  UNL     1      60.270  29.356  18.569  1.00  0.00     0.266 C 
HETATM   25  O1  UNL     1      60.683  29.962  19.615  1.00  0.00    -0.266 OA
HETATM   26  N9  UNL     1      58.885  29.122  18.406  1.00  0.00    -0.356 N 
HETATM   27  C10 UNL     1      58.285  28.460  17.295  1.00  0.00     0.152 C 
HETATM   28  C11 UNL     1      57.996  29.600  19.467  1.00  0.00     0.152 C 
ENDBRANCH  21  24
ENDBRANCH  18  20
ENDBRANCH   1  18
BRANCH   6  29
HETATM   29  N4  UNL     1      64.800  32.578  11.397  1.00  0.00    -0.290 N 
ATOM     30  H4  UNL     1      63.981  33.091  11.071  1.00  0.00     0.188 HD
BRANCH  29  31
HETATM   31  N5  UNL     1      66.020  33.223  11.381  1.00  0.00    -0.344 N 
ATOM     32  H52 UNL     1      66.848  32.648  11.221  1.00  0.00     0.176 HD
ATOM     33  H51 UNL     1      66.131  34.227  11.520  1.00  0.00     0.176 HD
ENDBRANCH  29  31
ENDBRANCH   6  29
TORSDOF 5
ENDMDL
MODEL 5
REMARK VINA RESULT: -7.916700870      3.700      7.479
REMARK  5 active torsions:
REMARK  status: ('A' for Active; 'I' for Inactive)
REMARK    1  A    between atoms: C2_2  and  C9_29 
REMARK    2  A    between atoms: N1_3  and  N2_5 
REMARK    3  A    between atoms: N2_5  and  C3_7 
REMARK    4  A    between atoms: C5_12  and  N4_13 
REMARK    5  A    between atoms: N4_13  and  N5_15 
REMARK       I    between atoms: C9_29  and  N9_31 
ROOT
HETATM    1  C3  UNL     1      65.463  29.285  11.451  1.00  0.00     0.141 A 
HETATM    2  N3  UNL     1      65.014  28.876  12.638  1.00  0.00    -0.310 N 
ATOM      3  H3  UNL     1      64.248  29.265  13.188  1.00  0.00     0.176 HD
HETATM    4  S1  UNL     1      66.005  27.568  13.017  1.00  0.00    -0.008 SA
HETATM    5  C4  UNL     1      66.999  27.553  11.637  1.00  0.00     0.084 A 
HETATM    6  C5  UNL     1      68.027  26.672  11.392  1.00  0.00     0.154 C 
HETATM    7  N6  UNL     1      69.115  26.848  10.580  1.00  0.00    -0.174 N 
ATOM      8  H6  UNL     1      69.926  26.247  10.726  1.00  0.00     0.186 HD
HETATM    9  C6  UNL     1      69.178  27.768   9.600  1.00  0.00     0.678 C 
HETATM   10  N7  UNL     1      70.333  27.850   9.043  1.00  0.00    -0.234 N 
ATOM     11  H71 UNL     1      70.381  28.548   8.300  1.00  0.00     0.174 HD
ATOM     12  H72 UNL     1      71.046  27.219   9.406  1.00  0.00     0.174 HD
HETATM   13  N8  UNL     1      68.227  28.610   9.116  1.00  0.00    -0.180 N 
ATOM     14  H8  UNL     1      68.435  29.032   8.211  1.00  0.00     0.185 HD
HETATM   15  C7  UNL     1      67.050  28.964   9.663  1.00  0.00     0.135 C 
HETATM   16 CL1  UNL     1      66.111  30.020   8.629  1.00  0.00    -0.063 Cl
HETATM   17  C8  UNL     1      66.497  28.610  10.912  1.00  0.00     0.071 A 
ENDROOT
BRANCH   1  18
HETATM   18  N2  UNL     1      64.909  30.309  10.840  1.00  0.00    -0.284 N 
ATOM     19  H2  UNL     1      64.575  30.221   9.880  1.00  0.00     0.188 HD
BRANCH  18  20
HETATM   20  N1  UNL     1      64.786  31.500  11.520  1.00  0.00    -0.298 N 
HETATM   21  C2  UNL     1      64.369  32.601  11.024  1.00  0.00     0.089 C 
HETATM   22  C1  UNL     1      63.949  32.732   9.597  1.00  0.00     0.076 C 
ATOM     23  H1  UNL     1      65.051  31.503  12.505  1.00  0.00     0.187 HD
BRANCH  21  24
HETATM   24  C9  UNL     1      64.295  33.776  11.871  1.00  0.00     0.266 C 
HETATM   25  O1  UNL     1      65.160  34.695  11.670  1.00  0.00    -0.266 OA
HETATM   26  N9  UNL     1      63.328  33.947  12.889  1.00  0.00    -0.356 N 
HETATM   27  C10 UNL     1      62.308  33.009  13.223  1.00  0.00     0.152 C 
HETATM   28  C11 UNL     1      63.382  35.189  13.662  1.00  0.00     0.152 C 
ENDBRANCH  21  24
ENDBRANCH  18  20
ENDBRANCH   1  18
BRANCH   6  29
HETATM   29  N4  UNL     1      67.942  25.561  11.995  1.00  0.00    -0.290 N 
ATOM     30  H4  UNL     1      67.375  24.825  11.573  1.00  0.00     0.188 HD
BRANCH  29  31
HETATM   31  N5  UNL     1      68.575  25.290  13.191  1.00  0.00    -0.344 N 
ATOM     32  H52 UNL     1      68.402  24.377  13.612  1.00  0.00     0.176 HD
ATOM     33  H51 UNL     1      69.195  25.947  13.664  1.00  0.00     0.176 HD
ENDBRANCH  29  31
ENDBRANCH   6  29
TORSDOF 5
ENDMDL
