MODEL 1
REMARK VINA RESULT: -8.345333703      0.000      0.000
REMARK  3 active torsions:
REMARK  status: ('A' for Active; 'I' for Inactive)
REMARK    1  A    between atoms: C3_5  and  S1_6 
REMARK    2  A    between atoms: S1_6  and  C4_7 
REMARK    3  A    between atoms: C10_22  and  N6_23 
ROOT
HETATM    1  C4  UNL     1      64.928  28.974  12.064  1.00  0.00     0.109 A 
HETATM    2  N2  UNL     1      64.908  28.436  13.283  1.00  0.00    -0.291 N 
ATOM      3  H2  UNL     1      64.182  28.598  13.980  1.00  0.00     0.187 HD
HETATM    4  N3  UNL     1      65.977  27.654  13.458  1.00  0.00    -0.283 N 
ATOM      5  H3  UNL     1      66.190  27.131  14.307  1.00  0.00     0.188 HD
HETATM    6  C5  UNL     1      66.725  27.662  12.350  1.00  0.00     0.144 A 
HETATM    7  C6  UNL     1      66.071  28.495  11.458  1.00  0.00     0.113 A 
HETATM    8  C7  UNL     1      66.653  28.677  10.210  1.00  0.00     0.266 A 
HETATM    9  O1  UNL     1      66.086  29.424   9.384  1.00  0.00    -0.267 OA
HETATM   10  N4  UNL     1      67.820  28.054   9.889  1.00  0.00    -0.274 N 
ATOM     11  H4  UNL     1      68.235  28.197   8.968  1.00  0.00     0.173 HD
HETATM   12  C8  UNL     1      68.426  27.254  10.776  1.00  0.00     0.330 A 
HETATM   13  O2  UNL     1      69.501  26.702  10.433  1.00  0.00    -0.246 OA
HETATM   14  N5  UNL     1      67.888  27.059  11.990  1.00  0.00    -0.288 N 
HETATM   15  C9  UNL     1      68.528  26.205  12.948  1.00  0.00     0.163 C 
ENDROOT
BRANCH   1  16
HETATM   16  S1  UNL     1      63.783  30.087  11.266  1.00  0.00    -0.063 SA
BRANCH  16  17
HETATM   17  C3  UNL     1      63.779  31.681  12.018  1.00  0.00     0.089 A 
HETATM   18  C2  UNL     1      64.350  32.780  11.390  1.00  0.00     0.130 A 
HETATM   19  N1  UNL     1      64.355  34.004  11.948  1.00  0.00    -0.293 N 
HETATM   20 CL1  UNL     1      65.100  32.604   9.808  1.00  0.00    -0.063 Cl
HETATM   21  C1  UNL     1      64.966  35.143  11.257  1.00  0.00     0.162 C 
HETATM   22  C11 UNL     1      63.778  34.120  13.157  1.00  0.00     0.328 A 
HETATM   23  N7  UNL     1      63.217  33.073  13.795  1.00  0.00    -0.293 N 
HETATM   24  O3  UNL     1      63.787  35.268  13.675  1.00  0.00    -0.246 OA
HETATM   25  C10 UNL     1      63.198  31.841  13.258  1.00  0.00     0.123 A 
ATOM     26  H7  UNL     1      62.794  33.221  14.711  1.00  0.00     0.172 HD
BRANCH  25  27
HETATM   27  N6  UNL     1      62.642  30.851  13.907  1.00  0.00    -0.384 N 
ATOM     28  H62 UNL     1      62.115  30.139  13.401  1.00  0.00     0.157 HD
ATOM     29  H61 UNL     1      62.711  30.753  14.920  1.00  0.00     0.157 HD
ENDBRANCH  25  27
ENDBRANCH  16  17
ENDBRANCH   1  16
TORSDOF 3
ENDMDL
MODEL 2
REMARK VINA RESULT: -8.258738414      2.603      6.524
REMARK  3 active torsions:
REMARK  status: ('A' for Active; 'I' for Inactive)
REMARK    1  A    between atoms: C3_5  and  S1_6 
REMARK    2  A    between atoms: S1_6  and  C4_7 
REMARK    3  A    between atoms: C10_22  and  N6_23 
ROOT
HETATM    1  C4  UNL     1      63.881  31.454  12.695  1.00  0.00     0.109 A 
HETATM    2  N2  UNL     1      64.158  32.080  13.839  1.00  0.00    -0.291 N 
ATOM      3  H2  UNL     1      64.211  31.629  14.753  1.00  0.00     0.187 HD
HETATM    4  N3  UNL     1      64.354  33.382  13.615  1.00  0.00    -0.283 N 
ATOM      5  H3  UNL     1      64.579  34.074  14.330  1.00  0.00     0.188 HD
HETATM    6  C5  UNL     1      64.210  33.640  12.311  1.00  0.00     0.144 A 
HETATM    7  C6  UNL     1      63.910  32.425  11.716  1.00  0.00     0.113 A 
HETATM    8  C7  UNL     1      63.709  32.420  10.342  1.00  0.00     0.266 A 
HETATM    9  O1  UNL     1      63.437  31.339   9.778  1.00  0.00    -0.267 OA
HETATM   10  N4  UNL     1      63.807  33.570   9.620  1.00  0.00    -0.274 N 
ATOM     11  H4  UNL     1      63.657  33.550   8.612  1.00  0.00     0.173 HD
HETATM   12  C8  UNL     1      64.099  34.728  10.227  1.00  0.00     0.330 A 
HETATM   13  O2  UNL     1      64.178  35.761   9.518  1.00  0.00    -0.246 OA
HETATM   14  N5  UNL     1      64.299  34.764  11.554  1.00  0.00    -0.288 N 
HETATM   15  C9  UNL     1      64.612  35.998  12.215  1.00  0.00     0.163 C 
ENDROOT
BRANCH   1  16
HETATM   16  S1  UNL     1      63.531  29.735  12.367  1.00  0.00    -0.063 SA
BRANCH  16  17
HETATM   17  C3  UNL     1      64.442  28.662  13.426  1.00  0.00     0.089 A 
HETATM   18  C2  UNL     1      65.533  27.939  12.961  1.00  0.00     0.130 A 
HETATM   19  N1  UNL     1      66.241  27.115  13.755  1.00  0.00    -0.293 N 
HETATM   20 CL1  UNL     1      66.037  28.081  11.281  1.00  0.00    -0.063 Cl
HETATM   21  C1  UNL     1      67.388  26.368  13.232  1.00  0.00     0.162 C 
HETATM   22  C11 UNL     1      65.842  27.019  15.036  1.00  0.00     0.328 A 
HETATM   23  N7  UNL     1      64.787  27.705  15.519  1.00  0.00    -0.293 N 
HETATM   24  O3  UNL     1      66.508  26.247  15.774  1.00  0.00    -0.246 OA
HETATM   25  C10 UNL     1      64.065  28.535  14.746  1.00  0.00     0.123 A 
ATOM     26  H7  UNL     1      64.530  27.592  16.499  1.00  0.00     0.172 HD
BRANCH  25  27
HETATM   27  N6  UNL     1      63.048  29.184  15.252  1.00  0.00    -0.384 N 
ATOM     28  H62 UNL     1      63.202  29.915  15.947  1.00  0.00     0.157 HD
ATOM     29  H61 UNL     1      62.084  28.991  14.981  1.00  0.00     0.157 HD
ENDBRANCH  25  27
ENDBRANCH  16  17
ENDBRANCH   1  16
TORSDOF 3
ENDMDL
MODEL 3
REMARK VINA RESULT: -8.256649446      2.285      6.893
REMARK  3 active torsions:
REMARK  status: ('A' for Active; 'I' for Inactive)
REMARK    1  A    between atoms: C3_5  and  S1_6 
REMARK    2  A    between atoms: S1_6  and  C4_7 
REMARK    3  A    between atoms: C10_22  and  N6_23 
ROOT
HETATM    1  C4  UNL     1      64.861  31.109  12.420  1.00  0.00     0.109 A 
HETATM    2  N2  UNL     1      65.381  31.462  13.595  1.00  0.00    -0.291 N 
ATOM      3  H2  UNL     1      66.009  30.884  14.153  1.00  0.00     0.187 HD
HETATM    4  N3  UNL     1      64.962  32.685  13.935  1.00  0.00    -0.283 N 
ATOM      5  H3  UNL     1      65.219  33.178  14.789  1.00  0.00     0.188 HD
HETATM    6  C5  UNL     1      64.153  33.162  12.983  1.00  0.00     0.144 A 
HETATM    7  C6  UNL     1      64.082  32.172  12.016  1.00  0.00     0.113 A 
HETATM    8  C7  UNL     1      63.290  32.424  10.903  1.00  0.00     0.266 A 
HETATM    9  O1  UNL     1      63.205  31.550  10.014  1.00  0.00    -0.267 OA
HETATM   10  N4  UNL     1      62.618  33.602  10.778  1.00  0.00    -0.274 N 
ATOM     11  H4  UNL     1      62.042  33.772   9.955  1.00  0.00     0.173 HD
HETATM   12  C8  UNL     1      62.711  34.538  11.732  1.00  0.00     0.330 A 
HETATM   13  O2  UNL     1      62.072  35.607  11.572  1.00  0.00    -0.246 OA
HETATM   14  N5  UNL     1      63.467  34.323  12.820  1.00  0.00    -0.288 N 
HETATM   15  C9  UNL     1      63.573  35.317  13.848  1.00  0.00     0.163 C 
ENDROOT
BRANCH   1  16
HETATM   16  S1  UNL     1      65.055  29.613  11.467  1.00  0.00    -0.063 SA
BRANCH  16  17
HETATM   17  C3  UNL     1      65.767  28.311  12.418  1.00  0.00     0.089 A 
HETATM   18  C2  UNL     1      66.875  27.606  11.968  1.00  0.00     0.130 A 
HETATM   19  N1  UNL     1      67.432  26.611  12.681  1.00  0.00    -0.293 N 
HETATM   20 CL1  UNL     1      67.604  28.002  10.416  1.00  0.00    -0.063 Cl
HETATM   21  C1  UNL     1      68.603  25.888  12.176  1.00  0.00     0.162 C 
HETATM   22  C11 UNL     1      66.862  26.322  13.864  1.00  0.00     0.328 A 
HETATM   23  N7  UNL     1      65.786  26.986  14.330  1.00  0.00    -0.293 N 
HETATM   24  O3  UNL     1      67.388  25.389  14.527  1.00  0.00    -0.246 OA
HETATM   25  C10 UNL     1      65.212  27.984  13.637  1.00  0.00     0.123 A 
ATOM     26  H7  UNL     1      65.395  26.723  15.235  1.00  0.00     0.172 HD
BRANCH  25  27
HETATM   27  N6  UNL     1      64.168  28.605  14.124  1.00  0.00    -0.384 N 
ATOM     28  H62 UNL     1      63.918  29.532  13.780  1.00  0.00     0.157 HD
ATOM     29  H61 UNL     1      63.577  28.198  14.848  1.00  0.00     0.157 HD
ENDBRANCH  25  27
ENDBRANCH  16  17
ENDBRANCH   1  16
TORSDOF 3
ENDMDL
MODEL 4
REMARK VINA RESULT: -8.233356585      2.149      6.877
REMARK  3 active torsions:
REMARK  status: ('A' for Active; 'I' for Inactive)
REMARK    1  A    between atoms: C3_5  and  S1_6 
REMARK    2  A    between atoms: S1_6  and  C4_7 
REMARK    3  A    between atoms: C10_22  and  N6_23 
ROOT
HETATM    1  C4  UNL     1      64.534  30.592  12.741  1.00  0.00     0.109 A 
HETATM    2  N2  UNL     1      65.055  30.980  13.905  1.00  0.00    -0.291 N 
ATOM      3  H2  UNL     1      65.500  30.359  14.581  1.00  0.00     0.187 HD
HETATM    4  N3  UNL     1      64.909  32.299  14.058  1.00  0.00    -0.283 N 
ATOM      5  H3  UNL     1      65.225  32.836  14.865  1.00  0.00     0.188 HD
HETATM    6  C5  UNL     1      64.286  32.808  12.990  1.00  0.00     0.144 A 
HETATM    7  C6  UNL     1      64.043  31.735  12.147  1.00  0.00     0.113 A 
HETATM    8  C7  UNL     1      63.394  32.001  10.948  1.00  0.00     0.266 A 
HETATM    9  O1  UNL     1      63.160  31.054  10.168  1.00  0.00    -0.267 OA
HETATM   10  N4  UNL     1      63.018  33.269  10.625  1.00  0.00    -0.274 N 
ATOM     11  H4  UNL     1      62.543  33.448   9.741  1.00  0.00     0.173 HD
HETATM   12  C8  UNL     1      63.270  34.284  11.464  1.00  0.00     0.330 A 
HETATM   13  O2  UNL     1      62.904  35.435  11.122  1.00  0.00    -0.246 OA
HETATM   14  N5  UNL     1      63.895  34.058  12.629  1.00  0.00    -0.288 N 
HETATM   15  C9  UNL     1      64.170  35.136  13.535  1.00  0.00     0.163 C 
ENDROOT
BRANCH   1  16
HETATM   16  S1  UNL     1      64.431  28.974  11.996  1.00  0.00    -0.063 SA
BRANCH  16  17
HETATM   17  C3  UNL     1      65.997  28.416  11.411  1.00  0.00     0.089 A 
HETATM   18  C2  UNL     1      66.731  27.462  12.103  1.00  0.00     0.130 A 
HETATM   19  N1  UNL     1      67.928  27.023  11.671  1.00  0.00    -0.293 N 
HETATM   20 CL1  UNL     1      66.107  26.779  13.600  1.00  0.00    -0.063 Cl
HETATM   21  C1  UNL     1      68.676  26.015  12.426  1.00  0.00     0.162 C 
HETATM   22  C11 UNL     1      68.389  27.556  10.525  1.00  0.00     0.328 A 
HETATM   23  N7  UNL     1      67.702  28.484   9.830  1.00  0.00    -0.293 N 
HETATM   24  O3  UNL     1      69.509  27.141  10.126  1.00  0.00    -0.246 OA
HETATM   25  C10 UNL     1      66.505  28.937  10.240  1.00  0.00     0.123 A 
ATOM     26  H7  UNL     1      68.102  28.852   8.967  1.00  0.00     0.172 HD
BRANCH  25  27
HETATM   27  N6  UNL     1      65.869  29.838   9.537  1.00  0.00    -0.384 N 
ATOM     28  H62 UNL     1      65.082  30.343   9.944  1.00  0.00     0.157 HD
ATOM     29  H61 UNL     1      66.127  30.067   8.577  1.00  0.00     0.157 HD
ENDBRANCH  25  27
ENDBRANCH  16  17
ENDBRANCH   1  16
TORSDOF 3
ENDMDL
MODEL 5
REMARK VINA RESULT: -8.202665827      1.911      2.426
REMARK  3 active torsions:
REMARK  status: ('A' for Active; 'I' for Inactive)
REMARK    1  A    between atoms: C3_5  and  S1_6 
REMARK    2  A    between atoms: S1_6  and  C4_7 
REMARK    3  A    between atoms: C10_22  and  N6_23 
ROOT
HETATM    1  C4  UNL     1      65.259  28.883  11.620  1.00  0.00     0.109 A 
HETATM    2  N2  UNL     1      65.964  28.934  10.491  1.00  0.00    -0.291 N 
ATOM      3  H2  UNL     1      65.733  29.514   9.684  1.00  0.00     0.187 HD
HETATM    4  N3  UNL     1      67.018  28.116  10.568  1.00  0.00    -0.283 N 
ATOM      5  H3  UNL     1      67.710  27.977   9.832  1.00  0.00     0.188 HD
HETATM    6  C5  UNL     1      67.026  27.508  11.759  1.00  0.00     0.144 A 
HETATM    7  C6  UNL     1      65.915  27.986  12.436  1.00  0.00     0.113 A 
HETATM    8  C7  UNL     1      65.692  27.501  13.718  1.00  0.00     0.266 A 
HETATM    9  O1  UNL     1      64.698  27.912  14.353  1.00  0.00    -0.267 OA
HETATM   10  N4  UNL     1      66.539  26.592  14.276  1.00  0.00    -0.274 N 
ATOM     11  H4  UNL     1      66.362  26.246  15.218  1.00  0.00     0.173 HD
HETATM   12  C8  UNL     1      67.604  26.152  13.593  1.00  0.00     0.330 A 
HETATM   13  O2  UNL     1      68.356  25.314  14.151  1.00  0.00    -0.246 OA
HETATM   14  N5  UNL     1      67.846  26.602  12.353  1.00  0.00    -0.288 N 
HETATM   15  C9  UNL     1      68.983  26.137  11.611  1.00  0.00     0.163 C 
ENDROOT
BRANCH   1  16
HETATM   16  S1  UNL     1      63.769  29.741  12.099  1.00  0.00    -0.063 SA
BRANCH  16  17
HETATM   17  C3  UNL     1      64.019  31.481  12.221  1.00  0.00     0.089 A 
HETATM   18  C2  UNL     1      63.919  32.308  11.109  1.00  0.00     0.130 A 
HETATM   19  N1  UNL     1      64.106  33.638  11.184  1.00  0.00    -0.293 N 
HETATM   20 CL1  UNL     1      63.533  31.627   9.533  1.00  0.00    -0.063 Cl
HETATM   21  C1  UNL     1      63.991  34.481   9.991  1.00  0.00     0.162 C 
HETATM   22  C11 UNL     1      64.399  34.140  12.396  1.00  0.00     0.328 A 
HETATM   23  N7  UNL     1      64.505  33.366  13.494  1.00  0.00    -0.293 N 
HETATM   24  O3  UNL     1      64.573  35.386  12.459  1.00  0.00    -0.246 OA
HETATM   25  C10 UNL     1      64.322  32.035  13.446  1.00  0.00     0.123 A 
ATOM     26  H7  UNL     1      64.731  33.803  14.388  1.00  0.00     0.172 HD
BRANCH  25  27
HETATM   27  N6  UNL     1      64.433  31.318  14.535  1.00  0.00    -0.384 N 
ATOM     28  H62 UNL     1      65.355  31.115  14.922  1.00  0.00     0.157 HD
ATOM     29  H61 UNL     1      63.624  30.942  15.028  1.00  0.00     0.157 HD
ENDBRANCH  25  27
ENDBRANCH  16  17
ENDBRANCH   1  16
TORSDOF 3
ENDMDL
