MODEL 1
REMARK VINA RESULT: -8.075817223      0.000      0.000
REMARK  3 active torsions:
REMARK  status: ('A' for Active; 'I' for Inactive)
REMARK    1  A    between atoms: N1_1  and  C1_4 
REMARK    2  A    between atoms: C3_6  and  C4_7 
REMARK    3  A    between atoms: N6_16  and  C5_17 
ROOT
HETATM    1  C1  UNL     1      12.667  11.453  12.271  1.00  0.00     0.104 A 
HETATM    2  C2  UNL     1      13.301  11.246  13.472  1.00  0.00     0.083 A 
HETATM    3  C3  UNL     1      13.865   9.976  13.678  1.00  0.00     0.112 A 
HETATM    4  N6  UNL     1      13.791   9.026  12.760  1.00  0.00    -0.091 N 
HETATM    5  C7  UNL     1      13.145   9.273  11.564  1.00  0.00     0.347 A 
HETATM    6  O1  UNL     1      13.097   8.332  10.712  1.00  0.00    -0.245 OA
HETATM    7  N10 UNL     1      12.605  10.467  11.352  1.00  0.00    -0.294 N 
ATOM      8  H10 UNL     1      12.129  10.644  10.468  1.00  0.00     0.172 HD
ENDROOT
BRANCH   3   9
HETATM    9  C4  UNL     1      14.532   9.774  14.951  1.00  0.00     0.165 A 
HETATM   10  N2  UNL     1      14.021   9.230  16.078  1.00  0.00    -0.267 N 
HETATM   11  N3  UNL     1      14.973   9.244  16.984  1.00  0.00    -0.227 N 
ATOM     12  H2  UNL     1      13.073   8.874  16.202  1.00  0.00     0.190 HD
HETATM   13  N4  UNL     1      16.091   9.777  16.499  1.00  0.00    -0.227 N 
ATOM     14  H3  UNL     1      14.868   8.893  17.936  1.00  0.00     0.210 HD
HETATM   15  N5  UNL     1      15.791  10.088  15.264  1.00  0.00    -0.267 N 
ATOM     16  H4  UNL     1      16.980   9.913  16.980  1.00  0.00     0.210 HD
ATOM     17  H5  UNL     1      16.446  10.521  14.614  1.00  0.00     0.190 HD
ENDBRANCH   3   9
BRANCH   4  18
HETATM   18  C5  UNL     1      14.352   7.732  12.939  1.00  0.00     0.710 A 
HETATM   19  N7  UNL     1      13.819   6.641  13.522  1.00  0.00    -0.129 N 
HETATM   20  N8  UNL     1      14.630   5.610  13.462  1.00  0.00    -0.261 N 
ATOM     21  H7  UNL     1      12.897   6.618  13.959  1.00  0.00     0.205 HD
HETATM   22  C6  UNL     1      15.743   5.994  12.828  1.00  0.00     0.208 A 
ATOM     23  H8  UNL     1      14.443   4.679  13.834  1.00  0.00     0.190 HD
HETATM   24 CL1  UNL     1      17.162   5.021  12.469  1.00  0.00    -0.043 Cl
HETATM   25  N9  UNL     1      15.564   7.305  12.508  1.00  0.00    -0.162 N 
ATOM     26  H9  UNL     1      16.244   7.883  12.016  1.00  0.00     0.187 HD
ENDBRANCH   4  18
BRANCH   1  27
HETATM   27  N1  UNL     1      12.111  12.589  11.979  1.00  0.00    -0.385 N 
ATOM     28  H12 UNL     1      11.921  13.237  12.744  1.00  0.00     0.157 HD
ATOM     29  H11 UNL     1      11.868  12.838  11.019  1.00  0.00     0.157 HD
ENDBRANCH   1  27
TORSDOF 3
ENDMDL
MODEL 2
REMARK VINA RESULT: -7.915190671      2.231      4.029
REMARK  3 active torsions:
REMARK  status: ('A' for Active; 'I' for Inactive)
REMARK    1  A    between atoms: N1_1  and  C1_4 
REMARK    2  A    between atoms: C3_6  and  C4_7 
REMARK    3  A    between atoms: N6_16  and  C5_17 
ROOT
HETATM    1  C1  UNL     1      12.883   9.534  10.860  1.00  0.00     0.104 A 
HETATM    2  C2  UNL     1      13.446   8.381  11.349  1.00  0.00     0.083 A 
HETATM    3  C3  UNL     1      13.960   8.434  12.655  1.00  0.00     0.112 A 
HETATM    4  N6  UNL     1      13.904   9.540  13.379  1.00  0.00    -0.091 N 
HETATM    5  C7  UNL     1      13.328  10.679  12.852  1.00  0.00     0.347 A 
HETATM    6  O1  UNL     1      13.297  11.718  13.583  1.00  0.00    -0.245 OA
HETATM    7  N10 UNL     1      12.838  10.649  11.619  1.00  0.00    -0.294 N 
ATOM      8  H10 UNL     1      12.415  11.493  11.235  1.00  0.00     0.172 HD
ENDROOT
BRANCH   3   9
HETATM    9  C4  UNL     1      14.552   7.207  13.156  1.00  0.00     0.165 A 
HETATM   10  N2  UNL     1      15.840   6.987  13.503  1.00  0.00    -0.267 N 
HETATM   11  N3  UNL     1      15.929   5.738  13.903  1.00  0.00    -0.227 N 
ATOM     12  H2  UNL     1      16.601   7.665  13.462  1.00  0.00     0.190 HD
HETATM   13  N4  UNL     1      14.750   5.126  13.833  1.00  0.00    -0.227 N 
ATOM     14  H3  UNL     1      16.790   5.296  14.224  1.00  0.00     0.210 HD
HETATM   15  N5  UNL     1      13.936   6.043  13.377  1.00  0.00    -0.267 N 
ATOM     16  H4  UNL     1      14.531   4.161  14.078  1.00  0.00     0.210 HD
ATOM     17  H5  UNL     1      12.943   5.887  13.210  1.00  0.00     0.190 HD
ENDBRANCH   3   9
BRANCH   4  18
HETATM   18  C5  UNL     1      14.415   9.624  14.704  1.00  0.00     0.710 A 
HETATM   19  N7  UNL     1      13.961   9.049  15.835  1.00  0.00    -0.129 N 
HETATM   20  N8  UNL     1      14.725   9.330  16.865  1.00  0.00    -0.261 N 
ATOM     21  H7  UNL     1      13.125   8.467  15.885  1.00  0.00     0.205 HD
HETATM   22  C6  UNL     1      15.723  10.113  16.441  1.00  0.00     0.208 A 
ATOM     23  H8  UNL     1      14.583   9.007  17.822  1.00  0.00     0.190 HD
HETATM   24 CL1  UNL     1      17.036  10.787  17.395  1.00  0.00    -0.043 Cl
HETATM   25  N9  UNL     1      15.525  10.290  15.106  1.00  0.00    -0.162 N 
ATOM     26  H9  UNL     1      16.125  10.844  14.496  1.00  0.00     0.187 HD
ENDBRANCH   4  18
BRANCH   1  27
HETATM   27  N1  UNL     1      12.379   9.595   9.665  1.00  0.00    -0.385 N 
ATOM     28  H12 UNL     1      11.871   8.780   9.321  1.00  0.00     0.157 HD
ATOM     29  H11 UNL     1      12.480  10.426   9.081  1.00  0.00     0.157 HD
ENDBRANCH   1  27
TORSDOF 3
ENDMDL
MODEL 3
REMARK VINA RESULT: -7.835165958      1.610      2.165
REMARK  3 active torsions:
REMARK  status: ('A' for Active; 'I' for Inactive)
REMARK    1  A    between atoms: N1_1  and  C1_4 
REMARK    2  A    between atoms: C3_6  and  C4_7 
REMARK    3  A    between atoms: N6_16  and  C5_17 
ROOT
HETATM    1  C1  UNL     1      12.035  12.913  14.003  1.00  0.00     0.104 A 
HETATM    2  C2  UNL     1      12.867  12.206  14.837  1.00  0.00     0.083 A 
HETATM    3  C3  UNL     1      13.430  11.029  14.318  1.00  0.00     0.112 A 
HETATM    4  N6  UNL     1      13.174  10.620  13.087  1.00  0.00    -0.091 N 
HETATM    5  C7  UNL     1      12.333  11.358  12.277  1.00  0.00     0.347 A 
HETATM    6  O1  UNL     1      12.114  10.928  11.102  1.00  0.00    -0.245 OA
HETATM    7  N10 UNL     1      11.790  12.474  12.750  1.00  0.00    -0.294 N 
ATOM      8  H10 UNL     1      11.169  13.015  12.149  1.00  0.00     0.172 HD
ENDROOT
BRANCH   3   9
HETATM    9  C4  UNL     1      14.306  10.294  15.213  1.00  0.00     0.165 A 
HETATM   10  N2  UNL     1      13.958   9.437  16.198  1.00  0.00    -0.267 N 
HETATM   11  N3  UNL     1      15.069   9.005  16.751  1.00  0.00    -0.227 N 
ATOM     12  H2  UNL     1      13.008   9.176  16.464  1.00  0.00     0.190 HD
HETATM   13  N4  UNL     1      16.136   9.542  16.168  1.00  0.00    -0.227 N 
ATOM     14  H3  UNL     1      15.107   8.342  17.526  1.00  0.00     0.210 HD
HETATM   15  N5  UNL     1      15.641  10.319  15.240  1.00  0.00    -0.267 N 
ATOM     16  H4  UNL     1      17.119   9.385  16.394  1.00  0.00     0.210 HD
ATOM     17  H5  UNL     1      16.210  10.881  14.607  1.00  0.00     0.190 HD
ENDBRANCH   3   9
BRANCH   4  18
HETATM   18  C5  UNL     1      13.729   9.434  12.534  1.00  0.00     0.710 A 
HETATM   19  N7  UNL     1      14.836   9.276  11.782  1.00  0.00    -0.129 N 
HETATM   20  N8  UNL     1      15.051   8.014  11.490  1.00  0.00    -0.261 N 
ATOM     21  H7  UNL     1      15.435  10.043  11.477  1.00  0.00     0.205 HD
HETATM   22  C6  UNL     1      14.078   7.286  12.046  1.00  0.00     0.208 A 
ATOM     23  H8  UNL     1      15.827   7.651  10.935  1.00  0.00     0.190 HD
HETATM   24 CL1  UNL     1      13.868   5.543  11.977  1.00  0.00    -0.043 Cl
HETATM   25  N9  UNL     1      13.265   8.170  12.689  1.00  0.00    -0.162 N 
ATOM     26  H9  UNL     1      12.427   7.917  13.212  1.00  0.00     0.187 HD
ENDBRANCH   4  18
BRANCH   1  27
HETATM   27  N1  UNL     1      11.462  14.014  14.381  1.00  0.00    -0.385 N 
ATOM     28  H12 UNL     1      11.955  14.599  15.056  1.00  0.00     0.157 HD
ATOM     29  H11 UNL     1      10.549  14.295  14.023  1.00  0.00     0.157 HD
ENDBRANCH   1  27
TORSDOF 3
ENDMDL
MODEL 4
REMARK VINA RESULT: -7.809288235      2.447      4.074
REMARK  3 active torsions:
REMARK  status: ('A' for Active; 'I' for Inactive)
REMARK    1  A    between atoms: N1_1  and  C1_4 
REMARK    2  A    between atoms: C3_6  and  C4_7 
REMARK    3  A    between atoms: N6_16  and  C5_17 
ROOT
HETATM    1  C1  UNL     1      12.384  10.950  11.177  1.00  0.00     0.104 A 
HETATM    2  C2  UNL     1      12.929   9.730  11.494  1.00  0.00     0.083 A 
HETATM    3  C3  UNL     1      13.492   9.602  12.774  1.00  0.00     0.112 A 
HETATM    4  N6  UNL     1      13.498  10.608  13.633  1.00  0.00    -0.091 N 
HETATM    5  C7  UNL     1      12.940  11.820  13.278  1.00  0.00     0.347 A 
HETATM    6  O1  UNL     1      12.969  12.758  14.135  1.00  0.00    -0.245 OA
HETATM    7  N10 UNL     1      12.404  11.960  12.073  1.00  0.00    -0.294 N 
ATOM      8  H10 UNL     1      11.993  12.857  11.815  1.00  0.00     0.172 HD
ENDROOT
BRANCH   3   9
HETATM    9  C4  UNL     1      14.063   8.305  13.092  1.00  0.00     0.165 A 
HETATM   10  N2  UNL     1      15.363   7.938  13.051  1.00  0.00    -0.267 N 
HETATM   11  N3  UNL     1      15.423   6.677  13.418  1.00  0.00    -0.227 N 
ATOM     12  H2  UNL     1      16.150   8.529  12.784  1.00  0.00     0.190 HD
HETATM   13  N4  UNL     1      14.215   6.200  13.699  1.00  0.00    -0.227 N 
ATOM     14  H3  UNL     1      16.286   6.136  13.478  1.00  0.00     0.210 HD
HETATM   15  N5  UNL     1      13.412   7.211  13.492  1.00  0.00    -0.267 N 
ATOM     16  H4  UNL     1      13.969   5.258  14.006  1.00  0.00     0.210 HD
ATOM     17  H5  UNL     1      12.401   7.169  13.623  1.00  0.00     0.190 HD
ENDBRANCH   3   9
BRANCH   4  18
HETATM   18  C5  UNL     1      14.061  10.509  14.936  1.00  0.00     0.710 A 
HETATM   19  N7  UNL     1      13.464  10.209  16.106  1.00  0.00    -0.129 N 
HETATM   20  N8  UNL     1      14.324  10.175  17.097  1.00  0.00    -0.261 N 
ATOM     21  H7  UNL     1      12.465  10.031  16.210  1.00  0.00     0.205 HD
HETATM   22  C6  UNL     1      15.536  10.456  16.607  1.00  0.00     0.208 A 
ATOM     23  H8  UNL     1      14.106   9.969  18.072  1.00  0.00     0.190 HD
HETATM   24 CL1  UNL     1      17.054  10.548  17.486  1.00  0.00    -0.043 Cl
HETATM   25  N9  UNL     1      15.365  10.662  15.271  1.00  0.00    -0.162 N 
ATOM     26  H9  UNL     1      16.111  10.896  14.618  1.00  0.00     0.187 HD
ENDBRANCH   4  18
BRANCH   1  27
HETATM   27  N1  UNL     1      11.838  11.176  10.022  1.00  0.00    -0.385 N 
ATOM     28  H12 UNL     1      12.296  11.845   9.402  1.00  0.00     0.157 HD
ATOM     29  H11 UNL     1      10.979  10.708   9.732  1.00  0.00     0.157 HD
ENDBRANCH   1  27
TORSDOF 3
ENDMDL
MODEL 5
REMARK VINA RESULT: -7.716750184      0.854      1.118
REMARK  3 active torsions:
REMARK  status: ('A' for Active; 'I' for Inactive)
REMARK    1  A    between atoms: N1_1  and  C1_4 
REMARK    2  A    between atoms: C3_6  and  C4_7 
REMARK    3  A    between atoms: N6_16  and  C5_17 
ROOT
HETATM    1  C1  UNL     1      12.472  11.409  12.100  1.00  0.00     0.104 A 
HETATM    2  C2  UNL     1      13.118  11.183  13.291  1.00  0.00     0.083 A 
HETATM    3  C3  UNL     1      13.752   9.939  13.440  1.00  0.00     0.112 A 
HETATM    4  N6  UNL     1      13.729   9.029  12.481  1.00  0.00    -0.091 N 
HETATM    5  C7  UNL     1      13.069   9.293  11.297  1.00  0.00     0.347 A 
HETATM    6  O1  UNL     1      13.072   8.390  10.403  1.00  0.00    -0.245 OA
HETATM    7  N10 UNL     1      12.463  10.463  11.138  1.00  0.00    -0.294 N 
ATOM      8  H10 UNL     1      11.977  10.653  10.262  1.00  0.00     0.172 HD
ENDROOT
BRANCH   3   9
HETATM    9  C4  UNL     1      14.431   9.718  14.704  1.00  0.00     0.165 A 
HETATM   10  N2  UNL     1      13.930   9.159  15.828  1.00  0.00    -0.267 N 
HETATM   11  N3  UNL     1      14.891   9.158  16.725  1.00  0.00    -0.227 N 
ATOM     12  H2  UNL     1      12.983   8.803  15.956  1.00  0.00     0.190 HD
HETATM   13  N4  UNL     1      16.005   9.695  16.237  1.00  0.00    -0.227 N 
ATOM     14  H3  UNL     1      14.795   8.793  17.673  1.00  0.00     0.210 HD
HETATM   15  N5  UNL     1      15.694  10.024  15.009  1.00  0.00    -0.267 N 
ATOM     16  H4  UNL     1      16.899   9.822  16.711  1.00  0.00     0.210 HD
ATOM     17  H5  UNL     1      16.343  10.465  14.358  1.00  0.00     0.190 HD
ENDBRANCH   3   9
BRANCH   4  18
HETATM   18  C5  UNL     1      14.362   7.761  12.602  1.00  0.00     0.710 A 
HETATM   19  N7  UNL     1      15.577   7.366  12.174  1.00  0.00    -0.129 N 
HETATM   20  N8  UNL     1      15.830   6.121  12.508  1.00  0.00    -0.261 N 
ATOM     21  H7  UNL     1      16.222   7.961  11.654  1.00  0.00     0.205 HD
HETATM   22  C6  UNL     1      14.774   5.647  13.176  1.00  0.00     0.208 A 
ATOM     23  H8  UNL     1      16.685   5.607  12.295  1.00  0.00     0.190 HD
HETATM   24 CL1  UNL     1      14.569   4.039  13.856  1.00  0.00    -0.043 Cl
HETATM   25  N9  UNL     1      13.871   6.665  13.230  1.00  0.00    -0.162 N 
ATOM     26  H9  UNL     1      12.957   6.610  13.678  1.00  0.00     0.187 HD
ENDBRANCH   4  18
BRANCH   1  27
HETATM   27  N1  UNL     1      11.854  12.524  11.858  1.00  0.00    -0.385 N 
ATOM     28  H12 UNL     1      11.663  13.143  12.647  1.00  0.00     0.157 HD
ATOM     29  H11 UNL     1      11.563  12.785  10.916  1.00  0.00     0.157 HD
ENDBRANCH   1  27
TORSDOF 3
ENDMDL
