MODEL 1
REMARK VINA RESULT: -7.603797859      0.000      0.000
REMARK  3 active torsions:
REMARK  status: ('A' for Active; 'I' for Inactive)
REMARK       I    between atoms: C2_2  and  N1_4 
REMARK    1  A    between atoms: N1_4  and  N2_6 
REMARK    2  A    between atoms: C4_9  and  N3_10 
REMARK    3  A    between atoms: C7_20  and  N6_21 
ROOT
HETATM    1  N2  UNL     1      13.277   9.700  11.377  1.00  0.00    -0.278 N 
ATOM      2  H2  UNL     1      13.435   9.069  10.593  1.00  0.00     0.189 HD
HETATM    3  C3  UNL     1      13.928   9.373  12.383  1.00  0.00     0.196 A 
HETATM    4  C4  UNL     1      14.741   8.248  12.309  1.00  0.00     0.236 A 
HETATM    5  N4  UNL     1      15.465   7.854  13.374  1.00  0.00    -0.276 N 
ATOM      6  H4  UNL     1      16.059   7.027  13.312  1.00  0.00     0.189 HD
HETATM    7  N5  UNL     1      15.401   8.548  14.512  1.00  0.00    -0.281 N 
ATOM      8  H5  UNL     1      15.949   8.248  15.318  1.00  0.00     0.188 HD
HETATM    9  C5  UNL     1      14.623   9.639  14.606  1.00  0.00     0.169 A 
HETATM   10  C6  UNL     1      14.413  10.486  15.664  1.00  0.00     0.126 A 
HETATM   11 CL1  UNL     1      15.127  10.382  17.247  1.00  0.00    -0.076 Cl
HETATM   12  C7  UNL     1      13.522  11.436  15.217  1.00  0.00     0.140 A 
HETATM   13  N7  UNL     1      13.235  11.139  13.953  1.00  0.00    -0.274 N 
ATOM     14  H7  UNL     1      12.594  11.682  13.373  1.00  0.00     0.189 HD
HETATM   15  N8  UNL     1      13.874  10.063  13.535  1.00  0.00    -0.214 N 
ENDROOT
BRANCH   1  16
HETATM   16  N1  UNL     1      12.407  10.695  11.068  1.00  0.00    -0.269 N 
HETATM   17  C2  UNL     1      11.789  10.772   9.790  1.00  0.00     0.232 C 
HETATM   18  C1  UNL     1      10.838  11.823   9.386  1.00  0.00     0.119 C 
HETATM   19  O1  UNL     1      12.059   9.895   8.926  1.00  0.00    -0.272 OA
ATOM     20  H1  UNL     1      12.192  11.404  11.769  1.00  0.00     0.190 HD
ENDBRANCH   1  16
BRANCH   4  21
HETATM   21  N3  UNL     1      14.769   7.552  11.081  1.00  0.00    -0.092 N 
HETATM   22  O2  UNL     1      14.253   6.427  11.009  1.00  0.00    -0.530 OA
HETATM   23  O3  UNL     1      15.346   8.069   9.955  1.00  0.00    -0.530 OA
ENDBRANCH   4  21
BRANCH  12  24
HETATM   24  N6  UNL     1      13.051  12.428  15.895  1.00  0.00    -0.383 N 
ATOM     25  H62 UNL     1      13.119  13.414  15.645  1.00  0.00     0.157 HD
ATOM     26  H61 UNL     1      12.542  12.375  16.777  1.00  0.00     0.157 HD
ENDBRANCH  12  24
TORSDOF 3
ENDMDL
MODEL 2
REMARK VINA RESULT: -7.577836463      3.272      5.145
REMARK  3 active torsions:
REMARK  status: ('A' for Active; 'I' for Inactive)
REMARK       I    between atoms: C2_2  and  N1_4 
REMARK    1  A    between atoms: N1_4  and  N2_6 
REMARK    2  A    between atoms: C4_9  and  N3_10 
REMARK    3  A    between atoms: C7_20  and  N6_21 
ROOT
HETATM    1  N2  UNL     1      14.647   9.780  13.711  1.00  0.00    -0.278 N 
ATOM      2  H2  UNL     1      15.183   9.499  14.532  1.00  0.00     0.189 HD
HETATM    3  C3  UNL     1      13.829  10.679  13.967  1.00  0.00     0.196 A 
HETATM    4  C4  UNL     1      13.759  11.158  15.270  1.00  0.00     0.236 A 
HETATM    5  N4  UNL     1      12.887  12.133  15.596  1.00  0.00    -0.276 N 
ATOM      6  H4  UNL     1      12.842  12.479  16.555  1.00  0.00     0.189 HD
HETATM    7  N5  UNL     1      12.085  12.643  14.661  1.00  0.00    -0.281 N 
ATOM      8  H5  UNL     1      11.425  13.380  14.910  1.00  0.00     0.188 HD
HETATM    9  C5  UNL     1      12.136  12.196  13.396  1.00  0.00     0.169 A 
HETATM   10  C6  UNL     1      11.412  12.575  12.295  1.00  0.00     0.126 A 
HETATM   11 CL1  UNL     1      10.173  13.794  12.225  1.00  0.00    -0.076 Cl
HETATM   12  C7  UNL     1      11.867  11.795  11.255  1.00  0.00     0.140 A 
HETATM   13  N7  UNL     1      12.813  11.000  11.747  1.00  0.00    -0.274 N 
ATOM     14  H7  UNL     1      13.324  10.314  11.192  1.00  0.00     0.189 HD
HETATM   15  N8  UNL     1      13.014  11.203  13.035  1.00  0.00    -0.214 N 
ENDROOT
BRANCH   1  16
HETATM   16  N1  UNL     1      14.999   9.079  12.604  1.00  0.00    -0.269 N 
HETATM   17  C2  UNL     1      14.623   7.719  12.433  1.00  0.00     0.232 C 
HETATM   18  C1  UNL     1      14.971   6.899  11.259  1.00  0.00     0.119 C 
HETATM   19  O1  UNL     1      13.945   7.154  13.333  1.00  0.00    -0.272 OA
ATOM     20  H1  UNL     1      15.548   9.539  11.877  1.00  0.00     0.190 HD
ENDBRANCH   1  16
BRANCH   4  21
HETATM   21  N3  UNL     1      14.632  10.581  16.219  1.00  0.00    -0.092 N 
HETATM   22  O2  UNL     1      15.773  11.044  16.354  1.00  0.00    -0.530 OA
HETATM   23  O3  UNL     1      14.268   9.522  17.003  1.00  0.00    -0.530 OA
ENDBRANCH   4  21
BRANCH  12  24
HETATM   24  N6  UNL     1      11.455  11.825  10.033  1.00  0.00    -0.383 N 
ATOM     25  H62 UNL     1      10.561  12.194   9.707  1.00  0.00     0.157 HD
ATOM     26  H61 UNL     1      11.958  11.487   9.213  1.00  0.00     0.157 HD
ENDBRANCH  12  24
TORSDOF 3
ENDMDL
MODEL 3
REMARK VINA RESULT: -7.569109471      2.526      4.843
REMARK  3 active torsions:
REMARK  status: ('A' for Active; 'I' for Inactive)
REMARK       I    between atoms: C2_2  and  N1_4 
REMARK    1  A    between atoms: N1_4  and  N2_6 
REMARK    2  A    between atoms: C4_9  and  N3_10 
REMARK    3  A    between atoms: C7_20  and  N6_21 
ROOT
HETATM    1  N2  UNL     1      16.223   7.466  13.952  1.00  0.00    -0.278 N 
ATOM      2  H2  UNL     1      16.258   6.766  13.212  1.00  0.00     0.189 HD
HETATM    3  C3  UNL     1      15.314   8.294  13.772  1.00  0.00     0.196 A 
HETATM    4  C4  UNL     1      14.510   8.162  12.646  1.00  0.00     0.236 A 
HETATM    5  N4  UNL     1      13.513   9.036  12.409  1.00  0.00    -0.276 N 
ATOM      6  H4  UNL     1      12.927   8.931  11.580  1.00  0.00     0.189 HD
HETATM    7  N5  UNL     1      13.294  10.038  13.261  1.00  0.00    -0.281 N 
ATOM      8  H5  UNL     1      12.540  10.700  13.080  1.00  0.00     0.188 HD
HETATM    9  C5  UNL     1      14.059  10.185  14.356  1.00  0.00     0.169 A 
HETATM   10  C6  UNL     1      14.008  11.130  15.349  1.00  0.00     0.126 A 
HETATM   11 CL1  UNL     1      12.892  12.459  15.474  1.00  0.00    -0.076 Cl
HETATM   12  C7  UNL     1      15.020  10.813  16.226  1.00  0.00     0.140 A 
HETATM   13  N7  UNL     1      15.625   9.728  15.750  1.00  0.00    -0.274 N 
ATOM     14  H7  UNL     1      16.417   9.273  16.204  1.00  0.00     0.189 HD
HETATM   15  N8  UNL     1      15.083   9.309  14.623  1.00  0.00    -0.214 N 
ENDROOT
BRANCH   1  16
HETATM   16  N1  UNL     1      17.179   7.268  14.893  1.00  0.00    -0.269 N 
HETATM   17  C2  UNL     1      18.387   6.579  14.593  1.00  0.00     0.232 C 
HETATM   18  C1  UNL     1      19.466   6.327  15.564  1.00  0.00     0.119 C 
HETATM   19  O1  UNL     1      18.569   6.145  13.424  1.00  0.00    -0.272 OA
ATOM     20  H1  UNL     1      17.029   7.620  15.838  1.00  0.00     0.190 HD
ENDBRANCH   1  16
BRANCH   4  21
HETATM   21  N3  UNL     1      14.787   7.083  11.778  1.00  0.00    -0.092 N 
HETATM   22  O2  UNL     1      15.450   7.285  10.751  1.00  0.00    -0.530 OA
HETATM   23  O3  UNL     1      14.352   5.811  12.025  1.00  0.00    -0.530 OA
ENDBRANCH   4  21
BRANCH  12  24
HETATM   24  N6  UNL     1      15.328  11.446  17.307  1.00  0.00    -0.383 N 
ATOM     25  H62 UNL     1      15.189  12.441  17.484  1.00  0.00     0.157 HD
ATOM     26  H61 UNL     1      15.754  11.048  18.145  1.00  0.00     0.157 HD
ENDBRANCH  12  24
TORSDOF 3
ENDMDL
MODEL 4
REMARK VINA RESULT: -7.565860652      2.237      4.218
REMARK  3 active torsions:
REMARK  status: ('A' for Active; 'I' for Inactive)
REMARK       I    between atoms: C2_2  and  N1_4 
REMARK    1  A    between atoms: N1_4  and  N2_6 
REMARK    2  A    between atoms: C4_9  and  N3_10 
REMARK    3  A    between atoms: C7_20  and  N6_21 
ROOT
HETATM    1  N2  UNL     1      13.747   6.954  12.521  1.00  0.00    -0.278 N 
ATOM      2  H2  UNL     1      13.694   6.517  11.602  1.00  0.00     0.189 HD
HETATM    3  C3  UNL     1      13.474   8.165  12.483  1.00  0.00     0.196 A 
HETATM    4  C4  UNL     1      13.149   8.732  11.257  1.00  0.00     0.236 A 
HETATM    5  N4  UNL     1      12.845  10.042  11.166  1.00  0.00    -0.276 N 
ATOM      6  H4  UNL     1      12.608  10.451  10.262  1.00  0.00     0.189 HD
HETATM    7  N5  UNL     1      12.857  10.802  12.262  1.00  0.00    -0.281 N 
ATOM      8  H5  UNL     1      12.628  11.793  12.191  1.00  0.00     0.188 HD
HETATM    9  C5  UNL     1      13.168  10.275  13.458  1.00  0.00     0.169 A 
HETATM   10  C6  UNL     1      13.239  10.867  14.692  1.00  0.00     0.126 A 
HETATM   11 CL1  UNL     1      12.934  12.537  15.073  1.00  0.00    -0.076 Cl
HETATM   12  C7  UNL     1      13.602   9.870  15.570  1.00  0.00     0.140 A 
HETATM   13  N7  UNL     1      13.733   8.753  14.861  1.00  0.00    -0.274 N 
ATOM     14  H7  UNL     1      13.997   7.853  15.261  1.00  0.00     0.189 HD
HETATM   15  N8  UNL     1      13.482   8.943  13.580  1.00  0.00    -0.214 N 
ENDROOT
BRANCH   1  16
HETATM   16  N1  UNL     1      14.100   6.071  13.490  1.00  0.00    -0.269 N 
HETATM   17  C2  UNL     1      14.797   4.870  13.183  1.00  0.00     0.232 C 
HETATM   18  C1  UNL     1      15.209   3.869  14.181  1.00  0.00     0.119 C 
HETATM   19  O1  UNL     1      15.091   4.624  11.983  1.00  0.00    -0.272 OA
ATOM     20  H1  UNL     1      13.860   6.274  14.460  1.00  0.00     0.190 HD
ENDBRANCH   1  16
BRANCH   4  21
HETATM   21  N3  UNL     1      13.153   7.881  10.130  1.00  0.00    -0.092 N 
HETATM   22  O2  UNL     1      12.126   7.778   9.443  1.00  0.00    -0.530 OA
HETATM   23  O3  UNL     1      14.251   7.157   9.760  1.00  0.00    -0.530 OA
ENDBRANCH   4  21
BRANCH  12  24
HETATM   24  N6  UNL     1      13.782   9.993  16.842  1.00  0.00    -0.383 N 
ATOM     25  H62 UNL     1      13.124  10.395  17.508  1.00  0.00     0.157 HD
ATOM     26  H61 UNL     1      14.607   9.706  17.369  1.00  0.00     0.157 HD
ENDBRANCH  12  24
TORSDOF 3
ENDMDL
MODEL 5
REMARK VINA RESULT: -7.541266981      2.604      3.600
REMARK  3 active torsions:
REMARK  status: ('A' for Active; 'I' for Inactive)
REMARK       I    between atoms: C2_2  and  N1_4 
REMARK    1  A    between atoms: N1_4  and  N2_6 
REMARK    2  A    between atoms: C4_9  and  N3_10 
REMARK    3  A    between atoms: C7_20  and  N6_21 
ROOT
HETATM    1  N2  UNL     1      15.616   6.537  11.588  1.00  0.00    -0.278 N 
ATOM      2  H2  UNL     1      16.278   5.774  11.450  1.00  0.00     0.189 HD
HETATM    3  C3  UNL     1      15.774   7.106  12.681  1.00  0.00     0.196 A 
HETATM    4  C4  UNL     1      16.780   6.650  13.525  1.00  0.00     0.236 A 
HETATM    5  N4  UNL     1      16.990   7.235  14.720  1.00  0.00    -0.276 N 
ATOM      6  H4  UNL     1      17.730   6.895  15.333  1.00  0.00     0.189 HD
HETATM    7  N5  UNL     1      16.225   8.261  15.098  1.00  0.00    -0.281 N 
ATOM      8  H5  UNL     1      16.384   8.702  16.004  1.00  0.00     0.188 HD
HETATM    9  C5  UNL     1      15.247   8.718  14.298  1.00  0.00     0.169 A 
HETATM   10  C6  UNL     1      14.358   9.744  14.489  1.00  0.00     0.126 A 
HETATM   11 CL1  UNL     1      14.242  10.787  15.877  1.00  0.00    -0.076 Cl
HETATM   12  C7  UNL     1      13.576   9.781  13.356  1.00  0.00     0.140 A 
HETATM   13  N7  UNL     1      14.003   8.812  12.553  1.00  0.00    -0.274 N 
ATOM     14  H7  UNL     1      13.598   8.611  11.638  1.00  0.00     0.189 HD
HETATM   15  N8  UNL     1      15.011   8.140  13.075  1.00  0.00    -0.214 N 
ENDROOT
BRANCH   1  16
HETATM   16  N1  UNL     1      14.775   6.683  10.533  1.00  0.00    -0.269 N 
HETATM   17  C2  UNL     1      13.564   5.945  10.439  1.00  0.00     0.232 C 
HETATM   18  C1  UNL     1      12.607   6.053   9.324  1.00  0.00     0.119 C 
HETATM   19  O1  UNL     1      13.268   5.136  11.358  1.00  0.00    -0.272 OA
ATOM     20  H1  UNL     1      15.018   7.339   9.790  1.00  0.00     0.190 HD
ENDBRANCH   1  16
BRANCH   4  21
HETATM   21  N3  UNL     1      17.558   5.561  13.073  1.00  0.00    -0.092 N 
HETATM   22  O2  UNL     1      17.242   4.410  13.406  1.00  0.00    -0.530 OA
HETATM   23  O3  UNL     1      18.657   5.724  12.277  1.00  0.00    -0.530 OA
ENDBRANCH   4  21
BRANCH  12  24
HETATM   24  N6  UNL     1      12.608  10.601  13.116  1.00  0.00    -0.383 N 
ATOM     25  H62 UNL     1      11.681  10.581  13.542  1.00  0.00     0.157 HD
ATOM     26  H61 UNL     1      12.624  11.388  12.468  1.00  0.00     0.157 HD
ENDBRANCH  12  24
TORSDOF 3
ENDMDL
