MODEL 1
REMARK VINA RESULT: -7.516224495      0.000      0.000
REMARK  4 active torsions:
REMARK  status: ('A' for Active; 'I' for Inactive)
REMARK    1  A    between atoms: O1_2  and  C2_3 
REMARK    2  A    between atoms: C2_3  and  C3_5 
REMARK    3  A    between atoms: C6_13  and  N3_14 
REMARK       I    between atoms: N5_20  and  C8_21 
REMARK    4  A    between atoms: C8_21  and  O5_23 
ROOT
HETATM    1  C3  UNL     1      47.239  47.163   8.646  1.00  0.00     0.195 A 
HETATM    2  N1  UNL     1      46.273  47.400   7.683  1.00  0.00    -0.329 N 
ATOM      3  H1  UNL     1      45.424  47.949   7.821  1.00  0.00     0.168 HD
HETATM    4  C4  UNL     1      46.626  46.803   6.550  1.00  0.00     0.149 A 
HETATM    5  C5  UNL     1      46.001  46.746   5.315  1.00  0.00     0.290 A 
HETATM    6  O3  UNL     1      44.906  47.352   5.200  1.00  0.00    -0.265 OA
HETATM    7  N2  UNL     1      46.604  46.061   4.356  1.00  0.00    -0.154 N 
ATOM      8  H2  UNL     1      46.152  46.014   3.443  1.00  0.00     0.187 HD
HETATM    9  C6  UNL     1      47.771  45.428   4.514  1.00  0.00     0.680 A 
HETATM   10  N4  UNL     1      48.376  45.488   5.724  1.00  0.00    -0.174 N 
ATOM     11  H4  UNL     1      49.266  45.011   5.859  1.00  0.00     0.186 HD
HETATM   12  C7  UNL     1      47.832  46.162   6.749  1.00  0.00     0.166 A 
HETATM   13  N5  UNL     1      48.184  46.406   8.067  1.00  0.00    -0.220 N 
HETATM   14  C8  UNL     1      49.372  45.892   8.606  1.00  0.00     0.374 C 
HETATM   15  O4  UNL     1      50.148  45.187   7.884  1.00  0.00    -0.237 OA
ENDROOT
BRANCH   1  16
HETATM   16  C2  UNL     1      47.174  47.664   9.993  1.00  0.00     0.328 C 
HETATM   17  O2  UNL     1      46.687  47.148  10.985  1.00  0.00    -0.256 OA
BRANCH  16  18
HETATM   18  O1  UNL     1      47.755  48.944  10.226  1.00  0.00    -0.320 OA
HETATM   19  C1  UNL     1      46.977  50.127  10.148  1.00  0.00     0.213 C 
ENDBRANCH  16  18
ENDBRANCH   1  16
BRANCH  14  20
HETATM   20  O5  UNL     1      49.809  46.073   9.883  1.00  0.00    -0.308 OA
HETATM   21  C9  UNL     1      50.967  46.792  10.258  1.00  0.00     0.215 C 
ENDBRANCH  14  20
BRANCH   9  22
HETATM   22  N3  UNL     1      48.317  44.767   3.528  1.00  0.00    -0.234 N 
ATOM     23  H32 UNL     1      47.741  44.240   2.872  1.00  0.00     0.174 HD
ATOM     24  H31 UNL     1      49.328  44.764   3.394  1.00  0.00     0.174 HD
ENDBRANCH   9  22
TORSDOF 4
ENDMDL
MODEL 2
REMARK VINA RESULT: -6.995178389      2.518      4.410
REMARK  4 active torsions:
REMARK  status: ('A' for Active; 'I' for Inactive)
REMARK    1  A    between atoms: O1_2  and  C2_3 
REMARK    2  A    between atoms: C2_3  and  C3_5 
REMARK    3  A    between atoms: C6_13  and  N3_14 
REMARK       I    between atoms: N5_20  and  C8_21 
REMARK    4  A    between atoms: C8_21  and  O5_23 
ROOT
HETATM    1  C3  UNL     1      47.872  46.782   8.861  1.00  0.00     0.195 A 
HETATM    2  N1  UNL     1      48.310  45.822   7.964  1.00  0.00    -0.329 N 
ATOM      3  H1  UNL     1      47.803  45.516   7.132  1.00  0.00     0.168 HD
HETATM    4  C4  UNL     1      49.493  45.362   8.355  1.00  0.00     0.149 A 
HETATM    5  C5  UNL     1      50.330  44.407   7.802  1.00  0.00     0.290 A 
HETATM    6  O3  UNL     1      49.942  43.853   6.742  1.00  0.00    -0.265 OA
HETATM    7  N2  UNL     1      51.468  44.155   8.429  1.00  0.00    -0.154 N 
ATOM      8  H2  UNL     1      52.092  43.454   8.029  1.00  0.00     0.187 HD
HETATM    9  C6  UNL     1      51.849  44.766   9.556  1.00  0.00     0.680 A 
HETATM   10  N4  UNL     1      51.025  45.698  10.091  1.00  0.00    -0.174 N 
ATOM     11  H4  UNL     1      51.303  46.172  10.950  1.00  0.00     0.186 HD
HETATM   12  C7  UNL     1      49.853  46.013   9.518  1.00  0.00     0.166 A 
HETATM   13  N5  UNL     1      48.819  46.890   9.804  1.00  0.00    -0.220 N 
HETATM   14  C8  UNL     1      48.865  47.718  10.935  1.00  0.00     0.374 C 
HETATM   15  O4  UNL     1      49.866  47.673  11.720  1.00  0.00    -0.237 OA
ENDROOT
BRANCH   1  16
HETATM   16  C2  UNL     1      46.623  47.487   8.739  1.00  0.00     0.328 C 
HETATM   17  O2  UNL     1      45.611  47.383   9.410  1.00  0.00    -0.256 OA
BRANCH  16  18
HETATM   18  O1  UNL     1      46.534  48.451   7.693  1.00  0.00    -0.320 OA
HETATM   19  C1  UNL     1      45.482  49.400   7.660  1.00  0.00     0.213 C 
ENDBRANCH  16  18
ENDBRANCH   1  16
BRANCH  14  20
HETATM   20  O5  UNL     1      47.905  48.611  11.304  1.00  0.00    -0.308 OA
HETATM   21  C9  UNL     1      47.934  50.000  11.042  1.00  0.00     0.215 C 
ENDBRANCH  14  20
BRANCH   9  22
HETATM   22  N3  UNL     1      52.986  44.473  10.129  1.00  0.00    -0.234 N 
ATOM     23  H32 UNL     1      53.530  43.666   9.825  1.00  0.00     0.174 HD
ATOM     24  H31 UNL     1      53.352  45.044  10.890  1.00  0.00     0.174 HD
ENDBRANCH   9  22
TORSDOF 4
ENDMDL
MODEL 3
REMARK VINA RESULT: -6.893476351      2.250      2.653
REMARK  4 active torsions:
REMARK  status: ('A' for Active; 'I' for Inactive)
REMARK    1  A    between atoms: O1_2  and  C2_3 
REMARK    2  A    between atoms: C2_3  and  C3_5 
REMARK    3  A    between atoms: C6_13  and  N3_14 
REMARK       I    between atoms: N5_20  and  C8_21 
REMARK    4  A    between atoms: C8_21  and  O5_23 
ROOT
HETATM    1  C3  UNL     1      47.600  46.407   7.435  1.00  0.00     0.195 A 
HETATM    2  N1  UNL     1      47.336  45.895   6.176  1.00  0.00    -0.329 N 
ATOM      3  H1  UNL     1      46.533  46.141   5.595  1.00  0.00     0.168 HD
HETATM    4  C4  UNL     1      48.290  45.034   5.842  1.00  0.00     0.149 A 
HETATM    5  C5  UNL     1      48.473  44.271   4.700  1.00  0.00     0.290 A 
HETATM    6  O3  UNL     1      47.608  44.381   3.795  1.00  0.00    -0.265 OA
HETATM    7  N2  UNL     1      49.541  43.490   4.652  1.00  0.00    -0.154 N 
ATOM      8  H2  UNL     1      49.685  42.924   3.815  1.00  0.00     0.187 HD
HETATM    9  C6  UNL     1      50.442  43.398   5.636  1.00  0.00     0.680 A 
HETATM   10  N4  UNL     1      50.256  44.147   6.748  1.00  0.00    -0.174 N 
ATOM     11  H4  UNL     1      50.935  44.088   7.507  1.00  0.00     0.186 HD
HETATM   12  C7  UNL     1      49.200  44.966   6.877  1.00  0.00     0.166 A 
HETATM   13  N5  UNL     1      48.738  45.833   7.853  1.00  0.00    -0.220 N 
HETATM   14  C8  UNL     1      49.436  46.006   9.057  1.00  0.00     0.374 C 
HETATM   15  O4  UNL     1      50.513  45.362   9.269  1.00  0.00    -0.237 OA
ENDROOT
BRANCH   1  16
HETATM   16  C2  UNL     1      46.765  47.369   8.105  1.00  0.00     0.328 C 
HETATM   17  O2  UNL     1      46.094  47.236   9.114  1.00  0.00    -0.256 OA
BRANCH  16  18
HETATM   18  O1  UNL     1      46.698  48.669   7.525  1.00  0.00    -0.320 OA
HETATM   19  C1  UNL     1      45.474  49.380   7.463  1.00  0.00     0.213 C 
ENDBRANCH  16  18
ENDBRANCH   1  16
BRANCH  14  20
HETATM   20  O5  UNL     1      49.069  46.832  10.077  1.00  0.00    -0.308 OA
HETATM   21  C9  UNL     1      49.856  47.131  11.213  1.00  0.00     0.215 C 
ENDBRANCH  14  20
BRANCH   9  22
HETATM   22  N3  UNL     1      51.476  42.607   5.529  1.00  0.00    -0.234 N 
ATOM     23  H32 UNL     1      51.799  42.061   6.328  1.00  0.00     0.174 HD
ATOM     24  H31 UNL     1      51.982  42.520   4.648  1.00  0.00     0.174 HD
ENDBRANCH   9  22
TORSDOF 4
ENDMDL
MODEL 4
REMARK VINA RESULT: -6.891085328      1.504      3.454
REMARK  4 active torsions:
REMARK  status: ('A' for Active; 'I' for Inactive)
REMARK    1  A    between atoms: O1_2  and  C2_3 
REMARK    2  A    between atoms: C2_3  and  C3_5 
REMARK    3  A    between atoms: C6_13  and  N3_14 
REMARK       I    between atoms: N5_20  and  C8_21 
REMARK    4  A    between atoms: C8_21  and  O5_23 
ROOT
HETATM    1  C3  UNL     1      48.144  46.753   8.802  1.00  0.00     0.195 A 
HETATM    2  N1  UNL     1      49.259  45.963   8.574  1.00  0.00    -0.329 N 
ATOM      3  H1  UNL     1      49.935  45.678   9.283  1.00  0.00     0.168 HD
HETATM    4  C4  UNL     1      49.309  45.634   7.288  1.00  0.00     0.149 A 
HETATM    5  C5  UNL     1      50.218  44.869   6.576  1.00  0.00     0.290 A 
HETATM    6  O3  UNL     1      51.180  44.380   7.219  1.00  0.00    -0.265 OA
HETATM    7  N2  UNL     1      50.001  44.713   5.279  1.00  0.00    -0.154 N 
ATOM      8  H2  UNL     1      50.665  44.151   4.746  1.00  0.00     0.187 HD
HETATM    9  C6  UNL     1      48.965  45.250   4.627  1.00  0.00     0.680 A 
HETATM   10  N4  UNL     1      48.081  45.996   5.330  1.00  0.00    -0.174 N 
ATOM     11  H4  UNL     1      47.284  46.411   4.846  1.00  0.00     0.186 HD
HETATM   12  C7  UNL     1      48.226  46.203   6.648  1.00  0.00     0.166 A 
HETATM   13  N5  UNL     1      47.523  46.893   7.622  1.00  0.00    -0.220 N 
HETATM   14  C8  UNL     1      46.351  47.596   7.307  1.00  0.00     0.374 C 
HETATM   15  O4  UNL     1      45.915  47.609   6.111  1.00  0.00    -0.237 OA
ENDROOT
BRANCH   1  16
HETATM   16  C2  UNL     1      47.785  47.287  10.090  1.00  0.00     0.328 C 
HETATM   17  O2  UNL     1      46.908  46.927  10.856  1.00  0.00    -0.256 OA
BRANCH  16  18
HETATM   18  O1  UNL     1      48.551  48.394  10.557  1.00  0.00    -0.320 OA
HETATM   19  C1  UNL     1      47.934  49.482  11.225  1.00  0.00     0.213 C 
ENDBRANCH  16  18
ENDBRANCH   1  16
BRANCH  14  20
HETATM   20  O5  UNL     1      45.588  48.303   8.186  1.00  0.00    -0.308 OA
HETATM   21  C9  UNL     1      45.569  49.712   8.306  1.00  0.00     0.215 C 
ENDBRANCH  14  20
BRANCH   9  22
HETATM   22  N3  UNL     1      48.805  45.060   3.345  1.00  0.00    -0.234 N 
ATOM     23  H32 UNL     1      48.427  44.182   2.991  1.00  0.00     0.174 HD
ATOM     24  H31 UNL     1      49.057  45.783   2.671  1.00  0.00     0.174 HD
ENDBRANCH   9  22
TORSDOF 4
ENDMDL
MODEL 5
REMARK VINA RESULT: -6.850148357      2.436      4.565
REMARK  4 active torsions:
REMARK  status: ('A' for Active; 'I' for Inactive)
REMARK    1  A    between atoms: O1_2  and  C2_3 
REMARK    2  A    between atoms: C2_3  and  C3_5 
REMARK    3  A    between atoms: C6_13  and  N3_14 
REMARK       I    between atoms: N5_20  and  C8_21 
REMARK    4  A    between atoms: C8_21  and  O5_23 
ROOT
HETATM    1  C3  UNL     1      51.009  45.009   6.906  1.00  0.00     0.195 A 
HETATM    2  N1  UNL     1      50.820  44.838   5.545  1.00  0.00    -0.329 N 
ATOM      3  H1  UNL     1      51.513  44.465   4.895  1.00  0.00     0.168 HD
HETATM    4  C4  UNL     1      49.596  45.235   5.218  1.00  0.00     0.149 A 
HETATM    5  C5  UNL     1      48.940  45.262   3.998  1.00  0.00     0.290 A 
HETATM    6  O3  UNL     1      49.577  44.848   2.997  1.00  0.00    -0.265 OA
HETATM    7  N2  UNL     1      47.698  45.721   3.982  1.00  0.00    -0.154 N 
ATOM      8  H2  UNL     1      47.207  45.745   3.088  1.00  0.00     0.187 HD
HETATM    9  C6  UNL     1      47.050  46.155   5.068  1.00  0.00     0.680 A 
HETATM   10  N4  UNL     1      47.697  46.124   6.256  1.00  0.00    -0.174 N 
ATOM     11  H4  UNL     1      47.216  46.451   7.094  1.00  0.00     0.186 HD
HETATM   12  C7  UNL     1      48.957  45.674   6.360  1.00  0.00     0.166 A 
HETATM   13  N5  UNL     1      49.868  45.520   7.393  1.00  0.00    -0.220 N 
HETATM   14  C8  UNL     1      49.538  45.876   8.708  1.00  0.00     0.374 C 
HETATM   15  O4  UNL     1      48.387  46.350   8.972  1.00  0.00    -0.237 OA
ENDROOT
BRANCH   1  16
HETATM   16  C2  UNL     1      52.227  44.679   7.598  1.00  0.00     0.328 C 
HETATM   17  O2  UNL     1      53.226  45.357   7.765  1.00  0.00    -0.256 OA
BRANCH  16  18
HETATM   18  O1  UNL     1      52.299  43.380   8.179  1.00  0.00    -0.320 OA
HETATM   19  C1  UNL     1      53.004  42.329   7.539  1.00  0.00     0.213 C 
ENDBRANCH  16  18
ENDBRANCH   1  16
BRANCH  14  20
HETATM   20  O5  UNL     1      50.357  45.764   9.791  1.00  0.00    -0.308 OA
HETATM   21  C9  UNL     1      51.034  46.833  10.421  1.00  0.00     0.215 C 
ENDBRANCH  14  20
BRANCH   9  22
HETATM   22  N3  UNL     1      45.823  46.596   4.988  1.00  0.00    -0.234 N 
ATOM     23  H32 UNL     1      45.036  45.993   5.225  1.00  0.00     0.174 HD
ATOM     24  H31 UNL     1      45.627  47.550   4.687  1.00  0.00     0.174 HD
ENDBRANCH   9  22
TORSDOF 4
ENDMDL
