MODEL 1
REMARK VINA RESULT: -8.320067415      0.000      0.000
REMARK  3 active torsions:
REMARK  status: ('A' for Active; 'I' for Inactive)
REMARK    1  A    between atoms: N1_1  and  C1_4 
REMARK    2  A    between atoms: C3_12  and  C4_13 
REMARK    3  A    between atoms: C5_16  and  N6_17 
ROOT
HETATM    1  C4  UNL     1      49.260  45.100   5.441  1.00  0.00     0.126 A 
HETATM    2  N5  UNL     1      48.730  45.794   6.516  1.00  0.00    -0.184 N 
ATOM      3  H5  UNL     1      49.211  45.744   7.414  1.00  0.00     0.184 HD
HETATM    4  C5  UNL     1      47.633  46.515   6.427  1.00  0.00     0.695 A 
HETATM    5  N7  UNL     1      46.998  46.585   5.248  1.00  0.00    -0.130 N 
ATOM      6  H7  UNL     1      46.147  47.142   5.173  1.00  0.00     0.205 HD
HETATM    7  N8  UNL     1      47.442  45.959   4.199  1.00  0.00    -0.270 N 
ATOM      8  H8  UNL     1      46.934  46.034   3.317  1.00  0.00     0.189 HD
HETATM    9  C10 UNL     1      48.588  45.194   4.261  1.00  0.00     0.144 A 
HETATM   10  N9  UNL     1      48.948  44.617   3.185  1.00  0.00    -0.383 N 
ATOM     11  H91 UNL     1      48.445  44.687   2.301  1.00  0.00     0.157 HD
ATOM     12  H92 UNL     1      49.796  44.051   3.231  1.00  0.00     0.157 HD
ENDROOT
BRANCH   1  13
HETATM   13  C3  UNL     1      50.466  44.355   5.695  1.00  0.00     0.123 A 
HETATM   14  C1  UNL     1      51.582  44.707   6.356  1.00  0.00     0.130 A 
HETATM   15  N2  UNL     1      52.645  43.829   6.493  1.00  0.00    -0.336 N 
HETATM   16  C2  UNL     1      52.601  42.610   5.976  1.00  0.00     0.199 A 
ATOM     17  H2  UNL     1      53.478  44.126   7.002  1.00  0.00     0.168 HD
HETATM   18  N3  UNL     1      51.495  42.256   5.318  1.00  0.00    -0.296 N 
HETATM   19  N4  UNL     1      50.487  43.070   5.181  1.00  0.00    -0.294 N 
ATOM     20  H3  UNL     1      51.437  41.322   4.910  1.00  0.00     0.187 HD
ATOM     21  H4  UNL     1      49.669  42.743   4.668  1.00  0.00     0.187 HD
BRANCH  14  22
HETATM   22  N1  UNL     1      51.707  45.860   6.884  1.00  0.00    -0.383 N 
ATOM     23  H12 UNL     1      51.643  45.994   7.893  1.00  0.00     0.157 HD
ATOM     24  H11 UNL     1      51.876  46.645   6.254  1.00  0.00     0.157 HD
ENDBRANCH  14  22
ENDBRANCH   1  13
BRANCH   4  25
HETATM   25  N6  UNL     1      47.111  47.224   7.563  1.00  0.00    -0.212 N 
HETATM   26  C6  UNL     1      47.628  46.911   8.857  1.00  0.00     0.167 C 
HETATM   27  C7  UNL     1      47.463  48.001   9.863  1.00  0.00     0.188 C 
HETATM   28  O1  UNL     1      46.742  49.088   9.398  1.00  0.00    -0.388 OA
HETATM   29  C8  UNL     1      45.616  48.715   8.674  1.00  0.00     0.188 C 
HETATM   30  C9  UNL     1      46.085  48.222   7.325  1.00  0.00     0.167 C 
ENDBRANCH   4  25
TORSDOF 3
ENDMDL
MODEL 2
REMARK VINA RESULT: -8.253866941      0.399      1.153
REMARK  3 active torsions:
REMARK  status: ('A' for Active; 'I' for Inactive)
REMARK    1  A    between atoms: N1_1  and  C1_4 
REMARK    2  A    between atoms: C3_12  and  C4_13 
REMARK    3  A    between atoms: C5_16  and  N6_17 
ROOT
HETATM    1  C4  UNL     1      49.351  45.071   5.483  1.00  0.00     0.126 A 
HETATM    2  N5  UNL     1      48.856  45.755   6.581  1.00  0.00    -0.184 N 
ATOM      3  H5  UNL     1      49.353  45.679   7.469  1.00  0.00     0.184 HD
HETATM    4  C5  UNL     1      47.773  46.501   6.527  1.00  0.00     0.695 A 
HETATM    5  N7  UNL     1      47.117  46.606   5.362  1.00  0.00    -0.130 N 
ATOM      6  H7  UNL     1      46.278  47.183   5.314  1.00  0.00     0.205 HD
HETATM    7  N8  UNL     1      47.528  45.991   4.294  1.00  0.00    -0.270 N 
ATOM      8  H8  UNL     1      47.006  46.093   3.423  1.00  0.00     0.189 HD
HETATM    9  C10 UNL     1      48.659  45.202   4.319  1.00  0.00     0.144 A 
HETATM   10  N9  UNL     1      48.986  44.637   3.226  1.00  0.00    -0.383 N 
ATOM     11  H91 UNL     1      48.467  44.735   2.353  1.00  0.00     0.157 HD
ATOM     12  H92 UNL     1      49.822  44.053   3.244  1.00  0.00     0.157 HD
ENDROOT
BRANCH   1  13
HETATM   13  C3  UNL     1      50.545  44.296   5.700  1.00  0.00     0.123 A 
HETATM   14  C1  UNL     1      51.686  44.617   6.333  1.00  0.00     0.130 A 
HETATM   15  N2  UNL     1      52.732  43.713   6.436  1.00  0.00    -0.336 N 
HETATM   16  C2  UNL     1      52.645  42.499   5.913  1.00  0.00     0.199 A 
ATOM     17  H2  UNL     1      53.585  43.988   6.923  1.00  0.00     0.168 HD
HETATM   18  N3  UNL     1      51.513  42.176   5.283  1.00  0.00    -0.296 N 
HETATM   19  N4  UNL     1      50.521  43.015   5.179  1.00  0.00    -0.294 N 
ATOM     20  H3  UNL     1      51.422  41.247   4.872  1.00  0.00     0.187 HD
ATOM     21  H4  UNL     1      49.682  42.710   4.686  1.00  0.00     0.187 HD
BRANCH  14  22
HETATM   22  N1  UNL     1      51.853  45.764   6.864  1.00  0.00    -0.383 N 
ATOM     23  H12 UNL     1      51.166  46.160   7.505  1.00  0.00     0.157 HD
ATOM     24  H11 UNL     1      52.705  46.269   6.621  1.00  0.00     0.157 HD
ENDBRANCH  14  22
ENDBRANCH   1  13
BRANCH   4  25
HETATM   25  N6  UNL     1      47.288  47.199   7.686  1.00  0.00    -0.212 N 
HETATM   26  C6  UNL     1      46.395  48.297   7.494  1.00  0.00     0.167 C 
HETATM   27  C7  UNL     1      45.541  48.605   8.679  1.00  0.00     0.188 C 
HETATM   28  O1  UNL     1      45.836  47.842   9.796  1.00  0.00    -0.388 OA
HETATM   29  C8  UNL     1      47.203  47.716  10.014  1.00  0.00     0.188 C 
HETATM   30  C9  UNL     1      47.739  46.744   8.989  1.00  0.00     0.167 C 
ENDBRANCH   4  25
TORSDOF 3
ENDMDL
MODEL 3
REMARK VINA RESULT: -8.220763428      1.281      1.581
REMARK  3 active torsions:
REMARK  status: ('A' for Active; 'I' for Inactive)
REMARK    1  A    between atoms: N1_1  and  C1_4 
REMARK    2  A    between atoms: C3_12  and  C4_13 
REMARK    3  A    between atoms: C5_16  and  N6_17 
ROOT
HETATM    1  C4  UNL     1      49.544  45.477   6.129  1.00  0.00     0.126 A 
HETATM    2  N5  UNL     1      48.768  46.284   6.945  1.00  0.00    -0.184 N 
ATOM      3  H5  UNL     1      49.121  46.524   7.872  1.00  0.00     0.184 HD
HETATM    4  C5  UNL     1      47.596  46.753   6.577  1.00  0.00     0.695 A 
HETATM    5  N7  UNL     1      47.127  46.441   5.359  1.00  0.00    -0.130 N 
ATOM      6  H7  UNL     1      46.219  46.802   5.068  1.00  0.00     0.205 HD
HETATM    7  N8  UNL     1      47.804  45.690   4.543  1.00  0.00    -0.270 N 
ATOM      8  H8  UNL     1      47.419  45.473   3.624  1.00  0.00     0.189 HD
HETATM    9  C10 UNL     1      49.036  45.182   4.902  1.00  0.00     0.144 A 
HETATM   10  N9  UNL     1      49.627  44.456   4.039  1.00  0.00    -0.383 N 
ATOM     11  H91 UNL     1      49.247  44.235   3.119  1.00  0.00     0.157 HD
ATOM     12  H92 UNL     1      50.538  44.081   4.304  1.00  0.00     0.157 HD
ENDROOT
BRANCH   1  13
HETATM   13  C3  UNL     1      50.803  45.042   6.674  1.00  0.00     0.123 A 
HETATM   14  C1  UNL     1      51.069  44.302   7.764  1.00  0.00     0.130 A 
HETATM   15  N2  UNL     1      52.371  43.986   8.121  1.00  0.00    -0.336 N 
HETATM   16  C2  UNL     1      53.401  44.403   7.400  1.00  0.00     0.199 A 
ATOM     17  H2  UNL     1      52.539  43.422   8.954  1.00  0.00     0.168 HD
HETATM   18  N3  UNL     1      53.142  45.139   6.317  1.00  0.00    -0.296 N 
HETATM   19  N4  UNL     1      51.924  45.443   5.969  1.00  0.00    -0.294 N 
ATOM     20  H3  UNL     1      53.919  45.472   5.746  1.00  0.00     0.187 HD
ATOM     21  H4  UNL     1      51.789  46.008   5.130  1.00  0.00     0.187 HD
BRANCH  14  22
HETATM   22  N1  UNL     1      50.137  43.861   8.513  1.00  0.00    -0.383 N 
ATOM     23  H12 UNL     1      50.221  43.870   9.530  1.00  0.00     0.157 HD
ATOM     24  H11 UNL     1      49.302  43.498   8.053  1.00  0.00     0.157 HD
ENDBRANCH  14  22
ENDBRANCH   1  13
BRANCH   4  25
HETATM   25  N6  UNL     1      46.817  47.589   7.450  1.00  0.00    -0.212 N 
HETATM   26  C6  UNL     1      46.955  47.414   8.860  1.00  0.00     0.167 C 
HETATM   27  C7  UNL     1      46.570  48.611   9.665  1.00  0.00     0.188 C 
HETATM   28  O1  UNL     1      46.045  49.648   8.913  1.00  0.00    -0.388 OA
HETATM   29  C8  UNL     1      45.140  49.209   7.953  1.00  0.00     0.188 C 
HETATM   30  C9  UNL     1      45.933  48.566   6.840  1.00  0.00     0.167 C 
ENDBRANCH   4  25
TORSDOF 3
ENDMDL
MODEL 4
REMARK VINA RESULT: -8.208739086      1.668      2.357
REMARK  3 active torsions:
REMARK  status: ('A' for Active; 'I' for Inactive)
REMARK    1  A    between atoms: N1_1  and  C1_4 
REMARK    2  A    between atoms: C3_12  and  C4_13 
REMARK    3  A    between atoms: C5_16  and  N6_17 
ROOT
HETATM    1  C4  UNL     1      50.670  44.610   6.897  1.00  0.00     0.126 A 
HETATM    2  N5  UNL     1      49.857  45.540   7.523  1.00  0.00    -0.184 N 
ATOM      3  H5  UNL     1      50.253  46.112   8.268  1.00  0.00     0.184 HD
HETATM    4  C5  UNL     1      48.595  45.718   7.196  1.00  0.00     0.695 A 
HETATM    5  N7  UNL     1      48.069  44.969   6.215  1.00  0.00    -0.130 N 
ATOM      6  H7  UNL     1      47.092  45.102   5.957  1.00  0.00     0.205 HD
HETATM    7  N8  UNL     1      48.777  44.079   5.586  1.00  0.00    -0.270 N 
ATOM      8  H8  UNL     1      48.346  43.527   4.844  1.00  0.00     0.189 HD
HETATM    9  C10 UNL     1      50.102  43.869   5.907  1.00  0.00     0.144 A 
HETATM   10  N9  UNL     1      50.717  42.977   5.239  1.00  0.00    -0.383 N 
ATOM     11  H91 UNL     1      50.291  42.421   4.498  1.00  0.00     0.157 HD
ATOM     12  H92 UNL     1      51.697  42.822   5.477  1.00  0.00     0.157 HD
ENDROOT
BRANCH   1  13
HETATM   13  C3  UNL     1      52.029  44.533   7.367  1.00  0.00     0.123 A 
HETATM   14  C1  UNL     1      52.517  44.118   8.549  1.00  0.00     0.130 A 
HETATM   15  N2  UNL     1      53.880  44.120   8.806  1.00  0.00    -0.336 N 
HETATM   16  C2  UNL     1      54.750  44.532   7.896  1.00  0.00     0.199 A 
ATOM     17  H2  UNL     1      54.218  43.798   9.712  1.00  0.00     0.168 HD
HETATM   18  N3  UNL     1      54.269  44.946   6.721  1.00  0.00    -0.296 N 
HETATM   19  N4  UNL     1      52.991  44.949   6.465  1.00  0.00    -0.294 N 
ATOM     20  H3  UNL     1      54.920  45.269   6.005  1.00  0.00     0.187 HD
ATOM     21  H4  UNL     1      52.685  45.277   5.549  1.00  0.00     0.187 HD
BRANCH  14  22
HETATM   22  N1  UNL     1      51.750  43.706   9.479  1.00  0.00    -0.383 N 
ATOM     23  H12 UNL     1      52.102  43.528  10.420  1.00  0.00     0.157 HD
ATOM     24  H11 UNL     1      50.768  43.562   9.243  1.00  0.00     0.157 HD
ENDBRANCH  14  22
ENDBRANCH   1  13
BRANCH   4  25
HETATM   25  N6  UNL     1      47.779  46.694   7.865  1.00  0.00    -0.212 N 
HETATM   26  C6  UNL     1      47.950  46.874   9.272  1.00  0.00     0.167 C 
HETATM   27  C7  UNL     1      47.504  48.205   9.777  1.00  0.00     0.188 C 
HETATM   28  O1  UNL     1      46.901  48.997   8.814  1.00  0.00    -0.388 OA
HETATM   29  C8  UNL     1      46.011  48.288   8.016  1.00  0.00     0.188 C 
HETATM   30  C9  UNL     1      46.825  47.441   7.066  1.00  0.00     0.167 C 
ENDBRANCH   4  25
TORSDOF 3
ENDMDL
MODEL 5
REMARK VINA RESULT: -8.185068292      2.177      3.198
REMARK  3 active torsions:
REMARK  status: ('A' for Active; 'I' for Inactive)
REMARK    1  A    between atoms: N1_1  and  C1_4 
REMARK    2  A    between atoms: C3_12  and  C4_13 
REMARK    3  A    between atoms: C5_16  and  N6_17 
ROOT
HETATM    1  C4  UNL     1      47.204  46.429   6.152  1.00  0.00     0.126 A 
HETATM    2  N5  UNL     1      47.671  46.801   7.402  1.00  0.00    -0.184 N 
ATOM      3  H5  UNL     1      48.527  46.371   7.751  1.00  0.00     0.184 HD
HETATM    4  C5  UNL     1      47.057  47.686   8.158  1.00  0.00     0.695 A 
HETATM    5  N7  UNL     1      45.931  48.255   7.703  1.00  0.00    -0.130 N 
ATOM      6  H7  UNL     1      45.450  48.942   8.284  1.00  0.00     0.205 HD
HETATM    7  N8  UNL     1      45.438  47.952   6.539  1.00  0.00    -0.270 N 
ATOM      8  H8  UNL     1      44.580  48.405   6.223  1.00  0.00     0.189 HD
HETATM    9  C10 UNL     1      46.059  47.027   5.725  1.00  0.00     0.144 A 
HETATM   10  N9  UNL     1      45.505  46.793   4.602  1.00  0.00    -0.383 N 
ATOM     11  H91 UNL     1      44.647  47.241   4.282  1.00  0.00     0.157 HD
ATOM     12  H92 UNL     1      45.964  46.109   4.000  1.00  0.00     0.157 HD
ENDROOT
BRANCH   1  13
HETATM   13  C3  UNL     1      47.985  45.448   5.445  1.00  0.00     0.123 A 
HETATM   14  C1  UNL     1      48.533  44.298   5.876  1.00  0.00     0.130 A 
HETATM   15  N2  UNL     1      49.258  43.481   5.023  1.00  0.00    -0.336 N 
HETATM   16  C2  UNL     1      49.439  43.805   3.751  1.00  0.00     0.199 A 
ATOM     17  H2  UNL     1      49.659  42.615   5.381  1.00  0.00     0.168 HD
HETATM   18  N3  UNL     1      48.898  44.946   3.319  1.00  0.00    -0.296 N 
HETATM   19  N4  UNL     1      48.213  45.724   4.109  1.00  0.00    -0.294 N 
ATOM     20  H3  UNL     1      49.024  45.217   2.344  1.00  0.00     0.187 HD
ATOM     21  H4  UNL     1      47.824  46.583   3.721  1.00  0.00     0.187 HD
BRANCH  14  22
HETATM   22  N1  UNL     1      48.407  43.912   7.084  1.00  0.00    -0.383 N 
ATOM     23  H12 UNL     1      49.085  43.285   7.517  1.00  0.00     0.157 HD
ATOM     24  H11 UNL     1      47.598  44.258   7.601  1.00  0.00     0.157 HD
ENDBRANCH  14  22
ENDBRANCH   1  13
BRANCH   4  25
HETATM   25  N6  UNL     1      47.570  48.050   9.450  1.00  0.00    -0.212 N 
HETATM   26  C6  UNL     1      48.414  47.121  10.133  1.00  0.00     0.167 C 
HETATM   27  C7  UNL     1      49.311  47.743  11.150  1.00  0.00     0.188 C 
HETATM   28  O1  UNL     1      49.097  49.099  11.333  1.00  0.00    -0.388 OA
HETATM   29  C8  UNL     1      47.747  49.426  11.391  1.00  0.00     0.188 C 
HETATM   30  C9  UNL     1      47.199  49.347   9.985  1.00  0.00     0.167 C 
ENDBRANCH   4  25
TORSDOF 3
ENDMDL
