MODEL 1
REMARK VINA RESULT: -9.225679562      0.000      0.000
REMARK  4 active torsions:
REMARK  status: ('A' for Active; 'I' for Inactive)
REMARK       I    between atoms: C2_5  and  N3_6 
REMARK       I    between atoms: C2_5  and  N5_10 
REMARK    1  A    between atoms: N5_10  and  N6_12 
REMARK    2  A    between atoms: N6_12  and  C4_14 
REMARK    3  A    between atoms: C4_14  and  C6_19 
REMARK       I    between atoms: N9_21  and  C8_22 
REMARK    4  A    between atoms: C8_22  and  C9_24 
ROOT
HETATM    1  N1  UNL     1      62.264  38.681  12.234  1.00  0.00    -0.171 NA
HETATM    2  C1  UNL     1      62.624  38.129  11.260  1.00  0.00     0.196 C 
HETATM    3  N2  UNL     1      63.040  37.482  10.095  1.00  0.00    -0.124 N 
ATOM      4  H2  UNL     1      62.679  37.794   9.193  1.00  0.00     0.197 HD
HETATM    5  C2  UNL     1      63.867  36.503  10.136  1.00  0.00     0.715 C 
HETATM    6  N3  UNL     1      64.270  35.867   8.938  1.00  0.00    -0.124 N 
ATOM      7  H3  UNL     1      63.668  35.155   8.526  1.00  0.00     0.197 HD
HETATM    8  C3  UNL     1      65.488  36.193   8.297  1.00  0.00     0.196 C 
HETATM    9  N4  UNL     1      66.492  36.457   7.772  1.00  0.00    -0.171 NA
HETATM   10  N5  UNL     1      64.362  36.077  11.393  1.00  0.00    -0.129 N 
ATOM     11  H5  UNL     1      65.324  36.305  11.645  1.00  0.00     0.205 HD
ENDROOT
BRANCH  10  12
HETATM   12  N6  UNL     1      63.580  35.356  12.302  1.00  0.00    -0.270 N 
ATOM     13  H6  UNL     1      63.380  35.765  13.215  1.00  0.00     0.189 HD
BRANCH  12  14
HETATM   14  C4  UNL     1      63.062  34.083  11.998  1.00  0.00     0.146 C 
HETATM   15  N7  UNL     1      61.811  33.928  11.789  1.00  0.00    -0.277 N 
HETATM   16  C5  UNL     1      60.880  34.970  11.843  1.00  0.00     0.183 C 
ATOM     17  H7  UNL     1      61.473  32.991  11.571  1.00  0.00     0.179 HD
HETATM   18  N8  UNL     1      60.101  35.841  11.868  1.00  0.00    -0.172 NA
BRANCH  14  19
HETATM   19  C6  UNL     1      63.948  32.936  11.920  1.00  0.00     0.097 A 
HETATM   20  C7  UNL     1      63.640  31.651  12.310  1.00  0.00     0.141 A 
HETATM   21  N9  UNL     1      64.710  30.822  12.094  1.00  0.00    -0.227 N 
HETATM   22  C8  UNL     1      64.731  29.438  12.407  1.00  0.00     0.276 C 
HETATM   23  N10 UNL     1      65.642  31.596  11.584  1.00  0.00    -0.256 N 
HETATM   24  O1  UNL     1      63.734  28.871  12.938  1.00  0.00    -0.265 OA
HETATM   25  C15 UNL     1      65.242  32.870  11.457  1.00  0.00     0.275 A 
ATOM     26  H10 UNL     1      66.568  31.264  11.314  1.00  0.00     0.191 HD
HETATM   27  O2  UNL     1      65.896  33.857  11.003  1.00  0.00    -0.266 OA
BRANCH  22  28
HETATM   28  C9  UNL     1      65.887  28.617  12.137  1.00  0.00     0.034 A 
HETATM   29  C10 UNL     1      66.535  28.559  10.926  1.00  0.00     0.019 A 
HETATM   30  C11 UNL     1      67.657  27.755  10.749  1.00  0.00     0.025 A 
HETATM   31  C12 UNL     1      68.163  26.990  11.761  1.00  0.00     0.034 A 
HETATM   32 CL1  UNL     1      69.574  25.960  11.590  1.00  0.00    -0.084 Cl
HETATM   33  C13 UNL     1      67.526  27.034  12.984  1.00  0.00     0.025 A 
HETATM   34  C14 UNL     1      66.429  27.823  13.153  1.00  0.00     0.019 A 
ENDBRANCH  22  28
ENDBRANCH  14  19
ENDBRANCH  12  14
ENDBRANCH  10  12
TORSDOF 4
ENDMDL
MODEL 2
REMARK VINA RESULT: -9.214696171      2.125      4.056
REMARK  4 active torsions:
REMARK  status: ('A' for Active; 'I' for Inactive)
REMARK       I    between atoms: C2_5  and  N3_6 
REMARK       I    between atoms: C2_5  and  N5_10 
REMARK    1  A    between atoms: N5_10  and  N6_12 
REMARK    2  A    between atoms: N6_12  and  C4_14 
REMARK    3  A    between atoms: C4_14  and  C6_19 
REMARK       I    between atoms: N9_21  and  C8_22 
REMARK    4  A    between atoms: C8_22  and  C9_24 
ROOT
HETATM    1  N1  UNL     1      58.671  36.329  11.048  1.00  0.00    -0.171 NA
HETATM    2  C1  UNL     1      58.862  35.897  12.125  1.00  0.00     0.196 C 
HETATM    3  N2  UNL     1      59.080  35.397  13.410  1.00  0.00    -0.124 N 
ATOM      4  H2  UNL     1      58.644  35.860  14.208  1.00  0.00     0.197 HD
HETATM    5  C2  UNL     1      59.818  34.367  13.607  1.00  0.00     0.715 C 
HETATM    6  N3  UNL     1      60.020  33.883  14.921  1.00  0.00    -0.124 N 
ATOM      7  H3  UNL     1      60.726  34.325  15.510  1.00  0.00     0.197 HD
HETATM    8  C3  UNL     1      59.270  32.802  15.439  1.00  0.00     0.196 C 
HETATM    9  N4  UNL     1      58.657  31.910  15.863  1.00  0.00    -0.171 NA
HETATM   10  N5  UNL     1      60.419  33.732  12.492  1.00  0.00    -0.129 N 
ATOM     11  H5  UNL     1      60.045  32.837  12.176  1.00  0.00     0.205 HD
ENDROOT
BRANCH  10  12
HETATM   12  N6  UNL     1      61.507  34.287  11.809  1.00  0.00    -0.270 N 
ATOM     13  H6  UNL     1      61.358  34.680  10.880  1.00  0.00     0.189 HD
BRANCH  12  14
HETATM   14  C4  UNL     1      62.800  34.318  12.363  1.00  0.00     0.146 C 
HETATM   15  N7  UNL     1      63.200  35.343  13.013  1.00  0.00    -0.277 N 
HETATM   16  C5  UNL     1      62.417  36.482  13.225  1.00  0.00     0.183 C 
ATOM     17  H7  UNL     1      64.144  35.329  13.400  1.00  0.00     0.179 HD
HETATM   18  N8  UNL     1      61.759  37.428  13.421  1.00  0.00    -0.172 NA
BRANCH  14  19
HETATM   19  C6  UNL     1      63.692  33.184  12.198  1.00  0.00     0.097 A 
HETATM   20  C7  UNL     1      63.384  31.870  12.471  1.00  0.00     0.141 A 
HETATM   21  N9  UNL     1      64.461  31.066  12.198  1.00  0.00    -0.227 N 
HETATM   22  C8  UNL     1      64.484  29.660  12.391  1.00  0.00     0.276 C 
HETATM   23  N10 UNL     1      65.396  31.884  11.769  1.00  0.00    -0.256 N 
HETATM   24  O1  UNL     1      63.483  29.046  12.858  1.00  0.00    -0.265 OA
HETATM   25  C15 UNL     1      64.992  33.163  11.748  1.00  0.00     0.275 A 
ATOM     26  H10 UNL     1      66.327  31.580  11.483  1.00  0.00     0.191 HD
HETATM   27  O2  UNL     1      65.647  34.188  11.389  1.00  0.00    -0.266 OA
BRANCH  22  28
HETATM   28  C9  UNL     1      65.648  28.870  12.066  1.00  0.00     0.034 A 
HETATM   29  C10 UNL     1      66.256  28.851  10.833  1.00  0.00     0.019 A 
HETATM   30  C11 UNL     1      67.387  28.074  10.602  1.00  0.00     0.025 A 
HETATM   31  C12 UNL     1      67.942  27.299  11.581  1.00  0.00     0.034 A 
HETATM   32 CL1  UNL     1      69.368  26.302  11.342  1.00  0.00    -0.084 Cl
HETATM   33  C13 UNL     1      67.345  27.304  12.825  1.00  0.00     0.025 A 
HETATM   34  C14 UNL     1      66.239  28.065  13.046  1.00  0.00     0.019 A 
ENDBRANCH  22  28
ENDBRANCH  14  19
ENDBRANCH  12  14
ENDBRANCH  10  12
TORSDOF 4
ENDMDL
MODEL 3
REMARK VINA RESULT: -9.196787369      3.722      6.314
REMARK  4 active torsions:
REMARK  status: ('A' for Active; 'I' for Inactive)
REMARK       I    between atoms: C2_5  and  N3_6 
REMARK       I    between atoms: C2_5  and  N5_10 
REMARK    1  A    between atoms: N5_10  and  N6_12 
REMARK    2  A    between atoms: N6_12  and  C4_14 
REMARK    3  A    between atoms: C4_14  and  C6_19 
REMARK       I    between atoms: N9_21  and  C8_22 
REMARK    4  A    between atoms: C8_22  and  C9_24 
ROOT
HETATM    1  N1  UNL     1      61.220  29.221  17.535  1.00  0.00    -0.171 NA
HETATM    2  C1  UNL     1      62.347  28.948  17.342  1.00  0.00     0.196 C 
HETATM    3  N2  UNL     1      63.687  28.619  17.130  1.00  0.00    -0.124 N 
ATOM      4  H2  UNL     1      64.247  28.271  17.909  1.00  0.00     0.197 HD
HETATM    5  C2  UNL     1      64.229  28.747  15.975  1.00  0.00     0.715 C 
HETATM    6  N3  UNL     1      65.590  28.406  15.790  1.00  0.00    -0.124 N 
ATOM      7  H3  UNL     1      66.311  29.081  16.046  1.00  0.00     0.197 HD
HETATM    8  C3  UNL     1      65.977  27.153  15.260  1.00  0.00     0.196 C 
HETATM    9  N4  UNL     1      66.296  26.126  14.819  1.00  0.00    -0.171 NA
HETATM   10  N5  UNL     1      63.443  29.232  14.900  1.00  0.00    -0.129 N 
ATOM     11  H5  UNL     1      63.139  28.577  14.180  1.00  0.00     0.205 HD
ENDROOT
BRANCH  10  12
HETATM   12  N6  UNL     1      63.070  30.575  14.790  1.00  0.00    -0.270 N 
ATOM     13  H6  UNL     1      62.573  31.016  15.564  1.00  0.00     0.189 HD
BRANCH  12  14
HETATM   14  C4  UNL     1      63.357  31.339  13.643  1.00  0.00     0.146 C 
HETATM   15  N7  UNL     1      62.684  32.394  13.383  1.00  0.00    -0.277 N 
HETATM   16  C5  UNL     1      61.641  32.866  14.186  1.00  0.00     0.183 C 
ATOM     17  H7  UNL     1      62.921  32.921  12.543  1.00  0.00     0.179 HD
HETATM   18  N8  UNL     1      60.782  33.275  14.865  1.00  0.00    -0.172 NA
BRANCH  14  19
HETATM   19  C6  UNL     1      64.421  30.931  12.743  1.00  0.00     0.097 A 
HETATM   20  C7  UNL     1      64.825  29.636  12.505  1.00  0.00     0.141 A 
HETATM   21  N9  UNL     1      65.854  29.620  11.599  1.00  0.00    -0.227 N 
HETATM   22  C8  UNL     1      66.514  28.446  11.153  1.00  0.00     0.276 C 
HETATM   23  N10 UNL     1      66.063  30.883  11.301  1.00  0.00    -0.256 N 
HETATM   24  O1  UNL     1      66.191  27.305  11.591  1.00  0.00    -0.265 OA
HETATM   25  C15 UNL     1      65.236  31.712  11.955  1.00  0.00     0.275 A 
ATOM     26  H10 UNL     1      66.777  31.199  10.644  1.00  0.00     0.191 HD
HETATM   27  O2  UNL     1      65.179  32.977  11.891  1.00  0.00    -0.266 OA
BRANCH  22  28
HETATM   28  C9  UNL     1      67.581  28.499  10.182  1.00  0.00     0.034 A 
HETATM   29  C10 UNL     1      67.616  29.358   9.110  1.00  0.00     0.019 A 
HETATM   30  C11 UNL     1      68.690  29.361   8.225  1.00  0.00     0.025 A 
HETATM   31  C12 UNL     1      69.753  28.517   8.380  1.00  0.00     0.034 A 
HETATM   32 CL1  UNL     1      71.133  28.480   7.295  1.00  0.00    -0.084 Cl
HETATM   33  C13 UNL     1      69.736  27.646   9.451  1.00  0.00     0.025 A 
HETATM   34  C14 UNL     1      68.683  27.647  10.313  1.00  0.00     0.019 A 
ENDBRANCH  22  28
ENDBRANCH  14  19
ENDBRANCH  12  14
ENDBRANCH  10  12
TORSDOF 4
ENDMDL
MODEL 4
REMARK VINA RESULT: -9.109743061      5.044      8.908
REMARK  4 active torsions:
REMARK  status: ('A' for Active; 'I' for Inactive)
REMARK       I    between atoms: C2_5  and  N3_6 
REMARK       I    between atoms: C2_5  and  N5_10 
REMARK    1  A    between atoms: N5_10  and  N6_12 
REMARK    2  A    between atoms: N6_12  and  C4_14 
REMARK    3  A    between atoms: C4_14  and  C6_19 
REMARK       I    between atoms: N9_21  and  C8_22 
REMARK    4  A    between atoms: C8_22  and  C9_24 
ROOT
HETATM    1  N1  UNL     1      65.547  30.794  10.707  1.00  0.00    -0.171 NA
HETATM    2  C1  UNL     1      66.089  29.767  10.519  1.00  0.00     0.196 C 
HETATM    3  N2  UNL     1      66.732  28.552  10.279  1.00  0.00    -0.124 N 
ATOM      4  H2  UNL     1      66.978  28.296   9.323  1.00  0.00     0.197 HD
HETATM    5  C2  UNL     1      67.019  27.751  11.239  1.00  0.00     0.715 C 
HETATM    6  N3  UNL     1      67.671  26.524  10.965  1.00  0.00    -0.124 N 
ATOM      7  H3  UNL     1      67.118  25.726  10.653  1.00  0.00     0.197 HD
HETATM    8  C3  UNL     1      69.070  26.377  11.112  1.00  0.00     0.196 C 
HETATM    9  N4  UNL     1      70.219  26.254  11.239  1.00  0.00    -0.171 NA
HETATM   10  N5  UNL     1      66.673  28.116  12.563  1.00  0.00    -0.129 N 
ATOM     11  H5  UNL     1      67.413  28.414  13.199  1.00  0.00     0.205 HD
ENDROOT
BRANCH  10  12
HETATM   12  N6  UNL     1      65.355  28.082  13.031  1.00  0.00    -0.270 N 
ATOM     13  H6  UNL     1      64.610  27.811  12.390  1.00  0.00     0.189 HD
BRANCH  12  14
HETATM   14  C4  UNL     1      65.025  28.411  14.359  1.00  0.00     0.146 C 
HETATM   15  N7  UNL     1      65.490  27.723  15.330  1.00  0.00    -0.277 N 
HETATM   16  C5  UNL     1      66.336  26.622  15.166  1.00  0.00     0.183 C 
ATOM     17  H7  UNL     1      65.228  27.992  16.279  1.00  0.00     0.179 HD
HETATM   18  N8  UNL     1      67.059  25.713  15.034  1.00  0.00    -0.172 NA
BRANCH  14  19
HETATM   19  C6  UNL     1      64.152  29.537  14.635  1.00  0.00     0.097 A 
HETATM   20  C7  UNL     1      63.834  30.548  13.754  1.00  0.00     0.141 A 
HETATM   21  N9  UNL     1      62.983  31.443  14.349  1.00  0.00    -0.227 N 
HETATM   22  C8  UNL     1      62.480  32.612  13.721  1.00  0.00     0.276 C 
HETATM   23  N10 UNL     1      62.794  30.978  15.563  1.00  0.00    -0.256 N 
HETATM   24  O1  UNL     1      62.811  32.917  12.540  1.00  0.00    -0.265 OA
HETATM   25  C15 UNL     1      63.468  29.841  15.791  1.00  0.00     0.275 A 
ATOM     26  H10 UNL     1      62.200  31.432  16.258  1.00  0.00     0.191 HD
HETATM   27  O2  UNL     1      63.500  29.145  16.850  1.00  0.00    -0.266 OA
BRANCH  22  28
HETATM   28  C9  UNL     1      61.571  33.505  14.400  1.00  0.00     0.034 A 
HETATM   29  C10 UNL     1      60.256  33.215  14.677  1.00  0.00     0.019 A 
HETATM   30  C11 UNL     1      59.447  34.124  15.352  1.00  0.00     0.025 A 
HETATM   31  C12 UNL     1      59.916  35.338  15.768  1.00  0.00     0.034 A 
HETATM   32 CL1  UNL     1      58.937  36.518  16.623  1.00  0.00    -0.084 Cl
HETATM   33  C13 UNL     1      61.233  35.647  15.498  1.00  0.00     0.025 A 
HETATM   34  C14 UNL     1      62.021  34.755  14.837  1.00  0.00     0.019 A 
ENDBRANCH  22  28
ENDBRANCH  14  19
ENDBRANCH  12  14
ENDBRANCH  10  12
TORSDOF 4
ENDMDL
MODEL 5
REMARK VINA RESULT: -9.077189782      1.773      2.150
REMARK  4 active torsions:
REMARK  status: ('A' for Active; 'I' for Inactive)
REMARK       I    between atoms: C2_5  and  N3_6 
REMARK       I    between atoms: C2_5  and  N5_10 
REMARK    1  A    between atoms: N5_10  and  N6_12 
REMARK    2  A    between atoms: N6_12  and  C4_14 
REMARK    3  A    between atoms: C4_14  and  C6_19 
REMARK       I    between atoms: N9_21  and  C8_22 
REMARK    4  A    between atoms: C8_22  and  C9_24 
ROOT
HETATM    1  N1  UNL     1      60.902  37.197  15.194  1.00  0.00    -0.171 NA
HETATM    2  C1  UNL     1      61.147  36.920  14.077  1.00  0.00     0.196 C 
HETATM    3  N2  UNL     1      61.426  36.599  12.747  1.00  0.00    -0.124 N 
ATOM      4  H2  UNL     1      60.818  36.955  12.009  1.00  0.00     0.197 HD
HETATM    5  C2  UNL     1      62.430  35.865  12.436  1.00  0.00     0.715 C 
HETATM    6  N3  UNL     1      62.687  35.557  11.079  1.00  0.00    -0.124 N 
ATOM      7  H3  UNL     1      62.173  34.794  10.636  1.00  0.00     0.197 HD
HETATM    8  C3  UNL     1      63.637  36.278  10.319  1.00  0.00     0.196 C 
HETATM    9  N4  UNL     1      64.422  36.867   9.696  1.00  0.00    -0.171 NA
HETATM   10  N5  UNL     1      63.267  35.375  13.468  1.00  0.00    -0.129 N 
ATOM     11  H5  UNL     1      64.190  35.791  13.591  1.00  0.00     0.205 HD
ENDROOT
BRANCH  10  12
HETATM   12  N6  UNL     1      62.874  34.342  14.326  1.00  0.00    -0.270 N 
ATOM     13  H6  UNL     1      62.834  34.521  15.330  1.00  0.00     0.189 HD
BRANCH  12  14
HETATM   14  C4  UNL     1      62.533  33.063  13.848  1.00  0.00     0.146 C 
HETATM   15  N7  UNL     1      61.322  32.658  13.892  1.00  0.00    -0.277 N 
HETATM   16  C5  UNL     1      60.266  33.422  14.399  1.00  0.00     0.183 C 
ATOM     17  H7  UNL     1      61.114  31.725  13.536  1.00  0.00     0.179 HD
HETATM   18  N8  UNL     1      59.378  34.065  14.803  1.00  0.00    -0.172 NA
BRANCH  14  19
HETATM   19  C6  UNL     1      63.559  32.191  13.303  1.00  0.00     0.097 A 
HETATM   20  C7  UNL     1      63.611  30.822  13.442  1.00  0.00     0.141 A 
HETATM   21  N9  UNL     1      64.714  30.323  12.799  1.00  0.00    -0.227 N 
HETATM   22  C8  UNL     1      65.074  28.951  12.766  1.00  0.00     0.276 C 
HETATM   23  N10 UNL     1      65.312  31.375  12.284  1.00  0.00    -0.256 N 
HETATM   24  O1  UNL     1      64.383  28.077  13.363  1.00  0.00    -0.265 OA
HETATM   25  C15 UNL     1      64.666  32.519  12.554  1.00  0.00     0.275 A 
ATOM     26  H10 UNL     1      66.173  31.327  11.740  1.00  0.00     0.191 HD
HETATM   27  O2  UNL     1      64.977  33.698  12.207  1.00  0.00    -0.266 OA
BRANCH  22  28
HETATM   28  C9  UNL     1      66.242  28.490  12.054  1.00  0.00     0.034 A 
HETATM   29  C10 UNL     1      66.520  28.786  10.740  1.00  0.00     0.019 A 
HETATM   30  C11 UNL     1      67.678  28.317  10.128  1.00  0.00     0.025 A 
HETATM   31  C12 UNL     1      68.588  27.548  10.797  1.00  0.00     0.034 A 
HETATM   32 CL1  UNL     1      70.064  26.933  10.072  1.00  0.00    -0.084 Cl
HETATM   33  C13 UNL     1      68.326  27.241  12.117  1.00  0.00     0.025 A 
HETATM   34  C14 UNL     1      67.191  27.701  12.712  1.00  0.00     0.019 A 
ENDBRANCH  22  28
ENDBRANCH  14  19
ENDBRANCH  12  14
ENDBRANCH  10  12
TORSDOF 4
ENDMDL
