MODEL 1
REMARK VINA RESULT: -6.321402943      0.000      0.000
REMARK  8 active torsions:
REMARK  status: ('A' for Active; 'I' for Inactive)
REMARK    1  A    between atoms: O1_2  and  C2_3 
REMARK    2  A    between atoms: C2_3  and  O2_4 
REMARK    3  A    between atoms: C2_3  and  C3_6 
REMARK    4  A    between atoms: C5_9  and  S1_10 
REMARK    5  A    between atoms: S1_10  and  C6_11 
REMARK    6  A    between atoms: C6_11  and  C7_12 
REMARK    7  A    between atoms: C8_13  and  C9_14 
REMARK    8  A    between atoms: C10_17  and  O6_18 
ROOT
HETATM    1  C3  UNL     1      -3.732   1.387  10.541  1.00  0.00     0.067 C 
HETATM    2  C4  UNL     1      -2.900   2.544  10.987  1.00  0.00     0.178 C 
HETATM    3  O3  UNL     1      -2.802   2.599  12.384  1.00  0.00    -0.372 OA
HETATM    4  C5  UNL     1      -4.067   2.906  12.867  1.00  0.00     0.211 C 
HETATM    5  C10 UNL     1      -4.925   1.668  12.745  1.00  0.00     0.157 C 
HETATM    6  C11 UNL     1      -5.031   1.287  11.304  1.00  0.00     0.047 C 
ENDROOT
BRANCH   4   7
HETATM    7  S1  UNL     1      -3.998   3.507  14.578  1.00  0.00    -0.131 SA
BRANCH   7   8
HETATM    8  C6  UNL     1      -5.630   4.017  15.157  1.00  0.00     0.104 C 
BRANCH   8   9
HETATM    9  C7  UNL     1      -6.274   2.898  15.898  1.00  0.00    -0.010 C 
HETATM   10  C8  UNL     1      -5.532   1.960  16.446  1.00  0.00     0.081 C 
BRANCH  10  11
HETATM   11  C9  UNL     1      -6.150   0.852  17.181  1.00  0.00     0.198 C 
HETATM   12  O4  UNL     1      -5.456   0.134  17.944  1.00  0.00    -0.645 OA
HETATM   13  O5  UNL     1      -7.501   0.567  17.052  1.00  0.00    -0.645 OA
ENDBRANCH  10  11
ENDBRANCH   8   9
ENDBRANCH   7   8
ENDBRANCH   4   7
BRANCH   5  14
HETATM   14  O6  UNL     1      -4.415   0.637  13.546  1.00  0.00    -0.392 OA
ATOM     15  H6  UNL     1      -4.468   0.872  14.464  1.00  0.00     0.210 HD
ENDBRANCH   5  14
BRANCH   1  16
HETATM   16  C2  UNL     1      -2.977   0.096  10.774  1.00  0.00     0.262 C 
BRANCH  16  17
HETATM   17  O1  UNL     1      -3.745  -0.870  11.407  1.00  0.00    -0.366 OA
HETATM   18  C1  UNL     1      -3.055  -2.075  11.358  1.00  0.00     0.204 C 
ENDBRANCH  16  17
BRANCH  16  19
HETATM   19  O2  UNL     1      -1.920   0.368  11.664  1.00  0.00    -0.371 OA
ATOM     20  H2  UNL     1      -1.184  -0.135  11.337  1.00  0.00     0.212 HD
ENDBRANCH  16  19
ENDBRANCH   1  16
TORSDOF 8
ENDMDL
MODEL 2
REMARK VINA RESULT: -6.194631327      1.329      1.820
REMARK  8 active torsions:
REMARK  status: ('A' for Active; 'I' for Inactive)
REMARK    1  A    between atoms: O1_2  and  C2_3 
REMARK    2  A    between atoms: C2_3  and  O2_4 
REMARK    3  A    between atoms: C2_3  and  C3_6 
REMARK    4  A    between atoms: C5_9  and  S1_10 
REMARK    5  A    between atoms: S1_10  and  C6_11 
REMARK    6  A    between atoms: C6_11  and  C7_12 
REMARK    7  A    between atoms: C8_13  and  C9_14 
REMARK    8  A    between atoms: C10_17  and  O6_18 
ROOT
HETATM    1  C3  UNL     1      -3.016  -0.233  10.597  1.00  0.00     0.067 C 
HETATM    2  C4  UNL     1      -2.043   0.814  11.030  1.00  0.00     0.178 C 
HETATM    3  O3  UNL     1      -2.573   1.621  12.047  1.00  0.00    -0.372 OA
HETATM    4  C5  UNL     1      -3.608   2.355  11.483  1.00  0.00     0.211 C 
HETATM    5  C10 UNL     1      -4.785   1.427  11.289  1.00  0.00     0.157 C 
HETATM    6  C11 UNL     1      -4.394   0.333  10.349  1.00  0.00     0.047 C 
ENDROOT
BRANCH   4   7
HETATM    7  S1  UNL     1      -4.046   3.785  12.511  1.00  0.00    -0.131 SA
BRANCH   7   8
HETATM    8  C6  UNL     1      -3.381   3.616  14.181  1.00  0.00     0.104 C 
BRANCH   8   9
HETATM    9  C7  UNL     1      -4.437   3.099  15.094  1.00  0.00    -0.010 C 
HETATM   10  C8  UNL     1      -4.182   2.076  15.882  1.00  0.00     0.081 C 
BRANCH  10  11
HETATM   11  C9  UNL     1      -5.209   1.555  16.788  1.00  0.00     0.198 C 
HETATM   12  O4  UNL     1      -5.011   0.489  17.424  1.00  0.00    -0.645 OA
HETATM   13  O5  UNL     1      -6.415   2.216  16.965  1.00  0.00    -0.645 OA
ENDBRANCH  10  11
ENDBRANCH   8   9
ENDBRANCH   7   8
ENDBRANCH   4   7
BRANCH   5  14
HETATM   14  O6  UNL     1      -5.242   0.948  12.524  1.00  0.00    -0.392 OA
ATOM     15  H6  UNL     1      -4.518   0.609  13.037  1.00  0.00     0.210 HD
ENDBRANCH   5  14
BRANCH   1  16
HETATM   16  C2  UNL     1      -3.152  -1.281  11.681  1.00  0.00     0.262 C 
BRANCH  16  17
HETATM   17  O1  UNL     1      -2.343  -2.387  11.463  1.00  0.00    -0.366 OA
HETATM   18  C1  UNL     1      -3.161  -3.502  11.323  1.00  0.00     0.204 C 
ENDBRANCH  16  17
BRANCH  16  19
HETATM   19  O2  UNL     1      -4.470  -1.774  11.643  1.00  0.00    -0.371 OA
ATOM     20  H2  UNL     1      -4.646  -2.079  12.526  1.00  0.00     0.212 HD
ENDBRANCH  16  19
ENDBRANCH   1  16
TORSDOF 8
ENDMDL
MODEL 3
REMARK VINA RESULT: -6.135849825      1.267      1.909
REMARK  8 active torsions:
REMARK  status: ('A' for Active; 'I' for Inactive)
REMARK    1  A    between atoms: O1_2  and  C2_3 
REMARK    2  A    between atoms: C2_3  and  O2_4 
REMARK    3  A    between atoms: C2_3  and  C3_6 
REMARK    4  A    between atoms: C5_9  and  S1_10 
REMARK    5  A    between atoms: S1_10  and  C6_11 
REMARK    6  A    between atoms: C6_11  and  C7_12 
REMARK    7  A    between atoms: C8_13  and  C9_14 
REMARK    8  A    between atoms: C10_17  and  O6_18 
ROOT
HETATM    1  C3  UNL     1      -3.269   0.465  11.858  1.00  0.00     0.067 C 
HETATM    2  C4  UNL     1      -3.949   0.572  13.183  1.00  0.00     0.178 C 
HETATM    3  O3  UNL     1      -5.007   1.492  13.146  1.00  0.00    -0.372 OA
HETATM    4  C5  UNL     1      -4.444   2.749  12.970  1.00  0.00     0.211 C 
HETATM    5  C10 UNL     1      -3.993   2.859  11.532  1.00  0.00     0.157 C 
HETATM    6  C11 UNL     1      -2.955   1.817  11.265  1.00  0.00     0.047 C 
ENDROOT
BRANCH   4   7
HETATM    7  S1  UNL     1      -5.612   4.067  13.408  1.00  0.00    -0.131 SA
BRANCH   7   8
HETATM    8  C6  UNL     1      -5.834   4.173  15.196  1.00  0.00     0.104 C 
BRANCH   8   9
HETATM    9  C7  UNL     1      -6.369   2.885  15.715  1.00  0.00    -0.010 C 
HETATM   10  C8  UNL     1      -5.632   2.141  16.512  1.00  0.00     0.081 C 
BRANCH  10  11
HETATM   11  C9  UNL     1      -6.142   0.870  17.034  1.00  0.00     0.198 C 
HETATM   12  O4  UNL     1      -7.274   0.450  16.683  1.00  0.00    -0.645 OA
HETATM   13  O5  UNL     1      -5.399   0.105  17.920  1.00  0.00    -0.645 OA
ENDBRANCH  10  11
ENDBRANCH   8   9
ENDBRANCH   7   8
ENDBRANCH   4   7
BRANCH   5  14
HETATM   14  O6  UNL     1      -5.090   2.771  10.665  1.00  0.00    -0.392 OA
ATOM     15  H6  UNL     1      -5.699   3.481  10.827  1.00  0.00     0.210 HD
ENDBRANCH   5  14
BRANCH   1  16
HETATM   16  C2  UNL     1      -4.171  -0.255  10.879  1.00  0.00     0.262 C 
BRANCH  16  17
HETATM   17  O1  UNL     1      -4.387  -1.582  11.223  1.00  0.00    -0.366 OA
HETATM   18  C1  UNL     1      -3.151  -2.208  11.334  1.00  0.00     0.204 C 
ENDBRANCH  16  17
BRANCH  16  19
HETATM   19  O2  UNL     1      -3.513  -0.299   9.635  1.00  0.00    -0.371 OA
ATOM     20  H2  UNL     1      -3.916   0.387   9.116  1.00  0.00     0.212 HD
ENDBRANCH  16  19
ENDBRANCH   1  16
TORSDOF 8
ENDMDL
MODEL 4
REMARK VINA RESULT: -6.038205387      3.021      4.481
REMARK  8 active torsions:
REMARK  status: ('A' for Active; 'I' for Inactive)
REMARK    1  A    between atoms: O1_2  and  C2_3 
REMARK    2  A    between atoms: C2_3  and  O2_4 
REMARK    3  A    between atoms: C2_3  and  C3_6 
REMARK    4  A    between atoms: C5_9  and  S1_10 
REMARK    5  A    between atoms: S1_10  and  C6_11 
REMARK    6  A    between atoms: C6_11  and  C7_12 
REMARK    7  A    between atoms: C8_13  and  C9_14 
REMARK    8  A    between atoms: C10_17  and  O6_18 
ROOT
HETATM    1  C3  UNL     1      -3.162   5.341  10.669  1.00  0.00     0.067 C 
HETATM    2  C4  UNL     1      -1.964   4.515  10.333  1.00  0.00     0.178 C 
HETATM    3  O3  UNL     1      -2.318   3.190  10.040  1.00  0.00    -0.372 OA
HETATM    4  C5  UNL     1      -2.780   2.624  11.221  1.00  0.00     0.211 C 
HETATM    5  C10 UNL     1      -4.159   3.176  11.493  1.00  0.00     0.157 C 
HETATM    6  C11 UNL     1      -4.068   4.658  11.665  1.00  0.00     0.047 C 
ENDROOT
BRANCH   4   7
HETATM    7  S1  UNL     1      -2.789   0.811  11.131  1.00  0.00    -0.131 SA
BRANCH   7   8
HETATM    8  C6  UNL     1      -4.366   0.138  11.694  1.00  0.00     0.104 C 
BRANCH   8   9
HETATM    9  C7  UNL     1      -4.289  -0.181  13.146  1.00  0.00    -0.010 C 
HETATM   10  C8  UNL     1      -4.354   0.787  14.036  1.00  0.00     0.081 C 
BRANCH  10  11
HETATM   11  C9  UNL     1      -4.281   0.491  15.470  1.00  0.00     0.198 C 
HETATM   12  O4  UNL     1      -3.522   1.159  16.216  1.00  0.00    -0.645 OA
HETATM   13  O5  UNL     1      -5.037  -0.524  16.035  1.00  0.00    -0.645 OA
ENDBRANCH  10  11
ENDBRANCH   8   9
ENDBRANCH   7   8
ENDBRANCH   4   7
BRANCH   5  14
HETATM   14  O6  UNL     1      -5.048   2.798  10.478  1.00  0.00    -0.392 OA
ATOM     15  H6  UNL     1      -5.887   3.230  10.593  1.00  0.00     0.210 HD
ENDBRANCH   5  14
BRANCH   1  16
HETATM   16  C2  UNL     1      -3.978   5.587   9.418  1.00  0.00     0.262 C 
BRANCH  16  17
HETATM   17  O1  UNL     1      -5.338   5.401   9.618  1.00  0.00    -0.366 OA
HETATM   18  C1  UNL     1      -5.999   6.552   9.205  1.00  0.00     0.204 C 
ENDBRANCH  16  17
BRANCH  16  19
HETATM   19  O2  UNL     1      -3.611   4.618   8.464  1.00  0.00    -0.371 OA
ATOM     20  H2  UNL     1      -3.668   5.061   7.626  1.00  0.00     0.212 HD
ENDBRANCH  16  19
ENDBRANCH   1  16
TORSDOF 8
ENDMDL
MODEL 5
REMARK VINA RESULT: -5.991159937      1.404      1.665
REMARK  8 active torsions:
REMARK  status: ('A' for Active; 'I' for Inactive)
REMARK    1  A    between atoms: O1_2  and  C2_3 
REMARK    2  A    between atoms: C2_3  and  O2_4 
REMARK    3  A    between atoms: C2_3  and  C3_6 
REMARK    4  A    between atoms: C5_9  and  S1_10 
REMARK    5  A    between atoms: S1_10  and  C6_11 
REMARK    6  A    between atoms: C6_11  and  C7_12 
REMARK    7  A    between atoms: C8_13  and  C9_14 
REMARK    8  A    between atoms: C10_17  and  O6_18 
ROOT
HETATM    1  C3  UNL     1      -2.184   3.490  10.654  1.00  0.00     0.067 C 
HETATM    2  C4  UNL     1      -1.488   4.172  11.786  1.00  0.00     0.178 C 
HETATM    3  O3  UNL     1      -1.960   3.720  13.027  1.00  0.00    -0.372 OA
HETATM    4  C5  UNL     1      -3.272   4.158  13.145  1.00  0.00     0.211 C 
HETATM    5  C10 UNL     1      -4.131   3.299  12.246  1.00  0.00     0.157 C 
HETATM    6  C11 UNL     1      -3.683   3.473  10.831  1.00  0.00     0.047 C 
ENDROOT
BRANCH   4   7
HETATM    7  S1  UNL     1      -3.840   4.101  14.868  1.00  0.00    -0.131 SA
BRANCH   7   8
HETATM    8  C6  UNL     1      -5.639   4.195  14.965  1.00  0.00     0.104 C 
BRANCH   8   9
HETATM    9  C7  UNL     1      -6.169   3.001  15.678  1.00  0.00    -0.010 C 
HETATM   10  C8  UNL     1      -5.342   2.075  16.114  1.00  0.00     0.081 C 
BRANCH  10  11
HETATM   11  C9  UNL     1      -5.846   0.893  16.820  1.00  0.00     0.198 C 
HETATM   12  O4  UNL     1      -5.109   0.278  17.631  1.00  0.00    -0.645 OA
HETATM   13  O5  UNL     1      -7.135   0.426  16.611  1.00  0.00    -0.645 OA
ENDBRANCH  10  11
ENDBRANCH   8   9
ENDBRANCH   7   8
ENDBRANCH   4   7
BRANCH   5  14
HETATM   14  O6  UNL     1      -4.101   1.963  12.668  1.00  0.00    -0.392 OA
ATOM     15  H6  UNL     1      -4.974   1.666  12.893  1.00  0.00     0.210 HD
ENDBRANCH   5  14
BRANCH   1  16
HETATM   16  C2  UNL     1      -1.727   2.050  10.569  1.00  0.00     0.262 C 
BRANCH  16  17
HETATM   17  O1  UNL     1      -2.782   1.159  10.430  1.00  0.00    -0.366 OA
HETATM   18  C1  UNL     1      -2.346  -0.097  10.837  1.00  0.00     0.204 C 
ENDBRANCH  16  17
BRANCH  16  19
HETATM   19  O2  UNL     1      -1.121   1.715  11.795  1.00  0.00    -0.371 OA
ATOM     20  H2  UNL     1      -0.355   2.274  11.853  1.00  0.00     0.212 HD
ENDBRANCH  16  19
ENDBRANCH   1  16
TORSDOF 8
ENDMDL
