MODEL 1
REMARK VINA RESULT: -8.414048194      0.000      0.000
REMARK  10 active torsions:
REMARK  status: ('A' for Active; 'I' for Inactive)
REMARK    1  A    between atoms: C2_2  and  C18_31 
REMARK    2  A    between atoms: N1_3  and  N2_5 
REMARK    3  A    between atoms: N2_5  and  C3_7 
REMARK    4  A    between atoms: C9_15  and  C10_16 
REMARK    5  A    between atoms: C13_22  and  C14_23 
REMARK    6  A    between atoms: C14_23  and  C17_26 
REMARK    7  A    between atoms: C17_26  and  O1_27 
REMARK    8  A    between atoms: C18_31  and  N5_34 
REMARK    9  A    between atoms: N5_34  and  C21_36 
REMARK   10  A    between atoms: C21_36  and  C23_38 
ROOT
HETATM    1  C3  UNL     1      15.478 -29.454 -59.081  1.00  0.00     0.697 A 
HETATM    2  N3  UNL     1      14.169 -29.233 -59.024  1.00  0.00    -0.190 N 
ATOM      3  H3  UNL     1      13.785 -28.874 -58.150  1.00  0.00     0.184 HD
HETATM    4  C4  UNL     1      13.294 -29.455 -60.068  1.00  0.00     0.061 A 
HETATM    5  C5  UNL     1      11.917 -29.065 -59.911  1.00  0.00    -0.008 A 
HETATM    6  C6  UNL     1      11.713 -27.860 -59.247  1.00  0.00     0.014 A 
HETATM    7  C7  UNL     1      10.447 -27.424 -58.942  1.00  0.00     0.002 A 
HETATM    8  C8  UNL     1       9.347 -28.170 -59.283  1.00  0.00     0.016 A 
HETATM    9  C9  UNL     1       9.569 -29.386 -59.943  1.00  0.00     0.048 A 
HETATM   10  C11 UNL     1      10.831 -29.842 -60.265  1.00  0.00     0.029 A 
HETATM   11  C12 UNL     1      13.875 -29.947 -61.214  1.00  0.00     0.057 A 
HETATM   12  C13 UNL     1      15.210 -30.174 -61.292  1.00  0.00     0.039 A 
HETATM   13  N4  UNL     1      16.016 -29.924 -60.207  1.00  0.00    -0.193 N 
ATOM     14  H4  UNL     1      17.019 -30.098 -60.263  1.00  0.00     0.184 HD
ENDROOT
BRANCH   1  15
HETATM   15  N2  UNL     1      16.249 -29.257 -58.060  1.00  0.00    -0.132 N 
ATOM     16  H2  UNL     1      16.679 -30.053 -57.589  1.00  0.00     0.205 HD
BRANCH  15  17
HETATM   17  N1  UNL     1      16.488 -28.010 -57.615  1.00  0.00    -0.292 N 
HETATM   18  C2  UNL     1      16.022 -27.295 -56.673  1.00  0.00     0.027 C 
HETATM   19  C1  UNL     1      16.644 -25.902 -56.565  1.00  0.00     0.068 C 
ATOM     20  H1  UNL     1      17.206 -27.529 -58.157  1.00  0.00     0.187 HD
BRANCH  18  21
HETATM   21  C18 UNL     1      15.029 -27.638 -55.650  1.00  0.00     0.058 C 
HETATM   22  C19 UNL     1      15.490 -26.899 -54.421  1.00  0.00     0.044 C 
HETATM   23  C20 UNL     1      14.947 -29.090 -55.348  1.00  0.00     0.044 C 
BRANCH  21  24
HETATM   24  N5  UNL     1      13.731 -27.225 -56.113  1.00  0.00    -0.401 N 
ATOM     25  H5  UNL     1      13.215 -27.834 -56.749  1.00  0.00     0.155 HD
BRANCH  24  26
HETATM   26  C21 UNL     1      13.157 -26.012 -55.717  1.00  0.00     0.107 C 
HETATM   27  C22 UNL     1      12.998 -25.132 -56.966  1.00  0.00     0.037 C 
BRANCH  26  28
HETATM   28  C23 UNL     1      11.707 -26.382 -55.413  1.00  0.00    -0.036 A 
HETATM   29  C24 UNL     1      10.908 -25.333 -55.043  1.00  0.00     0.009 A 
HETATM   30  C25 UNL     1       9.556 -25.567 -54.796  1.00  0.00     0.001 A 
HETATM   31  C26 UNL     1       9.022 -26.837 -54.920  1.00  0.00     0.000 A 
HETATM   32  C27 UNL     1       9.864 -27.874 -55.298  1.00  0.00     0.001 A 
HETATM   33  C28 UNL     1      11.165 -27.601 -55.521  1.00  0.00     0.009 A 
ENDBRANCH  26  28
ENDBRANCH  24  26
ENDBRANCH  21  24
ENDBRANCH  18  21
ENDBRANCH  15  17
ENDBRANCH   1  15
BRANCH  12  34
HETATM   34  C14 UNL     1      15.983 -30.569 -62.517  1.00  0.00     0.017 C 
HETATM   35  C15 UNL     1      17.017 -31.579 -61.924  1.00  0.00     0.023 C 
HETATM   36  C16 UNL     1      15.097 -31.288 -63.472  1.00  0.00     0.023 C 
BRANCH  34  37
HETATM   37  C17 UNL     1      16.695 -29.452 -63.176  1.00  0.00     0.179 C 
BRANCH  37  38
HETATM   38  O1  UNL     1      16.006 -28.255 -62.915  1.00  0.00    -0.400 OA
ATOM     39  H1  UNL     1      16.421 -27.550 -63.397  1.00  0.00     0.209 HD
ENDBRANCH  37  38
ENDBRANCH  34  37
ENDBRANCH  12  34
BRANCH   9  40
HETATM   40  C10 UNL     1       8.400 -30.231 -60.271  1.00  0.00     0.417 C 
HETATM   41  F1  UNL     1       7.590 -30.399 -59.159  1.00  0.00    -0.166 F 
HETATM   42  F2  UNL     1       8.923 -31.521 -60.575  1.00  0.00    -0.166 F 
HETATM   43  F3  UNL     1       7.683 -29.788 -61.339  1.00  0.00    -0.166 F 
ENDBRANCH   9  40
TORSDOF 10
ENDMDL
MODEL 2
REMARK VINA RESULT: -8.114894620      0.757      1.203
REMARK  10 active torsions:
REMARK  status: ('A' for Active; 'I' for Inactive)
REMARK    1  A    between atoms: C2_2  and  C18_31 
REMARK    2  A    between atoms: N1_3  and  N2_5 
REMARK    3  A    between atoms: N2_5  and  C3_7 
REMARK    4  A    between atoms: C9_15  and  C10_16 
REMARK    5  A    between atoms: C13_22  and  C14_23 
REMARK    6  A    between atoms: C14_23  and  C17_26 
REMARK    7  A    between atoms: C17_26  and  O1_27 
REMARK    8  A    between atoms: C18_31  and  N5_34 
REMARK    9  A    between atoms: N5_34  and  C21_36 
REMARK   10  A    between atoms: C21_36  and  C23_38 
ROOT
HETATM    1  C3  UNL     1      15.516 -29.380 -58.975  1.00  0.00     0.697 A 
HETATM    2  N3  UNL     1      14.203 -29.177 -58.945  1.00  0.00    -0.190 N 
ATOM      3  H3  UNL     1      13.795 -28.832 -58.075  1.00  0.00     0.184 HD
HETATM    4  C4  UNL     1      13.354 -29.402 -60.009  1.00  0.00     0.061 A 
HETATM    5  C5  UNL     1      11.968 -29.032 -59.879  1.00  0.00    -0.008 A 
HETATM    6  C6  UNL     1      11.734 -27.836 -59.207  1.00  0.00     0.014 A 
HETATM    7  C7  UNL     1      10.455 -27.421 -58.927  1.00  0.00     0.002 A 
HETATM    8  C8  UNL     1       9.374 -28.179 -59.299  1.00  0.00     0.016 A 
HETATM    9  C9  UNL     1       9.627 -29.385 -59.965  1.00  0.00     0.048 A 
HETATM   10  C11 UNL     1      10.902 -29.820 -60.264  1.00  0.00     0.029 A 
HETATM   11  C12 UNL     1      13.967 -29.874 -61.147  1.00  0.00     0.057 A 
HETATM   12  C13 UNL     1      15.306 -30.081 -61.198  1.00  0.00     0.039 A 
HETATM   13  N4  UNL     1      16.085 -29.831 -60.093  1.00  0.00    -0.193 N 
ATOM     14  H4  UNL     1      17.091 -29.990 -60.129  1.00  0.00     0.184 HD
ENDROOT
BRANCH   1  15
HETATM   15  N2  UNL     1      16.262 -29.182 -57.935  1.00  0.00    -0.132 N 
ATOM     16  H2  UNL     1      16.669 -29.979 -57.445  1.00  0.00     0.205 HD
BRANCH  15  17
HETATM   17  N1  UNL     1      16.506 -27.934 -57.497  1.00  0.00    -0.292 N 
HETATM   18  C2  UNL     1      16.044 -27.213 -56.557  1.00  0.00     0.027 C 
HETATM   19  C1  UNL     1      16.670 -25.821 -56.457  1.00  0.00     0.068 C 
ATOM     20  H1  UNL     1      17.224 -27.457 -58.042  1.00  0.00     0.187 HD
BRANCH  18  21
HETATM   21  C18 UNL     1      15.051 -27.548 -55.531  1.00  0.00     0.058 C 
HETATM   22  C19 UNL     1      15.486 -26.761 -54.323  1.00  0.00     0.044 C 
HETATM   23  C20 UNL     1      15.001 -28.992 -55.185  1.00  0.00     0.044 C 
BRANCH  21  24
HETATM   24  N5  UNL     1      13.747 -27.180 -56.015  1.00  0.00    -0.401 N 
ATOM     25  H5  UNL     1      13.248 -27.823 -56.630  1.00  0.00     0.155 HD
BRANCH  24  26
HETATM   26  C21 UNL     1      13.146 -25.966 -55.666  1.00  0.00     0.107 C 
HETATM   27  C22 UNL     1      13.000 -25.125 -56.943  1.00  0.00     0.037 C 
BRANCH  26  28
HETATM   28  C23 UNL     1      11.696 -26.351 -55.383  1.00  0.00    -0.036 A 
HETATM   29  C24 UNL     1      10.884 -25.314 -55.005  1.00  0.00     0.009 A 
HETATM   30  C25 UNL     1       9.532 -25.562 -54.775  1.00  0.00     0.001 A 
HETATM   31  C26 UNL     1       9.009 -26.834 -54.923  1.00  0.00     0.000 A 
HETATM   32  C27 UNL     1       9.863 -27.859 -55.308  1.00  0.00     0.001 A 
HETATM   33  C28 UNL     1      11.164 -27.573 -55.514  1.00  0.00     0.009 A 
ENDBRANCH  26  28
ENDBRANCH  24  26
ENDBRANCH  21  24
ENDBRANCH  18  21
ENDBRANCH  15  17
ENDBRANCH   1  15
BRANCH  12  34
HETATM   34  C14 UNL     1      16.111 -30.453 -62.409  1.00  0.00     0.017 C 
HETATM   35  C15 UNL     1      15.046 -31.194 -63.280  1.00  0.00     0.023 C 
HETATM   36  C16 UNL     1      16.554 -29.226 -63.126  1.00  0.00     0.023 C 
BRANCH  34  37
HETATM   37  C17 UNL     1      17.249 -31.357 -62.133  1.00  0.00     0.179 C 
BRANCH  37  38
HETATM   38  O1  UNL     1      16.796 -32.433 -61.349  1.00  0.00    -0.400 OA
ATOM     39  H1  UNL     1      16.314 -33.035 -61.903  1.00  0.00     0.209 HD
ENDBRANCH  37  38
ENDBRANCH  34  37
ENDBRANCH  12  34
BRANCH   9  40
HETATM   40  C10 UNL     1       8.477 -30.243 -60.327  1.00  0.00     0.417 C 
HETATM   41  F1  UNL     1       7.724 -29.656 -61.332  1.00  0.00    -0.166 F 
HETATM   42  F2  UNL     1       7.638 -30.276 -59.175  1.00  0.00    -0.166 F 
HETATM   43  F3  UNL     1       8.823 -31.518 -60.652  1.00  0.00    -0.166 F 
ENDBRANCH   9  40
TORSDOF 10
ENDMDL
MODEL 3
REMARK VINA RESULT: -7.696147512      1.791      2.333
REMARK  10 active torsions:
REMARK  status: ('A' for Active; 'I' for Inactive)
REMARK    1  A    between atoms: C2_2  and  C18_31 
REMARK    2  A    between atoms: N1_3  and  N2_5 
REMARK    3  A    between atoms: N2_5  and  C3_7 
REMARK    4  A    between atoms: C9_15  and  C10_16 
REMARK    5  A    between atoms: C13_22  and  C14_23 
REMARK    6  A    between atoms: C14_23  and  C17_26 
REMARK    7  A    between atoms: C17_26  and  O1_27 
REMARK    8  A    between atoms: C18_31  and  N5_34 
REMARK    9  A    between atoms: N5_34  and  C21_36 
REMARK   10  A    between atoms: C21_36  and  C23_38 
ROOT
HETATM    1  C3  UNL     1      15.692 -29.103 -58.309  1.00  0.00     0.697 A 
HETATM    2  N3  UNL     1      14.475 -28.749 -58.707  1.00  0.00    -0.190 N 
ATOM      3  H3  UNL     1      14.107 -27.858 -58.374  1.00  0.00     0.184 HD
HETATM    4  C4  UNL     1      13.675 -29.506 -59.539  1.00  0.00     0.061 A 
HETATM    5  C5  UNL     1      12.423 -28.952 -59.985  1.00  0.00    -0.008 A 
HETATM    6  C6  UNL     1      12.452 -27.598 -60.302  1.00  0.00     0.014 A 
HETATM    7  C7  UNL     1      11.303 -26.925 -60.642  1.00  0.00     0.002 A 
HETATM    8  C8  UNL     1      10.094 -27.573 -60.675  1.00  0.00     0.016 A 
HETATM    9  C9  UNL     1      10.081 -28.935 -60.344  1.00  0.00     0.048 A 
HETATM   10  C11 UNL     1      11.222 -29.633 -60.005  1.00  0.00     0.029 A 
HETATM   11  C12 UNL     1      14.227 -30.699 -59.943  1.00  0.00     0.057 A 
HETATM   12  C13 UNL     1      15.470 -31.074 -59.552  1.00  0.00     0.039 A 
HETATM   13  N4  UNL     1      16.206 -30.263 -58.722  1.00  0.00    -0.193 N 
ATOM     14  H4  UNL     1      17.139 -30.545 -58.424  1.00  0.00     0.184 HD
ENDROOT
BRANCH   1  15
HETATM   15  N2  UNL     1      16.388 -28.369 -57.501  1.00  0.00    -0.132 N 
ATOM     16  H2  UNL     1      16.850 -27.529 -57.851  1.00  0.00     0.205 HD
BRANCH  15  17
HETATM   17  N1  UNL     1      16.508 -28.705 -56.204  1.00  0.00    -0.292 N 
HETATM   18  C2  UNL     1      16.309 -28.099 -55.104  1.00  0.00     0.027 C 
HETATM   19  C1  UNL     1      16.589 -28.938 -53.857  1.00  0.00     0.068 C 
ATOM     20  H1  UNL     1      16.831 -29.663 -56.073  1.00  0.00     0.187 HD
BRANCH  18  21
HETATM   21  C18 UNL     1      15.798 -26.744 -54.868  1.00  0.00     0.058 C 
HETATM   22  C19 UNL     1      16.899 -25.841 -55.357  1.00  0.00     0.044 C 
HETATM   23  C20 UNL     1      15.513 -26.445 -53.441  1.00  0.00     0.044 C 
BRANCH  21  24
HETATM   24  N5  UNL     1      14.564 -26.587 -55.591  1.00  0.00    -0.401 N 
ATOM     25  H5  UNL     1      14.250 -27.338 -56.207  1.00  0.00     0.155 HD
BRANCH  24  26
HETATM   26  C21 UNL     1      13.782 -25.433 -55.473  1.00  0.00     0.107 C 
HETATM   27  C22 UNL     1      13.995 -24.584 -56.735  1.00  0.00     0.037 C 
BRANCH  26  28
HETATM   28  C23 UNL     1      12.357 -25.941 -55.680  1.00  0.00    -0.036 A 
HETATM   29  C24 UNL     1      12.205 -26.836 -56.706  1.00  0.00     0.009 A 
HETATM   30  C25 UNL     1      10.948 -27.393 -56.937  1.00  0.00     0.001 A 
HETATM   31  C26 UNL     1       9.865 -27.051 -56.148  1.00  0.00     0.000 A 
HETATM   32  C27 UNL     1      10.058 -26.140 -55.118  1.00  0.00     0.001 A 
HETATM   33  C28 UNL     1      11.290 -25.624 -54.935  1.00  0.00     0.009 A 
ENDBRANCH  26  28
ENDBRANCH  24  26
ENDBRANCH  21  24
ENDBRANCH  18  21
ENDBRANCH  15  17
ENDBRANCH   1  15
BRANCH  12  34
HETATM   34  C14 UNL     1      16.239 -32.272 -60.032  1.00  0.00     0.017 C 
HETATM   35  C15 UNL     1      15.193 -32.965 -60.963  1.00  0.00     0.023 C 
HETATM   36  C16 UNL     1      17.403 -31.837 -60.851  1.00  0.00     0.023 C 
BRANCH  34  37
HETATM   37  C17 UNL     1      16.651 -33.204 -58.959  1.00  0.00     0.179 C 
BRANCH  37  38
HETATM   38  O1  UNL     1      15.694 -33.166 -57.931  1.00  0.00    -0.400 OA
ATOM     39  H1  UNL     1      15.019 -33.809 -58.114  1.00  0.00     0.209 HD
ENDBRANCH  37  38
ENDBRANCH  34  37
ENDBRANCH  12  34
BRANCH   9  40
HETATM   40  C10 UNL     1       8.779 -29.639 -60.320  1.00  0.00     0.417 C 
HETATM   41  F1  UNL     1       8.209 -29.571 -59.059  1.00  0.00    -0.166 F 
HETATM   42  F2  UNL     1       9.075 -31.014 -60.544  1.00  0.00    -0.166 F 
HETATM   43  F3  UNL     1       7.909 -29.217 -61.277  1.00  0.00    -0.166 F 
ENDBRANCH   9  40
TORSDOF 10
ENDMDL
MODEL 4
REMARK VINA RESULT: -7.627084170      1.776      2.194
REMARK  10 active torsions:
REMARK  status: ('A' for Active; 'I' for Inactive)
REMARK    1  A    between atoms: C2_2  and  C18_31 
REMARK    2  A    between atoms: N1_3  and  N2_5 
REMARK    3  A    between atoms: N2_5  and  C3_7 
REMARK    4  A    between atoms: C9_15  and  C10_16 
REMARK    5  A    between atoms: C13_22  and  C14_23 
REMARK    6  A    between atoms: C14_23  and  C17_26 
REMARK    7  A    between atoms: C17_26  and  O1_27 
REMARK    8  A    between atoms: C18_31  and  N5_34 
REMARK    9  A    between atoms: N5_34  and  C21_36 
REMARK   10  A    between atoms: C21_36  and  C23_38 
ROOT
HETATM    1  C3  UNL     1      15.753 -29.303 -57.359  1.00  0.00     0.697 A 
HETATM    2  N3  UNL     1      14.570 -28.914 -57.821  1.00  0.00    -0.190 N 
ATOM      3  H3  UNL     1      14.093 -28.157 -57.331  1.00  0.00     0.184 HD
HETATM    4  C4  UNL     1      13.942 -29.466 -58.920  1.00  0.00     0.061 A 
HETATM    5  C5  UNL     1      12.714 -28.874 -59.384  1.00  0.00    -0.008 A 
HETATM    6  C6  UNL     1      12.673 -27.483 -59.344  1.00  0.00     0.014 A 
HETATM    7  C7  UNL     1      11.525 -26.800 -59.662  1.00  0.00     0.002 A 
HETATM    8  C8  UNL     1      10.385 -27.472 -60.024  1.00  0.00     0.016 A 
HETATM    9  C9  UNL     1      10.440 -28.872 -60.050  1.00  0.00     0.048 A 
HETATM   10  C11 UNL     1      11.583 -29.581 -59.741  1.00  0.00     0.029 A 
HETATM   11  C12 UNL     1      14.634 -30.487 -59.528  1.00  0.00     0.057 A 
HETATM   12  C13 UNL     1      15.845 -30.893 -59.074  1.00  0.00     0.039 A 
HETATM   13  N4  UNL     1      16.406 -30.291 -57.973  1.00  0.00    -0.193 N 
ATOM     14  H4  UNL     1      17.314 -30.598 -57.627  1.00  0.00     0.184 HD
ENDROOT
BRANCH   1  15
HETATM   15  N2  UNL     1      16.283 -28.771 -56.303  1.00  0.00    -0.132 N 
ATOM     16  H2  UNL     1      16.333 -29.307 -55.437  1.00  0.00     0.205 HD
BRANCH  15  17
HETATM   17  N1  UNL     1      16.768 -27.517 -56.341  1.00  0.00    -0.292 N 
HETATM   18  C2  UNL     1      16.509 -26.442 -55.713  1.00  0.00     0.027 C 
HETATM   19  C1  UNL     1      17.368 -25.245 -56.122  1.00  0.00     0.068 C 
ATOM     20  H1  UNL     1      17.512 -27.402 -57.029  1.00  0.00     0.187 HD
BRANCH  18  21
HETATM   21  C18 UNL     1      15.557 -26.209 -54.621  1.00  0.00     0.058 C 
HETATM   22  C19 UNL     1      15.811 -24.784 -54.206  1.00  0.00     0.044 C 
HETATM   23  C20 UNL     1      15.747 -27.104 -53.451  1.00  0.00     0.044 C 
BRANCH  21  24
HETATM   24  N5  UNL     1      14.226 -26.434 -55.118  1.00  0.00    -0.401 N 
ATOM     25  H5  UNL     1      13.914 -27.391 -55.286  1.00  0.00     0.155 HD
BRANCH  24  26
HETATM   26  C21 UNL     1      13.347 -25.377 -55.375  1.00  0.00     0.107 C 
HETATM   27  C22 UNL     1      13.491 -24.990 -56.855  1.00  0.00     0.037 C 
BRANCH  26  28
HETATM   28  C23 UNL     1      11.972 -26.041 -55.363  1.00  0.00    -0.036 A 
HETATM   29  C24 UNL     1      10.955 -25.259 -54.883  1.00  0.00     0.009 A 
HETATM   30  C25 UNL     1       9.656 -25.764 -54.882  1.00  0.00     0.001 A 
HETATM   31  C26 UNL     1       9.388 -27.036 -55.355  1.00  0.00     0.000 A 
HETATM   32  C27 UNL     1      10.445 -27.798 -55.835  1.00  0.00     0.001 A 
HETATM   33  C28 UNL     1      11.685 -27.270 -55.812  1.00  0.00     0.009 A 
ENDBRANCH  26  28
ENDBRANCH  24  26
ENDBRANCH  21  24
ENDBRANCH  18  21
ENDBRANCH  15  17
ENDBRANCH   1  15
BRANCH  12  34
HETATM   34  C14 UNL     1      16.761 -31.888 -59.726  1.00  0.00     0.017 C 
HETATM   35  C15 UNL     1      16.340 -31.768 -61.226  1.00  0.00     0.023 C 
HETATM   36  C16 UNL     1      18.177 -31.450 -59.584  1.00  0.00     0.023 C 
BRANCH  34  37
HETATM   37  C17 UNL     1      16.578 -33.281 -59.264  1.00  0.00     0.179 C 
BRANCH  37  38
HETATM   38  O1  UNL     1      16.043 -33.264 -57.964  1.00  0.00    -0.400 OA
ATOM     39  H1  UNL     1      16.672 -32.860 -57.378  1.00  0.00     0.209 HD
ENDBRANCH  37  38
ENDBRANCH  34  37
ENDBRANCH  12  34
BRANCH   9  40
HETATM   40  C10 UNL     1       9.207 -29.617 -60.386  1.00  0.00     0.417 C 
HETATM   41  F1  UNL     1       8.294 -29.549 -59.345  1.00  0.00    -0.166 F 
HETATM   42  F2  UNL     1       9.591 -30.986 -60.481  1.00  0.00    -0.166 F 
HETATM   43  F3  UNL     1       8.639 -29.240 -61.563  1.00  0.00    -0.166 F 
ENDBRANCH   9  40
TORSDOF 10
ENDMDL
MODEL 5
REMARK VINA RESULT: -7.574488298      1.458      2.242
REMARK  10 active torsions:
REMARK  status: ('A' for Active; 'I' for Inactive)
REMARK    1  A    between atoms: C2_2  and  C18_31 
REMARK    2  A    between atoms: N1_3  and  N2_5 
REMARK    3  A    between atoms: N2_5  and  C3_7 
REMARK    4  A    between atoms: C9_15  and  C10_16 
REMARK    5  A    between atoms: C13_22  and  C14_23 
REMARK    6  A    between atoms: C14_23  and  C17_26 
REMARK    7  A    between atoms: C17_26  and  O1_27 
REMARK    8  A    between atoms: C18_31  and  N5_34 
REMARK    9  A    between atoms: N5_34  and  C21_36 
REMARK   10  A    between atoms: C21_36  and  C23_38 
ROOT
HETATM    1  C3  UNL     1      15.004 -28.156 -59.478  1.00  0.00     0.697 A 
HETATM    2  N3  UNL     1      13.681 -28.258 -59.528  1.00  0.00    -0.190 N 
ATOM      3  H3  UNL     1      13.137 -27.714 -58.857  1.00  0.00     0.184 HD
HETATM    4  C4  UNL     1      12.991 -29.048 -60.425  1.00  0.00     0.061 A 
HETATM    5  C5  UNL     1      11.553 -28.979 -60.445  1.00  0.00    -0.008 A 
HETATM    6  C6  UNL     1      11.018 -27.705 -60.283  1.00  0.00     0.014 A 
HETATM    7  C7  UNL     1       9.662 -27.514 -60.182  1.00  0.00     0.002 A 
HETATM    8  C8  UNL     1       8.798 -28.578 -60.235  1.00  0.00     0.016 A 
HETATM    9  C9  UNL     1       9.353 -29.855 -60.388  1.00  0.00     0.048 A 
HETATM   10  C11 UNL     1      10.711 -30.072 -60.499  1.00  0.00     0.029 A 
HETATM   11  C12 UNL     1      13.784 -29.760 -61.294  1.00  0.00     0.057 A 
HETATM   12  C13 UNL     1      15.137 -29.664 -61.263  1.00  0.00     0.039 A 
HETATM   13  N4  UNL     1      15.749 -28.852 -60.339  1.00  0.00    -0.193 N 
ATOM     14  H4  UNL     1      16.765 -28.782 -60.311  1.00  0.00     0.184 HD
ENDROOT
BRANCH   1  15
HETATM   15  N2  UNL     1      15.601 -27.421 -58.594  1.00  0.00    -0.132 N 
ATOM     16  H2  UNL     1      15.674 -27.747 -57.630  1.00  0.00     0.205 HD
BRANCH  15  17
HETATM   17  N1  UNL     1      16.127 -26.232 -58.938  1.00  0.00    -0.292 N 
HETATM   18  C2  UNL     1      16.761 -25.324 -58.312  1.00  0.00     0.027 C 
HETATM   19  C1  UNL     1      17.167 -24.126 -59.172  1.00  0.00     0.068 C 
ATOM     20  H1  UNL     1      15.986 -26.007 -59.922  1.00  0.00     0.187 HD
BRANCH  18  21
HETATM   21  C18 UNL     1      17.204 -25.293 -56.915  1.00  0.00     0.058 C 
HETATM   22  C19 UNL     1      18.216 -24.179 -56.870  1.00  0.00     0.044 C 
HETATM   23  C20 UNL     1      17.841 -26.554 -56.454  1.00  0.00     0.044 C 
BRANCH  21  24
HETATM   24  N5  UNL     1      16.059 -25.062 -56.074  1.00  0.00    -0.401 N 
ATOM     25  H5  UNL     1      15.559 -24.176 -56.151  1.00  0.00     0.155 HD
BRANCH  24  26
HETATM   26  C21 UNL     1      15.613 -26.019 -55.157  1.00  0.00     0.107 C 
HETATM   27  C22 UNL     1      15.375 -25.313 -53.813  1.00  0.00     0.037 C 
BRANCH  26  28
HETATM   28  C23 UNL     1      14.184 -26.312 -55.608  1.00  0.00    -0.036 A 
HETATM   29  C24 UNL     1      13.607 -25.334 -56.373  1.00  0.00     0.009 A 
HETATM   30  C25 UNL     1      12.322 -25.537 -56.874  1.00  0.00     0.001 A 
HETATM   31  C26 UNL     1      11.632 -26.706 -56.606  1.00  0.00     0.000 A 
HETATM   32  C27 UNL     1      12.251 -27.675 -55.828  1.00  0.00     0.001 A 
HETATM   33  C28 UNL     1      13.493 -27.432 -55.361  1.00  0.00     0.009 A 
ENDBRANCH  26  28
ENDBRANCH  24  26
ENDBRANCH  21  24
ENDBRANCH  18  21
ENDBRANCH  15  17
ENDBRANCH   1  15
BRANCH  12  34
HETATM   34  C14 UNL     1      16.103 -30.270 -62.240  1.00  0.00     0.017 C 
HETATM   35  C15 UNL     1      16.985 -31.156 -61.302  1.00  0.00     0.023 C 
HETATM   36  C16 UNL     1      15.379 -31.152 -63.196  1.00  0.00     0.023 C 
BRANCH  34  37
HETATM   37  C17 UNL     1      16.953 -29.289 -62.948  1.00  0.00     0.179 C 
BRANCH  37  38
HETATM   38  O1  UNL     1      16.221 -28.103 -63.133  1.00  0.00    -0.400 OA
ATOM     39  H1  UNL     1      16.740 -27.500 -63.652  1.00  0.00     0.209 HD
ENDBRANCH  37  38
ENDBRANCH  34  37
ENDBRANCH  12  34
BRANCH   9  40
HETATM   40  C10 UNL     1       8.442 -31.021 -60.393  1.00  0.00     0.417 C 
HETATM   41  F1  UNL     1       7.436 -30.854 -61.331  1.00  0.00    -0.166 F 
HETATM   42  F2  UNL     1       7.798 -31.019 -59.121  1.00  0.00    -0.166 F 
HETATM   43  F3  UNL     1       9.076 -32.214 -60.559  1.00  0.00    -0.166 F 
ENDBRANCH   9  40
TORSDOF 10
ENDMDL
