MODEL 1
REMARK VINA RESULT: -8.662004566      0.000      0.000
REMARK  11 active torsions:
REMARK  status: ('A' for Active; 'I' for Inactive)
REMARK    1  A    between atoms: C2_2  and  C3_3 
REMARK    2  A    between atoms: C3_3  and  N1_4 
REMARK    3  A    between atoms: N1_4  and  C4_6 
REMARK    4  A    between atoms: C5_9  and  N3_10 
REMARK    5  A    between atoms: N3_10  and  C6_12 
REMARK    6  A    between atoms: C6_12  and  C7_13 
REMARK    7  A    between atoms: C6_12  and  C9_15 
REMARK    8  A    between atoms: C12_18  and  C13_19 
REMARK    9  A    between atoms: C19_28  and  C20_29 
REMARK   10  A    between atoms: C21_32  and  C22_33 
REMARK   11  A    between atoms: C22_33  and  N5_34 
ROOT
HETATM    1  C4  UNL     1       9.015 -27.663 -56.593  1.00  0.00     0.680 A 
HETATM    2  N2  UNL     1      10.189 -27.301 -57.182  1.00  0.00    -0.176 N 
ATOM      3  H2  UNL     1      10.787 -26.630 -56.699  1.00  0.00     0.186 HD
HETATM    4  C5  UNL     1      10.599 -27.781 -58.365  1.00  0.00     0.130 A 
HETATM    5  C16 UNL     1       9.770 -28.702 -59.015  1.00  0.00     0.035 A 
HETATM    6  C17 UNL     1      10.132 -29.220 -60.242  1.00  0.00     0.018 A 
HETATM    7  C18 UNL     1       9.282 -30.132 -60.899  1.00  0.00     0.015 A 
HETATM    8  C19 UNL     1       8.103 -30.511 -60.336  1.00  0.00    -0.000 A 
HETATM    9  C26 UNL     1       7.767 -29.969 -59.095  1.00  0.00     0.045 A 
HETATM   10  C27 UNL     1       8.570 -29.074 -58.420  1.00  0.00     0.064 A 
HETATM   11  N6  UNL     1       8.223 -28.552 -57.234  1.00  0.00    -0.191 N 
ATOM     12  H6  UNL     1       7.340 -28.832 -56.806  1.00  0.00     0.184 HD
ENDROOT
BRANCH   4  13
HETATM   13  N3  UNL     1      11.633 -27.373 -59.012  1.00  0.00    -0.366 N 
ATOM     14  H3  UNL     1      11.478 -26.641 -59.707  1.00  0.00     0.161 HD
BRANCH  13  15
HETATM   15  C6  UNL     1      12.975 -27.836 -58.862  1.00  0.00     0.116 C 
BRANCH  15  16
HETATM   16  C7  UNL     1      13.838 -27.331 -60.010  1.00  0.00     0.025 C 
HETATM   17  C8  UNL     1      14.358 -28.525 -60.819  1.00  0.00     0.007 C 
ENDBRANCH  15  16
BRANCH  15  18
HETATM   18  C9  UNL     1      13.534 -27.249 -57.574  1.00  0.00    -0.035 A 
HETATM   19  C10 UNL     1      13.992 -28.089 -56.602  1.00  0.00     0.010 A 
HETATM   20  C11 UNL     1      14.489 -27.589 -55.395  1.00  0.00     0.017 A 
HETATM   21  C12 UNL     1      14.504 -26.240 -55.206  1.00  0.00     0.047 A 
HETATM   22  C14 UNL     1      14.047 -25.360 -56.164  1.00  0.00     0.017 A 
HETATM   23  C15 UNL     1      13.556 -25.894 -57.373  1.00  0.00     0.010 A 
BRANCH  21  24
HETATM   24  C13 UNL     1      15.013 -25.714 -53.912  1.00  0.00     0.417 C 
HETATM   25  F1  UNL     1      15.490 -26.716 -53.101  1.00  0.00    -0.166 F 
HETATM   26  F2  UNL     1      15.951 -24.721 -54.105  1.00  0.00    -0.166 F 
HETATM   27  F3  UNL     1      13.948 -25.122 -53.244  1.00  0.00    -0.166 F 
ENDBRANCH  21  24
ENDBRANCH  15  18
ENDBRANCH  13  15
ENDBRANCH   4  13
BRANCH   1  28
HETATM   28  N1  UNL     1       8.688 -27.165 -55.446  1.00  0.00    -0.223 N 
ATOM     29  H1  UNL     1       7.714 -27.098 -55.148  1.00  0.00     0.178 HD
BRANCH  28  30
HETATM   30  C3  UNL     1       9.784 -26.703 -54.598  1.00  0.00     0.164 C 
BRANCH  30  31
HETATM   31  C2  UNL     1       9.681 -25.271 -54.258  1.00  0.00    -0.017 C 
HETATM   32  C1  UNL     1       8.826 -24.490 -54.884  1.00  0.00     0.008 C 
ENDBRANCH  30  31
ENDBRANCH  28  30
ENDBRANCH   1  28
BRANCH   8  33
HETATM   33  C20 UNL     1       7.194 -31.465 -60.948  1.00  0.00     0.085 A 
HETATM   34  N4  UNL     1       7.163 -32.022 -62.123  1.00  0.00    -0.349 N 
HETATM   35  C21 UNL     1       6.262 -32.897 -62.442  1.00  0.00     0.050 A 
ATOM     36  H4  UNL     1       7.868 -31.763 -62.813  1.00  0.00     0.166 HD
HETATM   37  C25 UNL     1       5.327 -33.215 -61.476  1.00  0.00     0.082 A 
HETATM   38  S1  UNL     1       5.836 -32.210 -60.168  1.00  0.00    -0.081 SA
BRANCH  35  39
HETATM   39  C22 UNL     1       6.221 -33.600 -63.771  1.00  0.00     0.089 C 
BRANCH  39  40
HETATM   40  N5  UNL     1       5.170 -34.517 -63.952  1.00  0.00    -0.299 NA
HETATM   41  C23 UNL     1       5.466 -35.909 -63.932  1.00  0.00     0.115 C 
HETATM   42  C24 UNL     1       4.266 -34.219 -65.053  1.00  0.00     0.115 C 
ENDBRANCH  39  40
ENDBRANCH  35  39
ENDBRANCH   8  33
TORSDOF 11
ENDMDL
MODEL 2
REMARK VINA RESULT: -8.571766067      1.169      3.588
REMARK  11 active torsions:
REMARK  status: ('A' for Active; 'I' for Inactive)
REMARK    1  A    between atoms: C2_2  and  C3_3 
REMARK    2  A    between atoms: C3_3  and  N1_4 
REMARK    3  A    between atoms: N1_4  and  C4_6 
REMARK    4  A    between atoms: C5_9  and  N3_10 
REMARK    5  A    between atoms: N3_10  and  C6_12 
REMARK    6  A    between atoms: C6_12  and  C7_13 
REMARK    7  A    between atoms: C6_12  and  C9_15 
REMARK    8  A    between atoms: C12_18  and  C13_19 
REMARK    9  A    between atoms: C19_28  and  C20_29 
REMARK   10  A    between atoms: C21_32  and  C22_33 
REMARK   11  A    between atoms: C22_33  and  N5_34 
ROOT
HETATM    1  C4  UNL     1      11.428 -27.483 -60.139  1.00  0.00     0.680 A 
HETATM    2  N2  UNL     1      11.158 -27.163 -58.842  1.00  0.00    -0.176 N 
ATOM      3  H2  UNL     1      11.753 -26.475 -58.378  1.00  0.00     0.186 HD
HETATM    4  C5  UNL     1      10.152 -27.706 -58.143  1.00  0.00     0.130 A 
HETATM    5  C16 UNL     1       9.343 -28.646 -58.792  1.00  0.00     0.035 A 
HETATM    6  C17 UNL     1       8.300 -29.251 -58.120  1.00  0.00     0.018 A 
HETATM    7  C18 UNL     1       7.503 -30.211 -58.775  1.00  0.00     0.015 A 
HETATM    8  C19 UNL     1       7.750 -30.552 -60.069  1.00  0.00    -0.000 A 
HETATM    9  C26 UNL     1       8.811 -29.922 -60.719  1.00  0.00     0.045 A 
HETATM   10  C27 UNL     1       9.614 -28.978 -60.114  1.00  0.00     0.064 A 
HETATM   11  N6  UNL     1      10.640 -28.395 -60.752  1.00  0.00    -0.191 N 
ATOM     12  H6  UNL     1      10.831 -28.646 -61.723  1.00  0.00     0.184 HD
ENDROOT
BRANCH   4  13
HETATM   13  N3  UNL     1       9.940 -27.528 -56.887  1.00  0.00    -0.366 N 
ATOM     14  H3  UNL     1       9.436 -28.269 -56.399  1.00  0.00     0.161 HD
BRANCH  13  15
HETATM   15  C6  UNL     1      10.336 -26.402 -56.103  1.00  0.00     0.116 C 
BRANCH  15  16
HETATM   16  C7  UNL     1       9.502 -26.326 -54.831  1.00  0.00     0.025 C 
HETATM   17  C8  UNL     1       9.015 -24.887 -54.627  1.00  0.00     0.007 C 
ENDBRANCH  15  16
BRANCH  15  18
HETATM   18  C9  UNL     1      11.787 -26.604 -55.690  1.00  0.00    -0.035 A 
HETATM   19  C10 UNL     1      12.565 -25.514 -55.436  1.00  0.00     0.010 A 
HETATM   20  C11 UNL     1      13.910 -25.658 -55.079  1.00  0.00     0.017 A 
HETATM   21  C12 UNL     1      14.430 -26.914 -54.992  1.00  0.00     0.047 A 
HETATM   22  C14 UNL     1      13.674 -28.039 -55.244  1.00  0.00     0.017 A 
HETATM   23  C15 UNL     1      12.320 -27.862 -55.597  1.00  0.00     0.010 A 
BRANCH  21  24
HETATM   24  C13 UNL     1      15.865 -27.060 -54.633  1.00  0.00     0.417 C 
HETATM   25  F1  UNL     1      16.389 -28.249 -55.081  1.00  0.00    -0.166 F 
HETATM   26  F2  UNL     1      16.606 -25.978 -55.063  1.00  0.00    -0.166 F 
HETATM   27  F3  UNL     1      15.958 -27.072 -53.246  1.00  0.00    -0.166 F 
ENDBRANCH  21  24
ENDBRANCH  15  18
ENDBRANCH  13  15
ENDBRANCH   4  13
BRANCH   1  28
HETATM   28  N1  UNL     1      12.412 -26.912 -60.753  1.00  0.00    -0.223 N 
ATOM     29  H1  UNL     1      12.277 -26.076 -61.321  1.00  0.00     0.178 HD
BRANCH  28  30
HETATM   30  C3  UNL     1      13.727 -27.527 -60.592  1.00  0.00     0.164 C 
BRANCH  30  31
HETATM   31  C2  UNL     1      14.118 -27.683 -59.177  1.00  0.00    -0.017 C 
HETATM   32  C1  UNL     1      14.965 -26.846 -58.617  1.00  0.00     0.008 C 
ENDBRANCH  30  31
ENDBRANCH  28  30
ENDBRANCH   1  28
BRANCH   8  33
HETATM   33  C20 UNL     1       6.952 -31.514 -60.809  1.00  0.00     0.085 A 
HETATM   34  N4  UNL     1       7.034 -31.977 -62.022  1.00  0.00    -0.349 N 
HETATM   35  C21 UNL     1       6.220 -32.884 -62.465  1.00  0.00     0.050 A 
ATOM     36  H4  UNL     1       7.759 -31.617 -62.643  1.00  0.00     0.166 HD
HETATM   37  C25 UNL     1       5.254 -33.339 -61.590  1.00  0.00     0.082 A 
HETATM   38  S1  UNL     1       5.608 -32.410 -60.179  1.00  0.00    -0.081 SA
BRANCH  35  39
HETATM   39  C22 UNL     1       6.312 -33.479 -63.843  1.00  0.00     0.089 C 
BRANCH  39  40
HETATM   40  N5  UNL     1       5.355 -34.462 -64.155  1.00  0.00    -0.299 NA
HETATM   41  C23 UNL     1       5.787 -35.806 -64.331  1.00  0.00     0.115 C 
HETATM   42  C24 UNL     1       4.415 -34.103 -65.207  1.00  0.00     0.115 C 
ENDBRANCH  39  40
ENDBRANCH  35  39
ENDBRANCH   8  33
TORSDOF 11
ENDMDL
MODEL 3
REMARK VINA RESULT: -8.438510463      1.119      1.553
REMARK  11 active torsions:
REMARK  status: ('A' for Active; 'I' for Inactive)
REMARK    1  A    between atoms: C2_2  and  C3_3 
REMARK    2  A    between atoms: C3_3  and  N1_4 
REMARK    3  A    between atoms: N1_4  and  C4_6 
REMARK    4  A    between atoms: C5_9  and  N3_10 
REMARK    5  A    between atoms: N3_10  and  C6_12 
REMARK    6  A    between atoms: C6_12  and  C7_13 
REMARK    7  A    between atoms: C6_12  and  C9_15 
REMARK    8  A    between atoms: C12_18  and  C13_19 
REMARK    9  A    between atoms: C19_28  and  C20_29 
REMARK   10  A    between atoms: C21_32  and  C22_33 
REMARK   11  A    between atoms: C22_33  and  N5_34 
ROOT
HETATM    1  C4  UNL     1       9.024 -27.704 -56.602  1.00  0.00     0.680 A 
HETATM    2  N2  UNL     1      10.188 -27.327 -57.203  1.00  0.00    -0.176 N 
ATOM      3  H2  UNL     1      10.788 -26.657 -56.720  1.00  0.00     0.186 HD
HETATM    4  C5  UNL     1      10.585 -27.791 -58.396  1.00  0.00     0.130 A 
HETATM    5  C16 UNL     1       9.755 -28.711 -59.045  1.00  0.00     0.035 A 
HETATM    6  C17 UNL     1      10.103 -29.214 -60.281  1.00  0.00     0.018 A 
HETATM    7  C18 UNL     1       9.251 -30.126 -60.937  1.00  0.00     0.015 A 
HETATM    8  C19 UNL     1       8.082 -30.518 -60.363  1.00  0.00    -0.000 A 
HETATM    9  C26 UNL     1       7.759 -29.992 -59.112  1.00  0.00     0.045 A 
HETATM   10  C27 UNL     1       8.565 -29.099 -58.438  1.00  0.00     0.064 A 
HETATM   11  N6  UNL     1       8.230 -28.591 -57.242  1.00  0.00    -0.191 N 
ATOM     12  H6  UNL     1       7.355 -28.882 -56.805  1.00  0.00     0.184 HD
ENDROOT
BRANCH   4  13
HETATM   13  N3  UNL     1      11.608 -27.369 -59.053  1.00  0.00    -0.366 N 
ATOM     14  H3  UNL     1      11.433 -26.658 -59.762  1.00  0.00     0.161 HD
BRANCH  13  15
HETATM   15  C6  UNL     1      12.962 -27.793 -58.893  1.00  0.00     0.116 C 
BRANCH  15  16
HETATM   16  C7  UNL     1      13.623 -27.967 -60.254  1.00  0.00     0.025 C 
HETATM   17  C8  UNL     1      13.836 -29.460 -60.530  1.00  0.00     0.007 C 
ENDBRANCH  15  16
BRANCH  15  18
HETATM   18  C9  UNL     1      13.714 -26.696 -58.154  1.00  0.00    -0.035 A 
HETATM   19  C10 UNL     1      15.027 -26.474 -58.447  1.00  0.00     0.010 A 
HETATM   20  C11 UNL     1      15.758 -25.491 -57.771  1.00  0.00     0.017 A 
HETATM   21  C12 UNL     1      15.131 -24.760 -56.808  1.00  0.00     0.047 A 
HETATM   22  C14 UNL     1      13.806 -24.958 -56.483  1.00  0.00     0.017 A 
HETATM   23  C15 UNL     1      13.093 -25.952 -57.185  1.00  0.00     0.010 A 
BRANCH  21  24
HETATM   24  C13 UNL     1      15.919 -23.732 -56.078  1.00  0.00     0.417 C 
HETATM   25  F1  UNL     1      15.501 -22.457 -56.374  1.00  0.00    -0.166 F 
HETATM   26  F2  UNL     1      15.920 -23.969 -54.719  1.00  0.00    -0.166 F 
HETATM   27  F3  UNL     1      17.241 -23.835 -56.493  1.00  0.00    -0.166 F 
ENDBRANCH  21  24
ENDBRANCH  15  18
ENDBRANCH  13  15
ENDBRANCH   4  13
BRANCH   1  28
HETATM   28  N1  UNL     1       8.709 -27.220 -55.445  1.00  0.00    -0.223 N 
ATOM     29  H1  UNL     1       7.742 -27.190 -55.122  1.00  0.00     0.178 HD
BRANCH  28  30
HETATM   30  C3  UNL     1       9.809 -26.719 -54.625  1.00  0.00     0.164 C 
BRANCH  30  31
HETATM   31  C2  UNL     1       9.627 -25.311 -54.221  1.00  0.00    -0.017 C 
HETATM   32  C1  UNL     1       8.846 -24.508 -54.911  1.00  0.00     0.008 C 
ENDBRANCH  30  31
ENDBRANCH  28  30
ENDBRANCH   1  28
BRANCH   8  33
HETATM   33  C20 UNL     1       7.172 -31.472 -60.972  1.00  0.00     0.085 A 
HETATM   34  N4  UNL     1       7.135 -32.026 -62.149  1.00  0.00    -0.349 N 
HETATM   35  C21 UNL     1       6.234 -32.902 -62.465  1.00  0.00     0.050 A 
ATOM     36  H4  UNL     1       7.835 -31.762 -62.843  1.00  0.00     0.166 HD
HETATM   37  C25 UNL     1       5.306 -33.225 -61.496  1.00  0.00     0.082 A 
HETATM   38  S1  UNL     1       5.821 -32.224 -60.187  1.00  0.00    -0.081 SA
BRANCH  35  39
HETATM   39  C22 UNL     1       6.186 -33.599 -63.797  1.00  0.00     0.089 C 
BRANCH  39  40
HETATM   40  N5  UNL     1       5.146 -34.530 -63.969  1.00  0.00    -0.299 NA
HETATM   41  C23 UNL     1       5.460 -35.918 -63.942  1.00  0.00     0.115 C 
HETATM   42  C24 UNL     1       4.235 -34.250 -65.069  1.00  0.00     0.115 C 
ENDBRANCH  39  40
ENDBRANCH  35  39
ENDBRANCH   8  33
TORSDOF 11
ENDMDL
MODEL 4
REMARK VINA RESULT: -8.354836165      1.403      3.675
REMARK  11 active torsions:
REMARK  status: ('A' for Active; 'I' for Inactive)
REMARK    1  A    between atoms: C2_2  and  C3_3 
REMARK    2  A    between atoms: C3_3  and  N1_4 
REMARK    3  A    between atoms: N1_4  and  C4_6 
REMARK    4  A    between atoms: C5_9  and  N3_10 
REMARK    5  A    between atoms: N3_10  and  C6_12 
REMARK    6  A    between atoms: C6_12  and  C7_13 
REMARK    7  A    between atoms: C6_12  and  C9_15 
REMARK    8  A    between atoms: C12_18  and  C13_19 
REMARK    9  A    between atoms: C19_28  and  C20_29 
REMARK   10  A    between atoms: C21_32  and  C22_33 
REMARK   11  A    between atoms: C22_33  and  N5_34 
ROOT
HETATM    1  C4  UNL     1      12.224 -27.471 -60.131  1.00  0.00     0.680 A 
HETATM    2  N2  UNL     1      12.030 -27.017 -58.861  1.00  0.00    -0.176 N 
ATOM      3  H2  UNL     1      12.713 -26.368 -58.469  1.00  0.00     0.186 HD
HETATM    4  C5  UNL     1      10.989 -27.380 -58.100  1.00  0.00     0.130 A 
HETATM    5  C16 UNL     1      10.059 -28.268 -58.650  1.00  0.00     0.035 A 
HETATM    6  C17 UNL     1       8.973 -28.690 -57.911  1.00  0.00     0.018 A 
HETATM    7  C18 UNL     1       8.052 -29.600 -58.466  1.00  0.00     0.015 A 
HETATM    8  C19 UNL     1       8.220 -30.072 -59.731  1.00  0.00    -0.000 A 
HETATM    9  C26 UNL     1       9.328 -29.626 -60.453  1.00  0.00     0.045 A 
HETATM   10  C27 UNL     1      10.251 -28.736 -59.945  1.00  0.00     0.064 A 
HETATM   11  N6  UNL     1      11.319 -28.331 -60.650  1.00  0.00    -0.191 N 
ATOM     12  H6  UNL     1      11.451 -28.680 -61.600  1.00  0.00     0.184 HD
ENDROOT
BRANCH   4  13
HETATM   13  N3  UNL     1      10.836 -27.077 -56.858  1.00  0.00    -0.366 N 
ATOM     14  H3  UNL     1      10.582 -27.839 -56.230  1.00  0.00     0.161 HD
BRANCH  13  15
HETATM   15  C6  UNL     1      10.984 -25.785 -56.269  1.00  0.00     0.116 C 
BRANCH  15  16
HETATM   16  C7  UNL     1      10.240 -25.724 -54.941  1.00  0.00     0.025 C 
HETATM   17  C8  UNL     1       8.793 -26.185 -55.146  1.00  0.00     0.007 C 
ENDBRANCH  15  16
BRANCH  15  18
HETATM   18  C9  UNL     1      12.462 -25.567 -55.979  1.00  0.00    -0.035 A 
HETATM   19  C10 UNL     1      13.051 -26.262 -54.965  1.00  0.00     0.010 A 
HETATM   20  C11 UNL     1      14.401 -26.071 -54.652  1.00  0.00     0.017 A 
HETATM   21  C12 UNL     1      15.118 -25.171 -55.380  1.00  0.00     0.047 A 
HETATM   22  C14 UNL     1      14.555 -24.448 -56.411  1.00  0.00     0.017 A 
HETATM   23  C15 UNL     1      13.193 -24.666 -56.706  1.00  0.00     0.010 A 
BRANCH  21  24
HETATM   24  C13 UNL     1      16.546 -24.956 -55.029  1.00  0.00     0.417 C 
HETATM   25  F1  UNL     1      17.280 -26.113 -55.127  1.00  0.00    -0.166 F 
HETATM   26  F2  UNL     1      17.100 -23.933 -55.772  1.00  0.00    -0.166 F 
HETATM   27  F3  UNL     1      16.601 -24.549 -53.702  1.00  0.00    -0.166 F 
ENDBRANCH  21  24
ENDBRANCH  15  18
ENDBRANCH  13  15
ENDBRANCH   4  13
BRANCH   1  28
HETATM   28  N1  UNL     1      13.248 -27.071 -60.810  1.00  0.00    -0.223 N 
ATOM     29  H1  UNL     1      13.180 -26.311 -61.487  1.00  0.00     0.178 HD
BRANCH  28  30
HETATM   30  C3  UNL     1      14.510 -27.763 -60.558  1.00  0.00     0.164 C 
BRANCH  30  31
HETATM   31  C2  UNL     1      15.439 -26.976 -59.724  1.00  0.00    -0.017 C 
HETATM   32  C1  UNL     1      15.620 -27.272 -58.455  1.00  0.00     0.008 C 
ENDBRANCH  30  31
ENDBRANCH  28  30
ENDBRANCH   1  28
BRANCH   8  33
HETATM   33  C20 UNL     1       7.296 -30.991 -60.372  1.00  0.00     0.085 A 
HETATM   34  N4  UNL     1       7.294 -31.566 -61.540  1.00  0.00    -0.349 N 
HETATM   35  C21 UNL     1       6.367 -32.402 -61.889  1.00  0.00     0.050 A 
ATOM     36  H4  UNL     1       8.043 -31.353 -62.199  1.00  0.00     0.166 HD
HETATM   37  C25 UNL     1       5.374 -32.658 -60.965  1.00  0.00     0.082 A 
HETATM   38  S1  UNL     1       5.868 -31.657 -59.648  1.00  0.00    -0.081 SA
BRANCH  35  39
HETATM   39  C22 UNL     1       6.355 -33.123 -63.209  1.00  0.00     0.089 C 
BRANCH  39  40
HETATM   40  N5  UNL     1       5.735 -34.386 -63.215  1.00  0.00    -0.299 NA
HETATM   41  C23 UNL     1       6.546 -35.545 -63.371  1.00  0.00     0.115 C 
HETATM   42  C24 UNL     1       4.552 -34.493 -64.056  1.00  0.00     0.115 C 
ENDBRANCH  39  40
ENDBRANCH  35  39
ENDBRANCH   8  33
TORSDOF 11
ENDMDL
MODEL 5
REMARK VINA RESULT: -8.041981254      5.911     10.499
REMARK  11 active torsions:
REMARK  status: ('A' for Active; 'I' for Inactive)
REMARK    1  A    between atoms: C2_2  and  C3_3 
REMARK    2  A    between atoms: C3_3  and  N1_4 
REMARK    3  A    between atoms: N1_4  and  C4_6 
REMARK    4  A    between atoms: C5_9  and  N3_10 
REMARK    5  A    between atoms: N3_10  and  C6_12 
REMARK    6  A    between atoms: C6_12  and  C7_13 
REMARK    7  A    between atoms: C6_12  and  C9_15 
REMARK    8  A    between atoms: C12_18  and  C13_19 
REMARK    9  A    between atoms: C19_28  and  C20_29 
REMARK   10  A    between atoms: C21_32  and  C22_33 
REMARK   11  A    between atoms: C22_33  and  N5_34 
ROOT
HETATM    1  C4  UNL     1      14.629 -27.279 -59.837  1.00  0.00     0.680 A 
HETATM    2  N2  UNL     1      14.531 -27.047 -58.498  1.00  0.00    -0.176 N 
ATOM      3  H2  UNL     1      13.793 -27.521 -57.977  1.00  0.00     0.186 HD
HETATM    4  C5  UNL     1      15.354 -26.226 -57.830  1.00  0.00     0.130 A 
HETATM    5  C16 UNL     1      16.363 -25.584 -58.557  1.00  0.00     0.035 A 
HETATM    6  C17 UNL     1      17.232 -24.717 -57.928  1.00  0.00     0.018 A 
HETATM    7  C18 UNL     1      18.232 -24.059 -58.670  1.00  0.00     0.015 A 
HETATM    8  C19 UNL     1      18.353 -24.270 -60.009  1.00  0.00    -0.000 A 
HETATM    9  C26 UNL     1      17.459 -25.153 -60.615  1.00  0.00     0.045 A 
HETATM   10  C27 UNL     1      16.467 -25.816 -59.924  1.00  0.00     0.064 A 
HETATM   11  N6  UNL     1      15.607 -26.650 -60.527  1.00  0.00    -0.191 N 
ATOM     12  H6  UNL     1      15.692 -26.813 -61.531  1.00  0.00     0.184 HD
ENDROOT
BRANCH   4  13
HETATM   13  N3  UNL     1      15.219 -25.882 -56.598  1.00  0.00    -0.366 N 
ATOM     14  H3  UNL     1      15.428 -24.911 -56.369  1.00  0.00     0.161 HD
BRANCH  13  15
HETATM   15  C6  UNL     1      14.807 -26.719 -55.516  1.00  0.00     0.116 C 
BRANCH  15  16
HETATM   16  C7  UNL     1      15.384 -26.205 -54.204  1.00  0.00     0.025 C 
HETATM   17  C8  UNL     1      16.114 -24.880 -54.453  1.00  0.00     0.007 C 
ENDBRANCH  15  16
BRANCH  15  18
HETATM   18  C9  UNL     1      13.290 -26.641 -55.413  1.00  0.00    -0.035 A 
HETATM   19  C10 UNL     1      12.560 -27.791 -55.467  1.00  0.00     0.010 A 
HETATM   20  C11 UNL     1      11.163 -27.759 -55.400  1.00  0.00     0.017 A 
HETATM   21  C12 UNL     1      10.544 -26.551 -55.284  1.00  0.00     0.047 A 
HETATM   22  C14 UNL     1      11.250 -25.368 -55.230  1.00  0.00     0.017 A 
HETATM   23  C15 UNL     1      12.657 -25.433 -55.294  1.00  0.00     0.010 A 
BRANCH  21  24
HETATM   24  C13 UNL     1       9.059 -26.520 -55.237  1.00  0.00     0.417 C 
HETATM   25  F1  UNL     1       8.495 -27.150 -56.320  1.00  0.00    -0.166 F 
HETATM   26  F2  UNL     1       8.581 -27.025 -54.045  1.00  0.00    -0.166 F 
HETATM   27  F3  UNL     1       8.658 -25.190 -55.286  1.00  0.00    -0.166 F 
ENDBRANCH  21  24
ENDBRANCH  15  18
ENDBRANCH  13  15
ENDBRANCH   4  13
BRANCH   1  28
HETATM   28  N1  UNL     1      13.804 -28.091 -60.414  1.00  0.00    -0.223 N 
ATOM     29  H1  UNL     1      14.083 -29.032 -60.691  1.00  0.00     0.178 HD
BRANCH  28  30
HETATM   30  C3  UNL     1      12.452 -27.591 -60.647  1.00  0.00     0.164 C 
BRANCH  30  31
HETATM   31  C2  UNL     1      11.452 -28.204 -59.751  1.00  0.00    -0.017 C 
HETATM   32  C1  UNL     1      10.729 -27.461 -58.940  1.00  0.00     0.008 C 
ENDBRANCH  30  31
ENDBRANCH  28  30
ENDBRANCH   1  28
BRANCH   8  33
HETATM   33  C20 UNL     1      19.377 -23.645 -60.829  1.00  0.00     0.085 A 
HETATM   34  N4  UNL     1      19.580 -23.617 -62.114  1.00  0.00    -0.349 N 
HETATM   35  C21 UNL     1      20.556 -22.943 -62.637  1.00  0.00     0.050 A 
ATOM     36  H4  UNL     1      18.955 -24.140 -62.726  1.00  0.00     0.166 HD
HETATM   37  C25 UNL     1      21.378 -22.253 -61.769  1.00  0.00     0.082 A 
HETATM   38  S1  UNL     1      20.662 -22.637 -60.246  1.00  0.00    -0.081 SA
BRANCH  35  39
HETATM   39  C22 UNL     1      20.796 -22.847 -64.119  1.00  0.00     0.089 C 
BRANCH  39  40
HETATM   40  N5  UNL     1      19.832 -23.459 -64.940  1.00  0.00    -0.299 NA
HETATM   41  C23 UNL     1      20.040 -24.805 -65.352  1.00  0.00     0.115 C 
HETATM   42  C24 UNL     1      19.380 -22.660 -66.070  1.00  0.00     0.115 C 
ENDBRANCH  39  40
ENDBRANCH  35  39
ENDBRANCH   8  33
TORSDOF 11
ENDMDL
