MODEL 1
REMARK VINA RESULT: -5.455905263      0.000      0.000
REMARK  6 active torsions:
REMARK  status: ('A' for Active; 'I' for Inactive)
REMARK    1  A    between atoms: N1_1  and  N2_4 
REMARK    2  A    between atoms: N2_4  and  N3_5 
REMARK    3  A    between atoms: N2_4  and  N4_8 
REMARK       I    between atoms: N4_8  and  C1_10 
REMARK       I    between atoms: C1_10  and  N6_12 
REMARK    4  A    between atoms: N6_12  and  N7_14 
REMARK    5  A    between atoms: N7_14  and  C2_16 
REMARK    6  A    between atoms: C2_16  and  C3_17 
ROOT
HETATM    1  N7  UNL     1      57.902 -54.936  -4.440  1.00  0.00    -0.306 N 
ATOM      2  H7  UNL     1      58.177 -55.734  -3.868  1.00  0.00     0.186 HD
ENDROOT
BRANCH   1   3
HETATM    3  N6  UNL     1      57.673 -53.824  -3.734  1.00  0.00    -0.273 N 
HETATM    4  C1  UNL     1      58.558 -52.993  -3.276  1.00  0.00     0.224 C 
HETATM    5  N4  UNL     1      58.036 -51.876  -2.546  1.00  0.00    -0.236 N 
HETATM    6  N5  UNL     1      59.946 -53.144  -3.465  1.00  0.00    -0.061 NA
ATOM      7  H4  UNL     1      58.017 -50.939  -2.949  1.00  0.00     0.193 HD
ATOM      8  H6  UNL     1      56.697 -53.606  -3.533  1.00  0.00     0.189 HD
BRANCH   5   9
HETATM    9  N2  UNL     1      57.558 -52.124  -1.264  1.00  0.00    -0.142 N 
BRANCH   9  10
HETATM   10  N1  UNL     1      57.899 -53.134  -0.611  1.00  0.00    -0.309 N 
ATOM     11  H12 UNL     1      57.790 -53.187   0.401  1.00  0.00     0.180 HD
ATOM     12  H11 UNL     1      58.300 -53.933  -1.102  1.00  0.00     0.180 HD
ENDBRANCH   9  10
BRANCH   9  13
HETATM   13  N3  UNL     1      56.668 -51.208  -0.694  1.00  0.00    -0.309 N 
ATOM     14  H32 UNL     1      56.969 -50.680   0.125  1.00  0.00     0.180 HD
ATOM     15  H31 UNL     1      55.741 -51.089  -1.105  1.00  0.00     0.180 HD
ENDBRANCH   9  13
ENDBRANCH   5   9
ENDBRANCH   1   3
BRANCH   1  16
HETATM   16  C2  UNL     1      57.848 -55.191  -5.654  1.00  0.00     0.155 C 
BRANCH  16  17
HETATM   17  C3  UNL     1      58.358 -54.415  -6.788  1.00  0.00     0.126 A 
HETATM   18  N8  UNL     1      57.480 -53.672  -7.531  1.00  0.00    -0.325 N 
HETATM   19  C4  UNL     1      57.809 -52.932  -8.572  1.00  0.00     0.140 A 
ATOM     20  H8  UNL     1      56.497 -53.692  -7.258  1.00  0.00     0.169 HD
HETATM   21  N9  UNL     1      57.147 -52.130  -9.446  1.00  0.00    -0.337 N 
HETATM   22  C6  UNL     1      59.128 -52.885  -8.965  1.00  0.00     0.146 A 
HETATM   23  C5  UNL     1      57.996 -51.605 -10.340  1.00  0.00     0.182 A 
ATOM     24  H9  UNL     1      56.143 -51.952  -9.425  1.00  0.00     0.168 HD
HETATM   25  N10 UNL     1      59.214 -52.074 -10.037  1.00  0.00    -0.345 N 
ATOM     26  H10 UNL     1      60.072 -51.852 -10.541  1.00  0.00     0.167 HD
HETATM   27  C7  UNL     1      60.038 -53.623  -8.236  1.00  0.00     0.277 A 
HETATM   28  O1  UNL     1      61.241 -53.597  -8.573  1.00  0.00    -0.265 OA
HETATM   29  N11 UNL     1      59.632 -54.371  -7.164  1.00  0.00    -0.306 N 
ATOM     30  H11 UNL     1      60.324 -54.909  -6.641  1.00  0.00     0.170 HD
ENDBRANCH  16  17
ENDBRANCH   1  16
TORSDOF 6
ENDMDL
MODEL 2
REMARK VINA RESULT: -5.185330716      1.340      2.168
REMARK  6 active torsions:
REMARK  status: ('A' for Active; 'I' for Inactive)
REMARK    1  A    between atoms: N1_1  and  N2_4 
REMARK    2  A    between atoms: N2_4  and  N3_5 
REMARK    3  A    between atoms: N2_4  and  N4_8 
REMARK       I    between atoms: N4_8  and  C1_10 
REMARK       I    between atoms: C1_10  and  N6_12 
REMARK    4  A    between atoms: N6_12  and  N7_14 
REMARK    5  A    between atoms: N7_14  and  C2_16 
REMARK    6  A    between atoms: C2_16  and  C3_17 
ROOT
HETATM    1  N7  UNL     1      57.514 -54.835  -4.347  1.00  0.00    -0.306 N 
ATOM      2  H7  UNL     1      57.755 -55.639  -3.767  1.00  0.00     0.186 HD
ENDROOT
BRANCH   1   3
HETATM    3  N6  UNL     1      57.432 -53.688  -3.664  1.00  0.00    -0.273 N 
HETATM    4  C1  UNL     1      58.417 -52.937  -3.277  1.00  0.00     0.224 C 
HETATM    5  N4  UNL     1      58.045 -51.755  -2.557  1.00  0.00    -0.236 N 
HETATM    6  N5  UNL     1      59.771 -53.230  -3.530  1.00  0.00    -0.061 NA
ATOM      7  H4  UNL     1      58.096 -50.832  -2.987  1.00  0.00     0.193 HD
ATOM      8  H6  UNL     1      56.494 -53.370  -3.422  1.00  0.00     0.189 HD
BRANCH   5   9
HETATM    9  N2  UNL     1      57.613 -51.922  -1.246  1.00  0.00    -0.142 N 
BRANCH   9  10
HETATM   10  N1  UNL     1      56.721 -51.205  -0.744  1.00  0.00    -0.309 N 
ATOM     11  H12 UNL     1      55.867 -51.598  -0.350  1.00  0.00     0.180 HD
ATOM     12  H11 UNL     1      56.846 -50.193  -0.725  1.00  0.00     0.180 HD
ENDBRANCH   9  10
BRANCH   9  13
HETATM   13  N3  UNL     1      58.200 -52.928  -0.471  1.00  0.00    -0.309 N 
ATOM     14  H32 UNL     1      57.619 -53.708  -0.163  1.00  0.00     0.180 HD
ATOM     15  H31 UNL     1      59.189 -52.861  -0.232  1.00  0.00     0.180 HD
ENDBRANCH   9  13
ENDBRANCH   5   9
ENDBRANCH   1   3
BRANCH   1  16
HETATM   16  C2  UNL     1      57.358 -55.117  -5.546  1.00  0.00     0.155 C 
BRANCH  16  17
HETATM   17  C3  UNL     1      57.982 -54.518  -6.728  1.00  0.00     0.126 A 
HETATM   18  N8  UNL     1      59.343 -54.375  -6.758  1.00  0.00    -0.325 N 
HETATM   19  C4  UNL     1      60.026 -53.853  -7.759  1.00  0.00     0.140 A 
ATOM     20  H8  UNL     1      59.869 -54.696  -5.945  1.00  0.00     0.169 HD
HETATM   21  N9  UNL     1      61.337 -53.608  -8.021  1.00  0.00    -0.337 N 
HETATM   22  C6  UNL     1      59.345 -53.410  -8.870  1.00  0.00     0.146 A 
HETATM   23  C5  UNL     1      61.478 -53.044  -9.228  1.00  0.00     0.182 A 
ATOM     24  H9  UNL     1      62.107 -53.824  -7.388  1.00  0.00     0.168 HD
HETATM   25  N10 UNL     1      60.248 -52.925  -9.745  1.00  0.00    -0.345 N 
ATOM     26  H10 UNL     1      60.029 -52.529 -10.659  1.00  0.00     0.167 HD
HETATM   27  C7  UNL     1      57.972 -53.541  -8.871  1.00  0.00     0.277 A 
HETATM   28  O1  UNL     1      57.331 -53.147  -9.869  1.00  0.00    -0.265 OA
HETATM   29  N11 UNL     1      57.321 -54.092  -7.800  1.00  0.00    -0.306 N 
ATOM     30  H11 UNL     1      56.305 -54.177  -7.825  1.00  0.00     0.170 HD
ENDBRANCH  16  17
ENDBRANCH   1  16
TORSDOF 6
ENDMDL
MODEL 3
REMARK VINA RESULT: -4.832687506      7.998     11.078
REMARK  6 active torsions:
REMARK  status: ('A' for Active; 'I' for Inactive)
REMARK    1  A    between atoms: N1_1  and  N2_4 
REMARK    2  A    between atoms: N2_4  and  N3_5 
REMARK    3  A    between atoms: N2_4  and  N4_8 
REMARK       I    between atoms: N4_8  and  C1_10 
REMARK       I    between atoms: C1_10  and  N6_12 
REMARK    4  A    between atoms: N6_12  and  N7_14 
REMARK    5  A    between atoms: N7_14  and  C2_16 
REMARK    6  A    between atoms: C2_16  and  C3_17 
ROOT
HETATM    1  N7  UNL     1      61.043 -46.099 -10.476  1.00  0.00    -0.306 N 
ATOM      2  H7  UNL     1      60.148 -45.904 -10.027  1.00  0.00     0.186 HD
ENDROOT
BRANCH   1   3
HETATM    3  N6  UNL     1      61.392 -47.389 -10.436  1.00  0.00    -0.273 N 
HETATM    4  C1  UNL     1      61.451 -48.213 -11.437  1.00  0.00     0.224 C 
HETATM    5  N4  UNL     1      61.859 -49.548 -11.114  1.00  0.00    -0.236 N 
HETATM    6  N5  UNL     1      61.144 -47.856 -12.765  1.00  0.00    -0.061 NA
ATOM      7  H4  UNL     1      62.788 -49.893 -11.351  1.00  0.00     0.193 HD
ATOM      8  H6  UNL     1      61.640 -47.765  -9.522  1.00  0.00     0.189 HD
BRANCH   5   9
HETATM    9  N2  UNL     1      60.931 -50.353 -10.461  1.00  0.00    -0.142 N 
BRANCH   9  10
HETATM   10  N1  UNL     1      61.224 -51.013  -9.441  1.00  0.00    -0.309 N 
ATOM     11  H12 UNL     1      61.123 -50.631  -8.501  1.00  0.00     0.180 HD
ATOM     12  H11 UNL     1      61.576 -51.964  -9.546  1.00  0.00     0.180 HD
ENDBRANCH   9  10
BRANCH   9  13
HETATM   13  N3  UNL     1      59.629 -50.420 -10.970  1.00  0.00    -0.309 N 
ATOM     14  H32 UNL     1      58.900 -49.870 -10.516  1.00  0.00     0.180 HD
ATOM     15  H31 UNL     1      59.438 -51.014 -11.777  1.00  0.00     0.180 HD
ENDBRANCH   9  13
ENDBRANCH   5   9
ENDBRANCH   1   3
BRANCH   1  16
HETATM   16  C2  UNL     1      61.589 -45.090 -10.952  1.00  0.00     0.155 C 
BRANCH  16  17
HETATM   17  C3  UNL     1      61.160 -44.241 -12.065  1.00  0.00     0.126 A 
HETATM   18  N8  UNL     1      61.098 -44.779 -13.323  1.00  0.00    -0.325 N 
HETATM   19  C4  UNL     1      60.728 -44.125 -14.407  1.00  0.00     0.140 A 
ATOM     20  H8  UNL     1      61.357 -45.760 -13.430  1.00  0.00     0.169 HD
HETATM   21  N9  UNL     1      60.588 -44.423 -15.725  1.00  0.00    -0.337 N 
HETATM   22  C6  UNL     1      60.373 -42.799 -14.296  1.00  0.00     0.146 A 
HETATM   23  C5  UNL     1      60.169 -43.350 -16.409  1.00  0.00     0.182 A 
ATOM     24  H9  UNL     1      60.776 -45.337 -16.137  1.00  0.00     0.168 HD
HETATM   25  N10 UNL     1      60.038 -42.354 -15.522  1.00  0.00    -0.345 N 
ATOM     26  H10 UNL     1      59.733 -41.406 -15.743  1.00  0.00     0.167 HD
HETATM   27  C7  UNL     1      60.425 -42.228 -13.041  1.00  0.00     0.277 A 
HETATM   28  O1  UNL     1      60.107 -41.026 -12.914  1.00  0.00    -0.265 OA
HETATM   29  N11 UNL     1      60.817 -42.962 -11.954  1.00  0.00    -0.306 N 
ATOM     30  H11 UNL     1      60.848 -42.516 -11.037  1.00  0.00     0.170 HD
ENDBRANCH  16  17
ENDBRANCH   1  16
TORSDOF 6
ENDMDL
MODEL 4
REMARK VINA RESULT: -4.795169026      8.707     11.174
REMARK  6 active torsions:
REMARK  status: ('A' for Active; 'I' for Inactive)
REMARK    1  A    between atoms: N1_1  and  N2_4 
REMARK    2  A    between atoms: N2_4  and  N3_5 
REMARK    3  A    between atoms: N2_4  and  N4_8 
REMARK       I    between atoms: N4_8  and  C1_10 
REMARK       I    between atoms: C1_10  and  N6_12 
REMARK    4  A    between atoms: N6_12  and  N7_14 
REMARK    5  A    between atoms: N7_14  and  C2_16 
REMARK    6  A    between atoms: C2_16  and  C3_17 
ROOT
HETATM    1  N7  UNL     1      61.972 -44.134 -11.117  1.00  0.00    -0.306 N 
ATOM      2  H7  UNL     1      62.245 -43.392 -10.474  1.00  0.00     0.186 HD
ENDROOT
BRANCH   1   3
HETATM    3  N6  UNL     1      61.375 -45.169 -10.516  1.00  0.00    -0.273 N 
HETATM    4  C1  UNL     1      61.214 -45.345  -9.241  1.00  0.00     0.224 C 
HETATM    5  N4  UNL     1      60.535 -46.549  -8.865  1.00  0.00    -0.236 N 
HETATM    6  N5  UNL     1      61.660 -44.435  -8.262  1.00  0.00    -0.061 NA
ATOM      7  H4  UNL     1      59.571 -46.536  -8.533  1.00  0.00     0.193 HD
ATOM      8  H6  UNL     1      61.007 -45.899 -11.126  1.00  0.00     0.189 HD
BRANCH   5   9
HETATM    9  N2  UNL     1      61.248 -47.738  -8.972  1.00  0.00    -0.142 N 
BRANCH   9  10
HETATM   10  N1  UNL     1      60.787 -48.739  -9.562  1.00  0.00    -0.309 N 
ATOM     11  H12 UNL     1      61.369 -49.338 -10.148  1.00  0.00     0.180 HD
ATOM     12  H11 UNL     1      59.799 -48.969  -9.458  1.00  0.00     0.180 HD
ENDBRANCH   9  10
BRANCH   9  13
HETATM   13  N3  UNL     1      62.522 -47.808  -8.399  1.00  0.00    -0.309 N 
ATOM     14  H32 UNL     1      63.126 -48.591  -8.645  1.00  0.00     0.180 HD
ATOM     15  H31 UNL     1      62.818 -47.078  -7.749  1.00  0.00     0.180 HD
ENDBRANCH   9  13
ENDBRANCH   5   9
ENDBRANCH   1   3
BRANCH   1  16
HETATM   16  C2  UNL     1      62.260 -43.897 -12.301  1.00  0.00     0.155 C 
BRANCH  16  17
HETATM   17  C3  UNL     1      61.424 -44.009 -13.499  1.00  0.00     0.126 A 
HETATM   18  N8  UNL     1      61.179 -45.250 -14.023  1.00  0.00    -0.325 N 
HETATM   19  C4  UNL     1      60.446 -45.486 -15.093  1.00  0.00     0.140 A 
ATOM     20  H8  UNL     1      61.595 -46.052 -13.549  1.00  0.00     0.169 HD
HETATM   21  N9  UNL     1      60.065 -46.589 -15.789  1.00  0.00    -0.337 N 
HETATM   22  C6  UNL     1      59.871 -44.424 -15.755  1.00  0.00     0.146 A 
HETATM   23  C5  UNL     1      59.294 -46.247 -16.830  1.00  0.00     0.182 A 
ATOM     24  H9  UNL     1      60.329 -47.546 -15.553  1.00  0.00     0.168 HD
HETATM   25  N10 UNL     1      59.179 -44.912 -16.802  1.00  0.00    -0.345 N 
ATOM     26  H10 UNL     1      58.650 -44.353 -17.471  1.00  0.00     0.167 HD
HETATM   27  C7  UNL     1      60.099 -43.160 -15.251  1.00  0.00     0.277 A 
HETATM   28  O1  UNL     1      59.588 -42.179 -15.833  1.00  0.00    -0.265 OA
HETATM   29  N11 UNL     1      60.871 -42.981 -14.135  1.00  0.00    -0.306 N 
ATOM     30  H11 UNL     1      61.025 -42.036 -13.782  1.00  0.00     0.170 HD
ENDBRANCH  16  17
ENDBRANCH   1  16
TORSDOF 6
ENDMDL
MODEL 5
REMARK VINA RESULT: -4.707615785      5.701      8.530
REMARK  6 active torsions:
REMARK  status: ('A' for Active; 'I' for Inactive)
REMARK    1  A    between atoms: N1_1  and  N2_4 
REMARK    2  A    between atoms: N2_4  and  N3_5 
REMARK    3  A    between atoms: N2_4  and  N4_8 
REMARK       I    between atoms: N4_8  and  C1_10 
REMARK       I    between atoms: C1_10  and  N6_12 
REMARK    4  A    between atoms: N6_12  and  N7_14 
REMARK    5  A    between atoms: N7_14  and  C2_16 
REMARK    6  A    between atoms: C2_16  and  C3_17 
ROOT
HETATM    1  N7  UNL     1      61.602 -49.515  -9.226  1.00  0.00    -0.306 N 
ATOM      2  H7  UNL     1      62.566 -49.783  -9.426  1.00  0.00     0.186 HD
ENDROOT
BRANCH   1   3
HETATM    3  N6  UNL     1      60.728 -50.517  -9.369  1.00  0.00    -0.273 N 
HETATM    4  C1  UNL     1      60.144 -50.893 -10.465  1.00  0.00     0.224 C 
HETATM    5  N4  UNL     1      59.246 -52.002 -10.335  1.00  0.00    -0.236 N 
HETATM    6  N5  UNL     1      60.354 -50.280 -11.715  1.00  0.00    -0.061 NA
ATOM      7  H4  UNL     1      59.494 -52.931 -10.675  1.00  0.00     0.193 HD
ATOM      8  H6  UNL     1      60.495 -51.041  -8.525  1.00  0.00     0.189 HD
BRANCH   5   9
HETATM    9  N2  UNL     1      58.019 -51.757  -9.727  1.00  0.00    -0.142 N 
BRANCH   9  10
HETATM   10  N1  UNL     1      57.376 -50.705  -9.929  1.00  0.00    -0.309 N 
ATOM     11  H12 UNL     1      56.375 -50.712 -10.125  1.00  0.00     0.180 HD
ATOM     12  H11 UNL     1      57.861 -49.809  -9.899  1.00  0.00     0.180 HD
ENDBRANCH   9  10
BRANCH   9  13
HETATM   13  N3  UNL     1      57.497 -52.725  -8.862  1.00  0.00    -0.309 N 
ATOM     14  H32 UNL     1      57.775 -52.704  -7.881  1.00  0.00     0.180 HD
ATOM     15  H31 UNL     1      56.853 -53.427  -9.228  1.00  0.00     0.180 HD
ENDBRANCH   9  13
ENDBRANCH   5   9
ENDBRANCH   1   3
BRANCH   1  16
HETATM   16  C2  UNL     1      61.476 -48.324  -8.899  1.00  0.00     0.155 C 
BRANCH  16  17
HETATM   17  C3  UNL     1      61.450 -47.128  -9.745  1.00  0.00     0.126 A 
HETATM   18  N8  UNL     1      61.553 -47.274 -11.102  1.00  0.00    -0.325 N 
HETATM   19  C4  UNL     1      61.544 -46.282 -11.972  1.00  0.00     0.140 A 
ATOM     20  H8  UNL     1      61.645 -48.222 -11.469  1.00  0.00     0.169 HD
HETATM   21  N9  UNL     1      61.629 -46.169 -13.323  1.00  0.00    -0.337 N 
HETATM   22  C6  UNL     1      61.422 -44.991 -11.508  1.00  0.00     0.146 A 
HETATM   23  C5  UNL     1      61.564 -44.884 -13.694  1.00  0.00     0.182 A 
ATOM     24  H9  UNL     1      61.727 -46.955 -13.966  1.00  0.00     0.168 HD
HETATM   25  N10 UNL     1      61.437 -44.165 -12.571  1.00  0.00    -0.345 N 
ATOM     26  H10 UNL     1      61.363 -43.148 -12.528  1.00  0.00     0.167 HD
HETATM   27  C7  UNL     1      61.316 -44.811 -10.144  1.00  0.00     0.277 A 
HETATM   28  O1  UNL     1      61.204 -43.649  -9.698  1.00  0.00    -0.265 OA
HETATM   29  N11 UNL     1      61.333 -45.883  -9.293  1.00  0.00    -0.306 N 
ATOM     30  H11 UNL     1      61.253 -45.724  -8.289  1.00  0.00     0.170 HD
ENDBRANCH  16  17
ENDBRANCH   1  16
TORSDOF 6
ENDMDL
