MODEL 1
REMARK VINA RESULT: -5.951808646      0.000      0.000
REMARK  8 active torsions:
REMARK  status: ('A' for Active; 'I' for Inactive)
REMARK    1  A    between atoms: C6_8  and  C7_9 
REMARK    2  A    between atoms: C7_9  and  C8_10 
REMARK    3  A    between atoms: C8_10  and  C9_11 
REMARK    4  A    between atoms: C9_11  and  C10_12 
REMARK    5  A    between atoms: C10_12  and  S1_13 
REMARK    6  A    between atoms: C12_20  and  C13_21 
REMARK    7  A    between atoms: C13_21  and  C14_22 
REMARK    8  A    between atoms: C14_22  and  N1_23 
ROOT
HETATM    1  C1  UNL     1      -9.565  25.441  -7.474  1.00  0.00     0.048 C 
HETATM    2  C2  UNL     1      -8.130  25.237  -7.925  1.00  0.00     0.084 C 
HETATM    3  C3  UNL     1      -7.526  26.601  -8.120  1.00  0.00     0.048 C 
HETATM    4  O1  UNL     1      -8.165  24.571  -9.134  1.00  0.00    -0.338 OA
HETATM    5  C4  UNL     1      -7.623  23.325  -8.967  1.00  0.00     0.209 C 
HETATM    6  C5  UNL     1      -8.698  22.270  -9.074  1.00  0.00     0.241 C 
HETATM    7  O2  UNL     1      -8.211  20.998  -9.244  1.00  0.00    -0.356 OA
HETATM    8  C6  UNL     1      -6.877  20.960  -9.637  1.00  0.00     0.260 C 
HETATM    9  O6  UNL     1      -6.720  21.928 -10.643  1.00  0.00    -0.356 OA
HETATM   10  C11 UNL     1      -6.539  23.144 -10.014  1.00  0.00     0.241 C 
HETATM   11  O7  UNL     1      -7.052  23.237  -7.726  1.00  0.00    -0.342 OA
HETATM   12  C12 UNL     1      -7.368  24.357  -6.998  1.00  0.00     0.171 C 
ENDROOT
BRANCH  12  13
HETATM   13  C13 UNL     1      -6.150  24.939  -6.447  1.00  0.00     0.139 C 
BRANCH  13  14
HETATM   14  C14 UNL     1      -5.027  24.259  -6.642  1.00  0.00    -0.075 C 
BRANCH  14  15
HETATM   15  N1  UNL     1      -3.997  23.585  -6.955  1.00  0.00    -0.370 N 
ATOM     16  H12 UNL     1      -4.373  22.936  -6.264  1.00  0.00     0.165 HD
ATOM     17  H11 UNL     1      -3.146  23.123  -7.276  1.00  0.00     0.165 HD
ENDBRANCH  14  15
ENDBRANCH  13  14
ENDBRANCH  12  13
BRANCH   8  18
HETATM   18  C7  UNL     1      -6.637  19.619 -10.296  1.00  0.00     0.061 C 
BRANCH  18  19
HETATM   19  C8  UNL     1      -6.474  18.505  -9.284  1.00  0.00     0.006 C 
BRANCH  19  20
HETATM   20  C9  UNL     1      -5.698  19.058  -8.124  1.00  0.00     0.018 C 
BRANCH  20  21
HETATM   21  C10 UNL     1      -4.278  18.591  -8.073  1.00  0.00     0.165 C 
BRANCH  21  22
HETATM   22  S1  UNL     1      -3.279  19.997  -7.571  1.00  0.00     0.101 S 
HETATM   23  O3  UNL     1      -3.445  21.036  -8.665  1.00  0.00    -0.595 OA
HETATM   24  O4  UNL     1      -3.691  20.511  -6.239  1.00  0.00    -0.595 OA
HETATM   25  O5  UNL     1      -1.664  19.502  -7.590  1.00  0.00    -0.595 OA
ENDBRANCH  21  22
ENDBRANCH  20  21
ENDBRANCH  19  20
ENDBRANCH  18  19
ENDBRANCH   8  18
TORSDOF 8
ENDMDL
MODEL 2
REMARK VINA RESULT: -5.903241144      5.504      9.650
REMARK  8 active torsions:
REMARK  status: ('A' for Active; 'I' for Inactive)
REMARK    1  A    between atoms: C6_8  and  C7_9 
REMARK    2  A    between atoms: C7_9  and  C8_10 
REMARK    3  A    between atoms: C8_10  and  C9_11 
REMARK    4  A    between atoms: C9_11  and  C10_12 
REMARK    5  A    between atoms: C10_12  and  S1_13 
REMARK    6  A    between atoms: C12_20  and  C13_21 
REMARK    7  A    between atoms: C13_21  and  C14_22 
REMARK    8  A    between atoms: C14_22  and  N1_23 
ROOT
HETATM    1  C1  UNL     1       2.342  15.842  -2.398  1.00  0.00     0.048 C 
HETATM    2  C2  UNL     1       0.888  15.513  -2.677  1.00  0.00     0.084 C 
HETATM    3  C3  UNL     1       0.658  14.095  -2.232  1.00  0.00     0.048 C 
HETATM    4  O1  UNL     1       0.696  15.604  -4.042  1.00  0.00    -0.338 OA
HETATM    5  C4  UNL     1      -0.149  16.650  -4.299  1.00  0.00     0.209 C 
HETATM    6  C5  UNL     1       0.603  17.776  -4.967  1.00  0.00     0.241 C 
HETATM    7  O2  UNL     1      -0.209  18.717  -5.548  1.00  0.00    -0.356 OA
HETATM    8  C6  UNL     1      -1.521  18.289  -5.725  1.00  0.00     0.260 C 
HETATM    9  O6  UNL     1      -1.457  16.982  -6.237  1.00  0.00    -0.356 OA
HETATM   10  C11 UNL     1      -1.284  16.131  -5.163  1.00  0.00     0.241 C 
HETATM   11  O7  UNL     1      -0.672  17.116  -3.123  1.00  0.00    -0.342 OA
HETATM   12  C12 UNL     1      -0.042  16.503  -2.069  1.00  0.00     0.171 C 
ENDROOT
BRANCH  12  13
HETATM   13  C13 UNL     1      -1.038  15.946  -1.163  1.00  0.00     0.139 C 
BRANCH  13  14
HETATM   14  C14 UNL     1      -2.239  16.513  -1.180  1.00  0.00    -0.075 C 
BRANCH  14  15
HETATM   15  N1  UNL     1      -3.332  17.152  -1.276  1.00  0.00    -0.370 N 
ATOM     16  H12 UNL     1      -2.767  17.773  -1.854  1.00  0.00     0.165 HD
ATOM     17  H11 UNL     1      -4.254  17.589  -1.290  1.00  0.00     0.165 HD
ENDBRANCH  14  15
ENDBRANCH  13  14
ENDBRANCH  12  13
BRANCH   8  18
HETATM   18  C7  UNL     1      -2.133  19.142  -6.814  1.00  0.00     0.061 C 
BRANCH  18  19
HETATM   19  C8  UNL     1      -3.151  18.379  -7.635  1.00  0.00     0.006 C 
BRANCH  19  20
HETATM   20  C9  UNL     1      -4.287  19.315  -7.931  1.00  0.00     0.018 C 
BRANCH  20  21
HETATM   21  C10 UNL     1      -5.481  18.640  -8.528  1.00  0.00     0.165 C 
BRANCH  21  22
HETATM   22  S1  UNL     1      -6.203  19.791  -9.703  1.00  0.00     0.101 S 
HETATM   23  O3  UNL     1      -5.257  20.977  -9.756  1.00  0.00    -0.595 OA
HETATM   24  O4  UNL     1      -6.392  19.163 -11.036  1.00  0.00    -0.595 OA
HETATM   25  O5  UNL     1      -7.659  20.339  -9.045  1.00  0.00    -0.595 OA
ENDBRANCH  21  22
ENDBRANCH  20  21
ENDBRANCH  19  20
ENDBRANCH  18  19
ENDBRANCH   8  18
TORSDOF 8
ENDMDL
MODEL 3
REMARK VINA RESULT: -5.790838417      2.814      4.112
REMARK  8 active torsions:
REMARK  status: ('A' for Active; 'I' for Inactive)
REMARK    1  A    between atoms: C6_8  and  C7_9 
REMARK    2  A    between atoms: C7_9  and  C8_10 
REMARK    3  A    between atoms: C8_10  and  C9_11 
REMARK    4  A    between atoms: C9_11  and  C10_12 
REMARK    5  A    between atoms: C10_12  and  S1_13 
REMARK    6  A    between atoms: C12_20  and  C13_21 
REMARK    7  A    between atoms: C13_21  and  C14_22 
REMARK    8  A    between atoms: C14_22  and  N1_23 
ROOT
HETATM    1  C1  UNL     1      -5.561  25.755  -8.562  1.00  0.00     0.048 C 
HETATM    2  C2  UNL     1      -6.520  24.597  -8.360  1.00  0.00     0.084 C 
HETATM    3  C3  UNL     1      -7.812  25.171  -7.847  1.00  0.00     0.048 C 
HETATM    4  O1  UNL     1      -5.972  23.766  -7.402  1.00  0.00    -0.338 OA
HETATM    5  C4  UNL     1      -5.649  22.571  -7.987  1.00  0.00     0.209 C 
HETATM    6  C5  UNL     1      -4.148  22.419  -8.068  1.00  0.00     0.241 C 
HETATM    7  O2  UNL     1      -3.735  21.138  -8.335  1.00  0.00    -0.356 OA
HETATM    8  C6  UNL     1      -4.722  20.180  -8.128  1.00  0.00     0.260 C 
HETATM    9  O6  UNL     1      -5.345  20.493  -6.908  1.00  0.00    -0.356 OA
HETATM   10  C11 UNL     1      -6.291  21.464  -7.171  1.00  0.00     0.241 C 
HETATM   11  O7  UNL     1      -6.158  22.532  -9.257  1.00  0.00    -0.342 OA
HETATM   12  C12 UNL     1      -6.664  23.764  -9.585  1.00  0.00     0.171 C 
ENDROOT
BRANCH  12  13
HETATM   13  C13 UNL     1      -8.027  23.615 -10.079  1.00  0.00     0.139 C 
BRANCH  13  14
HETATM   14  C14 UNL     1      -8.660  22.496  -9.748  1.00  0.00    -0.075 C 
BRANCH  14  15
HETATM   15  N1  UNL     1      -9.197  21.430  -9.313  1.00  0.00    -0.370 N 
ATOM     16  H12 UNL     1      -9.286  21.980  -8.459  1.00  0.00     0.165 HD
ATOM     17  H11 UNL     1      -9.609  20.532  -9.062  1.00  0.00     0.165 HD
ENDBRANCH  14  15
ENDBRANCH  13  14
ENDBRANCH  12  13
BRANCH   8  18
HETATM   18  C7  UNL     1      -4.027  18.852  -7.921  1.00  0.00     0.061 C 
BRANCH  18  19
HETATM   19  C8  UNL     1      -2.545  19.016  -7.661  1.00  0.00     0.006 C 
BRANCH  19  20
HETATM   20  C9  UNL     1      -2.182  18.110  -6.520  1.00  0.00     0.018 C 
BRANCH  20  21
HETATM   21  C10 UNL     1      -1.012  18.590  -5.721  1.00  0.00     0.165 C 
BRANCH  21  22
HETATM   22  S1  UNL     1      -0.027  17.145  -5.311  1.00  0.00     0.101 S 
HETATM   23  O3  UNL     1       1.187  17.198  -6.222  1.00  0.00    -0.595 OA
HETATM   24  O4  UNL     1       0.349  17.130  -3.874  1.00  0.00    -0.595 OA
HETATM   25  O5  UNL     1      -0.923  15.782  -5.750  1.00  0.00    -0.595 OA
ENDBRANCH  21  22
ENDBRANCH  20  21
ENDBRANCH  19  20
ENDBRANCH  18  19
ENDBRANCH   8  18
TORSDOF 8
ENDMDL
MODEL 4
REMARK VINA RESULT: -5.760456498      3.022      4.337
REMARK  8 active torsions:
REMARK  status: ('A' for Active; 'I' for Inactive)
REMARK    1  A    between atoms: C6_8  and  C7_9 
REMARK    2  A    between atoms: C7_9  and  C8_10 
REMARK    3  A    between atoms: C8_10  and  C9_11 
REMARK    4  A    between atoms: C9_11  and  C10_12 
REMARK    5  A    between atoms: C10_12  and  S1_13 
REMARK    6  A    between atoms: C12_20  and  C13_21 
REMARK    7  A    between atoms: C13_21  and  C14_22 
REMARK    8  A    between atoms: C14_22  and  N1_23 
ROOT
HETATM    1  C1  UNL     1      -8.513  21.962  -9.600  1.00  0.00     0.048 C 
HETATM    2  C2  UNL     1      -7.258  22.586  -9.019  1.00  0.00     0.084 C 
HETATM    3  C3  UNL     1      -7.200  24.008  -9.505  1.00  0.00     0.048 C 
HETATM    4  O1  UNL     1      -6.177  21.884  -9.516  1.00  0.00    -0.338 OA
HETATM    5  C4  UNL     1      -5.566  21.226  -8.482  1.00  0.00     0.209 C 
HETATM    6  C5  UNL     1      -5.786  19.737  -8.611  1.00  0.00     0.241 C 
HETATM    7  O2  UNL     1      -4.954  18.984  -7.821  1.00  0.00    -0.356 OA
HETATM    8  C6  UNL     1      -3.855  19.689  -7.339  1.00  0.00     0.260 C 
HETATM    9  O6  UNL     1      -3.343  20.432  -8.415  1.00  0.00    -0.356 OA
HETATM   10  C11 UNL     1      -4.093  21.588  -8.504  1.00  0.00     0.241 C 
HETATM   11  O7  UNL     1      -6.102  21.642  -7.294  1.00  0.00    -0.342 OA
HETATM   12  C12 UNL     1      -7.190  22.442  -7.539  1.00  0.00     0.171 C 
ENDROOT
BRANCH  12  13
HETATM   13  C13 UNL     1      -7.054  23.690  -6.798  1.00  0.00     0.139 C 
BRANCH  13  14
HETATM   14  C14 UNL     1      -8.045  24.000  -5.972  1.00  0.00    -0.075 C 
BRANCH  14  15
HETATM   15  N1  UNL     1      -8.975  24.426  -5.219  1.00  0.00    -0.370 N 
ATOM     16  H12 UNL     1      -9.455  23.594  -5.559  1.00  0.00     0.165 HD
ATOM     17  H11 UNL     1      -9.655  24.852  -4.589  1.00  0.00     0.165 HD
ENDBRANCH  14  15
ENDBRANCH  13  14
ENDBRANCH  12  13
BRANCH   8  18
HETATM   18  C7  UNL     1      -2.791  18.676  -6.978  1.00  0.00     0.061 C 
BRANCH  18  19
HETATM   19  C8  UNL     1      -1.446  19.018  -7.583  1.00  0.00     0.006 C 
BRANCH  19  20
HETATM   20  C9  UNL     1      -0.495  19.284  -6.452  1.00  0.00     0.018 C 
BRANCH  20  21
HETATM   21  C10 UNL     1       0.860  19.733  -6.900  1.00  0.00     0.165 C 
BRANCH  21  22
HETATM   22  S1  UNL     1       1.904  18.274  -6.960  1.00  0.00     0.101 S 
HETATM   23  O3  UNL     1       1.972  17.872  -8.422  1.00  0.00    -0.595 OA
HETATM   24  O4  UNL     1       3.249  18.540  -6.387  1.00  0.00    -0.595 OA
HETATM   25  O5  UNL     1       1.095  17.039  -6.137  1.00  0.00    -0.595 OA
ENDBRANCH  21  22
ENDBRANCH  20  21
ENDBRANCH  19  20
ENDBRANCH  18  19
ENDBRANCH   8  18
TORSDOF 8
ENDMDL
MODEL 5
REMARK VINA RESULT: -5.759301624      3.110      4.800
REMARK  8 active torsions:
REMARK  status: ('A' for Active; 'I' for Inactive)
REMARK    1  A    between atoms: C6_8  and  C7_9 
REMARK    2  A    between atoms: C7_9  and  C8_10 
REMARK    3  A    between atoms: C8_10  and  C9_11 
REMARK    4  A    between atoms: C9_11  and  C10_12 
REMARK    5  A    between atoms: C10_12  and  S1_13 
REMARK    6  A    between atoms: C12_20  and  C13_21 
REMARK    7  A    between atoms: C13_21  and  C14_22 
REMARK    8  A    between atoms: C14_22  and  N1_23 
ROOT
HETATM    1  C1  UNL     1      -6.880  24.787  -8.043  1.00  0.00     0.048 C 
HETATM    2  C2  UNL     1      -7.102  23.298  -8.227  1.00  0.00     0.084 C 
HETATM    3  C3  UNL     1      -8.582  23.051  -8.123  1.00  0.00     0.048 C 
HETATM    4  O1  UNL     1      -6.452  22.650  -7.195  1.00  0.00    -0.338 OA
HETATM    5  C4  UNL     1      -5.419  21.918  -7.716  1.00  0.00     0.209 C 
HETATM    6  C5  UNL     1      -4.096  22.531  -7.321  1.00  0.00     0.241 C 
HETATM    7  O2  UNL     1      -3.021  21.700  -7.516  1.00  0.00    -0.356 OA
HETATM    8  C6  UNL     1      -3.372  20.366  -7.693  1.00  0.00     0.260 C 
HETATM    9  O6  UNL     1      -4.341  20.067  -6.721  1.00  0.00    -0.356 OA
HETATM   10  C11 UNL     1      -5.559  20.492  -7.216  1.00  0.00     0.241 C 
HETATM   11  O7  UNL     1      -5.504  21.914  -9.082  1.00  0.00    -0.342 OA
HETATM   12  C12 UNL     1      -6.484  22.786  -9.481  1.00  0.00     0.171 C 
ENDROOT
BRANCH  12  13
HETATM   13  C13 UNL     1      -7.397  22.110 -10.394  1.00  0.00     0.139 C 
BRANCH  13  14
HETATM   14  C14 UNL     1      -7.054  20.886 -10.776  1.00  0.00    -0.075 C 
BRANCH  14  15
HETATM   15  N1  UNL     1      -6.598  19.748 -11.110  1.00  0.00    -0.370 N 
ATOM     16  H12 UNL     1      -5.743  20.114 -10.692  1.00  0.00     0.165 HD
ATOM     17  H11 UNL     1      -6.330  18.814 -11.419  1.00  0.00     0.165 HD
ENDBRANCH  14  15
ENDBRANCH  13  14
ENDBRANCH  12  13
BRANCH   8  18
HETATM   18  C7  UNL     1      -2.158  19.529  -7.353  1.00  0.00     0.061 C 
BRANCH  18  19
HETATM   19  C8  UNL     1      -1.643  19.808  -5.958  1.00  0.00     0.006 C 
BRANCH  19  20
HETATM   20  C9  UNL     1      -0.295  19.159  -5.834  1.00  0.00     0.018 C 
BRANCH  20  21
HETATM   21  C10 UNL     1       0.782  19.861  -6.597  1.00  0.00     0.165 C 
BRANCH  21  22
HETATM   22  S1  UNL     1       1.756  18.595  -7.419  1.00  0.00     0.101 S 
HETATM   23  O3  UNL     1       1.582  17.335  -6.589  1.00  0.00    -0.595 OA
HETATM   24  O4  UNL     1       1.325  18.403  -8.828  1.00  0.00    -0.595 OA
HETATM   25  O5  UNL     1       3.378  19.051  -7.305  1.00  0.00    -0.595 OA
ENDBRANCH  21  22
ENDBRANCH  20  21
ENDBRANCH  19  20
ENDBRANCH  18  19
ENDBRANCH   8  18
TORSDOF 8
ENDMDL
