MODEL 1
REMARK VINA RESULT: -6.031591570      0.000      0.000
REMARK  7 active torsions:
REMARK  status: ('A' for Active; 'I' for Inactive)
REMARK    1  A    between atoms: C2_2  and  C4_4 
REMARK    2  A    between atoms: C2_2  and  C10_14 
REMARK    3  A    between atoms: C4_4  and  C5_5 
REMARK    4  A    between atoms: C5_5  and  O1_6 
REMARK    5  A    between atoms: O1_6  and  C6_7 
REMARK    6  A    between atoms: C13_17  and  C14_18 
REMARK    7  A    between atoms: C14_18  and  O3_19 
ROOT
HETATM    1  C1  UNL     1      -0.824  18.997  -7.450  1.00  0.00     0.015 C 
HETATM    2  C2  UNL     1      -1.816  18.765  -6.319  1.00  0.00    -0.042 C 
HETATM    3  C3  UNL     1      -1.513  19.560  -5.083  1.00  0.00     0.015 C 
ENDROOT
BRANCH   2   4
HETATM    4  C4  UNL     1      -1.828  17.291  -5.941  1.00  0.00     0.035 C 
BRANCH   4   5
HETATM    5  C5  UNL     1      -0.710  16.934  -4.978  1.00  0.00     0.171 C 
BRANCH   5   6
HETATM    6  O1  UNL     1      -0.282  15.646  -5.116  1.00  0.00    -0.360 OA
BRANCH   6   7
HETATM    7  C6  UNL     1      -1.160  14.727  -4.596  1.00  0.00     0.276 C 
HETATM    8  C7  UNL     1      -1.395  13.611  -5.549  1.00  0.00     0.174 C 
HETATM    9  N1  UNL     1      -0.474  12.531  -5.473  1.00  0.00    -0.415 N 
HETATM   10  C8  UNL     1       0.206  12.401  -4.215  1.00  0.00     0.140 C 
ATOM     11  H1  UNL     1      -0.309  11.896  -6.253  1.00  0.00     0.153 HD
HETATM   12  C9  UNL     1      -0.673  12.996  -3.137  1.00  0.00     0.190 C 
HETATM   13  O2  UNL     1      -0.740  14.350  -3.344  1.00  0.00    -0.358 OA
ENDBRANCH   6   7
ENDBRANCH   5   6
ENDBRANCH   4   5
ENDBRANCH   2   4
BRANCH   2  14
HETATM   14  C10 UNL     1      -3.159  19.138  -6.841  1.00  0.00    -0.007 C 
HETATM   15  C11 UNL     1      -3.168  20.547  -7.446  1.00  0.00     0.006 C 
HETATM   16  C12 UNL     1      -4.620  20.979  -7.471  1.00  0.00     0.007 C 
HETATM   17  C13 UNL     1      -5.251  20.119  -8.578  1.00  0.00     0.009 C 
HETATM   18  C15 UNL     1      -5.153  18.679  -8.225  1.00  0.00     0.007 C 
HETATM   19  C16 UNL     1      -3.765  18.222  -7.839  1.00  0.00     0.006 C 
BRANCH  17  20
HETATM   20  C14 UNL     1      -6.672  20.552  -8.703  1.00  0.00     0.168 C 
BRANCH  20  21
HETATM   21  O3  UNL     1      -7.557  19.527  -8.972  1.00  0.00    -0.400 OA
ATOM     22  H3  UNL     1      -8.371  19.808  -9.375  1.00  0.00     0.209 HD
ENDBRANCH  20  21
ENDBRANCH  17  20
ENDBRANCH   2  14
TORSDOF 7
ENDMDL
MODEL 2
REMARK VINA RESULT: -5.939554713      1.255      1.525
REMARK  7 active torsions:
REMARK  status: ('A' for Active; 'I' for Inactive)
REMARK    1  A    between atoms: C2_2  and  C4_4 
REMARK    2  A    between atoms: C2_2  and  C10_14 
REMARK    3  A    between atoms: C4_4  and  C5_5 
REMARK    4  A    between atoms: C5_5  and  O1_6 
REMARK    5  A    between atoms: O1_6  and  C6_7 
REMARK    6  A    between atoms: C13_17  and  C14_18 
REMARK    7  A    between atoms: C14_18  and  O3_19 
ROOT
HETATM    1  C1  UNL     1      -1.516  21.377  -6.646  1.00  0.00     0.015 C 
HETATM    2  C2  UNL     1      -1.938  19.991  -6.179  1.00  0.00    -0.042 C 
HETATM    3  C3  UNL     1      -2.017  19.860  -4.686  1.00  0.00     0.015 C 
ENDROOT
BRANCH   2   4
HETATM    4  C4  UNL     1      -0.948  18.954  -6.691  1.00  0.00     0.035 C 
BRANCH   4   5
HETATM    5  C5  UNL     1      -0.414  18.068  -5.580  1.00  0.00     0.171 C 
BRANCH   5   6
HETATM    6  O1  UNL     1      -0.572  16.739  -5.840  1.00  0.00    -0.360 OA
BRANCH   6   7
HETATM    7  C6  UNL     1      -1.518  16.142  -5.044  1.00  0.00     0.276 C 
HETATM    8  C7  UNL     1      -1.558  14.673  -5.269  1.00  0.00     0.174 C 
HETATM    9  N1  UNL     1      -0.652  13.904  -4.490  1.00  0.00    -0.415 N 
HETATM   10  C8  UNL     1      -0.211  14.531  -3.276  1.00  0.00     0.140 C 
ATOM     11  H1  UNL     1      -0.337  12.976  -4.773  1.00  0.00     0.153 HD
HETATM   12  C9  UNL     1      -1.281  15.504  -2.830  1.00  0.00     0.190 C 
HETATM   13  O2  UNL     1      -1.328  16.529  -3.739  1.00  0.00    -0.358 OA
ENDBRANCH   6   7
ENDBRANCH   5   6
ENDBRANCH   4   5
ENDBRANCH   2   4
BRANCH   2  14
HETATM   14  C10 UNL     1      -3.272  19.722  -6.781  1.00  0.00    -0.007 C 
HETATM   15  C11 UNL     1      -3.837  20.954  -7.496  1.00  0.00     0.006 C 
HETATM   16  C12 UNL     1      -5.329  20.718  -7.612  1.00  0.00     0.007 C 
HETATM   17  C13 UNL     1      -5.455  19.611  -8.671  1.00  0.00     0.009 C 
HETATM   18  C15 UNL     1      -4.779  18.375  -8.201  1.00  0.00     0.007 C 
HETATM   19  C16 UNL     1      -3.359  18.581  -7.726  1.00  0.00     0.006 C 
BRANCH  17  20
HETATM   20  C14 UNL     1      -6.914  19.384  -8.885  1.00  0.00     0.168 C 
BRANCH  20  21
HETATM   21  O3  UNL     1      -7.402  18.234  -8.299  1.00  0.00    -0.400 OA
ATOM     22  H3  UNL     1      -8.072  18.383  -7.642  1.00  0.00     0.209 HD
ENDBRANCH  20  21
ENDBRANCH  17  20
ENDBRANCH   2  14
TORSDOF 7
ENDMDL
MODEL 3
REMARK VINA RESULT: -5.905560801      4.688      8.867
REMARK  7 active torsions:
REMARK  status: ('A' for Active; 'I' for Inactive)
REMARK    1  A    between atoms: C2_2  and  C4_4 
REMARK    2  A    between atoms: C2_2  and  C10_14 
REMARK    3  A    between atoms: C4_4  and  C5_5 
REMARK    4  A    between atoms: C5_5  and  O1_6 
REMARK    5  A    between atoms: O1_6  and  C6_7 
REMARK    6  A    between atoms: C13_17  and  C14_18 
REMARK    7  A    between atoms: C14_18  and  O3_19 
ROOT
HETATM    1  C1  UNL     1      -6.126  22.943  -9.828  1.00  0.00     0.015 C 
HETATM    2  C2  UNL     1      -6.761  21.634  -9.382  1.00  0.00    -0.042 C 
HETATM    3  C3  UNL     1      -7.572  20.967 -10.454  1.00  0.00     0.015 C 
ENDROOT
BRANCH   2   4
HETATM    4  C4  UNL     1      -7.671  21.885  -8.189  1.00  0.00     0.035 C 
BRANCH   4   5
HETATM    5  C5  UNL     1      -7.789  23.362  -7.855  1.00  0.00     0.171 C 
BRANCH   5   6
HETATM    6  O1  UNL     1      -7.395  23.650  -6.581  1.00  0.00    -0.360 OA
BRANCH   6   7
HETATM    7  C6  UNL     1      -6.980  24.949  -6.426  1.00  0.00     0.276 C 
HETATM    8  C7  UNL     1      -5.901  25.049  -5.408  1.00  0.00     0.174 C 
HETATM    9  N1  UNL     1      -4.578  24.855  -5.890  1.00  0.00    -0.415 N 
HETATM   10  C8  UNL     1      -4.401  25.102  -7.293  1.00  0.00     0.140 C 
ATOM     11  H1  UNL     1      -3.812  24.562  -5.285  1.00  0.00     0.153 HD
HETATM   12  C9  UNL     1      -5.452  26.096  -7.736  1.00  0.00     0.190 C 
HETATM   13  O2  UNL     1      -6.676  25.483  -7.655  1.00  0.00    -0.358 OA
ENDBRANCH   6   7
ENDBRANCH   5   6
ENDBRANCH   4   5
ENDBRANCH   2   4
BRANCH   2  14
HETATM   14  C10 UNL     1      -5.649  20.739  -8.960  1.00  0.00    -0.007 C 
HETATM   15  C11 UNL     1      -4.901  21.290  -7.740  1.00  0.00     0.006 C 
HETATM   16  C12 UNL     1      -3.556  20.593  -7.729  1.00  0.00     0.007 C 
HETATM   17  C13 UNL     1      -3.883  19.149  -7.315  1.00  0.00     0.009 C 
HETATM   18  C15 UNL     1      -4.775  18.518  -8.321  1.00  0.00     0.007 C 
HETATM   19  C16 UNL     1      -6.004  19.328  -8.662  1.00  0.00     0.006 C 
BRANCH  17  20
HETATM   20  C14 UNL     1      -2.583  18.426  -7.212  1.00  0.00     0.168 C 
BRANCH  20  21
HETATM   21  O3  UNL     1      -1.617  18.864  -8.095  1.00  0.00    -0.400 OA
ATOM     22  H3  UNL     1      -1.215  18.174  -8.611  1.00  0.00     0.209 HD
ENDBRANCH  20  21
ENDBRANCH  17  20
ENDBRANCH   2  14
TORSDOF 7
ENDMDL
MODEL 4
REMARK VINA RESULT: -5.817404006      0.828      1.377
REMARK  7 active torsions:
REMARK  status: ('A' for Active; 'I' for Inactive)
REMARK    1  A    between atoms: C2_2  and  C4_4 
REMARK    2  A    between atoms: C2_2  and  C10_14 
REMARK    3  A    between atoms: C4_4  and  C5_5 
REMARK    4  A    between atoms: C5_5  and  O1_6 
REMARK    5  A    between atoms: O1_6  and  C6_7 
REMARK    6  A    between atoms: C13_17  and  C14_18 
REMARK    7  A    between atoms: C14_18  and  O3_19 
ROOT
HETATM    1  C1  UNL     1       0.127  18.990  -7.032  1.00  0.00     0.015 C 
HETATM    2  C2  UNL     1      -1.097  18.801  -6.147  1.00  0.00    -0.042 C 
HETATM    3  C3  UNL     1      -0.994  19.501  -4.824  1.00  0.00     0.015 C 
ENDROOT
BRANCH   2   4
HETATM    4  C4  UNL     1      -1.314  17.318  -5.882  1.00  0.00     0.035 C 
BRANCH   4   5
HETATM    5  C5  UNL     1      -0.655  16.861  -4.592  1.00  0.00     0.171 C 
BRANCH   5   6
HETATM    6  O1  UNL     1      -0.172  15.588  -4.666  1.00  0.00    -0.360 OA
BRANCH   6   7
HETATM    7  C6  UNL     1      -1.104  14.636  -4.334  1.00  0.00     0.276 C 
HETATM    8  C7  UNL     1      -1.356  13.712  -5.471  1.00  0.00     0.174 C 
HETATM    9  N1  UNL     1      -0.484  12.594  -5.561  1.00  0.00    -0.415 N 
HETATM   10  C8  UNL     1       0.151  12.217  -4.329  1.00  0.00     0.140 C 
ATOM     11  H1  UNL     1      -0.321  12.095  -6.436  1.00  0.00     0.153 HD
HETATM   12  C9  UNL     1      -0.736  12.659  -3.185  1.00  0.00     0.190 C 
HETATM   13  O2  UNL     1      -0.739  14.030  -3.156  1.00  0.00    -0.358 OA
ENDBRANCH   6   7
ENDBRANCH   5   6
ENDBRANCH   4   5
ENDBRANCH   2   4
BRANCH   2  14
HETATM   14  C10 UNL     1      -2.263  19.329  -6.907  1.00  0.00    -0.007 C 
HETATM   15  C11 UNL     1      -3.370  18.280  -7.060  1.00  0.00     0.006 C 
HETATM   16  C12 UNL     1      -4.224  18.744  -8.222  1.00  0.00     0.007 C 
HETATM   17  C13 UNL     1      -4.975  19.968  -7.674  1.00  0.00     0.009 C 
HETATM   18  C15 UNL     1      -4.010  21.031  -7.294  1.00  0.00     0.007 C 
HETATM   19  C16 UNL     1      -2.893  20.568  -6.388  1.00  0.00     0.006 C 
BRANCH  17  20
HETATM   20  C14 UNL     1      -5.894  20.429  -8.754  1.00  0.00     0.168 C 
BRANCH  20  21
HETATM   21  O3  UNL     1      -5.541  20.006 -10.020  1.00  0.00    -0.400 OA
ATOM     22  H3  UNL     1      -5.120  20.671 -10.552  1.00  0.00     0.209 HD
ENDBRANCH  20  21
ENDBRANCH  17  20
ENDBRANCH   2  14
TORSDOF 7
ENDMDL
MODEL 5
REMARK VINA RESULT: -5.793951218      2.868      7.423
REMARK  7 active torsions:
REMARK  status: ('A' for Active; 'I' for Inactive)
REMARK    1  A    between atoms: C2_2  and  C4_4 
REMARK    2  A    between atoms: C2_2  and  C10_14 
REMARK    3  A    between atoms: C4_4  and  C5_5 
REMARK    4  A    between atoms: C5_5  and  O1_6 
REMARK    5  A    between atoms: O1_6  and  C6_7 
REMARK    6  A    between atoms: C13_17  and  C14_18 
REMARK    7  A    between atoms: C14_18  and  O3_19 
ROOT
HETATM    1  C1  UNL     1      -1.424  19.413  -4.835  1.00  0.00     0.015 C 
HETATM    2  C2  UNL     1      -1.103  18.412  -5.936  1.00  0.00    -0.042 C 
HETATM    3  C3  UNL     1       0.050  18.826  -6.803  1.00  0.00     0.015 C 
ENDROOT
BRANCH   2   4
HETATM    4  C4  UNL     1      -2.321  18.224  -6.830  1.00  0.00     0.035 C 
BRANCH   4   5
HETATM    5  C5  UNL     1      -3.070  19.524  -7.064  1.00  0.00     0.171 C 
BRANCH   5   6
HETATM    6  O1  UNL     1      -3.813  19.508  -8.208  1.00  0.00    -0.360 OA
BRANCH   6   7
HETATM    7  C6  UNL     1      -5.162  19.407  -7.974  1.00  0.00     0.276 C 
HETATM    8  C7  UNL     1      -5.881  20.618  -8.452  1.00  0.00     0.174 C 
HETATM    9  N1  UNL     1      -6.280  20.599  -9.815  1.00  0.00    -0.415 N 
HETATM   10  C8  UNL     1      -6.414  19.291 -10.391  1.00  0.00     0.140 C 
ATOM     11  H1  UNL     1      -6.460  21.452 -10.346  1.00  0.00     0.153 HD
HETATM   12  C9  UNL     1      -6.731  18.313  -9.280  1.00  0.00     0.190 C 
HETATM   13  O2  UNL     1      -5.626  18.215  -8.474  1.00  0.00    -0.358 OA
ENDBRANCH   6   7
ENDBRANCH   5   6
ENDBRANCH   4   5
ENDBRANCH   2   4
BRANCH   2  14
HETATM   14  C10 UNL     1      -0.793  17.120  -5.267  1.00  0.00    -0.007 C 
HETATM   15  C11 UNL     1      -0.677  17.276  -3.746  1.00  0.00     0.006 C 
HETATM   16  C12 UNL     1       0.102  16.069  -3.264  1.00  0.00     0.007 C 
HETATM   17  C13 UNL     1      -0.881  14.898  -3.421  1.00  0.00     0.009 C 
HETATM   18  C15 UNL     1      -1.249  14.728  -4.850  1.00  0.00     0.007 C 
HETATM   19  C16 UNL     1      -1.723  15.993  -5.528  1.00  0.00     0.006 C 
BRANCH  17  20
HETATM   20  C14 UNL     1      -0.195  13.685  -2.890  1.00  0.00     0.168 C 
BRANCH  20  21
HETATM   21  O3  UNL     1      -1.049  12.673  -2.500  1.00  0.00    -0.400 OA
ATOM     22  H3  UNL     1      -0.927  11.855  -2.968  1.00  0.00     0.209 HD
ENDBRANCH  20  21
ENDBRANCH  17  20
ENDBRANCH   2  14
TORSDOF 7
ENDMDL
