MODEL 1
REMARK VINA RESULT: -5.784067906      0.000      0.000
REMARK  7 active torsions:
REMARK  status: ('A' for Active; 'I' for Inactive)
REMARK    1  A    between atoms: C2_2  and  C4_4 
REMARK    2  A    between atoms: C5_8  and  C6_9 
REMARK    3  A    between atoms: N2_10  and  O1_12 
REMARK    4  A    between atoms: O1_12  and  C7_13 
REMARK    5  A    between atoms: C7_13  and  C8_14 
REMARK    6  A    between atoms: C8_14  and  N3_15 
REMARK    7  A    between atoms: N4_22  and  O2_23 
ROOT
HETATM    1  C4  UNL     1      -6.041  21.976  -7.916  1.00  0.00     0.314 C 
HETATM    2  N1  UNL     1      -5.985  20.596  -7.458  1.00  0.00    -0.042 N 
ATOM      3  H11 UNL     1      -6.196  20.473  -6.467  1.00  0.00     0.280 HD
ATOM      4  H12 UNL     1      -5.043  20.205  -7.418  1.00  0.00     0.280 HD
HETATM    5  C5  UNL     1      -6.903  19.878  -8.369  1.00  0.00     0.252 C 
HETATM    6  C12 UNL     1      -7.195  20.854  -9.448  1.00  0.00     0.067 C 
HETATM    7  C13 UNL     1      -8.456  21.633  -9.167  1.00  0.00     0.037 C 
HETATM    8  C14 UNL     1      -7.281  20.262 -10.833  1.00  0.00     0.037 C 
HETATM    9  N4  UNL     1      -6.067  21.784  -9.380  1.00  0.00    -0.153 NA
ENDROOT
BRANCH   5  10
HETATM   10  C6  UNL     1      -6.281  18.625  -8.773  1.00  0.00     0.122 C 
HETATM   11  N2  UNL     1      -5.077  18.298  -8.648  1.00  0.00    -0.280 N 
ATOM     12  H2  UNL     1      -4.904  17.361  -9.013  1.00  0.00     0.193 HD
BRANCH  11  13
HETATM   13  O1  UNL     1      -3.980  18.838  -8.174  1.00  0.00    -0.279 OA
BRANCH  13  14
HETATM   14  C7  UNL     1      -3.086  18.416  -7.210  1.00  0.00     0.229 C 
BRANCH  14  15
HETATM   15  C8  UNL     1      -1.698  19.008  -7.396  1.00  0.00     0.264 C 
BRANCH  15  16
HETATM   16  N3  UNL     1      -0.846  18.732  -6.265  1.00  0.00    -0.076 N 
HETATM   17  C9  UNL     1      -0.993  19.752  -5.232  1.00  0.00     0.271 C 
HETATM   18  C10 UNL     1       0.563  18.720  -6.625  1.00  0.00     0.271 C 
HETATM   19  C11 UNL     1      -1.191  17.446  -5.657  1.00  0.00     0.271 C 
ENDBRANCH  15  16
ENDBRANCH  14  15
ENDBRANCH  13  14
ENDBRANCH  11  13
ENDBRANCH   5  10
BRANCH   1  20
HETATM   20  C2  UNL     1      -4.887  22.789  -7.551  1.00  0.00    -0.047 C 
HETATM   21  C1  UNL     1      -4.903  24.096  -7.736  1.00  0.00     0.017 C 
HETATM   22  C3  UNL     1      -3.689  22.143  -6.956  1.00  0.00     0.046 C 
ENDBRANCH   1  20
BRANCH   9  23
HETATM   23  O2  UNL     1      -4.976  21.034  -9.748  1.00  0.00    -0.310 OA
ATOM     24  H2  UNL     1      -5.073  20.779 -10.658  1.00  0.00     0.237 HD
ENDBRANCH   9  23
TORSDOF 7
ENDMDL
MODEL 2
REMARK VINA RESULT: -5.597038490      0.795      1.187
REMARK  7 active torsions:
REMARK  status: ('A' for Active; 'I' for Inactive)
REMARK    1  A    between atoms: C2_2  and  C4_4 
REMARK    2  A    between atoms: C5_8  and  C6_9 
REMARK    3  A    between atoms: N2_10  and  O1_12 
REMARK    4  A    between atoms: O1_12  and  C7_13 
REMARK    5  A    between atoms: C7_13  and  C8_14 
REMARK    6  A    between atoms: C8_14  and  N3_15 
REMARK    7  A    between atoms: N4_22  and  O2_23 
ROOT
HETATM    1  C4  UNL     1      -6.052  21.951  -7.948  1.00  0.00     0.314 C 
HETATM    2  N1  UNL     1      -5.802  20.643  -7.362  1.00  0.00    -0.042 N 
ATOM      3  H11 UNL     1      -6.023  20.580  -6.367  1.00  0.00     0.280 HD
ATOM      4  H12 UNL     1      -4.814  20.407  -7.270  1.00  0.00     0.280 HD
HETATM    5  C5  UNL     1      -6.574  19.714  -8.216  1.00  0.00     0.252 C 
HETATM    6  C12 UNL     1      -6.977  20.532  -9.386  1.00  0.00     0.067 C 
HETATM    7  C13 UNL     1      -8.350  21.132  -9.200  1.00  0.00     0.037 C 
HETATM    8  C14 UNL     1      -6.931  19.811 -10.710  1.00  0.00     0.037 C 
HETATM    9  N4  UNL     1      -6.005  21.626  -9.388  1.00  0.00    -0.153 NA
ENDROOT
BRANCH   5  10
HETATM   10  C6  UNL     1      -5.758  18.540  -8.491  1.00  0.00     0.122 C 
HETATM   11  N2  UNL     1      -4.516  18.428  -8.357  1.00  0.00    -0.280 N 
ATOM     12  H2  UNL     1      -4.195  17.495  -8.619  1.00  0.00     0.193 HD
BRANCH  11  13
HETATM   13  O1  UNL     1      -3.520  19.188  -7.972  1.00  0.00    -0.279 OA
BRANCH  13  14
HETATM   14  C7  UNL     1      -2.281  18.888  -7.442  1.00  0.00     0.229 C 
BRANCH  14  15
HETATM   15  C8  UNL     1      -1.986  19.653  -6.162  1.00  0.00     0.264 C 
BRANCH  15  16
HETATM   16  N3  UNL     1      -0.568  19.805  -5.947  1.00  0.00    -0.076 N 
HETATM   17  C9  UNL     1      -0.169  21.207  -6.028  1.00  0.00     0.271 C 
HETATM   18  C10 UNL     1       0.220  19.101  -6.946  1.00  0.00     0.271 C 
HETATM   19  C11 UNL     1      -0.190  19.322  -4.619  1.00  0.00     0.271 C 
ENDBRANCH  15  16
ENDBRANCH  14  15
ENDBRANCH  13  14
ENDBRANCH  11  13
ENDBRANCH   5  10
BRANCH   1  20
HETATM   20  C2  UNL     1      -5.045  22.961  -7.642  1.00  0.00    -0.047 C 
HETATM   21  C1  UNL     1      -3.930  22.628  -7.020  1.00  0.00     0.017 C 
HETATM   22  C3  UNL     1      -5.273  24.373  -8.044  1.00  0.00     0.046 C 
ENDBRANCH   1  20
BRANCH   9  23
HETATM   23  O2  UNL     1      -4.803  21.022  -9.666  1.00  0.00    -0.310 OA
ATOM     24  H2  UNL     1      -4.161  21.694  -9.864  1.00  0.00     0.237 HD
ENDBRANCH   9  23
TORSDOF 7
ENDMDL
MODEL 3
REMARK VINA RESULT: -5.483379702      1.705      3.250
REMARK  7 active torsions:
REMARK  status: ('A' for Active; 'I' for Inactive)
REMARK    1  A    between atoms: C2_2  and  C4_4 
REMARK    2  A    between atoms: C5_8  and  C6_9 
REMARK    3  A    between atoms: N2_10  and  O1_12 
REMARK    4  A    between atoms: O1_12  and  C7_13 
REMARK    5  A    between atoms: C7_13  and  C8_14 
REMARK    6  A    between atoms: C8_14  and  N3_15 
REMARK    7  A    between atoms: N4_22  and  O2_23 
ROOT
HETATM    1  C4  UNL     1      -6.323  20.243  -9.472  1.00  0.00     0.314 C 
HETATM    2  N1  UNL     1      -5.248  21.215  -9.338  1.00  0.00    -0.042 N 
ATOM      3  H11 UNL     1      -4.535  21.155 -10.066  1.00  0.00     0.280 HD
ATOM      4  H12 UNL     1      -4.620  21.040  -8.554  1.00  0.00     0.280 HD
HETATM    5  C5  UNL     1      -5.948  22.516  -9.279  1.00  0.00     0.252 C 
HETATM    6  C12 UNL     1      -7.378  22.162  -9.102  1.00  0.00     0.067 C 
HETATM    7  C13 UNL     1      -8.102  22.097 -10.425  1.00  0.00     0.037 C 
HETATM    8  C14 UNL     1      -8.144  23.064  -8.167  1.00  0.00     0.037 C 
HETATM    9  N4  UNL     1      -7.328  20.809  -8.550  1.00  0.00    -0.153 NA
ENDROOT
BRANCH   5  10
HETATM   10  C6  UNL     1      -5.344  23.329  -8.233  1.00  0.00     0.122 C 
HETATM   11  N2  UNL     1      -4.532  22.955  -7.352  1.00  0.00    -0.280 N 
ATOM     12  H2  UNL     1      -4.262  23.726  -6.742  1.00  0.00     0.193 HD
BRANCH  11  13
HETATM   13  O1  UNL     1      -3.937  21.838  -7.007  1.00  0.00    -0.279 OA
BRANCH  13  14
HETATM   14  C7  UNL     1      -2.621  21.547  -6.710  1.00  0.00     0.229 C 
BRANCH  14  15
HETATM   15  C8  UNL     1      -2.480  20.392  -5.732  1.00  0.00     0.264 C 
BRANCH  15  16
HETATM   16  N3  UNL     1      -1.214  19.716  -5.885  1.00  0.00    -0.076 N 
HETATM   17  C9  UNL     1      -0.110  20.671  -5.944  1.00  0.00     0.271 C 
HETATM   18  C10 UNL     1      -1.147  18.943  -7.115  1.00  0.00     0.271 C 
HETATM   19  C11 UNL     1      -0.960  18.828  -4.751  1.00  0.00     0.271 C 
ENDBRANCH  15  16
ENDBRANCH  14  15
ENDBRANCH  13  14
ENDBRANCH  11  13
ENDBRANCH   5  10
BRANCH   1  20
HETATM   20  C2  UNL     1      -5.980  18.889  -9.049  1.00  0.00    -0.047 C 
HETATM   21  C1  UNL     1      -6.782  17.878  -9.323  1.00  0.00     0.017 C 
HETATM   22  C3  UNL     1      -4.712  18.647  -8.314  1.00  0.00     0.046 C 
ENDBRANCH   1  20
BRANCH   9  23
HETATM   23  O2  UNL     1      -6.756  20.961  -7.310  1.00  0.00    -0.310 OA
ATOM     24  H2  UNL     1      -7.428  20.851  -6.647  1.00  0.00     0.237 HD
ENDBRANCH   9  23
TORSDOF 7
ENDMDL
MODEL 4
REMARK VINA RESULT: -5.297121118      2.239      7.428
REMARK  7 active torsions:
REMARK  status: ('A' for Active; 'I' for Inactive)
REMARK    1  A    between atoms: C2_2  and  C4_4 
REMARK    2  A    between atoms: C5_8  and  C6_9 
REMARK    3  A    between atoms: N2_10  and  O1_12 
REMARK    4  A    between atoms: O1_12  and  C7_13 
REMARK    5  A    between atoms: C7_13  and  C8_14 
REMARK    6  A    between atoms: C8_14  and  N3_15 
REMARK    7  A    between atoms: N4_22  and  O2_23 
ROOT
HETATM    1  C4  UNL     1      -0.845  16.628  -4.274  1.00  0.00     0.314 C 
HETATM    2  N1  UNL     1      -1.824  17.146  -5.218  1.00  0.00    -0.042 N 
ATOM      3  H11 UNL     1      -2.786  17.132  -4.876  1.00  0.00     0.280 HD
ATOM      4  H12 UNL     1      -1.986  16.546  -6.026  1.00  0.00     0.280 HD
HETATM    5  C5  UNL     1      -1.318  18.496  -5.552  1.00  0.00     0.252 C 
HETATM    6  C12 UNL     1       0.053  18.529  -4.988  1.00  0.00     0.067 C 
HETATM    7  C13 UNL     1       0.069  19.122  -3.600  1.00  0.00     0.037 C 
HETATM    8  C14 UNL     1       1.072  19.245  -5.840  1.00  0.00     0.037 C 
HETATM    9  N4  UNL     1       0.411  17.116  -4.877  1.00  0.00    -0.153 NA
ENDROOT
BRANCH   5  10
HETATM   10  C6  UNL     1      -1.438  18.700  -6.989  1.00  0.00     0.122 C 
HETATM   11  N2  UNL     1      -2.467  18.568  -7.693  1.00  0.00    -0.280 N 
ATOM     12  H2  UNL     1      -2.278  18.775  -8.674  1.00  0.00     0.193 HD
BRANCH  11  13
HETATM   13  O1  UNL     1      -3.722  18.235  -7.507  1.00  0.00    -0.279 OA
BRANCH  13  14
HETATM   14  C7  UNL     1      -4.880  18.595  -8.166  1.00  0.00     0.229 C 
BRANCH  14  15
HETATM   15  C8  UNL     1      -5.587  19.773  -7.516  1.00  0.00     0.264 C 
BRANCH  15  16
HETATM   16  N3  UNL     1      -6.000  20.751  -8.492  1.00  0.00    -0.076 N 
HETATM   17  C9  UNL     1      -7.038  21.626  -7.956  1.00  0.00     0.271 C 
HETATM   18  C10 UNL     1      -6.563  20.138  -9.684  1.00  0.00     0.271 C 
HETATM   19  C11 UNL     1      -4.875  21.601  -8.882  1.00  0.00     0.271 C 
ENDBRANCH  15  16
ENDBRANCH  14  15
ENDBRANCH  13  14
ENDBRANCH  11  13
ENDBRANCH   5  10
BRANCH   1  20
HETATM   20  C2  UNL     1      -0.806  15.173  -4.172  1.00  0.00    -0.047 C 
HETATM   21  C1  UNL     1      -0.113  14.588  -3.213  1.00  0.00     0.017 C 
HETATM   22  C3  UNL     1      -1.560  14.346  -5.147  1.00  0.00     0.046 C 
ENDBRANCH   1  20
BRANCH   9  23
HETATM   23  O2  UNL     1       0.480  16.672  -6.176  1.00  0.00    -0.310 OA
ATOM     24  H2  UNL     1       1.286  16.182  -6.289  1.00  0.00     0.237 HD
ENDBRANCH   9  23
TORSDOF 7
ENDMDL
MODEL 5
REMARK VINA RESULT: -5.135028966      2.284      3.767
REMARK  7 active torsions:
REMARK  status: ('A' for Active; 'I' for Inactive)
REMARK    1  A    between atoms: C2_2  and  C4_4 
REMARK    2  A    between atoms: C5_8  and  C6_9 
REMARK    3  A    between atoms: N2_10  and  O1_12 
REMARK    4  A    between atoms: O1_12  and  C7_13 
REMARK    5  A    between atoms: C7_13  and  C8_14 
REMARK    6  A    between atoms: C8_14  and  N3_15 
REMARK    7  A    between atoms: N4_22  and  O2_23 
ROOT
HETATM    1  C4  UNL     1      -6.321  20.217  -9.470  1.00  0.00     0.314 C 
HETATM    2  N1  UNL     1      -5.225  21.165  -9.338  1.00  0.00    -0.042 N 
ATOM      3  H11 UNL     1      -4.516  21.092 -10.068  1.00  0.00     0.280 HD
ATOM      4  H12 UNL     1      -4.598  20.974  -8.556  1.00  0.00     0.280 HD
HETATM    5  C5  UNL     1      -5.896  22.481  -9.272  1.00  0.00     0.252 C 
HETATM    6  C12 UNL     1      -7.333  22.158  -9.092  1.00  0.00     0.067 C 
HETATM    7  C13 UNL     1      -8.063  22.112 -10.412  1.00  0.00     0.037 C 
HETATM    8  C14 UNL     1      -8.076  23.074  -8.151  1.00  0.00     0.037 C 
HETATM    9  N4  UNL     1      -7.310  20.802  -8.543  1.00  0.00    -0.153 NA
ENDROOT
BRANCH   5  10
HETATM   10  C6  UNL     1      -5.270  23.278  -8.226  1.00  0.00     0.122 C 
HETATM   11  N2  UNL     1      -4.504  22.874  -7.319  1.00  0.00    -0.280 N 
ATOM     12  H2  UNL     1      -4.204  23.640  -6.715  1.00  0.00     0.193 HD
BRANCH  11  13
HETATM   13  O1  UNL     1      -3.985  21.732  -6.938  1.00  0.00    -0.279 OA
BRANCH  13  14
HETATM   14  C7  UNL     1      -2.686  21.354  -6.662  1.00  0.00     0.229 C 
BRANCH  14  15
HETATM   15  C8  UNL     1      -2.078  22.136  -5.509  1.00  0.00     0.264 C 
BRANCH  15  16
HETATM   16  N3  UNL     1      -0.783  22.672  -5.854  1.00  0.00    -0.076 N 
HETATM   17  C9  UNL     1      -0.219  23.442  -4.749  1.00  0.00     0.271 C 
HETATM   18  C10 UNL     1      -0.846  23.578  -6.989  1.00  0.00     0.271 C 
HETATM   19  C11 UNL     1       0.160  21.596  -6.158  1.00  0.00     0.271 C 
ENDBRANCH  15  16
ENDBRANCH  14  15
ENDBRANCH  13  14
ENDBRANCH  11  13
ENDBRANCH   5  10
BRANCH   1  20
HETATM   20  C2  UNL     1      -6.005  18.855  -9.052  1.00  0.00    -0.047 C 
HETATM   21  C1  UNL     1      -6.831  17.863  -9.325  1.00  0.00     0.017 C 
HETATM   22  C3  UNL     1      -4.740  18.583  -8.323  1.00  0.00     0.046 C 
ENDBRANCH   1  20
BRANCH   9  23
HETATM   23  O2  UNL     1      -6.731  20.939  -7.305  1.00  0.00    -0.310 OA
ATOM     24  H2  UNL     1      -7.118  21.687  -6.866  1.00  0.00     0.237 HD
ENDBRANCH   9  23
TORSDOF 7
ENDMDL
