MODEL 1
REMARK VINA RESULT: -6.312507063      0.000      0.000
REMARK  9 active torsions:
REMARK  status: ('A' for Active; 'I' for Inactive)
REMARK    1  A    between atoms: C2_3  and  N2_4 
REMARK    2  A    between atoms: N2_4  and  C3_6 
REMARK    3  A    between atoms: C4_9  and  N4_10 
REMARK    4  A    between atoms: N6_17  and  C6_18 
REMARK    5  A    between atoms: C6_18  and  C7_19 
REMARK    6  A    between atoms: C7_19  and  C8_20 
REMARK    7  A    between atoms: C8_20  and  C9_21 
REMARK    8  A    between atoms: C9_21  and  C10_22 
REMARK    9  A    between atoms: C10_22  and  N7_23 
ROOT
HETATM    1  N1  UNL     1      -5.691  24.122  -6.220  1.00  0.00    -0.196 NA
HETATM    2  C1  UNL     1      -4.901  23.795  -6.984  1.00  0.00     0.079 C 
HETATM    3  C2  UNL     1      -3.896  23.358  -7.982  1.00  0.00     0.262 C 
ENDROOT
BRANCH   3   4
HETATM    4  N2  UNL     1      -4.537  22.430  -8.859  1.00  0.00    -0.213 N 
ATOM      5  H2  UNL     1      -4.030  21.576  -9.092  1.00  0.00     0.178 HD
BRANCH   4   6
HETATM    6  C3  UNL     1      -5.698  22.587  -9.378  1.00  0.00     0.699 A 
HETATM    7  N3  UNL     1      -5.901  23.672 -10.161  1.00  0.00    -0.022 N 
HETATM    8  C4  UNL     1      -7.113  23.892 -10.740  1.00  0.00     0.694 A 
ATOM      9  H3  UNL     1      -5.139  24.331 -10.318  1.00  0.00     0.203 HD
HETATM   10  N5  UNL     1      -8.088  22.998 -10.505  1.00  0.00    -0.140 N 
HETATM   11  C5  UNL     1      -7.857  21.926  -9.722  1.00  0.00     0.355 A 
ATOM     12  H5  UNL     1      -9.009  23.131 -10.923  1.00  0.00     0.189 HD
HETATM   13  O1  UNL     1      -8.820  21.137  -9.552  1.00  0.00    -0.245 OA
HETATM   14  N6  UNL     1      -6.669  21.695  -9.144  1.00  0.00    -0.132 N 
BRANCH   8  15
HETATM   15  N4  UNL     1      -7.324  24.938 -11.499  1.00  0.00    -0.234 N 
ATOM     16  H42 UNL     1      -7.794  24.849 -12.400  1.00  0.00     0.174 HD
ATOM     17  H41 UNL     1      -7.025  25.870 -11.211  1.00  0.00     0.174 HD
ENDBRANCH   8  15
BRANCH  14  18
HETATM   18  C6  UNL     1      -6.466  20.532  -8.312  1.00  0.00     0.153 C 
BRANCH  18  19
HETATM   19  C7  UNL     1      -6.117  19.306  -9.085  1.00  0.00     0.021 C 
BRANCH  19  20
HETATM   20  C8  UNL     1      -5.087  18.499  -8.358  1.00  0.00     0.003 C 
BRANCH  20  21
HETATM   21  C9  UNL     1      -4.245  19.274  -7.402  1.00  0.00     0.030 C 
BRANCH  21  22
HETATM   22  C10 UNL     1      -2.922  18.613  -7.168  1.00  0.00     0.272 C 
BRANCH  22  23
HETATM   23  N7  UNL     1      -1.885  19.595  -7.141  1.00  0.00     0.089 N 
HETATM   24  C11 UNL     1      -2.074  20.648  -6.216  1.00  0.00     0.282 C 
HETATM   25  C12 UNL     1      -1.855  20.248  -4.753  1.00  0.00     0.104 C 
HETATM   26  S1  UNL     1      -0.112  19.743  -4.650  1.00  0.00    -0.166 SA
HETATM   27  C13 UNL     1       0.461  19.712  -6.396  1.00  0.00     0.104 C 
HETATM   28  C14 UNL     1      -0.596  19.003  -7.175  1.00  0.00     0.282 C 
ENDBRANCH  22  23
ENDBRANCH  21  22
ENDBRANCH  20  21
ENDBRANCH  19  20
ENDBRANCH  18  19
ENDBRANCH  14  18
ENDBRANCH   4   6
ENDBRANCH   3   4
TORSDOF 9
ENDMDL
MODEL 2
REMARK VINA RESULT: -6.267015836      1.228      1.438
REMARK  9 active torsions:
REMARK  status: ('A' for Active; 'I' for Inactive)
REMARK    1  A    between atoms: C2_3  and  N2_4 
REMARK    2  A    between atoms: N2_4  and  C3_6 
REMARK    3  A    between atoms: C4_9  and  N4_10 
REMARK    4  A    between atoms: N6_17  and  C6_18 
REMARK    5  A    between atoms: C6_18  and  C7_19 
REMARK    6  A    between atoms: C7_19  and  C8_20 
REMARK    7  A    between atoms: C8_20  and  C9_21 
REMARK    8  A    between atoms: C9_21  and  C10_22 
REMARK    9  A    between atoms: C10_22  and  N7_23 
ROOT
HETATM    1  N1  UNL     1      -2.229  22.413  -6.142  1.00  0.00    -0.196 NA
HETATM    2  C1  UNL     1      -2.947  22.976  -6.837  1.00  0.00     0.079 C 
HETATM    3  C2  UNL     1      -3.877  23.683  -7.748  1.00  0.00     0.262 C 
ENDROOT
BRANCH   3   4
HETATM    4  N2  UNL     1      -4.344  22.734  -8.708  1.00  0.00    -0.213 N 
ATOM      5  H2  UNL     1      -3.703  21.991  -8.984  1.00  0.00     0.178 HD
BRANCH   4   6
HETATM    6  C3  UNL     1      -5.505  22.744  -9.251  1.00  0.00     0.699 A 
HETATM    7  N3  UNL     1      -5.826  23.794 -10.042  1.00  0.00    -0.022 N 
HETATM    8  C4  UNL     1      -7.044  23.861 -10.646  1.00  0.00     0.694 A 
ATOM      9  H3  UNL     1      -5.148  24.543 -10.187  1.00  0.00     0.203 HD
HETATM   10  N5  UNL     1      -7.905  22.853 -10.427  1.00  0.00    -0.140 N 
HETATM   11  C5  UNL     1      -7.558  21.820  -9.634  1.00  0.00     0.355 A 
ATOM     12  H5  UNL     1      -8.826  22.870 -10.864  1.00  0.00     0.189 HD
HETATM   13  O1  UNL     1      -8.418  20.917  -9.480  1.00  0.00    -0.245 OA
HETATM   14  N6  UNL     1      -6.362  21.739  -9.032  1.00  0.00    -0.132 N 
BRANCH   8  15
HETATM   15  N4  UNL     1      -7.367  24.871 -11.414  1.00  0.00    -0.234 N 
ATOM     16  H42 UNL     1      -7.447  25.815 -11.035  1.00  0.00     0.174 HD
ATOM     17  H41 UNL     1      -7.548  24.743 -12.410  1.00  0.00     0.174 HD
ENDBRANCH   8  15
BRANCH  14  18
HETATM   18  C6  UNL     1      -6.033  20.612  -8.192  1.00  0.00     0.153 C 
BRANCH  18  19
HETATM   19  C7  UNL     1      -5.575  19.418  -8.957  1.00  0.00     0.021 C 
BRANCH  19  20
HETATM   20  C8  UNL     1      -4.707  18.546  -8.104  1.00  0.00     0.003 C 
BRANCH  20  21
HETATM   21  C9  UNL     1      -3.585  19.253  -7.422  1.00  0.00     0.030 C 
BRANCH  21  22
HETATM   22  C10 UNL     1      -2.513  18.302  -6.989  1.00  0.00     0.272 C 
BRANCH  22  23
HETATM   23  N7  UNL     1      -1.401  19.028  -6.465  1.00  0.00     0.089 N 
HETATM   24  C11 UNL     1      -1.101  18.777  -5.106  1.00  0.00     0.282 C 
HETATM   25  C12 UNL     1      -0.448  17.415  -4.846  1.00  0.00     0.104 C 
HETATM   26  S1  UNL     1       1.128  17.460  -5.748  1.00  0.00    -0.166 SA
HETATM   27  C13 UNL     1       1.049  19.008  -6.737  1.00  0.00     0.104 C 
HETATM   28  C14 UNL     1      -0.305  19.038  -7.366  1.00  0.00     0.282 C 
ENDBRANCH  22  23
ENDBRANCH  21  22
ENDBRANCH  20  21
ENDBRANCH  19  20
ENDBRANCH  18  19
ENDBRANCH  14  18
ENDBRANCH   4   6
ENDBRANCH   3   4
TORSDOF 9
ENDMDL
MODEL 3
REMARK VINA RESULT: -6.258579167      1.930      3.108
REMARK  9 active torsions:
REMARK  status: ('A' for Active; 'I' for Inactive)
REMARK    1  A    between atoms: C2_3  and  N2_4 
REMARK    2  A    between atoms: N2_4  and  C3_6 
REMARK    3  A    between atoms: C4_9  and  N4_10 
REMARK    4  A    between atoms: N6_17  and  C6_18 
REMARK    5  A    between atoms: C6_18  and  C7_19 
REMARK    6  A    between atoms: C7_19  and  C8_20 
REMARK    7  A    between atoms: C8_20  and  C9_21 
REMARK    8  A    between atoms: C9_21  and  C10_22 
REMARK    9  A    between atoms: C10_22  and  N7_23 
ROOT
HETATM    1  N1  UNL     1      -6.910  17.747  -9.539  1.00  0.00    -0.196 NA
HETATM    2  C1  UNL     1      -6.861  18.772 -10.052  1.00  0.00     0.079 C 
HETATM    3  C2  UNL     1      -6.807  20.105 -10.695  1.00  0.00     0.262 C 
ENDROOT
BRANCH   3   4
HETATM    4  N2  UNL     1      -7.225  21.068  -9.726  1.00  0.00    -0.213 N 
ATOM      5  H2  UNL     1      -7.861  20.752  -8.994  1.00  0.00     0.178 HD
BRANCH   4   6
HETATM    6  C3  UNL     1      -6.865  22.298  -9.705  1.00  0.00     0.699 A 
HETATM    7  N3  UNL     1      -7.207  23.076 -10.758  1.00  0.00    -0.022 N 
HETATM    8  C4  UNL     1      -6.853  24.390 -10.792  1.00  0.00     0.694 A 
ATOM      9  H3  UNL     1      -7.734  22.674 -11.533  1.00  0.00     0.203 HD
HETATM   10  N5  UNL     1      -6.159  24.877  -9.750  1.00  0.00    -0.140 N 
HETATM   11  C5  UNL     1      -5.833  24.078  -8.714  1.00  0.00     0.355 A 
ATOM     12  H5  UNL     1      -5.878  25.857  -9.742  1.00  0.00     0.189 HD
HETATM   13  O1  UNL     1      -5.185  24.609  -7.778  1.00  0.00    -0.245 OA
HETATM   14  N6  UNL     1      -6.175  22.782  -8.665  1.00  0.00    -0.132 N 
BRANCH   8  15
HETATM   15  N4  UNL     1      -7.176  25.155 -11.805  1.00  0.00    -0.234 N 
ATOM     16  H42 UNL     1      -8.077  25.632 -11.838  1.00  0.00     0.174 HD
ATOM     17  H41 UNL     1      -6.537  25.294 -12.587  1.00  0.00     0.174 HD
ENDBRANCH   8  15
BRANCH  14  18
HETATM   18  C6  UNL     1      -5.805  21.964  -7.534  1.00  0.00     0.153 C 
BRANCH  18  19
HETATM   19  C7  UNL     1      -4.582  21.146  -7.771  1.00  0.00     0.021 C 
BRANCH  19  20
HETATM   20  C8  UNL     1      -4.799  19.732  -7.331  1.00  0.00     0.003 C 
BRANCH  20  21
HETATM   21  C9  UNL     1      -3.610  18.842  -7.470  1.00  0.00     0.030 C 
BRANCH  21  22
HETATM   22  C10 UNL     1      -2.331  19.593  -7.272  1.00  0.00     0.272 C 
BRANCH  22  23
HETATM   23  N7  UNL     1      -1.277  18.685  -6.952  1.00  0.00     0.089 N 
HETATM   24  C11 UNL     1      -0.067  19.286  -6.532  1.00  0.00     0.282 C 
HETATM   25  C12 UNL     1      -0.111  19.871  -5.117  1.00  0.00     0.104 C 
HETATM   26  S1  UNL     1      -0.419  18.454  -4.022  1.00  0.00    -0.166 SA
HETATM   27  C13 UNL     1      -0.783  17.060  -5.165  1.00  0.00     0.104 C 
HETATM   28  C14 UNL     1      -1.740  17.587  -6.182  1.00  0.00     0.282 C 
ENDBRANCH  22  23
ENDBRANCH  21  22
ENDBRANCH  20  21
ENDBRANCH  19  20
ENDBRANCH  18  19
ENDBRANCH  14  18
ENDBRANCH   4   6
ENDBRANCH   3   4
TORSDOF 9
ENDMDL
MODEL 4
REMARK VINA RESULT: -6.207487935      1.074      1.599
REMARK  9 active torsions:
REMARK  status: ('A' for Active; 'I' for Inactive)
REMARK    1  A    between atoms: C2_3  and  N2_4 
REMARK    2  A    between atoms: N2_4  and  C3_6 
REMARK    3  A    between atoms: C4_9  and  N4_10 
REMARK    4  A    between atoms: N6_17  and  C6_18 
REMARK    5  A    between atoms: C6_18  and  C7_19 
REMARK    6  A    between atoms: C7_19  and  C8_20 
REMARK    7  A    between atoms: C8_20  and  C9_21 
REMARK    8  A    between atoms: C9_21  and  C10_22 
REMARK    9  A    between atoms: C10_22  and  N7_23 
ROOT
HETATM    1  N1  UNL     1      -1.759  24.121  -7.254  1.00  0.00    -0.196 NA
HETATM    2  C1  UNL     1      -2.832  23.715  -7.244  1.00  0.00     0.079 C 
HETATM    3  C2  UNL     1      -4.215  23.185  -7.255  1.00  0.00     0.262 C 
ENDROOT
BRANCH   3   4
HETATM    4  N2  UNL     1      -4.461  22.649  -8.556  1.00  0.00    -0.213 N 
ATOM      5  H2  UNL     1      -3.681  22.197  -9.033  1.00  0.00     0.178 HD
BRANCH   4   6
HETATM    6  C3  UNL     1      -5.584  22.692  -9.172  1.00  0.00     0.699 A 
HETATM    7  N3  UNL     1      -5.837  23.767  -9.954  1.00  0.00    -0.022 N 
HETATM    8  C4  UNL     1      -7.013  23.869 -10.633  1.00  0.00     0.694 A 
ATOM      9  H3  UNL     1      -5.141  24.509 -10.035  1.00  0.00     0.203 HD
HETATM   10  N5  UNL     1      -7.900  22.870 -10.497  1.00  0.00    -0.140 N 
HETATM   11  C5  UNL     1      -7.621  21.811  -9.712  1.00  0.00     0.355 A 
ATOM     12  H5  UNL     1      -8.791  22.913 -10.991  1.00  0.00     0.189 HD
HETATM   13  O1  UNL     1      -8.502  20.919  -9.637  1.00  0.00    -0.245 OA
HETATM   14  N6  UNL     1      -6.467  21.696  -9.036  1.00  0.00    -0.132 N 
BRANCH   8  15
HETATM   15  N4  UNL     1      -7.271  24.904 -11.392  1.00  0.00    -0.234 N 
ATOM     16  H42 UNL     1      -6.733  25.766 -11.308  1.00  0.00     0.174 HD
ATOM     17  H41 UNL     1      -8.016  24.876 -12.089  1.00  0.00     0.174 HD
ENDBRANCH   8  15
BRANCH  14  18
HETATM   18  C6  UNL     1      -6.210  20.542  -8.207  1.00  0.00     0.153 C 
BRANCH  18  19
HETATM   19  C7  UNL     1      -5.736  19.356  -8.975  1.00  0.00     0.021 C 
BRANCH  19  20
HETATM   20  C8  UNL     1      -4.760  18.559  -8.166  1.00  0.00     0.003 C 
BRANCH  20  21
HETATM   21  C9  UNL     1      -3.815  19.371  -7.346  1.00  0.00     0.030 C 
BRANCH  21  22
HETATM   22  C10 UNL     1      -2.473  18.717  -7.238  1.00  0.00     0.272 C 
BRANCH  22  23
HETATM   23  N7  UNL     1      -1.866  19.054  -5.991  1.00  0.00     0.089 N 
HETATM   24  C11 UNL     1      -0.500  18.708  -5.871  1.00  0.00     0.282 C 
HETATM   25  C12 UNL     1       0.450  19.602  -6.674  1.00  0.00     0.104 C 
HETATM   26  S1  UNL     1       0.249  21.266  -5.972  1.00  0.00    -0.166 SA
HETATM   27  C13 UNL     1      -1.176  21.111  -4.823  1.00  0.00     0.104 C 
HETATM   28  C14 UNL     1      -2.232  20.354  -5.558  1.00  0.00     0.282 C 
ENDBRANCH  22  23
ENDBRANCH  21  22
ENDBRANCH  20  21
ENDBRANCH  19  20
ENDBRANCH  18  19
ENDBRANCH  14  18
ENDBRANCH   4   6
ENDBRANCH   3   4
TORSDOF 9
ENDMDL
MODEL 5
REMARK VINA RESULT: -6.168602002      2.046      2.497
REMARK  9 active torsions:
REMARK  status: ('A' for Active; 'I' for Inactive)
REMARK    1  A    between atoms: C2_3  and  N2_4 
REMARK    2  A    between atoms: N2_4  and  C3_6 
REMARK    3  A    between atoms: C4_9  and  N4_10 
REMARK    4  A    between atoms: N6_17  and  C6_18 
REMARK    5  A    between atoms: C6_18  and  C7_19 
REMARK    6  A    between atoms: C7_19  and  C8_20 
REMARK    7  A    between atoms: C8_20  and  C9_21 
REMARK    8  A    between atoms: C9_21  and  C10_22 
REMARK    9  A    between atoms: C10_22  and  N7_23 
ROOT
HETATM    1  N1  UNL     1      -5.642  24.484  -6.388  1.00  0.00    -0.196 NA
HETATM    2  C1  UNL     1      -6.542  23.774  -6.338  1.00  0.00     0.079 C 
HETATM    3  C2  UNL     1      -7.691  22.840  -6.286  1.00  0.00     0.262 C 
ENDROOT
BRANCH   3   4
HETATM    4  N2  UNL     1      -7.309  21.648  -6.973  1.00  0.00    -0.213 N 
ATOM      5  H2  UNL     1      -6.907  20.893  -6.417  1.00  0.00     0.178 HD
BRANCH   4   6
HETATM    6  C3  UNL     1      -7.429  21.452  -8.234  1.00  0.00     0.699 A 
HETATM    7  N3  UNL     1      -8.100  22.378  -8.958  1.00  0.00    -0.022 N 
HETATM    8  C4  UNL     1      -8.260  22.226 -10.301  1.00  0.00     0.694 A 
ATOM      9  H3  UNL     1      -8.489  23.199  -8.493  1.00  0.00     0.203 HD
HETATM   10  N5  UNL     1      -7.732  21.130 -10.872  1.00  0.00    -0.140 N 
HETATM   11  C5  UNL     1      -7.069  20.224 -10.126  1.00  0.00     0.355 A 
ATOM     12  H5  UNL     1      -7.833  20.983 -11.876  1.00  0.00     0.189 HD
HETATM   13  O1  UNL     1      -6.604  19.228 -10.734  1.00  0.00    -0.245 OA
HETATM   14  N6  UNL     1      -6.902  20.361  -8.802  1.00  0.00    -0.132 N 
BRANCH   8  15
HETATM   15  N4  UNL     1      -8.907  23.113 -11.014  1.00  0.00    -0.234 N 
ATOM     16  H42 UNL     1      -9.708  23.615 -10.629  1.00  0.00     0.174 HD
ATOM     17  H41 UNL     1      -8.628  23.329 -11.971  1.00  0.00     0.174 HD
ENDBRANCH   8  15
BRANCH  14  18
HETATM   18  C6  UNL     1      -6.183  19.364  -8.043  1.00  0.00     0.153 C 
BRANCH  18  19
HETATM   19  C7  UNL     1      -4.764  19.735  -7.776  1.00  0.00     0.021 C 
BRANCH  19  20
HETATM   20  C8  UNL     1      -3.896  18.516  -7.749  1.00  0.00     0.003 C 
BRANCH  20  21
HETATM   21  C9  UNL     1      -2.471  18.769  -7.389  1.00  0.00     0.030 C 
BRANCH  21  22
HETATM   22  C10 UNL     1      -1.976  17.792  -6.369  1.00  0.00     0.272 C 
BRANCH  22  23
HETATM   23  N7  UNL     1      -0.921  18.378  -5.606  1.00  0.00     0.089 N 
HETATM   24  C11 UNL     1      -0.332  17.531  -4.638  1.00  0.00     0.282 C 
HETATM   25  C12 UNL     1       0.576  16.443  -5.222  1.00  0.00     0.104 C 
HETATM   26  S1  UNL     1       1.924  17.337  -6.050  1.00  0.00    -0.166 SA
HETATM   27  C13 UNL     1       1.402  19.099  -6.004  1.00  0.00     0.104 C 
HETATM   28  C14 UNL     1      -0.031  19.126  -6.420  1.00  0.00     0.282 C 
ENDBRANCH  22  23
ENDBRANCH  21  22
ENDBRANCH  20  21
ENDBRANCH  19  20
ENDBRANCH  18  19
ENDBRANCH  14  18
ENDBRANCH   4   6
ENDBRANCH   3   4
TORSDOF 9
ENDMDL
