MODEL 1
REMARK VINA RESULT: -6.862072367      0.000      0.000
REMARK  7 active torsions:
REMARK  status: ('A' for Active; 'I' for Inactive)
REMARK    1  A    between atoms: C3_8  and  N4_9 
REMARK    2  A    between atoms: C3_8  and  N5_15 
REMARK    3  A    between atoms: C8_18  and  C9_19 
REMARK    4  A    between atoms: C9_19  and  C10_20 
REMARK    5  A    between atoms: N6_21  and  C11_23 
REMARK    6  A    between atoms: C11_23  and  C12_24 
REMARK    7  A    between atoms: C12_24  and  C13_25 
ROOT
HETATM    1  N1  UNL     1      -5.648  26.209  -7.016  1.00  0.00    -0.062 NA
HETATM    2  C1  UNL     1      -5.636  24.937  -7.660  1.00  0.00     0.203 C 
HETATM    3  N2  UNL     1      -5.744  25.012  -8.965  1.00  0.00    -0.274 N 
ATOM      4  H2  UNL     1      -5.824  25.933  -9.397  1.00  0.00     0.189 HD
HETATM    5  N3  UNL     1      -5.754  23.876  -9.793  1.00  0.00    -0.309 N 
ATOM      6  H3  UNL     1      -5.571  24.067 -10.778  1.00  0.00     0.185 HD
HETATM    7  C2  UNL     1      -5.957  22.631  -9.515  1.00  0.00     0.142 C 
HETATM    8  C3  UNL     1      -6.255  21.999  -8.180  1.00  0.00     0.224 C 
HETATM    9  C8  UNL     1      -5.225  22.406  -7.215  1.00  0.00     0.149 C 
HETATM   10  N7  UNL     1      -5.513  23.798  -6.819  1.00  0.00    -0.354 N 
ATOM     11  H7  UNL     1      -5.638  23.963  -5.820  1.00  0.00     0.162 HD
ENDROOT
BRANCH   8  12
HETATM   12  N4  UNL     1      -6.524  20.650  -8.414  1.00  0.00    -0.352 N 
HETATM   13  C4  UNL     1      -6.092  19.672  -7.514  1.00  0.00     0.087 C 
HETATM   14  C5  UNL     1      -5.490  18.510  -8.274  1.00  0.00     0.212 C 
HETATM   15  O1  UNL     1      -6.373  18.056  -9.236  1.00  0.00    -0.385 OA
HETATM   16  C6  UNL     1      -6.518  19.078 -10.202  1.00  0.00     0.188 C 
HETATM   17  C7  UNL     1      -7.283  20.206  -9.482  1.00  0.00     0.151 C 
ENDBRANCH   8  12
BRANCH   8  18
HETATM   18  N5  UNL     1      -7.501  22.666  -7.756  1.00  0.00    -0.116 N 
HETATM   19  O2  UNL     1      -8.175  23.401  -8.464  1.00  0.00    -0.534 OA
HETATM   20  O3  UNL     1      -7.901  22.412  -6.456  1.00  0.00    -0.534 OA
ENDBRANCH   8  18
BRANCH   9  21
HETATM   21  C9  UNL     1      -3.799  22.405  -7.657  1.00  0.00     0.074 C 
BRANCH  21  22
HETATM   22  C10 UNL     1      -2.944  21.544  -6.767  1.00  0.00     0.057 C 
HETATM   23  N6  UNL     1      -2.570  20.370  -7.080  1.00  0.00    -0.402 N 
ATOM     24  H6  UNL     1      -2.857  19.979  -7.977  1.00  0.00     0.158 HD
BRANCH  23  25
HETATM   25  C11 UNL     1      -1.760  19.588  -6.211  1.00  0.00     0.119 C 
BRANCH  25  26
HETATM   26  C12 UNL     1      -1.954  18.099  -6.498  1.00  0.00     0.024 C 
BRANCH  26  27
HETATM   27  C13 UNL     1      -0.843  17.281  -5.899  1.00  0.00    -0.013 A 
HETATM   28  C14 UNL     1      -1.187  15.925  -5.316  1.00  0.00     0.005 A 
HETATM   29  C15 UNL     1      -0.715  17.045  -4.452  1.00  0.00     0.005 A 
ENDBRANCH  26  27
ENDBRANCH  25  26
ENDBRANCH  23  25
ENDBRANCH  21  22
ENDBRANCH   9  21
TORSDOF 7
ENDMDL
MODEL 2
REMARK VINA RESULT: -6.747344992      1.015      1.248
REMARK  7 active torsions:
REMARK  status: ('A' for Active; 'I' for Inactive)
REMARK    1  A    between atoms: C3_8  and  N4_9 
REMARK    2  A    between atoms: C3_8  and  N5_15 
REMARK    3  A    between atoms: C8_18  and  C9_19 
REMARK    4  A    between atoms: C9_19  and  C10_20 
REMARK    5  A    between atoms: N6_21  and  C11_23 
REMARK    6  A    between atoms: C11_23  and  C12_24 
REMARK    7  A    between atoms: C12_24  and  C13_25 
ROOT
HETATM    1  N1  UNL     1      -5.712  26.293  -7.088  1.00  0.00    -0.062 NA
HETATM    2  C1  UNL     1      -5.677  25.005  -7.698  1.00  0.00     0.203 C 
HETATM    3  N2  UNL     1      -5.763  25.045  -9.006  1.00  0.00    -0.274 N 
ATOM      4  H2  UNL     1      -5.845  25.953  -9.463  1.00  0.00     0.189 HD
HETATM    5  N3  UNL     1      -5.749  23.888  -9.804  1.00  0.00    -0.309 N 
ATOM      6  H3  UNL     1      -5.551  24.055 -10.791  1.00  0.00     0.185 HD
HETATM    7  C2  UNL     1      -5.944  22.648  -9.497  1.00  0.00     0.142 C 
HETATM    8  C3  UNL     1      -6.258  22.048  -8.151  1.00  0.00     0.224 C 
HETATM    9  C8  UNL     1      -5.249  22.491  -7.180  1.00  0.00     0.149 C 
HETATM   10  N7  UNL     1      -5.557  23.889  -6.825  1.00  0.00    -0.354 N 
ATOM     11  H7  UNL     1      -5.700  24.078  -5.833  1.00  0.00     0.162 HD
ENDROOT
BRANCH   8  12
HETATM   12  N4  UNL     1      -6.510  20.690  -8.354  1.00  0.00    -0.352 N 
HETATM   13  C4  UNL     1      -6.034  19.736  -7.451  1.00  0.00     0.087 C 
HETATM   14  C5  UNL     1      -5.435  18.571  -8.209  1.00  0.00     0.212 C 
HETATM   15  O1  UNL     1      -6.338  18.086  -9.137  1.00  0.00    -0.385 OA
HETATM   16  C6  UNL     1      -6.529  19.088 -10.115  1.00  0.00     0.188 C 
HETATM   17  C7  UNL     1      -7.293  20.215  -9.391  1.00  0.00     0.151 C 
ENDBRANCH   8  12
BRANCH   8  18
HETATM   18  N5  UNL     1      -7.518  22.713  -7.764  1.00  0.00    -0.116 N 
HETATM   19  O2  UNL     1      -8.179  23.435  -8.498  1.00  0.00    -0.534 OA
HETATM   20  O3  UNL     1      -7.947  22.473  -6.471  1.00  0.00    -0.534 OA
ENDBRANCH   8  18
BRANCH   9  21
HETATM   21  C9  UNL     1      -3.816  22.492  -7.599  1.00  0.00     0.074 C 
BRANCH  21  22
HETATM   22  C10 UNL     1      -2.982  21.595  -6.724  1.00  0.00     0.057 C 
HETATM   23  N6  UNL     1      -2.533  20.468  -7.103  1.00  0.00    -0.402 N 
ATOM     24  H6  UNL     1      -2.742  20.143  -8.047  1.00  0.00     0.158 HD
BRANCH  23  25
HETATM   25  C11 UNL     1      -1.747  19.649  -6.247  1.00  0.00     0.119 C 
BRANCH  25  26
HETATM   26  C12 UNL     1      -0.883  18.693  -7.068  1.00  0.00     0.024 C 
BRANCH  26  27
HETATM   27  C13 UNL     1       0.580  18.956  -6.846  1.00  0.00    -0.013 A 
HETATM   28  C14 UNL     1       1.559  18.506  -7.913  1.00  0.00     0.005 A 
HETATM   29  C15 UNL     1       1.550  17.888  -6.557  1.00  0.00     0.005 A 
ENDBRANCH  26  27
ENDBRANCH  25  26
ENDBRANCH  23  25
ENDBRANCH  21  22
ENDBRANCH   9  21
TORSDOF 7
ENDMDL
MODEL 3
REMARK VINA RESULT: -6.553216039      6.062      8.199
REMARK  7 active torsions:
REMARK  status: ('A' for Active; 'I' for Inactive)
REMARK    1  A    between atoms: C3_8  and  N4_9 
REMARK    2  A    between atoms: C3_8  and  N5_15 
REMARK    3  A    between atoms: C8_18  and  C9_19 
REMARK    4  A    between atoms: C9_19  and  C10_20 
REMARK    5  A    between atoms: N6_21  and  C11_23 
REMARK    6  A    between atoms: C11_23  and  C12_24 
REMARK    7  A    between atoms: C12_24  and  C13_25 
ROOT
HETATM    1  N1  UNL     1       2.183  17.608  -8.276  1.00  0.00    -0.062 NA
HETATM    2  C1  UNL     1       1.132  17.980  -7.387  1.00  0.00     0.203 C 
HETATM    3  N2  UNL     1       0.241  18.771  -7.935  1.00  0.00    -0.274 N 
ATOM      4  H2  UNL     1       0.364  19.046  -8.910  1.00  0.00     0.189 HD
HETATM    5  N3  UNL     1      -0.877  19.257  -7.234  1.00  0.00    -0.309 N 
ATOM      6  H3  UNL     1      -1.620  19.628  -7.825  1.00  0.00     0.185 HD
HETATM    7  C2  UNL     1      -1.119  19.313  -5.966  1.00  0.00     0.142 C 
HETATM    8  C3  UNL     1      -0.252  18.862  -4.820  1.00  0.00     0.224 C 
HETATM    9  C8  UNL     1       0.143  17.464  -5.036  1.00  0.00     0.149 C 
HETATM   10  N7  UNL     1       1.197  17.454  -6.067  1.00  0.00    -0.354 N 
ATOM     11  H7  UNL     1       2.080  17.017  -5.802  1.00  0.00     0.162 HD
ENDROOT
BRANCH   8  12
HETATM   12  N4  UNL     1      -0.892  19.252  -3.642  1.00  0.00    -0.352 N 
HETATM   13  C4  UNL     1      -1.700  20.392  -3.616  1.00  0.00     0.087 C 
HETATM   14  C5  UNL     1      -1.397  21.204  -2.376  1.00  0.00     0.212 C 
HETATM   15  O1  UNL     1      -1.486  20.410  -1.248  1.00  0.00    -0.385 OA
HETATM   16  C6  UNL     1      -0.447  19.455  -1.312  1.00  0.00     0.188 C 
HETATM   17  C7  UNL     1      -0.835  18.516  -2.472  1.00  0.00     0.151 C 
ENDBRANCH   8  12
BRANCH   8  18
HETATM   18  N5  UNL     1       0.976  19.664  -4.983  1.00  0.00    -0.116 N 
HETATM   19  O2  UNL     1       1.105  20.590  -5.771  1.00  0.00    -0.534 OA
HETATM   20  O3  UNL     1       2.032  19.312  -4.161  1.00  0.00    -0.534 OA
ENDBRANCH   8  18
BRANCH   9  21
HETATM   21  C9  UNL     1      -0.893  16.502  -5.515  1.00  0.00     0.074 C 
BRANCH  21  22
HETATM   22  C10 UNL     1      -1.196  15.453  -4.480  1.00  0.00     0.057 C 
HETATM   23  N6  UNL     1      -0.349  15.049  -3.624  1.00  0.00    -0.402 N 
ATOM     24  H6  UNL     1       0.590  15.447  -3.628  1.00  0.00     0.158 HD
BRANCH  23  25
HETATM   25  C11 UNL     1      -0.675  14.056  -2.659  1.00  0.00     0.119 C 
BRANCH  25  26
HETATM   26  C12 UNL     1       0.136  12.784  -2.908  1.00  0.00     0.024 C 
BRANCH  26  27
HETATM   27  C13 UNL     1      -0.520  11.917  -3.946  1.00  0.00    -0.013 A 
HETATM   28  C14 UNL     1       0.283  10.776  -4.537  1.00  0.00     0.005 A 
HETATM   29  C15 UNL     1      -0.136  11.941  -5.367  1.00  0.00     0.005 A 
ENDBRANCH  26  27
ENDBRANCH  25  26
ENDBRANCH  23  25
ENDBRANCH  21  22
ENDBRANCH   9  21
TORSDOF 7
ENDMDL
MODEL 4
REMARK VINA RESULT: -6.491834027      1.909      4.405
REMARK  7 active torsions:
REMARK  status: ('A' for Active; 'I' for Inactive)
REMARK    1  A    between atoms: C3_8  and  N4_9 
REMARK    2  A    between atoms: C3_8  and  N5_15 
REMARK    3  A    between atoms: C8_18  and  C9_19 
REMARK    4  A    between atoms: C9_19  and  C10_20 
REMARK    5  A    between atoms: N6_21  and  C11_23 
REMARK    6  A    between atoms: C11_23  and  C12_24 
REMARK    7  A    between atoms: C12_24  and  C13_25 
ROOT
HETATM    1  N1  UNL     1      -7.009  19.414 -10.349  1.00  0.00    -0.062 NA
HETATM    2  C1  UNL     1      -6.976  20.495  -9.421  1.00  0.00     0.203 C 
HETATM    3  N2  UNL     1      -8.043  20.565  -8.662  1.00  0.00    -0.274 N 
ATOM      4  H2  UNL     1      -8.780  19.871  -8.790  1.00  0.00     0.189 HD
HETATM    5  N3  UNL     1      -8.214  21.556  -7.680  1.00  0.00    -0.309 N 
ATOM      6  H3  UNL     1      -8.936  21.350  -6.990  1.00  0.00     0.185 HD
HETATM    7  C2  UNL     1      -7.609  22.685  -7.506  1.00  0.00     0.142 C 
HETATM    8  C3  UNL     1      -6.507  23.300  -8.328  1.00  0.00     0.224 C 
HETATM    9  C8  UNL     1      -5.408  22.336  -8.457  1.00  0.00     0.149 C 
HETATM   10  N7  UNL     1      -5.820  21.323  -9.448  1.00  0.00    -0.354 N 
ATOM     11  H7  UNL     1      -5.200  21.202 -10.250  1.00  0.00     0.162 HD
ENDROOT
BRANCH   8  12
HETATM   12  N4  UNL     1      -6.281  24.581  -7.819  1.00  0.00    -0.352 N 
HETATM   13  C4  UNL     1      -5.010  25.159  -7.887  1.00  0.00     0.087 C 
HETATM   14  C5  UNL     1      -4.675  25.811  -6.564  1.00  0.00     0.212 C 
HETATM   15  O1  UNL     1      -5.683  26.679  -6.187  1.00  0.00    -0.385 OA
HETATM   16  C6  UNL     1      -6.837  25.909  -5.923  1.00  0.00     0.188 C 
HETATM   17  C7  UNL     1      -7.286  25.375  -7.298  1.00  0.00     0.151 C 
ENDBRANCH   8  12
BRANCH   8  18
HETATM   18  N5  UNL     1      -7.107  23.422  -9.670  1.00  0.00    -0.116 N 
HETATM   19  O2  UNL     1      -8.284  23.214  -9.930  1.00  0.00    -0.534 OA
HETATM   20  O3  UNL     1      -6.240  23.803 -10.679  1.00  0.00    -0.534 OA
ENDBRANCH   8  18
BRANCH   9  21
HETATM   21  C9  UNL     1      -4.995  21.565  -7.248  1.00  0.00     0.074 C 
BRANCH  21  22
HETATM   22  C10 UNL     1      -4.079  20.425  -7.603  1.00  0.00     0.057 C 
HETATM   23  N6  UNL     1      -4.207  19.252  -7.131  1.00  0.00    -0.402 N 
ATOM     24  H6  UNL     1      -4.965  19.059  -6.476  1.00  0.00     0.158 HD
BRANCH  23  25
HETATM   25  C11 UNL     1      -3.321  18.200  -7.493  1.00  0.00     0.119 C 
BRANCH  25  26
HETATM   26  C12 UNL     1      -1.872  18.606  -7.224  1.00  0.00     0.024 C 
BRANCH  26  27
HETATM   27  C13 UNL     1      -1.407  18.106  -5.885  1.00  0.00    -0.013 A 
HETATM   28  C14 UNL     1      -0.022  17.496  -5.790  1.00  0.00     0.005 A 
HETATM   29  C15 UNL     1      -1.249  16.676  -5.576  1.00  0.00     0.005 A 
ENDBRANCH  26  27
ENDBRANCH  25  26
ENDBRANCH  23  25
ENDBRANCH  21  22
ENDBRANCH   9  21
TORSDOF 7
ENDMDL
MODEL 5
REMARK VINA RESULT: -6.414984869      5.028      7.989
REMARK  7 active torsions:
REMARK  status: ('A' for Active; 'I' for Inactive)
REMARK    1  A    between atoms: C3_8  and  N4_9 
REMARK    2  A    between atoms: C3_8  and  N5_15 
REMARK    3  A    between atoms: C8_18  and  C9_19 
REMARK    4  A    between atoms: C9_19  and  C10_20 
REMARK    5  A    between atoms: N6_21  and  C11_23 
REMARK    6  A    between atoms: C11_23  and  C12_24 
REMARK    7  A    between atoms: C12_24  and  C13_25 
ROOT
HETATM    1  N1  UNL     1       2.183  21.229  -7.566  1.00  0.00    -0.062 NA
HETATM    2  C1  UNL     1       1.429  20.491  -6.607  1.00  0.00     0.203 C 
HETATM    3  N2  UNL     1       1.680  20.840  -5.367  1.00  0.00    -0.274 N 
ATOM      4  H2  UNL     1       2.363  21.577  -5.195  1.00  0.00     0.189 HD
HETATM    5  N3  UNL     1       1.046  20.238  -4.266  1.00  0.00    -0.309 N 
ATOM      6  H3  UNL     1       1.117  20.765  -3.396  1.00  0.00     0.185 HD
HETATM    7  C2  UNL     1       0.389  19.129  -4.173  1.00  0.00     0.142 C 
HETATM    8  C3  UNL     1       0.095  18.114  -5.246  1.00  0.00     0.224 C 
HETATM    9  C8  UNL     1      -0.528  18.790  -6.390  1.00  0.00     0.149 C 
HETATM   10  N7  UNL     1       0.536  19.509  -7.116  1.00  0.00    -0.354 N 
ATOM     11  H7  UNL     1       0.644  19.273  -8.102  1.00  0.00     0.162 HD
ENDROOT
BRANCH   8  12
HETATM   12  N4  UNL     1      -0.529  17.029  -4.627  1.00  0.00    -0.352 N 
HETATM   13  C4  UNL     1      -0.348  16.790  -3.262  1.00  0.00     0.087 C 
HETATM   14  C5  UNL     1      -0.097  15.315  -3.032  1.00  0.00     0.212 C 
HETATM   15  O1  UNL     1      -1.094  14.561  -3.622  1.00  0.00    -0.385 OA
HETATM   16  C6  UNL     1      -0.988  14.727  -5.021  1.00  0.00     0.188 C 
HETATM   17  C7  UNL     1      -1.407  16.187  -5.284  1.00  0.00     0.151 C 
ENDBRANCH   8  12
BRANCH   8  18
HETATM   18  N5  UNL     1       1.437  17.696  -5.698  1.00  0.00    -0.116 N 
HETATM   19  O2  UNL     1       2.480  17.952  -5.115  1.00  0.00    -0.534 OA
HETATM   20  O3  UNL     1       1.469  16.959  -6.869  1.00  0.00    -0.534 OA
ENDBRANCH   8  18
BRANCH   9  21
HETATM   21  C9  UNL     1      -1.585  19.809  -6.121  1.00  0.00     0.074 C 
BRANCH  21  22
HETATM   22  C10 UNL     1      -2.790  19.603  -6.999  1.00  0.00     0.057 C 
HETATM   23  N6  UNL     1      -3.411  18.498  -7.087  1.00  0.00    -0.402 N 
ATOM     24  H6  UNL     1      -3.086  17.700  -6.541  1.00  0.00     0.158 HD
BRANCH  23  25
HETATM   25  C11 UNL     1      -4.547  18.343  -7.928  1.00  0.00     0.119 C 
BRANCH  25  26
HETATM   26  C12 UNL     1      -5.536  19.488  -7.706  1.00  0.00     0.024 C 
BRANCH  26  27
HETATM   27  C13 UNL     1      -5.926  20.129  -9.008  1.00  0.00    -0.013 A 
HETATM   28  C14 UNL     1      -7.399  20.368  -9.276  1.00  0.00     0.005 A 
HETATM   29  C15 UNL     1      -6.610  19.397 -10.087  1.00  0.00     0.005 A 
ENDBRANCH  26  27
ENDBRANCH  25  26
ENDBRANCH  23  25
ENDBRANCH  21  22
ENDBRANCH   9  21
TORSDOF 7
ENDMDL
