MODEL 1
REMARK VINA RESULT: -9.423344947      0.000      0.000
REMARK  4 active torsions:
REMARK  status: ('A' for Active; 'I' for Inactive)
REMARK    1  A    between atoms: C2_2  and  C3_3 
REMARK    2  A    between atoms: C9_9  and  S1_10 
REMARK    3  A    between atoms: S1_10  and  C10_13 
REMARK    4  A    between atoms: C11_14  and  O3_15 
ROOT
HETATM    1  C10 UNL     1      36.833  -0.145  65.086  1.00  0.00     0.104 A 
HETATM    2  C11 UNL     1      36.442   0.805  66.022  1.00  0.00     0.088 A 
HETATM    3  C12 UNL     1      35.615   1.849  65.724  1.00  0.00     0.051 A 
HETATM    4  C13 UNL     1      35.106   2.017  64.421  1.00  0.00    -0.015 A 
HETATM    5  C14 UNL     1      34.280   3.005  63.986  1.00  0.00     0.027 A 
HETATM    6  C15 UNL     1      33.913   2.969  62.674  1.00  0.00    -0.020 A 
HETATM    7  C16 UNL     1      33.025   3.908  61.923  1.00  0.00     0.056 C 
HETATM    8  S2  UNL     1      34.711   1.583  62.081  1.00  0.00    -0.094 SA
HETATM    9  C17 UNL     1      35.492   1.084  63.515  1.00  0.00     0.023 A 
HETATM   10  C18 UNL     1      36.346  -0.001  63.813  1.00  0.00    -0.019 A 
HETATM   11  C19 UNL     1      36.583  -0.934  62.698  1.00  0.00     0.051 C 
ENDROOT
BRANCH   1  12
HETATM   12  S1  UNL     1      37.816  -1.503  65.519  1.00  0.00     0.210 S 
HETATM   13  O1  UNL     1      37.288  -1.929  66.892  1.00  0.00    -0.217 OA
HETATM   14  O2  UNL     1      37.489  -2.717  64.656  1.00  0.00    -0.217 OA
BRANCH  12  15
HETATM   15  C9  UNL     1      39.508  -1.228  65.609  1.00  0.00     0.071 A 
HETATM   16  C7  UNL     1      40.440  -1.872  64.859  1.00  0.00    -0.034 A 
HETATM   17  C5  UNL     1      41.793  -1.555  65.037  1.00  0.00    -0.054 A 
HETATM   18  C8  UNL     1      40.107  -2.894  63.853  1.00  0.00     0.050 C 
HETATM   19  C4  UNL     1      42.207  -0.618  65.941  1.00  0.00     0.014 A 
HETATM   20  C6  UNL     1      42.822  -2.253  64.221  1.00  0.00     0.049 C 
HETATM   21  C3  UNL     1      41.280   0.044  66.709  1.00  0.00    -0.057 A 
HETATM   22  C20 UNL     1      39.968  -0.277  66.524  1.00  0.00     0.031 A 
BRANCH  21  23
HETATM   23  C2  UNL     1      41.697   1.079  67.713  1.00  0.00     0.034 C 
HETATM   24  C1  UNL     1      43.109   0.837  68.171  1.00  0.00     0.010 C 
ENDBRANCH  21  23
ENDBRANCH  12  15
ENDBRANCH   1  12
BRANCH   2  25
HETATM   25  O3  UNL     1      36.940   0.661  67.343  1.00  0.00    -0.359 OA
ATOM     26  H3  UNL     1      36.551   1.205  68.016  1.00  0.00     0.217 HD
ENDBRANCH   2  25
TORSDOF 4
ENDMDL
MODEL 2
REMARK VINA RESULT: -9.253567033      1.141      2.148
REMARK  4 active torsions:
REMARK  status: ('A' for Active; 'I' for Inactive)
REMARK    1  A    between atoms: C2_2  and  C3_3 
REMARK    2  A    between atoms: C9_9  and  S1_10 
REMARK    3  A    between atoms: S1_10  and  C10_13 
REMARK    4  A    between atoms: C11_14  and  O3_15 
ROOT
HETATM    1  C10 UNL     1      36.603  -0.524  64.611  1.00  0.00     0.104 A 
HETATM    2  C11 UNL     1      36.440  -0.933  63.292  1.00  0.00     0.088 A 
HETATM    3  C12 UNL     1      35.748  -0.206  62.368  1.00  0.00     0.051 A 
HETATM    4  C13 UNL     1      35.151   1.022  62.714  1.00  0.00    -0.015 A 
HETATM    5  C14 UNL     1      34.435   1.843  61.900  1.00  0.00     0.027 A 
HETATM    6  C15 UNL     1      33.947   2.988  62.455  1.00  0.00    -0.020 A 
HETATM    7  C16 UNL     1      33.137   4.069  61.814  1.00  0.00     0.056 C 
HETATM    8  S2  UNL     1      34.485   2.902  64.071  1.00  0.00    -0.094 SA
HETATM    9  C17 UNL     1      35.317   1.412  64.002  1.00  0.00     0.023 A 
HETATM   10  C18 UNL     1      36.032   0.669  64.968  1.00  0.00    -0.019 A 
HETATM   11  C19 UNL     1      36.148   1.309  66.289  1.00  0.00     0.051 C 
ENDROOT
BRANCH   1  12
HETATM   12  S1  UNL     1      37.558  -1.430  65.735  1.00  0.00     0.210 S 
HETATM   13  O1  UNL     1      36.755  -1.382  67.039  1.00  0.00    -0.217 OA
HETATM   14  O2  UNL     1      37.541  -2.918  65.399  1.00  0.00    -0.217 OA
BRANCH  12  15
HETATM   15  C9  UNL     1      39.154  -0.864  66.018  1.00  0.00     0.071 A 
HETATM   16  C7  UNL     1      40.270  -1.356  65.418  1.00  0.00    -0.034 A 
HETATM   17  C5  UNL     1      41.515  -0.805  65.744  1.00  0.00    -0.054 A 
HETATM   18  C8  UNL     1      40.246  -2.447  64.429  1.00  0.00     0.050 C 
HETATM   19  C4  UNL     1      41.647   0.212  66.647  1.00  0.00     0.014 A 
HETATM   20  C6  UNL     1      42.744  -1.335  65.095  1.00  0.00     0.049 C 
HETATM   21  C3  UNL     1      40.531   0.723  67.264  1.00  0.00    -0.057 A 
HETATM   22  C20 UNL     1      39.326   0.175  66.935  1.00  0.00     0.031 A 
BRANCH  21  23
HETATM   23  C2  UNL     1      40.635   1.841  68.260  1.00  0.00     0.034 C 
HETATM   24  C1  UNL     1      39.629   1.664  69.364  1.00  0.00     0.010 C 
ENDBRANCH  21  23
ENDBRANCH  12  15
ENDBRANCH   1  12
BRANCH   2  25
HETATM   25  O3  UNL     1      37.031  -2.166  62.915  1.00  0.00    -0.359 OA
ATOM     26  H3  UNL     1      37.251  -2.281  61.998  1.00  0.00     0.217 HD
ENDBRANCH   2  25
TORSDOF 4
ENDMDL
MODEL 3
REMARK VINA RESULT: -8.718348268      1.020      2.935
REMARK  4 active torsions:
REMARK  status: ('A' for Active; 'I' for Inactive)
REMARK    1  A    between atoms: C2_2  and  C3_3 
REMARK    2  A    between atoms: C9_9  and  S1_10 
REMARK    3  A    between atoms: S1_10  and  C10_13 
REMARK    4  A    between atoms: C11_14  and  O3_15 
ROOT
HETATM    1  C10 UNL     1      36.736  -0.439  64.781  1.00  0.00     0.104 A 
HETATM    2  C11 UNL     1      36.639  -0.881  63.467  1.00  0.00     0.088 A 
HETATM    3  C12 UNL     1      35.958  -0.198  62.501  1.00  0.00     0.051 A 
HETATM    4  C13 UNL     1      35.306   1.015  62.796  1.00  0.00    -0.015 A 
HETATM    5  C14 UNL     1      34.595   1.793  61.938  1.00  0.00     0.027 A 
HETATM    6  C15 UNL     1      34.047   2.933  62.448  1.00  0.00    -0.020 A 
HETATM    7  C16 UNL     1      33.226   3.970  61.753  1.00  0.00     0.056 C 
HETATM    8  S2  UNL     1      34.525   2.899  64.085  1.00  0.00    -0.094 SA
HETATM    9  C17 UNL     1      35.409   1.438  64.081  1.00  0.00     0.023 A 
HETATM   10  C18 UNL     1      36.112   0.741  65.089  1.00  0.00    -0.019 A 
HETATM   11  C19 UNL     1      36.155   1.413  66.399  1.00  0.00     0.051 C 
ENDROOT
BRANCH   1  12
HETATM   12  S1  UNL     1      37.678  -1.287  65.961  1.00  0.00     0.210 S 
HETATM   13  O1  UNL     1      36.970  -0.997  67.288  1.00  0.00    -0.217 OA
HETATM   14  O2  UNL     1      37.503  -2.796  65.824  1.00  0.00    -0.217 OA
BRANCH  12  15
HETATM   15  C9  UNL     1      39.334  -0.849  66.081  1.00  0.00     0.071 A 
HETATM   16  C7  UNL     1      39.834   0.066  66.952  1.00  0.00    -0.034 A 
HETATM   17  C5  UNL     1      41.208   0.333  66.942  1.00  0.00    -0.054 A 
HETATM   18  C8  UNL     1      39.004   0.800  67.922  1.00  0.00     0.050 C 
HETATM   19  C4  UNL     1      42.065  -0.296  66.084  1.00  0.00     0.014 A 
HETATM   20  C6  UNL     1      41.767   1.333  67.890  1.00  0.00     0.049 C 
HETATM   21  C3  UNL     1      41.579  -1.225  65.196  1.00  0.00    -0.057 A 
HETATM   22  C20 UNL     1      40.238  -1.473  65.218  1.00  0.00     0.031 A 
BRANCH  21  23
HETATM   23  C2  UNL     1      42.489  -1.937  64.237  1.00  0.00     0.034 C 
HETATM   24  C1  UNL     1      43.779  -2.315  64.911  1.00  0.00     0.010 C 
ENDBRANCH  21  23
ENDBRANCH  12  15
ENDBRANCH   1  12
BRANCH   2  25
HETATM   25  O3  UNL     1      37.285  -2.100  63.140  1.00  0.00    -0.359 OA
ATOM     26  H3  UNL     1      38.120  -2.044  62.692  1.00  0.00     0.217 HD
ENDBRANCH   2  25
TORSDOF 4
ENDMDL
MODEL 4
REMARK VINA RESULT: -8.653548625      0.538      2.360
REMARK  4 active torsions:
REMARK  status: ('A' for Active; 'I' for Inactive)
REMARK    1  A    between atoms: C2_2  and  C3_3 
REMARK    2  A    between atoms: C9_9  and  S1_10 
REMARK    3  A    between atoms: S1_10  and  C10_13 
REMARK    4  A    between atoms: C11_14  and  O3_15 
ROOT
HETATM    1  C10 UNL     1      36.898  -0.024  65.311  1.00  0.00     0.104 A 
HETATM    2  C11 UNL     1      36.406   0.928  66.197  1.00  0.00     0.088 A 
HETATM    3  C12 UNL     1      35.563   1.932  65.818  1.00  0.00     0.051 A 
HETATM    4  C13 UNL     1      35.141   2.055  64.480  1.00  0.00    -0.015 A 
HETATM    5  C14 UNL     1      34.311   3.001  63.967  1.00  0.00     0.027 A 
HETATM    6  C15 UNL     1      34.040   2.925  62.633  1.00  0.00    -0.020 A 
HETATM    7  C16 UNL     1      33.173   3.814  61.801  1.00  0.00     0.056 C 
HETATM    8  S2  UNL     1      34.930   1.561  62.128  1.00  0.00    -0.094 SA
HETATM    9  C17 UNL     1      35.626   1.121  63.624  1.00  0.00     0.023 A 
HETATM   10  C18 UNL     1      36.497   0.076  64.004  1.00  0.00    -0.019 A 
HETATM   11  C19 UNL     1      36.847  -0.868  62.930  1.00  0.00     0.051 C 
ENDROOT
BRANCH   1  12
HETATM   12  S1  UNL     1      37.899  -1.333  65.842  1.00  0.00     0.210 S 
HETATM   13  O1  UNL     1      37.371  -1.670  67.240  1.00  0.00    -0.217 OA
HETATM   14  O2  UNL     1      37.594  -2.610  65.064  1.00  0.00    -0.217 OA
BRANCH  12  15
HETATM   15  C9  UNL     1      39.586  -1.028  65.919  1.00  0.00     0.071 A 
HETATM   16  C7  UNL     1      40.181  -0.176  66.795  1.00  0.00    -0.034 A 
HETATM   17  C5  UNL     1      41.571  -0.014  66.748  1.00  0.00    -0.054 A 
HETATM   18  C8  UNL     1      39.441   0.595  67.808  1.00  0.00     0.050 C 
HETATM   19  C4  UNL     1      42.351  -0.685  65.849  1.00  0.00     0.014 A 
HETATM   20  C6  UNL     1      42.234   0.915  67.701  1.00  0.00     0.049 C 
HETATM   21  C3  UNL     1      41.768  -1.551  64.955  1.00  0.00    -0.057 A 
HETATM   22  C20 UNL     1      40.413  -1.696  65.014  1.00  0.00     0.031 A 
BRANCH  21  23
HETATM   23  C2  UNL     1      42.592  -2.306  63.952  1.00  0.00     0.034 C 
HETATM   24  C1  UNL     1      42.391  -3.788  64.108  1.00  0.00     0.010 C 
ENDBRANCH  21  23
ENDBRANCH  12  15
ENDBRANCH   1  12
BRANCH   2  25
HETATM   25  O3  UNL     1      36.814   0.828  67.552  1.00  0.00    -0.359 OA
ATOM     26  H3  UNL     1      36.268   1.251  68.203  1.00  0.00     0.217 HD
ENDBRANCH   2  25
TORSDOF 4
ENDMDL
MODEL 5
REMARK VINA RESULT: -8.491961870      2.393      4.762
REMARK  4 active torsions:
REMARK  status: ('A' for Active; 'I' for Inactive)
REMARK    1  A    between atoms: C2_2  and  C3_3 
REMARK    2  A    between atoms: C9_9  and  S1_10 
REMARK    3  A    between atoms: S1_10  and  C10_13 
REMARK    4  A    between atoms: C11_14  and  O3_15 
ROOT
HETATM    1  C10 UNL     1      37.736  -2.218  64.610  1.00  0.00     0.104 A 
HETATM    2  C11 UNL     1      38.757  -2.993  64.074  1.00  0.00     0.088 A 
HETATM    3  C12 UNL     1      38.897  -3.219  62.735  1.00  0.00     0.051 A 
HETATM    4  C13 UNL     1      37.991  -2.663  61.810  1.00  0.00    -0.015 A 
HETATM    5  C14 UNL     1      38.009  -2.806  60.459  1.00  0.00     0.027 A 
HETATM    6  C15 UNL     1      37.025  -2.174  59.759  1.00  0.00    -0.020 A 
HETATM    7  C16 UNL     1      36.793  -2.151  58.282  1.00  0.00     0.056 C 
HETATM    8  S2  UNL     1      36.109  -1.406  60.975  1.00  0.00    -0.094 SA
HETATM    9  C17 UNL     1      36.999  -1.907  62.343  1.00  0.00     0.023 A 
HETATM   10  C18 UNL     1      36.845  -1.666  63.727  1.00  0.00    -0.019 A 
HETATM   11  C19 UNL     1      35.740  -0.760  64.084  1.00  0.00     0.051 C 
ENDROOT
BRANCH   1  12
HETATM   12  S1  UNL     1      37.637  -1.884  66.306  1.00  0.00     0.210 S 
HETATM   13  O1  UNL     1      36.149  -2.030  66.634  1.00  0.00    -0.217 OA
HETATM   14  O2  UNL     1      38.262  -3.009  67.126  1.00  0.00    -0.217 OA
BRANCH  12  15
HETATM   15  C9  UNL     1      38.194  -0.343  66.819  1.00  0.00     0.071 A 
HETATM   16  C7  UNL     1      39.501   0.014  66.924  1.00  0.00    -0.034 A 
HETATM   17  C5  UNL     1      39.818   1.306  67.361  1.00  0.00    -0.054 A 
HETATM   18  C8  UNL     1      40.618  -0.887  66.596  1.00  0.00     0.050 C 
HETATM   19  C4  UNL     1      38.857   2.221  67.687  1.00  0.00     0.014 A 
HETATM   20  C6  UNL     1      41.245   1.709  67.480  1.00  0.00     0.049 C 
HETATM   21  C3  UNL     1      37.530   1.878  67.588  1.00  0.00    -0.057 A 
HETATM   22  C20 UNL     1      37.238   0.616  67.161  1.00  0.00     0.031 A 
BRANCH  21  23
HETATM   23  C2  UNL     1      36.446   2.855  67.937  1.00  0.00     0.034 C 
HETATM   24  C1  UNL     1      35.377   2.863  66.879  1.00  0.00     0.010 C 
ENDBRANCH  21  23
ENDBRANCH  12  15
ENDBRANCH   1  12
BRANCH   2  25
HETATM   25  O3  UNL     1      39.685  -3.566  64.982  1.00  0.00    -0.359 OA
ATOM     26  H3  UNL     1      39.616  -4.499  65.144  1.00  0.00     0.217 HD
ENDBRANCH   2  25
TORSDOF 4
ENDMDL
