MODEL 1
REMARK VINA RESULT: -6.170190674      0.000      0.000
REMARK  2 active torsions:
REMARK  status: ('A' for Active; 'I' for Inactive)
REMARK    1  A    between atoms: C1_2  and  C2_5 
REMARK    2  A    between atoms: C2_5  and  N1_7 
ROOT
HETATM    1  N1  UNL     1     -12.233   3.140  38.445  1.00  0.00    -0.368 N 
HETATM    2  C3  UNL     1     -10.911   3.701  38.451  1.00  0.00     0.123 C 
HETATM    3  C4  UNL     1     -10.054   3.172  39.580  1.00  0.00     0.020 C 
HETATM    4  C5  UNL     1     -10.892   3.188  40.838  1.00  0.00     0.003 C 
HETATM    5  C6  UNL     1     -12.067   2.253  40.737  1.00  0.00     0.020 C 
HETATM    6  C7  UNL     1     -12.743   2.237  39.430  1.00  0.00     0.123 C 
ENDROOT
BRANCH   1   7
HETATM    7  C2  UNL     1     -13.086   3.519  37.375  1.00  0.00     0.183 C 
HETATM    8  S1  UNL     1     -14.714   3.473  37.651  1.00  0.00    -0.056 SA
BRANCH   7   9
HETATM    9  C1  UNL     1     -12.651   3.945  36.039  1.00  0.00     0.443 C 
HETATM   10  F1  UNL     1     -12.006   5.172  36.037  1.00  0.00    -0.164 F 
HETATM   11  F2  UNL     1     -13.753   4.030  35.175  1.00  0.00    -0.164 F 
HETATM   12  F3  UNL     1     -11.843   2.962  35.502  1.00  0.00    -0.164 F 
ENDBRANCH   7   9
ENDBRANCH   1   7
TORSDOF 2
ENDMDL
MODEL 2
REMARK VINA RESULT: -6.043592208      3.279      4.294
REMARK  2 active torsions:
REMARK  status: ('A' for Active; 'I' for Inactive)
REMARK    1  A    between atoms: C1_2  and  C2_5 
REMARK    2  A    between atoms: C2_5  and  N1_7 
ROOT
HETATM    1  N1  UNL     1     -12.295   2.604  38.301  1.00  0.00    -0.368 N 
HETATM    2  C3  UNL     1     -11.138   1.755  38.263  1.00  0.00     0.123 C 
HETATM    3  C4  UNL     1     -10.223   2.059  37.097  1.00  0.00     0.020 C 
HETATM    4  C5  UNL     1     -11.088   2.222  35.867  1.00  0.00     0.003 C 
HETATM    5  C6  UNL     1     -12.013   3.403  35.987  1.00  0.00     0.020 C 
HETATM    6  C7  UNL     1     -12.620   3.589  37.315  1.00  0.00     0.123 C 
ENDROOT
BRANCH   1   7
HETATM    7  C2  UNL     1     -13.173   2.444  39.405  1.00  0.00     0.183 C 
HETATM    8  S1  UNL     1     -14.761   2.837  39.174  1.00  0.00    -0.056 SA
BRANCH   7   9
HETATM    9  C1  UNL     1     -12.796   1.963  40.740  1.00  0.00     0.443 C 
HETATM   10  F1  UNL     1     -11.724   2.649  41.289  1.00  0.00    -0.164 F 
HETATM   11  F2  UNL     1     -12.463   0.601  40.688  1.00  0.00    -0.164 F 
HETATM   12  F3  UNL     1     -13.903   2.036  41.565  1.00  0.00    -0.164 F 
ENDBRANCH   7   9
ENDBRANCH   1   7
TORSDOF 2
ENDMDL
MODEL 3
REMARK VINA RESULT: -5.830752289      1.861      2.296
REMARK  2 active torsions:
REMARK  status: ('A' for Active; 'I' for Inactive)
REMARK    1  A    between atoms: C1_2  and  C2_5 
REMARK    2  A    between atoms: C2_5  and  N1_7 
ROOT
HETATM    1  N1  UNL     1     -12.364   3.157  38.443  1.00  0.00    -0.368 N 
HETATM    2  C3  UNL     1     -11.060   3.753  38.361  1.00  0.00     0.123 C 
HETATM    3  C4  UNL     1     -10.112   3.240  39.422  1.00  0.00     0.020 C 
HETATM    4  C5  UNL     1     -10.859   3.227  40.736  1.00  0.00     0.003 C 
HETATM    5  C6  UNL     1     -12.014   2.262  40.712  1.00  0.00     0.020 C 
HETATM    6  C7  UNL     1     -12.780   2.235  39.456  1.00  0.00     0.123 C 
ENDROOT
BRANCH   1   7
HETATM    7  C2  UNL     1     -13.300   3.519  37.439  1.00  0.00     0.183 C 
HETATM    8  S1  UNL     1     -12.698   3.972  35.970  1.00  0.00    -0.056 SA
BRANCH   7   9
HETATM    9  C1  UNL     1     -14.761   3.530  37.589  1.00  0.00     0.443 C 
HETATM   10  F1  UNL     1     -15.318   2.262  37.638  1.00  0.00    -0.164 F 
HETATM   11  F2  UNL     1     -15.352   4.226  36.524  1.00  0.00    -0.164 F 
HETATM   12  F3  UNL     1     -15.083   4.255  38.721  1.00  0.00    -0.164 F 
ENDBRANCH   7   9
ENDBRANCH   1   7
TORSDOF 2
ENDMDL
MODEL 4
REMARK VINA RESULT: -5.680423387      2.898      3.822
REMARK  2 active torsions:
REMARK  status: ('A' for Active; 'I' for Inactive)
REMARK    1  A    between atoms: C1_2  and  C2_5 
REMARK    2  A    between atoms: C2_5  and  N1_7 
ROOT
HETATM    1  N1  UNL     1     -12.449   2.622  38.302  1.00  0.00    -0.368 N 
HETATM    2  C3  UNL     1     -11.322   1.734  38.358  1.00  0.00     0.123 C 
HETATM    3  C4  UNL     1     -10.308   2.003  37.268  1.00  0.00     0.020 C 
HETATM    4  C5  UNL     1     -11.066   2.188  35.973  1.00  0.00     0.003 C 
HETATM    5  C6  UNL     1     -11.958   3.400  36.017  1.00  0.00     0.020 C 
HETATM    6  C7  UNL     1     -12.662   3.612  37.292  1.00  0.00     0.123 C 
ENDROOT
BRANCH   1   7
HETATM    7  C2  UNL     1     -13.417   2.496  39.334  1.00  0.00     0.183 C 
HETATM    8  S1  UNL     1     -12.898   1.921  40.793  1.00  0.00    -0.056 SA
BRANCH   7   9
HETATM    9  C1  UNL     1     -14.842   2.830  39.220  1.00  0.00     0.443 C 
HETATM   10  F1  UNL     1     -15.082   4.192  39.136  1.00  0.00    -0.164 F 
HETATM   11  F2  UNL     1     -15.546   2.329  40.326  1.00  0.00    -0.164 F 
HETATM   12  F3  UNL     1     -15.365   2.168  38.126  1.00  0.00    -0.164 F 
ENDBRANCH   7   9
ENDBRANCH   1   7
TORSDOF 2
ENDMDL
MODEL 5
REMARK VINA RESULT: -5.653076837      2.370      3.422
REMARK  2 active torsions:
REMARK  status: ('A' for Active; 'I' for Inactive)
REMARK    1  A    between atoms: C1_2  and  C2_5 
REMARK    2  A    between atoms: C2_5  and  N1_7 
ROOT
HETATM    1  N1  UNL     1     -13.206   2.728  38.580  1.00  0.00    -0.368 N 
HETATM    2  C3  UNL     1     -14.533   3.186  38.275  1.00  0.00     0.123 C 
HETATM    3  C4  UNL     1     -15.371   3.427  39.511  1.00  0.00     0.020 C 
HETATM    4  C5  UNL     1     -15.167   2.251  40.439  1.00  0.00     0.003 C 
HETATM    5  C6  UNL     1     -13.743   2.156  40.916  1.00  0.00     0.020 C 
HETATM    6  C7  UNL     1     -12.721   2.445  39.896  1.00  0.00     0.123 C 
ENDROOT
BRANCH   1   7
HETATM    7  C2  UNL     1     -12.321   2.549  37.485  1.00  0.00     0.183 C 
HETATM    8  S1  UNL     1     -12.377   3.671  36.274  1.00  0.00    -0.056 SA
BRANCH   7   9
HETATM    9  C1  UNL     1     -11.358   1.451  37.329  1.00  0.00     0.443 C 
HETATM   10  F1  UNL     1     -11.770   0.271  37.926  1.00  0.00    -0.164 F 
HETATM   11  F2  UNL     1     -10.119   1.811  37.881  1.00  0.00    -0.164 F 
HETATM   12  F3  UNL     1     -11.116   1.265  35.982  1.00  0.00    -0.164 F 
ENDBRANCH   7   9
ENDBRANCH   1   7
TORSDOF 2
ENDMDL
