MODEL 1
REMARK VINA RESULT: -8.071300327      0.000      0.000
REMARK  10 active torsions:
REMARK  status: ('A' for Active; 'I' for Inactive)
REMARK    1  A    between atoms: C3_3  and  C5_5 
REMARK    2  A    between atoms: C5_5  and  C6_6 
REMARK    3  A    between atoms: C6_6  and  C7_7 
REMARK    4  A    between atoms: C7_7  and  O1_8 
REMARK    5  A    between atoms: C7_7  and  C8_10 
REMARK    6  A    between atoms: C7_7  and  C9_13 
REMARK    7  A    between atoms: C9_13  and  O5_15 
REMARK    8  A    between atoms: O5_15  and  C10_16 
REMARK    9  A    between atoms: C10_16  and  C11_17 
REMARK   10  A    between atoms: C11_17  and  O6_18 
ROOT
HETATM    1  O5  UNL     1      23.921  19.262  -0.701  1.00  0.00    -0.315 OA
ENDROOT
BRANCH   1   2
HETATM    2  C9  UNL     1      25.210  19.469  -0.405  1.00  0.00     0.304 C 
HETATM    3  O4  UNL     1      25.592  19.425   0.775  1.00  0.00    -0.261 OA
BRANCH   2   4
HETATM    4  C7  UNL     1      26.268  19.763  -1.457  1.00  0.00     0.234 C 
BRANCH   4   5
HETATM    5  C6  UNL     1      26.698  21.188  -1.312  1.00  0.00     0.064 C 
BRANCH   5   6
HETATM    6  C5  UNL     1      26.447  22.037  -2.510  1.00  0.00     0.037 C 
BRANCH   6   7
HETATM    7  C3  UNL     1      27.370  23.176  -2.657  1.00  0.00    -0.088 C 
HETATM    8  C2  UNL     1      26.993  24.357  -3.067  1.00  0.00    -0.029 C 
HETATM    9  C1  UNL     1      25.651  24.797  -3.477  1.00  0.00     0.036 C 
HETATM   10  C4  UNL     1      28.800  22.935  -2.285  1.00  0.00     0.043 C 
ENDBRANCH   6   7
ENDBRANCH   5   6
ENDBRANCH   4   5
BRANCH   4  11
HETATM   11  O1  UNL     1      25.705  19.518  -2.688  1.00  0.00    -0.370 OA
ATOM     12  H1  UNL     1      25.162  18.740  -2.681  1.00  0.00     0.212 HD
ENDBRANCH   4  11
BRANCH   4  13
HETATM   13  C8  UNL     1      27.418  18.860  -1.222  1.00  0.00     0.219 C 
HETATM   14  O2  UNL     1      28.575  19.365  -1.037  1.00  0.00    -0.645 OA
HETATM   15  O3  UNL     1      27.347  17.482  -1.181  1.00  0.00    -0.645 OA
ENDBRANCH   4  13
ENDBRANCH   2   4
ENDBRANCH   1   2
BRANCH   1  16
HETATM   16  C10 UNL     1      22.769  19.990  -0.628  1.00  0.00     0.221 C 
BRANCH  16  17
HETATM   17  C11 UNL     1      22.564  20.987  -1.696  1.00  0.00     0.104 C 
HETATM   18  C12 UNL     1      23.213  22.317  -1.592  1.00  0.00     0.049 C 
HETATM   19  C13 UNL     1      22.370  23.106  -2.630  1.00  0.00     0.046 C 
HETATM   20  C14 UNL     1      21.020  22.558  -2.342  1.00  0.00    -0.007 C 
HETATM   21  C15 UNL     1      21.111  21.362  -1.815  1.00  0.00    -0.033 C 
HETATM   22  C21 UNL     1      19.692  23.143  -2.554  1.00  0.00     0.156 C 
HETATM   23  C16 UNL     1      19.906  20.607  -1.441  1.00  0.00     0.047 C 
HETATM   24  C17 UNL     1      18.762  20.835  -2.411  1.00  0.00    -0.037 C 
HETATM   25  C18 UNL     1      19.045  19.999  -3.657  1.00  0.00     0.015 C 
HETATM   26  C19 UNL     1      17.516  20.295  -1.741  1.00  0.00     0.015 C 
HETATM   27  C20 UNL     1      18.540  22.259  -2.774  1.00  0.00     0.092 C 
HETATM   28  O7  UNL     1      19.565  24.401  -2.545  1.00  0.00    -0.293 OA
BRANCH  17  29
HETATM   29  O6  UNL     1      22.961  20.472  -2.968  1.00  0.00    -0.383 OA
ATOM     30  H6  UNL     1      23.398  21.136  -3.487  1.00  0.00     0.211 HD
ENDBRANCH  17  29
ENDBRANCH  16  17
ENDBRANCH   1  16
TORSDOF 10
ENDMDL
MODEL 2
REMARK VINA RESULT: -7.682309137      1.872      3.286
REMARK  10 active torsions:
REMARK  status: ('A' for Active; 'I' for Inactive)
REMARK    1  A    between atoms: C3_3  and  C5_5 
REMARK    2  A    between atoms: C5_5  and  C6_6 
REMARK    3  A    between atoms: C6_6  and  C7_7 
REMARK    4  A    between atoms: C7_7  and  O1_8 
REMARK    5  A    between atoms: C7_7  and  C8_10 
REMARK    6  A    between atoms: C7_7  and  C9_13 
REMARK    7  A    between atoms: C9_13  and  O5_15 
REMARK    8  A    between atoms: O5_15  and  C10_16 
REMARK    9  A    between atoms: C10_16  and  C11_17 
REMARK   10  A    between atoms: C11_17  and  O6_18 
ROOT
HETATM    1  O5  UNL     1      23.752  19.219   0.075  1.00  0.00    -0.315 OA
ENDROOT
BRANCH   1   2
HETATM    2  C9  UNL     1      24.746  18.391  -0.266  1.00  0.00     0.304 C 
HETATM    3  O4  UNL     1      24.518  17.183  -0.437  1.00  0.00    -0.261 OA
BRANCH   2   4
HETATM    4  C7  UNL     1      26.183  18.850  -0.464  1.00  0.00     0.234 C 
BRANCH   4   5
HETATM    5  C6  UNL     1      27.027  17.654  -0.767  1.00  0.00     0.064 C 
BRANCH   5   6
HETATM    6  C5  UNL     1      28.421  17.968  -1.187  1.00  0.00     0.037 C 
BRANCH   6   7
HETATM    7  C3  UNL     1      29.459  17.525  -0.241  1.00  0.00    -0.088 C 
HETATM    8  C2  UNL     1      30.129  18.344   0.525  1.00  0.00    -0.029 C 
HETATM    9  C1  UNL     1      30.030  19.810   0.602  1.00  0.00     0.036 C 
HETATM   10  C4  UNL     1      29.716  16.052  -0.165  1.00  0.00     0.043 C 
ENDBRANCH   6   7
ENDBRANCH   5   6
ENDBRANCH   4   5
BRANCH   4  11
HETATM   11  O1  UNL     1      26.578  19.478   0.695  1.00  0.00    -0.370 OA
ATOM     12  H1  UNL     1      26.886  20.361   0.533  1.00  0.00     0.212 HD
ENDBRANCH   4  11
BRANCH   4  13
HETATM   13  C8  UNL     1      26.214  19.795  -1.603  1.00  0.00     0.219 C 
HETATM   14  O2  UNL     1      25.650  19.465  -2.698  1.00  0.00    -0.645 OA
HETATM   15  O3  UNL     1      26.814  21.039  -1.585  1.00  0.00    -0.645 OA
ENDBRANCH   4  13
ENDBRANCH   2   4
ENDBRANCH   1   2
BRANCH   1  16
HETATM   16  C10 UNL     1      22.517  19.524  -0.417  1.00  0.00     0.221 C 
BRANCH  16  17
HETATM   17  C11 UNL     1      22.482  20.513  -1.513  1.00  0.00     0.104 C 
HETATM   18  C12 UNL     1      23.285  21.756  -1.405  1.00  0.00     0.049 C 
HETATM   19  C13 UNL     1      22.591  22.616  -2.495  1.00  0.00     0.046 C 
HETATM   20  C14 UNL     1      21.172  22.244  -2.258  1.00  0.00    -0.007 C 
HETATM   21  C15 UNL     1      21.093  21.060  -1.704  1.00  0.00    -0.033 C 
HETATM   22  C21 UNL     1      19.937  22.982  -2.541  1.00  0.00     0.156 C 
HETATM   23  C16 UNL     1      19.789  20.467  -1.372  1.00  0.00     0.047 C 
HETATM   24  C17 UNL     1      18.725  20.810  -2.396  1.00  0.00    -0.037 C 
HETATM   25  C18 UNL     1      18.955  19.915  -3.612  1.00  0.00     0.015 C 
HETATM   26  C19 UNL     1      17.393  20.443  -1.774  1.00  0.00     0.015 C 
HETATM   27  C20 UNL     1      18.695  22.241  -2.796  1.00  0.00     0.092 C 
HETATM   28  O7  UNL     1      19.967  24.246  -2.561  1.00  0.00    -0.293 OA
BRANCH  17  29
HETATM   29  O6  UNL     1      22.866  19.922  -2.755  1.00  0.00    -0.383 OA
ATOM     30  H6  UNL     1      23.674  20.301  -3.081  1.00  0.00     0.211 HD
ENDBRANCH  17  29
ENDBRANCH  16  17
ENDBRANCH   1  16
TORSDOF 10
ENDMDL
MODEL 3
REMARK VINA RESULT: -7.505722580      1.821      3.438
REMARK  10 active torsions:
REMARK  status: ('A' for Active; 'I' for Inactive)
REMARK    1  A    between atoms: C3_3  and  C5_5 
REMARK    2  A    between atoms: C5_5  and  C6_6 
REMARK    3  A    between atoms: C6_6  and  C7_7 
REMARK    4  A    between atoms: C7_7  and  O1_8 
REMARK    5  A    between atoms: C7_7  and  C8_10 
REMARK    6  A    between atoms: C7_7  and  C9_13 
REMARK    7  A    between atoms: C9_13  and  O5_15 
REMARK    8  A    between atoms: O5_15  and  C10_16 
REMARK    9  A    between atoms: C10_16  and  C11_17 
REMARK   10  A    between atoms: C11_17  and  O6_18 
ROOT
HETATM    1  O5  UNL     1      23.906  19.355   0.047  1.00  0.00    -0.315 OA
ENDROOT
BRANCH   1   2
HETATM    2  C9  UNL     1      24.867  18.462  -0.217  1.00  0.00     0.304 C 
HETATM    3  O4  UNL     1      24.603  17.249  -0.226  1.00  0.00    -0.261 OA
BRANCH   2   4
HETATM    4  C7  UNL     1      26.306  18.851  -0.517  1.00  0.00     0.234 C 
BRANCH   4   5
HETATM    5  C6  UNL     1      27.045  17.630  -0.964  1.00  0.00     0.064 C 
BRANCH   5   6
HETATM    6  C5  UNL     1      28.367  17.429  -0.308  1.00  0.00     0.037 C 
BRANCH   6   7
HETATM    7  C3  UNL     1      29.528  17.686  -1.178  1.00  0.00    -0.088 C 
HETATM    8  C2  UNL     1      30.231  16.737  -1.735  1.00  0.00    -0.029 C 
HETATM    9  C1  UNL     1      30.061  15.281  -1.613  1.00  0.00     0.036 C 
HETATM   10  C4  UNL     1      29.873  19.121  -1.433  1.00  0.00     0.043 C 
ENDBRANCH   6   7
ENDBRANCH   5   6
ENDBRANCH   4   5
BRANCH   4  11
HETATM   11  O1  UNL     1      26.838  19.380   0.637  1.00  0.00    -0.370 OA
ATOM     12  H1  UNL     1      27.787  19.363   0.630  1.00  0.00     0.212 HD
ENDBRANCH   4  11
BRANCH   4  13
HETATM   13  C8  UNL     1      26.298  19.863  -1.597  1.00  0.00     0.219 C 
HETATM   14  O2  UNL     1      25.706  19.593  -2.695  1.00  0.00    -0.645 OA
HETATM   15  O3  UNL     1      26.886  21.110  -1.520  1.00  0.00    -0.645 OA
ENDBRANCH   4  13
ENDBRANCH   2   4
ENDBRANCH   1   2
BRANCH   1  16
HETATM   16  C10 UNL     1      22.661  19.629  -0.438  1.00  0.00     0.221 C 
BRANCH  16  17
HETATM   17  C11 UNL     1      22.593  20.620  -1.530  1.00  0.00     0.104 C 
HETATM   18  C12 UNL     1      23.360  21.885  -1.418  1.00  0.00     0.049 C 
HETATM   19  C13 UNL     1      22.638  22.729  -2.503  1.00  0.00     0.046 C 
HETATM   20  C14 UNL     1      21.232  22.315  -2.264  1.00  0.00    -0.007 C 
HETATM   21  C15 UNL     1      21.189  21.127  -1.715  1.00  0.00    -0.033 C 
HETATM   22  C21 UNL     1      19.975  23.017  -2.541  1.00  0.00     0.156 C 
HETATM   23  C16 UNL     1      19.903  20.495  -1.382  1.00  0.00     0.047 C 
HETATM   24  C17 UNL     1      18.827  20.810  -2.402  1.00  0.00    -0.037 C 
HETATM   25  C18 UNL     1      19.080  19.927  -3.622  1.00  0.00     0.015 C 
HETATM   26  C19 UNL     1      17.509  20.401  -1.778  1.00  0.00     0.015 C 
HETATM   27  C20 UNL     1      18.754  22.241  -2.796  1.00  0.00     0.092 C 
HETATM   28  O7  UNL     1      19.967  24.282  -2.557  1.00  0.00    -0.293 OA
BRANCH  17  29
HETATM   29  O6  UNL     1      22.992  20.046  -2.775  1.00  0.00    -0.383 OA
ATOM     30  H6  UNL     1      22.786  19.119  -2.808  1.00  0.00     0.211 HD
ENDBRANCH  17  29
ENDBRANCH  16  17
ENDBRANCH   1  16
TORSDOF 10
ENDMDL
MODEL 4
REMARK VINA RESULT: -7.483753660      2.517      4.979
REMARK  10 active torsions:
REMARK  status: ('A' for Active; 'I' for Inactive)
REMARK    1  A    between atoms: C3_3  and  C5_5 
REMARK    2  A    between atoms: C5_5  and  C6_6 
REMARK    3  A    between atoms: C6_6  and  C7_7 
REMARK    4  A    between atoms: C7_7  and  O1_8 
REMARK    5  A    between atoms: C7_7  and  C8_10 
REMARK    6  A    between atoms: C7_7  and  C9_13 
REMARK    7  A    between atoms: C9_13  and  O5_15 
REMARK    8  A    between atoms: O5_15  and  C10_16 
REMARK    9  A    between atoms: C10_16  and  C11_17 
REMARK   10  A    between atoms: C11_17  and  O6_18 
ROOT
HETATM    1  O5  UNL     1      27.057  21.085  -1.414  1.00  0.00    -0.315 OA
ENDROOT
BRANCH   1   2
HETATM    2  C9  UNL     1      27.590  22.239  -1.834  1.00  0.00     0.304 C 
HETATM    3  O4  UNL     1      28.803  22.308  -2.086  1.00  0.00    -0.261 OA
BRANCH   2   4
HETATM    4  C7  UNL     1      26.777  23.510  -2.028  1.00  0.00     0.234 C 
BRANCH   4   5
HETATM    5  C6  UNL     1      25.454  23.336  -1.354  1.00  0.00     0.064 C 
BRANCH   5   6
HETATM    6  C5  UNL     1      24.277  23.442  -2.260  1.00  0.00     0.037 C 
BRANCH   6   7
HETATM    7  C3  UNL     1      23.077  24.030  -1.638  1.00  0.00    -0.088 C 
HETATM    8  C2  UNL     1      21.953  24.211  -2.277  1.00  0.00    -0.029 C 
HETATM    9  C1  UNL     1      21.643  23.914  -3.684  1.00  0.00     0.036 C 
HETATM   10  C4  UNL     1      23.185  24.407  -0.192  1.00  0.00     0.043 C 
ENDBRANCH   6   7
ENDBRANCH   5   6
ENDBRANCH   4   5
BRANCH   4  11
HETATM   11  O1  UNL     1      26.642  23.709  -3.383  1.00  0.00    -0.370 OA
ATOM     12  H1  UNL     1      27.351  24.232  -3.737  1.00  0.00     0.212 HD
ENDBRANCH   4  11
BRANCH   4  13
HETATM   13  C8  UNL     1      27.519  24.632  -1.409  1.00  0.00     0.219 C 
HETATM   14  O2  UNL     1      27.976  25.559  -2.156  1.00  0.00    -0.645 OA
HETATM   15  O3  UNL     1      27.762  24.771  -0.057  1.00  0.00    -0.645 OA
ENDBRANCH   4  13
ENDBRANCH   2   4
ENDBRANCH   1   2
BRANCH   1  16
HETATM   16  C10 UNL     1      26.357  20.063  -1.984  1.00  0.00     0.221 C 
BRANCH  16  17
HETATM   17  C11 UNL     1      25.646  19.165  -1.053  1.00  0.00     0.104 C 
HETATM   18  C12 UNL     1      26.067  17.747  -0.940  1.00  0.00     0.049 C 
HETATM   19  C13 UNL     1      24.809  17.151  -0.252  1.00  0.00     0.046 C 
HETATM   20  C14 UNL     1      23.741  17.887  -0.976  1.00  0.00    -0.007 C 
HETATM   21  C15 UNL     1      24.197  19.026  -1.434  1.00  0.00    -0.033 C 
HETATM   22  C21 UNL     1      22.342  17.527  -1.227  1.00  0.00     0.156 C 
HETATM   23  C16 UNL     1      23.326  19.940  -2.188  1.00  0.00     0.047 C 
HETATM   24  C17 UNL     1      21.903  19.941  -1.663  1.00  0.00    -0.037 C 
HETATM   25  C18 UNL     1      21.886  20.784  -0.390  1.00  0.00     0.015 C 
HETATM   26  C19 UNL     1      21.057  20.634  -2.711  1.00  0.00     0.015 C 
HETATM   27  C20 UNL     1      21.343  18.589  -1.404  1.00  0.00     0.092 C 
HETATM   28  O7  UNL     1      22.023  16.305  -1.285  1.00  0.00    -0.293 OA
BRANCH  17  29
HETATM   29  O6  UNL     1      25.675  19.675   0.280  1.00  0.00    -0.383 OA
ATOM     30  H6  UNL     1      24.800  19.875   0.591  1.00  0.00     0.211 HD
ENDBRANCH  17  29
ENDBRANCH  16  17
ENDBRANCH   1  16
TORSDOF 10
ENDMDL
MODEL 5
REMARK VINA RESULT: -7.416178845      2.535      7.519
REMARK  10 active torsions:
REMARK  status: ('A' for Active; 'I' for Inactive)
REMARK    1  A    between atoms: C3_3  and  C5_5 
REMARK    2  A    between atoms: C5_5  and  C6_6 
REMARK    3  A    between atoms: C6_6  and  C7_7 
REMARK    4  A    between atoms: C7_7  and  O1_8 
REMARK    5  A    between atoms: C7_7  and  C8_10 
REMARK    6  A    between atoms: C7_7  and  C9_13 
REMARK    7  A    between atoms: C9_13  and  O5_15 
REMARK    8  A    between atoms: O5_15  and  C10_16 
REMARK    9  A    between atoms: C10_16  and  C11_17 
REMARK   10  A    between atoms: C11_17  and  O6_18 
ROOT
HETATM    1  O5  UNL     1      25.079  17.342  -0.340  1.00  0.00    -0.315 OA
ENDROOT
BRANCH   1   2
HETATM    2  C9  UNL     1      23.857  17.368  -0.883  1.00  0.00     0.304 C 
HETATM    3  O4  UNL     1      23.592  16.641  -1.854  1.00  0.00    -0.261 OA
BRANCH   2   4
HETATM    4  C7  UNL     1      22.736  18.259  -0.370  1.00  0.00     0.234 C 
BRANCH   4   5
HETATM    5  C6  UNL     1      22.077  18.916  -1.541  1.00  0.00     0.064 C 
BRANCH   5   6
HETATM    6  C5  UNL     1      22.857  20.029  -2.149  1.00  0.00     0.037 C 
BRANCH   6   7
HETATM    7  C3  UNL     1      22.142  21.316  -2.208  1.00  0.00    -0.088 C 
HETATM    8  C2  UNL     1      22.612  22.423  -1.699  1.00  0.00    -0.029 C 
HETATM    9  C1  UNL     1      23.872  22.630  -0.970  1.00  0.00     0.036 C 
HETATM   10  C4  UNL     1      20.823  21.319  -2.918  1.00  0.00     0.043 C 
ENDBRANCH   6   7
ENDBRANCH   5   6
ENDBRANCH   4   5
BRANCH   4  11
HETATM   11  O1  UNL     1      23.299  19.178   0.485  1.00  0.00    -0.370 OA
ATOM     12  H1  UNL     1      24.248  19.142   0.469  1.00  0.00     0.212 HD
ENDBRANCH   4  11
BRANCH   4  13
HETATM   13  C8  UNL     1      21.760  17.409   0.350  1.00  0.00     0.219 C 
HETATM   14  O2  UNL     1      20.547  17.793   0.434  1.00  0.00    -0.645 OA
HETATM   15  O3  UNL     1      22.054  16.201   0.951  1.00  0.00    -0.645 OA
ENDBRANCH   4  13
ENDBRANCH   2   4
ENDBRANCH   1   2
BRANCH   1  16
HETATM   16  C10 UNL     1      26.338  17.682  -0.740  1.00  0.00     0.221 C 
BRANCH  16  17
HETATM   17  C11 UNL     1      26.663  19.121  -0.703  1.00  0.00     0.104 C 
HETATM   18  C12 UNL     1      26.316  19.980  -1.862  1.00  0.00     0.049 C 
HETATM   19  C13 UNL     1      27.221  21.206  -1.565  1.00  0.00     0.046 C 
HETATM   20  C14 UNL     1      28.445  20.517  -1.082  1.00  0.00    -0.007 C 
HETATM   21  C15 UNL     1      28.148  19.339  -0.593  1.00  0.00    -0.033 C 
HETATM   22  C21 UNL     1      29.845  20.953  -1.086  1.00  0.00     0.156 C 
HETATM   23  C16 UNL     1      29.194  18.460  -0.049  1.00  0.00     0.047 C 
HETATM   24  C17 UNL     1      30.281  19.238   0.668  1.00  0.00    -0.037 C 
HETATM   25  C18 UNL     1      29.733  19.633   2.038  1.00  0.00     0.015 C 
HETATM   26  C19 UNL     1      31.436  18.279   0.870  1.00  0.00     0.015 C 
HETATM   27  C20 UNL     1      30.767  20.435  -0.067  1.00  0.00     0.092 C 
HETATM   28  O7  UNL     1      30.232  21.771  -1.970  1.00  0.00    -0.293 OA
BRANCH  17  29
HETATM   29  O6  UNL     1      26.069  19.757   0.429  1.00  0.00    -0.383 OA
ATOM     30  H6  UNL     1      25.525  20.490   0.166  1.00  0.00     0.211 HD
ENDBRANCH  17  29
ENDBRANCH  16  17
ENDBRANCH   1  16
TORSDOF 10
ENDMDL
