MODEL 1
REMARK VINA RESULT: -7.031609195      0.000      0.000
REMARK  10 active torsions:
REMARK  status: ('A' for Active; 'I' for Inactive)
REMARK    1  A    between atoms: C2_2  and  C3_3 
REMARK    2  A    between atoms: C3_3  and  C4_4 
REMARK    3  A    between atoms: C5_5  and  C6_6 
REMARK    4  A    between atoms: C6_6  and  N1_7 
REMARK    5  A    between atoms: C7_8  and  S1_9 
REMARK    6  A    between atoms: S1_9  and  C8_10 
REMARK    7  A    between atoms: C8_10  and  C11_13 
REMARK    8  A    between atoms: C11_13  and  O2_15 
REMARK    9  A    between atoms: C14_18  and  N2_19 
REMARK       I    between atoms: N2_19  and  C15_21 
REMARK   10  A    between atoms: C15_21  and  O4_23 
ROOT
HETATM    1  N1  UNL     1       0.452  -8.757 -27.034  1.00  0.00    -0.320 N 
HETATM    2  C7  UNL     1       0.317  -9.621 -26.011  1.00  0.00     0.077 A 
HETATM    3  C13 UNL     1       1.586 -10.085 -25.668  1.00  0.00     0.069 A 
HETATM    4  C14 UNL     1       2.486  -9.478 -26.508  1.00  0.00     0.077 A 
HETATM    5  C17 UNL     1       1.749  -8.642 -27.364  1.00  0.00     0.145 A 
HETATM    6  C18 UNL     1       2.291  -7.808 -28.414  1.00  0.00     0.120 C 
HETATM    7  N3  UNL     1       2.731  -7.124 -29.253  1.00  0.00    -0.190 NA
ENDROOT
BRANCH   1   8
HETATM    8  C6  UNL     1      -0.622  -8.048 -27.695  1.00  0.00     0.224 C 
BRANCH   8   9
HETATM    9  C5  UNL     1      -0.697  -6.706 -27.113  1.00  0.00    -0.086 C 
HETATM   10  C4  UNL     1      -0.778  -5.581 -26.642  1.00  0.00    -0.105 C 
BRANCH  10  11
HETATM   11  C3  UNL     1      -0.894  -4.228 -26.094  1.00  0.00     0.093 C 
BRANCH  11  12
HETATM   12  C2  UNL     1      -2.360  -3.777 -26.100  1.00  0.00     0.007 C 
HETATM   13  C1  UNL     1      -3.148  -4.466 -25.036  1.00  0.00     0.006 C 
ENDBRANCH  11  12
ENDBRANCH  10  11
ENDBRANCH   8   9
ENDBRANCH   1   8
BRANCH   4  14
HETATM   14  N2  UNL     1       3.878  -9.633 -26.541  1.00  0.00    -0.300 N 
HETATM   15  C15 UNL     1       4.621 -10.324 -27.531  1.00  0.00     0.364 C 
HETATM   16  O3  UNL     1       4.147 -10.901 -28.529  1.00  0.00    -0.238 OA
ATOM     17  H2  UNL     1       4.407  -9.209 -25.780  1.00  0.00     0.171 HD
BRANCH  15  18
HETATM   18  O4  UNL     1       6.023 -10.386 -27.413  1.00  0.00    -0.309 OA
HETATM   19  C16 UNL     1       6.834 -10.692 -28.540  1.00  0.00     0.215 C 
ENDBRANCH  15  18
ENDBRANCH   4  14
BRANCH   2  20
HETATM   20  S1  UNL     1      -1.239 -10.063 -25.256  1.00  0.00    -0.092 SA
BRANCH  20  21
HETATM   21  C8  UNL     1      -1.771  -8.879 -24.022  1.00  0.00     0.095 C 
HETATM   22  C9  UNL     1      -3.015  -8.130 -24.430  1.00  0.00     0.038 C 
HETATM   23  C10 UNL     1      -0.630  -7.908 -23.727  1.00  0.00     0.038 C 
BRANCH  21  24
HETATM   24  C11 UNL     1      -2.044  -9.621 -22.762  1.00  0.00     0.277 C 
HETATM   25  O1  UNL     1      -3.206  -9.954 -22.417  1.00  0.00    -0.263 OA
BRANCH  24  26
HETATM   26  O2  UNL     1      -0.988  -9.956 -21.941  1.00  0.00    -0.325 OA
HETATM   27  C12 UNL     1      -0.787 -11.213 -21.359  1.00  0.00     0.213 C 
ENDBRANCH  24  26
ENDBRANCH  21  24
ENDBRANCH  20  21
ENDBRANCH   2  20
TORSDOF 10
ENDMDL
MODEL 2
REMARK VINA RESULT: -6.977775915      3.304      6.383
REMARK  10 active torsions:
REMARK  status: ('A' for Active; 'I' for Inactive)
REMARK    1  A    between atoms: C2_2  and  C3_3 
REMARK    2  A    between atoms: C3_3  and  C4_4 
REMARK    3  A    between atoms: C5_5  and  C6_6 
REMARK    4  A    between atoms: C6_6  and  N1_7 
REMARK    5  A    between atoms: C7_8  and  S1_9 
REMARK    6  A    between atoms: S1_9  and  C8_10 
REMARK    7  A    between atoms: C8_10  and  C11_13 
REMARK    8  A    between atoms: C11_13  and  O2_15 
REMARK    9  A    between atoms: C14_18  and  N2_19 
REMARK       I    between atoms: N2_19  and  C15_21 
REMARK   10  A    between atoms: C15_21  and  O4_23 
ROOT
HETATM    1  N1  UNL     1      -0.638  -9.464 -23.695  1.00  0.00    -0.320 N 
HETATM    2  C7  UNL     1       0.257  -9.861 -24.619  1.00  0.00     0.077 A 
HETATM    3  C13 UNL     1       0.148 -11.244 -24.758  1.00  0.00     0.069 A 
HETATM    4  C14 UNL     1      -0.834 -11.668 -23.898  1.00  0.00     0.077 A 
HETATM    5  C17 UNL     1      -1.319 -10.528 -23.235  1.00  0.00     0.145 A 
HETATM    6  C18 UNL     1      -2.363 -10.504 -22.235  1.00  0.00     0.120 C 
HETATM    7  N3  UNL     1      -3.216 -10.484 -21.437  1.00  0.00    -0.190 NA
ENDROOT
BRANCH   1   8
HETATM    8  C6  UNL     1      -0.853  -8.105 -23.248  1.00  0.00     0.224 C 
BRANCH   8   9
HETATM    9  C5  UNL     1      -1.845  -7.494 -24.135  1.00  0.00    -0.086 C 
HETATM   10  C4  UNL     1      -2.657  -6.969 -24.883  1.00  0.00    -0.105 C 
BRANCH  10  11
HETATM   11  C3  UNL     1      -3.611  -6.322 -25.786  1.00  0.00     0.093 C 
BRANCH  11  12
HETATM   12  C2  UNL     1      -2.882  -5.341 -26.713  1.00  0.00     0.007 C 
HETATM   13  C1  UNL     1      -2.425  -4.127 -25.975  1.00  0.00     0.006 C 
ENDBRANCH  11  12
ENDBRANCH  10  11
ENDBRANCH   8   9
ENDBRANCH   1   8
BRANCH   4  14
HETATM   14  N2  UNL     1      -1.294 -12.974 -23.689  1.00  0.00    -0.300 N 
HETATM   15  C15 UNL     1      -1.162 -13.729 -22.496  1.00  0.00     0.364 C 
HETATM   16  O3  UNL     1      -0.613 -13.342 -21.445  1.00  0.00    -0.238 OA
ATOM     17  H2  UNL     1      -1.770 -13.425 -24.469  1.00  0.00     0.171 HD
BRANCH  15  18
HETATM   18  O4  UNL     1      -1.684 -15.036 -22.453  1.00  0.00    -0.309 OA
HETATM   19  C16 UNL     1      -2.421 -15.488 -21.324  1.00  0.00     0.215 C 
ENDBRANCH  15  18
ENDBRANCH   4  14
BRANCH   2  20
HETATM   20  S1  UNL     1       1.368  -8.768 -25.489  1.00  0.00    -0.092 SA
BRANCH  20  21
HETATM   21  C8  UNL     1       0.788  -8.357 -27.134  1.00  0.00     0.095 C 
HETATM   22  C9  UNL     1      -0.457  -9.117 -27.521  1.00  0.00     0.038 C 
HETATM   23  C10 UNL     1       1.908  -8.609 -28.142  1.00  0.00     0.038 C 
BRANCH  21  24
HETATM   24  C11 UNL     1       0.496  -6.900 -27.166  1.00  0.00     0.277 C 
HETATM   25  O1  UNL     1       0.493  -6.192 -26.127  1.00  0.00    -0.263 OA
BRANCH  24  26
HETATM   26  O2  UNL     1       0.217  -6.300 -28.376  1.00  0.00    -0.325 OA
HETATM   27  C12 UNL     1       0.904  -5.203 -28.910  1.00  0.00     0.213 C 
ENDBRANCH  24  26
ENDBRANCH  21  24
ENDBRANCH  20  21
ENDBRANCH   2  20
TORSDOF 10
ENDMDL
MODEL 3
REMARK VINA RESULT: -6.957705888      2.940      6.012
REMARK  10 active torsions:
REMARK  status: ('A' for Active; 'I' for Inactive)
REMARK    1  A    between atoms: C2_2  and  C3_3 
REMARK    2  A    between atoms: C3_3  and  C4_4 
REMARK    3  A    between atoms: C5_5  and  C6_6 
REMARK    4  A    between atoms: C6_6  and  N1_7 
REMARK    5  A    between atoms: C7_8  and  S1_9 
REMARK    6  A    between atoms: S1_9  and  C8_10 
REMARK    7  A    between atoms: C8_10  and  C11_13 
REMARK    8  A    between atoms: C11_13  and  O2_15 
REMARK    9  A    between atoms: C14_18  and  N2_19 
REMARK       I    between atoms: N2_19  and  C15_21 
REMARK   10  A    between atoms: C15_21  and  O4_23 
ROOT
HETATM    1  N1  UNL     1      -0.552  -8.947 -23.977  1.00  0.00    -0.320 N 
HETATM    2  C7  UNL     1       0.383  -9.223 -24.905  1.00  0.00     0.077 A 
HETATM    3  C13 UNL     1       0.409 -10.604 -25.093  1.00  0.00     0.069 A 
HETATM    4  C14 UNL     1      -0.533 -11.151 -24.258  1.00  0.00     0.077 A 
HETATM    5  C17 UNL     1      -1.130 -10.087 -23.560  1.00  0.00     0.145 A 
HETATM    6  C18 UNL     1      -2.177 -10.199 -22.570  1.00  0.00     0.120 C 
HETATM    7  N3  UNL     1      -3.034 -10.290 -21.781  1.00  0.00    -0.190 NA
ENDROOT
BRANCH   1   8
HETATM    8  C6  UNL     1      -0.900  -7.632 -23.485  1.00  0.00     0.224 C 
BRANCH   8   9
HETATM    9  C5  UNL     1      -1.792  -7.009 -24.464  1.00  0.00    -0.086 C 
HETATM   10  C4  UNL     1      -2.524  -6.471 -25.282  1.00  0.00    -0.105 C 
BRANCH  10  11
HETATM   11  C3  UNL     1      -3.385  -5.803 -26.261  1.00  0.00     0.093 C 
BRANCH  11  12
HETATM   12  C2  UNL     1      -2.535  -5.021 -27.270  1.00  0.00     0.007 C 
HETATM   13  C1  UNL     1      -1.822  -3.883 -26.618  1.00  0.00     0.006 C 
ENDBRANCH  11  12
ENDBRANCH  10  11
ENDBRANCH   8   9
ENDBRANCH   1   8
BRANCH   4  14
HETATM   14  N2  UNL     1      -0.866 -12.502 -24.098  1.00  0.00    -0.300 N 
HETATM   15  C15 UNL     1       0.042 -13.588 -24.023  1.00  0.00     0.364 C 
HETATM   16  O3  UNL     1       1.285 -13.504 -24.087  1.00  0.00    -0.238 OA
ATOM     17  H2  UNL     1      -1.859 -12.726 -24.030  1.00  0.00     0.171 HD
BRANCH  15  18
HETATM   18  O4  UNL     1      -0.463 -14.892 -23.861  1.00  0.00    -0.309 OA
HETATM   19  C16 UNL     1      -0.470 -15.515 -22.583  1.00  0.00     0.215 C 
ENDBRANCH  15  18
ENDBRANCH   4  14
BRANCH   2  20
HETATM   20  S1  UNL     1       1.389  -7.998 -25.726  1.00  0.00    -0.092 SA
BRANCH  20  21
HETATM   21  C8  UNL     1       1.052  -7.890 -27.482  1.00  0.00     0.095 C 
HETATM   22  C9  UNL     1       0.779  -6.478 -27.938  1.00  0.00     0.038 C 
HETATM   23  C10 UNL     1      -0.121  -8.804 -27.829  1.00  0.00     0.038 C 
BRANCH  21  24
HETATM   24  C11 UNL     1       2.238  -8.413 -28.209  1.00  0.00     0.277 C 
HETATM   25  O1  UNL     1       2.771  -9.516 -27.920  1.00  0.00    -0.263 OA
BRANCH  24  26
HETATM   26  O2  UNL     1       2.777  -7.668 -29.236  1.00  0.00    -0.325 OA
HETATM   27  C12 UNL     1       3.885  -8.039 -30.007  1.00  0.00     0.213 C 
ENDBRANCH  24  26
ENDBRANCH  21  24
ENDBRANCH  20  21
ENDBRANCH   2  20
TORSDOF 10
ENDMDL
MODEL 4
REMARK VINA RESULT: -6.943577936      2.839      6.322
REMARK  10 active torsions:
REMARK  status: ('A' for Active; 'I' for Inactive)
REMARK    1  A    between atoms: C2_2  and  C3_3 
REMARK    2  A    between atoms: C3_3  and  C4_4 
REMARK    3  A    between atoms: C5_5  and  C6_6 
REMARK    4  A    between atoms: C6_6  and  N1_7 
REMARK    5  A    between atoms: C7_8  and  S1_9 
REMARK    6  A    between atoms: S1_9  and  C8_10 
REMARK    7  A    between atoms: C8_10  and  C11_13 
REMARK    8  A    between atoms: C11_13  and  O2_15 
REMARK    9  A    between atoms: C14_18  and  N2_19 
REMARK       I    between atoms: N2_19  and  C15_21 
REMARK   10  A    between atoms: C15_21  and  O4_23 
ROOT
HETATM    1  N1  UNL     1      -0.454  -9.283 -23.933  1.00  0.00    -0.320 N 
HETATM    2  C7  UNL     1       0.454  -9.681 -24.843  1.00  0.00     0.077 A 
HETATM    3  C13 UNL     1       0.322 -11.059 -25.009  1.00  0.00     0.069 A 
HETATM    4  C14 UNL     1      -0.688 -11.478 -24.180  1.00  0.00     0.077 A 
HETATM    5  C17 UNL     1      -1.165 -10.340 -23.507  1.00  0.00     0.145 A 
HETATM    6  C18 UNL     1      -2.232 -10.313 -22.531  1.00  0.00     0.120 C 
HETATM    7  N3  UNL     1      -3.103 -10.290 -21.753  1.00  0.00    -0.190 NA
ENDROOT
BRANCH   1   8
HETATM    8  C6  UNL     1      -0.652  -7.928 -23.467  1.00  0.00     0.224 C 
BRANCH   8   9
HETATM    9  C5  UNL     1      -1.693  -7.317 -24.295  1.00  0.00    -0.086 C 
HETATM   10  C4  UNL     1      -2.546  -6.794 -24.997  1.00  0.00    -0.105 C 
BRANCH  10  11
HETATM   11  C3  UNL     1      -3.550  -6.150 -25.848  1.00  0.00     0.093 C 
BRANCH  11  12
HETATM   12  C2  UNL     1      -2.882  -5.123 -26.772  1.00  0.00     0.007 C 
HETATM   13  C1  UNL     1      -2.320  -3.976 -25.999  1.00  0.00     0.006 C 
ENDBRANCH  11  12
ENDBRANCH  10  11
ENDBRANCH   8   9
ENDBRANCH   1   8
BRANCH   4  14
HETATM   14  N2  UNL     1      -1.178 -12.778 -24.004  1.00  0.00    -0.300 N 
HETATM   15  C15 UNL     1      -1.058 -13.570 -22.834  1.00  0.00     0.364 C 
HETATM   16  O3  UNL     1      -0.494 -13.227 -21.777  1.00  0.00    -0.238 OA
ATOM     17  H2  UNL     1      -1.670 -13.195 -24.795  1.00  0.00     0.171 HD
BRANCH  15  18
HETATM   18  O4  UNL     1      -1.611 -14.864 -22.825  1.00  0.00    -0.309 OA
HETATM   19  C16 UNL     1      -2.193 -15.398 -21.643  1.00  0.00     0.215 C 
ENDBRANCH  15  18
ENDBRANCH   4  14
BRANCH   2  20
HETATM   20  S1  UNL     1       1.606  -8.596 -25.667  1.00  0.00    -0.092 SA
BRANCH  20  21
HETATM   21  C8  UNL     1       0.970  -7.959 -27.217  1.00  0.00     0.095 C 
HETATM   22  C9  UNL     1       0.474  -6.539 -27.104  1.00  0.00     0.038 C 
HETATM   23  C10 UNL     1      -0.139  -8.879 -27.724  1.00  0.00     0.038 C 
BRANCH  21  24
HETATM   24  C11 UNL     1       2.067  -8.011 -28.218  1.00  0.00     0.277 C 
HETATM   25  O1  UNL     1       2.398  -7.011 -28.906  1.00  0.00    -0.263 OA
BRANCH  24  26
HETATM   26  O2  UNL     1       2.748  -9.195 -28.405  1.00  0.00    -0.325 OA
HETATM   27  C12 UNL     1       4.115  -9.304 -28.686  1.00  0.00     0.213 C 
ENDBRANCH  24  26
ENDBRANCH  21  24
ENDBRANCH  20  21
ENDBRANCH   2  20
TORSDOF 10
ENDMDL
MODEL 5
REMARK VINA RESULT: -6.919843182      1.113      1.974
REMARK  10 active torsions:
REMARK  status: ('A' for Active; 'I' for Inactive)
REMARK    1  A    between atoms: C2_2  and  C3_3 
REMARK    2  A    between atoms: C3_3  and  C4_4 
REMARK    3  A    between atoms: C5_5  and  C6_6 
REMARK    4  A    between atoms: C6_6  and  N1_7 
REMARK    5  A    between atoms: C7_8  and  S1_9 
REMARK    6  A    between atoms: S1_9  and  C8_10 
REMARK    7  A    between atoms: C8_10  and  C11_13 
REMARK    8  A    between atoms: C11_13  and  O2_15 
REMARK    9  A    between atoms: C14_18  and  N2_19 
REMARK       I    between atoms: N2_19  and  C15_21 
REMARK   10  A    between atoms: C15_21  and  O4_23 
ROOT
HETATM    1  N1  UNL     1       0.660  -8.716 -27.076  1.00  0.00    -0.320 N 
HETATM    2  C7  UNL     1       0.571  -9.502 -25.988  1.00  0.00     0.077 A 
HETATM    3  C13 UNL     1       1.854  -9.945 -25.670  1.00  0.00     0.069 A 
HETATM    4  C14 UNL     1       2.715  -9.406 -26.592  1.00  0.00     0.077 A 
HETATM    5  C17 UNL     1       1.941  -8.631 -27.473  1.00  0.00     0.145 A 
HETATM    6  C18 UNL     1       2.435  -7.879 -28.605  1.00  0.00     0.120 C 
HETATM    7  N3  UNL     1       2.838  -7.260 -29.510  1.00  0.00    -0.190 NA
ENDROOT
BRANCH   1   8
HETATM    8  C6  UNL     1      -0.442  -8.053 -27.738  1.00  0.00     0.224 C 
BRANCH   8   9
HETATM    9  C5  UNL     1      -0.407  -6.640 -27.359  1.00  0.00    -0.086 C 
HETATM   10  C4  UNL     1      -0.397  -5.456 -27.053  1.00  0.00    -0.105 C 
BRANCH  10  11
HETATM   11  C3  UNL     1      -0.408  -4.034 -26.702  1.00  0.00     0.093 C 
BRANCH  11  12
HETATM   12  C2  UNL     1      -1.846  -3.499 -26.699  1.00  0.00     0.007 C 
HETATM   13  C1  UNL     1      -2.254  -3.035 -25.340  1.00  0.00     0.006 C 
ENDBRANCH  11  12
ENDBRANCH  10  11
ENDBRANCH   8   9
ENDBRANCH   1   8
BRANCH   4  14
HETATM   14  N2  UNL     1       4.104  -9.569 -26.676  1.00  0.00    -0.300 N 
HETATM   15  C15 UNL     1       4.793 -10.460 -27.537  1.00  0.00     0.364 C 
HETATM   16  O3  UNL     1       4.264 -11.238 -28.355  1.00  0.00    -0.238 OA
ATOM     17  H2  UNL     1       4.674  -8.991 -26.059  1.00  0.00     0.171 HD
BRANCH  15  18
HETATM   18  O4  UNL     1       6.200 -10.500 -27.495  1.00  0.00    -0.309 OA
HETATM   19  C16 UNL     1       6.957 -10.679 -28.685  1.00  0.00     0.215 C 
ENDBRANCH  15  18
ENDBRANCH   4  14
BRANCH   2  20
HETATM   20  S1  UNL     1      -0.950  -9.882 -25.133  1.00  0.00    -0.092 SA
BRANCH  20  21
HETATM   21  C8  UNL     1      -1.402  -8.629 -23.935  1.00  0.00     0.095 C 
HETATM   22  C9  UNL     1      -0.402  -7.501 -23.864  1.00  0.00     0.038 C 
HETATM   23  C10 UNL     1      -1.579  -9.280 -22.565  1.00  0.00     0.038 C 
BRANCH  21  24
HETATM   24  C11 UNL     1      -2.726  -8.078 -24.326  1.00  0.00     0.277 C 
HETATM   25  O1  UNL     1      -3.785  -8.752 -24.244  1.00  0.00    -0.263 OA
BRANCH  24  26
HETATM   26  O2  UNL     1      -2.800  -6.784 -24.796  1.00  0.00    -0.325 OA
HETATM   27  C12 UNL     1      -3.747  -6.311 -25.712  1.00  0.00     0.213 C 
ENDBRANCH  24  26
ENDBRANCH  21  24
ENDBRANCH  20  21
ENDBRANCH   2  20
TORSDOF 10
ENDMDL
