MODEL 1
REMARK VINA RESULT: -8.165809834      0.000      0.000
REMARK  7 active torsions:
REMARK  status: ('A' for Active; 'I' for Inactive)
REMARK    1  A    between atoms: C3_4  and  C4_5 
REMARK    2  A    between atoms: C4_5  and  C5_7 
REMARK    3  A    between atoms: C5_7  and  S2_8 
REMARK    4  A    between atoms: S2_8  and  C6_9 
REMARK    5  A    between atoms: C6_9  and  N1_11 
REMARK    6  A    between atoms: C13_19  and  C14_20 
REMARK    7  A    between atoms: C14_20  and  C15_21 
ROOT
HETATM    1  C15 UNL     1      -2.222 -13.600 -20.285  1.00  0.00     0.232 C 
HETATM    2  O2  UNL     1      -3.228 -12.858 -20.347  1.00  0.00    -0.281 OA
HETATM    3  C16 UNL     1      -2.394 -14.958 -19.879  1.00  0.00     0.138 C 
HETATM    4  N3  UNL     1      -2.529 -16.059 -19.541  1.00  0.00    -0.188 NA
ENDROOT
BRANCH   1   5
HETATM    5  C14 UNL     1      -0.901 -13.069 -20.625  1.00  0.00     0.136 C 
BRANCH   5   6
HETATM    6  C13 UNL     1      -0.907 -12.440 -22.011  1.00  0.00    -0.012 A 
HETATM    7  C2  UNL     1      -0.765 -13.256 -23.105  1.00  0.00    -0.012 A 
HETATM    8  C1  UNL     1      -0.595 -14.736 -23.192  1.00  0.00     0.057 C 
HETATM    9  S1  UNL     1      -0.828 -12.167 -24.409  1.00  0.00    -0.089 SA
HETATM   10  C3  UNL     1      -1.033 -10.706 -23.540  1.00  0.00     0.076 A 
HETATM   11  C12 UNL     1      -1.044 -11.129 -22.239  1.00  0.00     0.074 A 
HETATM   12  N2  UNL     1      -1.203 -10.154 -21.166  1.00  0.00    -0.100 NA
BRANCH  10  13
HETATM   13  C4  UNL     1      -1.165  -9.329 -24.060  1.00  0.00     0.177 C 
HETATM   14  O1  UNL     1      -2.269  -8.767 -23.957  1.00  0.00    -0.291 OA
BRANCH  13  15
HETATM   15  C5  UNL     1      -0.031  -8.630 -24.688  1.00  0.00     0.166 C 
BRANCH  15  16
HETATM   16  S2  UNL     1      -0.246  -8.675 -26.476  1.00  0.00    -0.093 SA
BRANCH  16  17
HETATM   17  C6  UNL     1      -0.020  -7.101 -27.230  1.00  0.00     0.137 C 
HETATM   18  S3  UNL     1       1.355  -6.751 -28.038  1.00  0.00    -0.053 SA
BRANCH  17  19
HETATM   19  N1  UNL     1      -1.025  -6.114 -27.147  1.00  0.00    -0.367 N 
HETATM   20  C7  UNL     1      -2.236  -6.326 -26.370  1.00  0.00     0.124 C 
HETATM   21  C8  UNL     1      -3.053  -5.058 -26.409  1.00  0.00     0.020 C 
HETATM   22  C9  UNL     1      -2.230  -3.858 -25.992  1.00  0.00     0.003 C 
HETATM   23  C10 UNL     1      -1.137  -3.653 -26.993  1.00  0.00     0.020 C 
HETATM   24  C11 UNL     1      -0.854  -4.870 -27.845  1.00  0.00     0.124 C 
ENDBRANCH  17  19
ENDBRANCH  16  17
ENDBRANCH  15  16
ENDBRANCH  13  15
ENDBRANCH  10  13
ENDBRANCH   5   6
ENDBRANCH   1   5
TORSDOF 7
ENDMDL
MODEL 2
REMARK VINA RESULT: -8.138604849      2.035      2.981
REMARK  7 active torsions:
REMARK  status: ('A' for Active; 'I' for Inactive)
REMARK    1  A    between atoms: C3_4  and  C4_5 
REMARK    2  A    between atoms: C4_5  and  C5_7 
REMARK    3  A    between atoms: C5_7  and  S2_8 
REMARK    4  A    between atoms: S2_8  and  C6_9 
REMARK    5  A    between atoms: C6_9  and  N1_11 
REMARK    6  A    between atoms: C13_19  and  C14_20 
REMARK    7  A    between atoms: C14_20  and  C15_21 
ROOT
HETATM    1  C15 UNL     1      -1.613 -13.307 -22.015  1.00  0.00     0.232 C 
HETATM    2  O2  UNL     1      -1.660 -14.174 -22.916  1.00  0.00    -0.281 OA
HETATM    3  C16 UNL     1      -2.634 -13.294 -21.019  1.00  0.00     0.138 C 
HETATM    4  N3  UNL     1      -3.468 -13.276 -20.213  1.00  0.00    -0.188 NA
ENDROOT
BRANCH   1   5
HETATM    5  C14 UNL     1      -0.522 -12.331 -21.998  1.00  0.00     0.136 C 
BRANCH   5   6
HETATM    6  C13 UNL     1      -0.664 -11.335 -23.141  1.00  0.00    -0.012 A 
HETATM    7  C2  UNL     1       0.098 -11.512 -24.268  1.00  0.00    -0.012 A 
HETATM    8  C1  UNL     1       1.103 -12.563 -24.600  1.00  0.00     0.057 C 
HETATM    9  S1  UNL     1      -0.369 -10.210 -25.257  1.00  0.00    -0.089 SA
HETATM   10  C3  UNL     1      -1.519  -9.475 -24.222  1.00  0.00     0.076 A 
HETATM   11  C12 UNL     1      -1.495 -10.286 -23.121  1.00  0.00     0.074 A 
HETATM   12  N2  UNL     1      -2.358  -9.985 -21.986  1.00  0.00    -0.100 NA
BRANCH  10  13
HETATM   13  C4  UNL     1      -2.335  -8.265 -24.456  1.00  0.00     0.177 C 
HETATM   14  O1  UNL     1      -3.572  -8.389 -24.480  1.00  0.00    -0.291 OA
BRANCH  13  15
HETATM   15  C5  UNL     1      -1.716  -6.945 -24.658  1.00  0.00     0.166 C 
BRANCH  15  16
HETATM   16  S2  UNL     1      -2.400  -6.212 -26.155  1.00  0.00    -0.093 SA
BRANCH  16  17
HETATM   17  C6  UNL     1      -1.249  -5.183 -26.999  1.00  0.00     0.137 C 
HETATM   18  S3  UNL     1      -1.346  -3.557 -26.892  1.00  0.00    -0.053 SA
BRANCH  17  19
HETATM   19  N1  UNL     1      -0.220  -5.748 -27.782  1.00  0.00    -0.367 N 
HETATM   20  C7  UNL     1       0.647  -4.922 -28.607  1.00  0.00     0.124 C 
HETATM   21  C8  UNL     1       1.691  -5.811 -29.237  1.00  0.00     0.020 C 
HETATM   22  C9  UNL     1       2.406  -6.646 -28.196  1.00  0.00     0.003 C 
HETATM   23  C10 UNL     1       1.421  -7.580 -27.567  1.00  0.00     0.020 C 
HETATM   24  C11 UNL     1      -0.021  -7.171 -27.770  1.00  0.00     0.124 C 
ENDBRANCH  17  19
ENDBRANCH  16  17
ENDBRANCH  15  16
ENDBRANCH  13  15
ENDBRANCH  10  13
ENDBRANCH   5   6
ENDBRANCH   1   5
TORSDOF 7
ENDMDL
MODEL 3
REMARK VINA RESULT: -7.862837926      2.244      9.044
REMARK  7 active torsions:
REMARK  status: ('A' for Active; 'I' for Inactive)
REMARK    1  A    between atoms: C3_4  and  C4_5 
REMARK    2  A    between atoms: C4_5  and  C5_7 
REMARK    3  A    between atoms: C5_7  and  S2_8 
REMARK    4  A    between atoms: S2_8  and  C6_9 
REMARK    5  A    between atoms: C6_9  and  N1_11 
REMARK    6  A    between atoms: C13_19  and  C14_20 
REMARK    7  A    between atoms: C14_20  and  C15_21 
ROOT
HETATM    1  C15 UNL     1      -1.627  -3.854 -26.999  1.00  0.00     0.232 C 
HETATM    2  O2  UNL     1      -0.695  -3.296 -27.620  1.00  0.00    -0.281 OA
HETATM    3  C16 UNL     1      -2.133  -3.235 -25.817  1.00  0.00     0.138 C 
HETATM    4  N3  UNL     1      -2.540  -2.738 -24.851  1.00  0.00    -0.188 NA
ENDROOT
BRANCH   1   5
HETATM    5  C14 UNL     1      -2.177  -5.119 -27.490  1.00  0.00     0.136 C 
BRANCH   5   6
HETATM    6  C13 UNL     1      -1.637  -6.295 -26.688  1.00  0.00    -0.012 A 
HETATM    7  C2  UNL     1      -0.427  -6.835 -27.043  1.00  0.00    -0.012 A 
HETATM    8  C1  UNL     1       0.516  -6.459 -28.138  1.00  0.00     0.057 C 
HETATM    9  S1  UNL     1      -0.216  -8.087 -25.913  1.00  0.00    -0.089 SA
HETATM   10  C3  UNL     1      -1.664  -7.898 -25.017  1.00  0.00     0.076 A 
HETATM   11  C12 UNL     1      -2.271  -6.845 -25.645  1.00  0.00     0.074 A 
HETATM   12  N2  UNL     1      -3.561  -6.368 -25.166  1.00  0.00    -0.100 NA
BRANCH  10  13
HETATM   13  C4  UNL     1      -2.142  -8.676 -23.856  1.00  0.00     0.177 C 
HETATM   14  O1  UNL     1      -3.317  -9.085 -23.869  1.00  0.00    -0.291 OA
BRANCH  13  15
HETATM   15  C5  UNL     1      -1.267  -8.966 -22.708  1.00  0.00     0.166 C 
BRANCH  15  16
HETATM   16  S2  UNL     1      -1.942 -10.377 -21.813  1.00  0.00    -0.093 SA
BRANCH  16  17
HETATM   17  C6  UNL     1      -1.285 -11.913 -22.367  1.00  0.00     0.137 C 
HETATM   18  S3  UNL     1       0.006 -11.958 -23.365  1.00  0.00    -0.053 SA
BRANCH  17  19
HETATM   19  N1  UNL     1      -1.865 -13.132 -21.957  1.00  0.00    -0.367 N 
HETATM   20  C7  UNL     1      -1.589 -14.377 -22.655  1.00  0.00     0.124 C 
HETATM   21  C8  UNL     1      -2.279 -15.498 -21.918  1.00  0.00     0.020 C 
HETATM   22  C9  UNL     1      -1.916 -15.497 -20.448  1.00  0.00     0.003 C 
HETATM   23  C10 UNL     1      -2.434 -14.239 -19.825  1.00  0.00     0.020 C 
HETATM   24  C11 UNL     1      -2.750 -13.150 -20.825  1.00  0.00     0.124 C 
ENDBRANCH  17  19
ENDBRANCH  16  17
ENDBRANCH  15  16
ENDBRANCH  13  15
ENDBRANCH  10  13
ENDBRANCH   5   6
ENDBRANCH   1   5
TORSDOF 7
ENDMDL
MODEL 4
REMARK VINA RESULT: -7.858040523      2.127      2.575
REMARK  7 active torsions:
REMARK  status: ('A' for Active; 'I' for Inactive)
REMARK    1  A    between atoms: C3_4  and  C4_5 
REMARK    2  A    between atoms: C4_5  and  C5_7 
REMARK    3  A    between atoms: C5_7  and  S2_8 
REMARK    4  A    between atoms: S2_8  and  C6_9 
REMARK    5  A    between atoms: C6_9  and  N1_11 
REMARK    6  A    between atoms: C13_19  and  C14_20 
REMARK    7  A    between atoms: C14_20  and  C15_21 
ROOT
HETATM    1  C15 UNL     1      -1.475 -13.953 -22.473  1.00  0.00     0.232 C 
HETATM    2  O2  UNL     1      -2.512 -14.064 -21.781  1.00  0.00    -0.281 OA
HETATM    3  C16 UNL     1      -1.264 -14.869 -23.547  1.00  0.00     0.138 C 
HETATM    4  N3  UNL     1      -1.085 -15.618 -24.414  1.00  0.00    -0.188 NA
ENDROOT
BRANCH   1   5
HETATM    5  C14 UNL     1      -0.506 -12.898 -22.172  1.00  0.00     0.136 C 
BRANCH   5   6
HETATM    6  C13 UNL     1      -0.805 -11.639 -22.975  1.00  0.00    -0.012 A 
HETATM    7  C2  UNL     1      -1.673 -10.714 -22.452  1.00  0.00    -0.012 A 
HETATM    8  C1  UNL     1      -2.425 -10.715 -21.163  1.00  0.00     0.057 C 
HETATM    9  S1  UNL     1      -1.712  -9.505 -23.645  1.00  0.00    -0.089 SA
HETATM   10  C3  UNL     1      -0.629 -10.197 -24.777  1.00  0.00     0.076 A 
HETATM   11  C12 UNL     1      -0.270 -11.370 -24.171  1.00  0.00     0.074 A 
HETATM   12  N2  UNL     1       0.664 -12.267 -24.838  1.00  0.00    -0.100 NA
BRANCH  10  13
HETATM   13  C4  UNL     1      -0.190  -9.664 -26.084  1.00  0.00     0.177 C 
HETATM   14  O1  UNL     1      -0.900  -9.894 -27.079  1.00  0.00    -0.291 OA
BRANCH  13  15
HETATM   15  C5  UNL     1       1.051  -8.884 -26.221  1.00  0.00     0.166 C 
BRANCH  15  16
HETATM   16  S2  UNL     1       0.722  -7.187 -25.713  1.00  0.00    -0.093 SA
BRANCH  16  17
HETATM   17  C6  UNL     1      -0.165  -6.272 -26.927  1.00  0.00     0.137 C 
HETATM   18  S3  UNL     1       0.478  -6.001 -28.404  1.00  0.00    -0.053 SA
BRANCH  17  19
HETATM   19  N1  UNL     1      -1.447  -5.756 -26.643  1.00  0.00    -0.367 N 
HETATM   20  C7  UNL     1      -2.490  -6.589 -26.068  1.00  0.00     0.124 C 
HETATM   21  C8  UNL     1      -3.696  -5.723 -25.801  1.00  0.00     0.020 C 
HETATM   22  C9  UNL     1      -3.330  -4.503 -24.982  1.00  0.00     0.003 C 
HETATM   23  C10 UNL     1      -2.400  -3.648 -25.783  1.00  0.00     0.020 C 
HETATM   24  C11 UNL     1      -1.734  -4.377 -26.928  1.00  0.00     0.124 C 
ENDBRANCH  17  19
ENDBRANCH  16  17
ENDBRANCH  15  16
ENDBRANCH  13  15
ENDBRANCH  10  13
ENDBRANCH   5   6
ENDBRANCH   1   5
TORSDOF 7
ENDMDL
MODEL 5
REMARK VINA RESULT: -7.703245783      2.228      3.321
REMARK  7 active torsions:
REMARK  status: ('A' for Active; 'I' for Inactive)
REMARK    1  A    between atoms: C3_4  and  C4_5 
REMARK    2  A    between atoms: C4_5  and  C5_7 
REMARK    3  A    between atoms: C5_7  and  S2_8 
REMARK    4  A    between atoms: S2_8  and  C6_9 
REMARK    5  A    between atoms: C6_9  and  N1_11 
REMARK    6  A    between atoms: C13_19  and  C14_20 
REMARK    7  A    between atoms: C14_20  and  C15_21 
ROOT
HETATM    1  C15 UNL     1      -1.692 -13.629 -21.763  1.00  0.00     0.232 C 
HETATM    2  O2  UNL     1      -1.801 -14.579 -22.569  1.00  0.00    -0.281 OA
HETATM    3  C16 UNL     1      -2.707 -13.445 -20.776  1.00  0.00     0.138 C 
HETATM    4  N3  UNL     1      -3.535 -13.287 -19.980  1.00  0.00    -0.188 NA
ENDROOT
BRANCH   1   5
HETATM    5  C14 UNL     1      -0.539 -12.732 -21.845  1.00  0.00     0.136 C 
BRANCH   5   6
HETATM    6  C13 UNL     1      -0.694 -11.748 -22.996  1.00  0.00    -0.012 A 
HETATM    7  C2  UNL     1      -0.152 -12.069 -24.215  1.00  0.00    -0.012 A 
HETATM    8  C1  UNL     1       0.611 -13.277 -24.646  1.00  0.00     0.057 C 
HETATM    9  S1  UNL     1      -0.552 -10.728 -25.180  1.00  0.00    -0.089 SA
HETATM   10  C3  UNL     1      -1.397  -9.794 -24.020  1.00  0.00     0.076 A 
HETATM   11  C12 UNL     1      -1.334 -10.577 -22.900  1.00  0.00     0.074 A 
HETATM   12  N2  UNL     1      -1.955 -10.116 -21.664  1.00  0.00    -0.100 NA
BRANCH  10  13
HETATM   13  C4  UNL     1      -2.036  -8.471 -24.183  1.00  0.00     0.177 C 
HETATM   14  O1  UNL     1      -3.227  -8.436 -24.540  1.00  0.00    -0.291 OA
BRANCH  13  15
HETATM   15  C5  UNL     1      -1.297  -7.222 -23.937  1.00  0.00     0.166 C 
BRANCH  15  16
HETATM   16  S2  UNL     1       0.324  -7.351 -24.713  1.00  0.00    -0.093 SA
BRANCH  16  17
HETATM   17  C6  UNL     1       0.286  -6.990 -26.435  1.00  0.00     0.137 C 
HETATM   18  S3  UNL     1      -0.960  -6.160 -27.088  1.00  0.00    -0.053 SA
BRANCH  17  19
HETATM   19  N1  UNL     1       1.333  -7.413 -27.282  1.00  0.00    -0.367 N 
HETATM   20  C7  UNL     1       1.835  -6.564 -28.350  1.00  0.00     0.124 C 
HETATM   21  C8  UNL     1       3.004  -7.262 -29.001  1.00  0.00     0.020 C 
HETATM   22  C9  UNL     1       4.039  -7.677 -27.976  1.00  0.00     0.003 C 
HETATM   23  C10 UNL     1       3.431  -8.694 -27.063  1.00  0.00     0.020 C 
HETATM   24  C11 UNL     1       1.919  -8.710 -27.088  1.00  0.00     0.124 C 
ENDBRANCH  17  19
ENDBRANCH  16  17
ENDBRANCH  15  16
ENDBRANCH  13  15
ENDBRANCH  10  13
ENDBRANCH   5   6
ENDBRANCH   1   5
TORSDOF 7
ENDMDL
