MODEL 1
REMARK VINA RESULT: -8.342625581      0.000      0.000
REMARK  6 active torsions:
REMARK  status: ('A' for Active; 'I' for Inactive)
REMARK    1  A    between atoms: C2_2  and  N1_4 
REMARK       I    between atoms: N1_4  and  C4_6 
REMARK       I    between atoms: C4_6  and  N2_8 
REMARK    2  A    between atoms: N2_8  and  C5_9 
REMARK    3  A    between atoms: N2_8  and  C7_12 
REMARK    4  A    between atoms: C7_12  and  C8_13 
REMARK       I    between atoms: C8_13  and  N4_15 
REMARK    5  A    between atoms: N5_17  and  C9_19 
REMARK    6  A    between atoms: C10_20  and  O3_21 
ROOT
HETATM    1  C5  UNL     1      12.011   7.529 -10.084  1.00  0.00     0.252 C 
HETATM    2  C6  UNL     1      12.646   7.503  -8.761  1.00  0.00     0.079 C 
HETATM    3  N3  UNL     1      13.149   7.464  -7.717  1.00  0.00    -0.196 NA
ENDROOT
BRANCH   1   4
HETATM    4  N2  UNL     1      12.896   8.210 -11.001  1.00  0.00    -0.313 N 
HETATM    5  C4  UNL     1      13.687   7.478 -11.912  1.00  0.00     0.319 C 
HETATM    6  N1  UNL     1      14.579   8.135 -12.835  1.00  0.00    -0.339 N 
HETATM    7  O1  UNL     1      13.611   6.224 -11.914  1.00  0.00    -0.247 OA
ATOM      8  H1  UNL     1      14.640   9.153 -12.831  1.00  0.00     0.164 HD
BRANCH   6   9
HETATM    9  C2  UNL     1      15.386   7.382 -13.764  1.00  0.00     0.078 C 
HETATM   10  C1  UNL     1      15.078   7.875 -15.163  1.00  0.00     0.032 C 
HETATM   11  C3  UNL     1      16.861   7.610 -13.417  1.00  0.00     0.032 C 
ENDBRANCH   6   9
BRANCH   4  12
HETATM   12  C7  UNL     1      12.925   9.668 -10.937  1.00  0.00     0.233 C 
BRANCH  12  13
HETATM   13  C8  UNL     1      11.713  10.243 -11.554  1.00  0.00     0.254 C 
HETATM   14  O2  UNL     1      11.612  10.238 -12.798  1.00  0.00    -0.270 OA
HETATM   15  N4  UNL     1      10.698  10.783 -10.765  1.00  0.00    -0.268 N 
HETATM   16  N5  UNL     1      10.027  11.813 -10.993  1.00  0.00    -0.293 N 
ATOM     17  H4  UNL     1      10.478  10.281  -9.905  1.00  0.00     0.190 HD
ATOM     18  H5  UNL     1      10.191  12.365 -11.835  1.00  0.00     0.187 HD
BRANCH  16  19
HETATM   19  C9  UNL     1       9.035  12.194 -10.058  1.00  0.00     0.112 A 
HETATM   20  C10 UNL     1       8.153  11.294  -9.496  1.00  0.00     0.170 A 
HETATM   21  N6  UNL     1       7.353  11.979  -8.659  1.00  0.00    -0.329 N 
HETATM   22  C11 UNL     1       7.726  13.299  -8.691  1.00  0.00     0.090 A 
ATOM     23  H6  UNL     1       6.598  11.585  -8.096  1.00  0.00     0.168 HD
HETATM   24  S1  UNL     1       7.436  14.869  -8.098  1.00  0.00    -0.059 SA
HETATM   25  C14 UNL     1       8.770  13.482  -9.549  1.00  0.00     0.032 A 
HETATM   26  C12 UNL     1       8.641  15.722  -8.948  1.00  0.00     0.077 A 
HETATM   27 CL1  UNL     1       9.035  17.451  -8.909  1.00  0.00    -0.076 Cl
HETATM   28  C13 UNL     1       9.250  14.745  -9.685  1.00  0.00     0.048 A 
BRANCH  20  29
HETATM   29  O3  UNL     1       8.047   9.926  -9.705  1.00  0.00    -0.344 OA
ATOM     30  H3  UNL     1       7.790   9.245  -9.095  1.00  0.00     0.219 HD
ENDBRANCH  20  29
ENDBRANCH  16  19
ENDBRANCH  12  13
ENDBRANCH   4  12
ENDBRANCH   1   4
TORSDOF 6
ENDMDL
MODEL 2
REMARK VINA RESULT: -8.153776970      4.413      6.630
REMARK  6 active torsions:
REMARK  status: ('A' for Active; 'I' for Inactive)
REMARK    1  A    between atoms: C2_2  and  N1_4 
REMARK       I    between atoms: N1_4  and  C4_6 
REMARK       I    between atoms: C4_6  and  N2_8 
REMARK    2  A    between atoms: N2_8  and  C5_9 
REMARK    3  A    between atoms: N2_8  and  C7_12 
REMARK    4  A    between atoms: C7_12  and  C8_13 
REMARK       I    between atoms: C8_13  and  N4_15 
REMARK    5  A    between atoms: N5_17  and  C9_19 
REMARK    6  A    between atoms: C10_20  and  O3_21 
ROOT
HETATM    1  C5  UNL     1      14.280   4.839  -9.926  1.00  0.00     0.252 C 
HETATM    2  C6  UNL     1      15.441   5.574 -10.441  1.00  0.00     0.079 C 
HETATM    3  N3  UNL     1      16.346   6.168 -10.856  1.00  0.00    -0.196 NA
ENDROOT
BRANCH   1   4
HETATM    4  N2  UNL     1      14.322   4.874  -8.482  1.00  0.00    -0.313 N 
HETATM    5  C4  UNL     1      14.646   3.716  -7.744  1.00  0.00     0.319 C 
HETATM    6  N1  UNL     1      14.692   3.726  -6.303  1.00  0.00    -0.339 N 
HETATM    7  O1  UNL     1      14.899   2.652  -8.362  1.00  0.00    -0.247 OA
ATOM      8  H1  UNL     1      14.485   4.591  -5.803  1.00  0.00     0.164 HD
BRANCH   6   9
HETATM    9  C2  UNL     1      15.024   2.538  -5.554  1.00  0.00     0.078 C 
HETATM   10  C1  UNL     1      16.034   2.919  -4.490  1.00  0.00     0.032 C 
HETATM   11  C3  UNL     1      13.740   1.995  -4.919  1.00  0.00     0.032 C 
ENDBRANCH   6   9
BRANCH   4  12
HETATM   12  C7  UNL     1      14.018   6.149  -7.840  1.00  0.00     0.233 C 
BRANCH  12  13
HETATM   13  C8  UNL     1      12.593   6.495  -8.011  1.00  0.00     0.254 C 
HETATM   14  O2  UNL     1      11.741   5.887  -7.330  1.00  0.00    -0.270 OA
HETATM   15  N4  UNL     1      12.201   7.482  -8.915  1.00  0.00    -0.268 N 
HETATM   16  N5  UNL     1      11.203   7.467  -9.667  1.00  0.00    -0.293 N 
ATOM     17  H4  UNL     1      12.796   8.309  -8.968  1.00  0.00     0.190 HD
ATOM     18  H5  UNL     1      10.562   6.673  -9.667  1.00  0.00     0.187 HD
BRANCH  16  19
HETATM   19  C9  UNL     1      10.982   8.577 -10.517  1.00  0.00     0.112 A 
HETATM   20  C10 UNL     1       9.819   9.320 -10.489  1.00  0.00     0.170 A 
HETATM   21  N6  UNL     1       9.934  10.290 -11.414  1.00  0.00    -0.329 N 
HETATM   22  C11 UNL     1      11.158  10.161 -12.022  1.00  0.00     0.090 A 
ATOM     23  H6  UNL     1       9.233  11.000 -11.627  1.00  0.00     0.168 HD
HETATM   24  S1  UNL     1      12.229  10.773 -13.196  1.00  0.00    -0.059 SA
HETATM   25  C14 UNL     1      11.846   9.107 -11.497  1.00  0.00     0.032 A 
HETATM   26  C12 UNL     1      13.523   9.683 -12.998  1.00  0.00     0.077 A 
HETATM   27 CL1  UNL     1      15.076   9.613 -13.853  1.00  0.00    -0.076 Cl
HETATM   28  C13 UNL     1      13.081   8.855 -12.003  1.00  0.00     0.048 A 
BRANCH  20  29
HETATM   29  O3  UNL     1       8.699   9.160  -9.685  1.00  0.00    -0.344 OA
ATOM     30  H3  UNL     1       8.424   8.401  -9.185  1.00  0.00     0.219 HD
ENDBRANCH  20  29
ENDBRANCH  16  19
ENDBRANCH  12  13
ENDBRANCH   4  12
ENDBRANCH   1   4
TORSDOF 6
ENDMDL
MODEL 3
REMARK VINA RESULT: -8.148942693      4.125      8.046
REMARK  6 active torsions:
REMARK  status: ('A' for Active; 'I' for Inactive)
REMARK    1  A    between atoms: C2_2  and  N1_4 
REMARK       I    between atoms: N1_4  and  C4_6 
REMARK       I    between atoms: C4_6  and  N2_8 
REMARK    2  A    between atoms: N2_8  and  C5_9 
REMARK    3  A    between atoms: N2_8  and  C7_12 
REMARK    4  A    between atoms: C7_12  and  C8_13 
REMARK       I    between atoms: C8_13  and  N4_15 
REMARK    5  A    between atoms: N5_17  and  C9_19 
REMARK    6  A    between atoms: C10_20  and  O3_21 
ROOT
HETATM    1  C5  UNL     1       7.977  10.051  -7.811  1.00  0.00     0.252 C 
HETATM    2  C6  UNL     1       9.299   9.572  -7.393  1.00  0.00     0.079 C 
HETATM    3  N3  UNL     1      10.340   9.177  -7.069  1.00  0.00    -0.196 NA
ENDROOT
BRANCH   1   4
HETATM    4  N2  UNL     1       8.153  11.005  -8.881  1.00  0.00    -0.313 N 
HETATM    5  C4  UNL     1       8.049  12.390  -8.633  1.00  0.00     0.319 C 
HETATM    6  N1  UNL     1       8.220  13.362  -9.685  1.00  0.00    -0.339 N 
HETATM    7  O1  UNL     1       7.801  12.782  -7.466  1.00  0.00    -0.247 OA
ATOM      8  H1  UNL     1       8.420  13.041 -10.632  1.00  0.00     0.164 HD
BRANCH   6   9
HETATM    9  C2  UNL     1       8.112  14.777  -9.426  1.00  0.00     0.078 C 
HETATM   10  C1  UNL     1       9.495  15.384  -9.542  1.00  0.00     0.032 C 
HETATM   11  C3  UNL     1       7.160  15.385 -10.460  1.00  0.00     0.032 C 
ENDBRANCH   6   9
BRANCH   4  12
HETATM   12  C7  UNL     1       8.442  10.469 -10.208  1.00  0.00     0.233 C 
BRANCH  12  13
HETATM   13  C8  UNL     1       9.872  10.628 -10.537  1.00  0.00     0.254 C 
HETATM   14  O2  UNL     1      10.275  11.736 -10.948  1.00  0.00    -0.270 OA
HETATM   15  N4  UNL     1      10.761   9.563 -10.394  1.00  0.00    -0.268 N 
HETATM   16  N5  UNL     1      11.700   9.252 -11.157  1.00  0.00    -0.293 N 
ATOM     17  H4  UNL     1      10.629   8.971  -9.574  1.00  0.00     0.190 HD
ATOM     18  H5  UNL     1      11.893   9.799 -11.996  1.00  0.00     0.187 HD
BRANCH  16  19
HETATM   19  C9  UNL     1      12.491   8.124 -10.830  1.00  0.00     0.112 A 
HETATM   20  C10 UNL     1      12.093   7.173  -9.913  1.00  0.00     0.170 A 
HETATM   21  N6  UNL     1      13.066   6.247  -9.839  1.00  0.00    -0.329 N 
HETATM   22  C11 UNL     1      14.071   6.611 -10.702  1.00  0.00     0.090 A 
ATOM     23  H6  UNL     1      13.059   5.418  -9.245  1.00  0.00     0.168 HD
HETATM   24  S1  UNL     1      15.599   6.219 -11.342  1.00  0.00    -0.059 SA
HETATM   25  C14 UNL     1      13.757   7.773 -11.341  1.00  0.00     0.032 A 
HETATM   26  C12 UNL     1      15.809   7.534 -12.404  1.00  0.00     0.077 A 
HETATM   27 CL1  UNL     1      17.168   7.902 -13.483  1.00  0.00    -0.076 Cl
HETATM   28  C13 UNL     1      14.662   8.258 -12.230  1.00  0.00     0.048 A 
BRANCH  20  29
HETATM   29  O3  UNL     1      10.924   7.113  -9.167  1.00  0.00    -0.344 OA
ATOM     30  H3  UNL     1      10.803   7.235  -8.233  1.00  0.00     0.219 HD
ENDBRANCH  20  29
ENDBRANCH  16  19
ENDBRANCH  12  13
ENDBRANCH   4  12
ENDBRANCH   1   4
TORSDOF 6
ENDMDL
MODEL 4
REMARK VINA RESULT: -8.085487944      2.601      3.802
REMARK  6 active torsions:
REMARK  status: ('A' for Active; 'I' for Inactive)
REMARK    1  A    between atoms: C2_2  and  N1_4 
REMARK       I    between atoms: N1_4  and  C4_6 
REMARK       I    between atoms: C4_6  and  N2_8 
REMARK    2  A    between atoms: N2_8  and  C5_9 
REMARK    3  A    between atoms: N2_8  and  C7_12 
REMARK    4  A    between atoms: C7_12  and  C8_13 
REMARK       I    between atoms: C8_13  and  N4_15 
REMARK    5  A    between atoms: N5_17  and  C9_19 
REMARK    6  A    between atoms: C10_20  and  O3_21 
ROOT
HETATM    1  C5  UNL     1      15.718   5.799  -9.995  1.00  0.00     0.252 C 
HETATM    2  C6  UNL     1      15.449   4.387  -9.700  1.00  0.00     0.079 C 
HETATM    3  N3  UNL     1      15.226   3.277  -9.452  1.00  0.00    -0.196 NA
ENDROOT
BRANCH   1   4
HETATM    4  N2  UNL     1      14.978   6.168 -11.179  1.00  0.00    -0.313 N 
HETATM    5  C4  UNL     1      15.630   6.769 -12.277  1.00  0.00     0.319 C 
HETATM    6  N1  UNL     1      14.912   7.148 -13.468  1.00  0.00    -0.339 N 
HETATM    7  O1  UNL     1      16.867   6.978 -12.209  1.00  0.00    -0.247 OA
ATOM      8  H1  UNL     1      13.907   6.978 -13.520  1.00  0.00     0.164 HD
BRANCH   6   9
HETATM    9  C2  UNL     1      15.584   7.762 -14.588  1.00  0.00     0.078 C 
HETATM   10  C1  UNL     1      15.917   6.676 -15.590  1.00  0.00     0.032 C 
HETATM   11  C3  UNL     1      14.644   8.804 -15.202  1.00  0.00     0.032 C 
ENDBRANCH   6   9
BRANCH   4  12
HETATM   12  C7  UNL     1      13.544   5.890 -11.179  1.00  0.00     0.233 C 
BRANCH  12  13
HETATM   13  C8  UNL     1      12.845   6.741 -10.197  1.00  0.00     0.254 C 
HETATM   14  O2  UNL     1      12.713   6.325  -9.027  1.00  0.00    -0.270 OA
HETATM   15  N4  UNL     1      12.341   7.988 -10.564  1.00  0.00    -0.268 N 
HETATM   16  N5  UNL     1      11.260   8.503 -10.206  1.00  0.00    -0.293 N 
ATOM     17  H4  UNL     1      12.919   8.543 -11.195  1.00  0.00     0.190 HD
ATOM     18  H5  UNL     1      10.630   8.008  -9.575  1.00  0.00     0.187 HD
BRANCH  16  19
HETATM   19  C9  UNL     1      10.929   9.790 -10.697  1.00  0.00     0.112 A 
HETATM   20  C10 UNL     1      11.553  10.355 -11.790  1.00  0.00     0.170 A 
HETATM   21  N6  UNL     1      11.007  11.569 -11.987  1.00  0.00    -0.329 N 
HETATM   22  C11 UNL     1      10.047  11.768 -11.026  1.00  0.00     0.090 A 
ATOM     23  H6  UNL     1      11.262  12.228 -12.723  1.00  0.00     0.168 HD
HETATM   24  S1  UNL     1       8.869  12.826 -10.398  1.00  0.00    -0.059 SA
HETATM   25  C14 UNL     1       9.962  10.687 -10.200  1.00  0.00     0.032 A 
HETATM   26  C12 UNL     1       8.296  11.879  -9.103  1.00  0.00     0.077 A 
HETATM   27 CL1  UNL     1       7.034  12.247  -7.913  1.00  0.00    -0.076 Cl
HETATM   28  C13 UNL     1       9.050  10.741  -9.196  1.00  0.00     0.048 A 
BRANCH  20  29
HETATM   29  O3  UNL     1      12.562   9.833 -12.588  1.00  0.00    -0.344 OA
ATOM     30  H3  UNL     1      13.255   9.227 -12.357  1.00  0.00     0.219 HD
ENDBRANCH  20  29
ENDBRANCH  16  19
ENDBRANCH  12  13
ENDBRANCH   4  12
ENDBRANCH   1   4
TORSDOF 6
ENDMDL
MODEL 5
REMARK VINA RESULT: -7.889778996      4.280      5.186
REMARK  6 active torsions:
REMARK  status: ('A' for Active; 'I' for Inactive)
REMARK    1  A    between atoms: C2_2  and  N1_4 
REMARK       I    between atoms: N1_4  and  C4_6 
REMARK       I    between atoms: C4_6  and  N2_8 
REMARK    2  A    between atoms: N2_8  and  C5_9 
REMARK    3  A    between atoms: N2_8  and  C7_12 
REMARK    4  A    between atoms: C7_12  and  C8_13 
REMARK       I    between atoms: C8_13  and  N4_15 
REMARK    5  A    between atoms: N5_17  and  C9_19 
REMARK    6  A    between atoms: C10_20  and  O3_21 
ROOT
HETATM    1  C5  UNL     1      15.702   5.487 -10.146  1.00  0.00     0.252 C 
HETATM    2  C6  UNL     1      14.927   4.407  -9.524  1.00  0.00     0.079 C 
HETATM    3  N3  UNL     1      14.312   3.566  -9.017  1.00  0.00    -0.196 NA
ENDROOT
BRANCH   1   4
HETATM    4  N2  UNL     1      14.957   5.992 -11.276  1.00  0.00    -0.313 N 
HETATM    5  C4  UNL     1      15.618   6.636 -12.343  1.00  0.00     0.319 C 
HETATM    6  N1  UNL     1      14.895   7.150 -13.480  1.00  0.00    -0.339 N 
HETATM    7  O1  UNL     1      16.866   6.764 -12.297  1.00  0.00    -0.247 OA
ATOM      8  H1  UNL     1      13.881   7.046 -13.515  1.00  0.00     0.164 HD
BRANCH   6   9
HETATM    9  C2  UNL     1      15.576   7.809 -14.568  1.00  0.00     0.078 C 
HETATM   10  C1  UNL     1      15.814   6.788 -15.662  1.00  0.00     0.032 C 
HETATM   11  C3  UNL     1      14.688   8.951 -15.071  1.00  0.00     0.032 C 
ENDBRANCH   6   9
BRANCH   4  12
HETATM   12  C7  UNL     1      13.509   5.801 -11.255  1.00  0.00     0.233 C 
BRANCH  12  13
HETATM   13  C8  UNL     1      12.838   6.956 -10.628  1.00  0.00     0.254 C 
HETATM   14  O2  UNL     1      12.761   8.026 -11.266  1.00  0.00    -0.270 OA
HETATM   15  N4  UNL     1      12.297   6.859  -9.346  1.00  0.00    -0.268 N 
HETATM   16  N5  UNL     1      12.326   7.723  -8.444  1.00  0.00    -0.293 N 
ATOM     17  H4  UNL     1      11.825   5.983  -9.119  1.00  0.00     0.190 HD
ATOM     18  H5  UNL     1      12.779   8.623  -8.598  1.00  0.00     0.187 HD
BRANCH  16  19
HETATM   19  C9  UNL     1      11.714   7.424  -7.202  1.00  0.00     0.112 A 
HETATM   20  C10 UNL     1      12.104   6.361  -6.414  1.00  0.00     0.170 A 
HETATM   21  N6  UNL     1      11.326   6.362  -5.316  1.00  0.00    -0.329 N 
HETATM   22  C11 UNL     1      10.452   7.416  -5.410  1.00  0.00     0.090 A 
ATOM     23  H6  UNL     1      11.377   5.694  -4.546  1.00  0.00     0.168 HD
HETATM   24  S1  UNL     1       9.173   8.267  -4.674  1.00  0.00    -0.059 SA
HETATM   25  C14 UNL     1      10.656   8.106  -6.568  1.00  0.00     0.032 A 
HETATM   26  C12 UNL     1       8.923   9.476  -5.847  1.00  0.00     0.077 A 
HETATM   27 CL1  UNL     1       7.748  10.805  -5.860  1.00  0.00    -0.076 Cl
HETATM   28  C13 UNL     1       9.860   9.182  -6.800  1.00  0.00     0.048 A 
BRANCH  20  29
HETATM   29  O3  UNL     1      13.102   5.423  -6.642  1.00  0.00    -0.344 OA
ATOM     30  H3  UNL     1      13.026   4.481  -6.743  1.00  0.00     0.219 HD
ENDBRANCH  20  29
ENDBRANCH  16  19
ENDBRANCH  12  13
ENDBRANCH   4  12
ENDBRANCH   1   4
TORSDOF 6
ENDMDL
