MODEL 1
REMARK VINA RESULT: -8.091238171      0.000      0.000
REMARK  7 active torsions:
REMARK  status: ('A' for Active; 'I' for Inactive)
REMARK    1  A    between atoms: C2_2  and  C4_4 
REMARK    2  A    between atoms: C4_4  and  N1_5 
REMARK    3  A    between atoms: C7_10  and  N3_11 
REMARK    4  A    between atoms: C8_16  and  S1_17 
REMARK    5  A    between atoms: S1_17  and  C9_18 
REMARK    6  A    between atoms: C9_18  and  C11_20 
REMARK       I    between atoms: C11_20  and  N5_22 
REMARK    7  A    between atoms: N5_22  and  C12_24 
ROOT
HETATM    1  N1  UNL     1      13.219   9.579 -12.754  1.00  0.00    -0.276 N 
HETATM    2  N2  UNL     1      12.933  10.558 -13.583  1.00  0.00    -0.307 N 
ATOM      3  H2  UNL     1      13.428  10.733 -14.458  1.00  0.00     0.186 HD
HETATM    4  C5  UNL     1      11.913  11.295 -13.135  1.00  0.00     0.126 A 
HETATM    5  C6  UNL     1      11.514  10.756 -11.940  1.00  0.00     0.070 A 
HETATM    6  C7  UNL     1      10.503  11.113 -11.042  1.00  0.00     0.116 A 
HETATM    7  N4  UNL     1      10.378  10.355  -9.948  1.00  0.00    -0.322 N 
ATOM      8  H4  UNL     1       9.650  10.588  -9.273  1.00  0.00     0.169 HD
HETATM    9  C8  UNL     1      11.175   9.294  -9.698  1.00  0.00     0.148 A 
HETATM   10  N6  UNL     1      12.145   8.980 -10.594  1.00  0.00    -0.321 N 
ATOM     11  H6  UNL     1      12.744   8.177 -10.401  1.00  0.00     0.169 HD
HETATM   12  C15 UNL     1      12.352   9.683 -11.731  1.00  0.00     0.139 A 
ENDROOT
BRANCH   9  13
HETATM   13  S1  UNL     1      10.986   8.298  -8.228  1.00  0.00    -0.080 SA
BRANCH  13  14
HETATM   14  C9  UNL     1      12.617   7.805  -7.625  1.00  0.00     0.143 C 
HETATM   15  C10 UNL     1      12.595   7.473  -6.148  1.00  0.00     0.031 C 
BRANCH  14  16
HETATM   16  C11 UNL     1      13.137   6.626  -8.358  1.00  0.00     0.233 C 
HETATM   17  O1  UNL     1      12.707   5.467  -8.061  1.00  0.00    -0.272 OA
HETATM   18  N5  UNL     1      14.106   6.814  -9.379  1.00  0.00    -0.338 N 
ATOM     19  H5  UNL     1      14.418   7.764  -9.579  1.00  0.00     0.164 HD
BRANCH  18  20
HETATM   20  C12 UNL     1      14.667   5.735 -10.143  1.00  0.00     0.102 C 
HETATM   21  C13 UNL     1      13.819   5.361 -11.339  1.00  0.00     0.056 C 
HETATM   22  C14 UNL     1      16.024   6.153 -10.659  1.00  0.00     0.056 C 
HETATM   23 CL1  UNL     1      14.915   4.315  -9.083  1.00  0.00    -0.096 Cl
ENDBRANCH  18  20
ENDBRANCH  14  16
ENDBRANCH  13  14
ENDBRANCH   9  13
BRANCH   6  24
HETATM   24  N3  UNL     1       9.742  12.129 -11.284  1.00  0.00    -0.385 N 
ATOM     25  H32 UNL     1       9.623  12.523 -12.217  1.00  0.00     0.157 HD
ATOM     26  H31 UNL     1       9.226  12.578 -10.528  1.00  0.00     0.157 HD
ENDBRANCH   6  24
BRANCH   1  27
HETATM   27  C4  UNL     1      14.265   8.580 -12.884  1.00  0.00     0.154 C 
BRANCH  27  28
HETATM   28  C2  UNL     1      15.331   8.939 -13.879  1.00  0.00    -0.003 C 
HETATM   29  C1  UNL     1      15.194   7.970 -15.034  1.00  0.00     0.011 C 
HETATM   30  C3  UNL     1      16.728   8.891 -13.368  1.00  0.00     0.011 C 
ENDBRANCH  27  28
ENDBRANCH   1  27
TORSDOF 7
ENDMDL
MODEL 2
REMARK VINA RESULT: -8.019707657      2.689      5.350
REMARK  7 active torsions:
REMARK  status: ('A' for Active; 'I' for Inactive)
REMARK    1  A    between atoms: C2_2  and  C4_4 
REMARK    2  A    between atoms: C4_4  and  N1_5 
REMARK    3  A    between atoms: C7_10  and  N3_11 
REMARK    4  A    between atoms: C8_16  and  S1_17 
REMARK    5  A    between atoms: S1_17  and  C9_18 
REMARK    6  A    between atoms: C9_18  and  C11_20 
REMARK       I    between atoms: C11_20  and  N5_22 
REMARK    7  A    between atoms: N5_22  and  C12_24 
ROOT
HETATM    1  N1  UNL     1      14.626   6.503 -11.550  1.00  0.00    -0.276 N 
HETATM    2  N2  UNL     1      15.187   5.315 -11.604  1.00  0.00    -0.307 N 
ATOM      3  H2  UNL     1      15.655   4.937 -12.427  1.00  0.00     0.186 HD
HETATM    4  C5  UNL     1      15.066   4.666 -10.442  1.00  0.00     0.126 A 
HETATM    5  C6  UNL     1      14.384   5.489  -9.584  1.00  0.00     0.070 A 
HETATM    6  C7  UNL     1      13.983   5.329  -8.254  1.00  0.00     0.116 A 
HETATM    7  N4  UNL     1      13.322   6.351  -7.700  1.00  0.00    -0.322 N 
ATOM      8  H4  UNL     1      13.016   6.267  -6.731  1.00  0.00     0.169 HD
HETATM    9  C8  UNL     1      13.044   7.490  -8.370  1.00  0.00     0.148 A 
HETATM   10  N6  UNL     1      13.450   7.607  -9.659  1.00  0.00    -0.321 N 
ATOM     11  H6  UNL     1      13.238   8.469 -10.161  1.00  0.00     0.169 HD
HETATM   12  C15 UNL     1      14.124   6.631 -10.310  1.00  0.00     0.139 A 
ENDROOT
BRANCH   9  13
HETATM   13  S1  UNL     1      12.160   8.841  -7.605  1.00  0.00    -0.080 SA
BRANCH  13  14
HETATM   14  C9  UNL     1      10.381   8.561  -7.770  1.00  0.00     0.143 C 
HETATM   15  C10 UNL     1       9.623   9.023  -6.544  1.00  0.00     0.031 C 
BRANCH  14  16
HETATM   16  C11 UNL     1       9.825   9.262  -8.952  1.00  0.00     0.233 C 
HETATM   17  O1  UNL     1       8.570   9.250  -9.151  1.00  0.00    -0.272 OA
HETATM   18  N5  UNL     1      10.706   9.935  -9.839  1.00  0.00    -0.338 N 
ATOM     19  H5  UNL     1      11.705   9.915  -9.635  1.00  0.00     0.164 HD
BRANCH  18  20
HETATM   20  C12 UNL     1      10.262  10.641 -11.008  1.00  0.00     0.102 C 
HETATM   21  C13 UNL     1       9.588  11.954 -10.678  1.00  0.00     0.056 C 
HETATM   22  C14 UNL     1      11.456  10.948 -11.880  1.00  0.00     0.056 C 
HETATM   23 CL1  UNL     1       9.163   9.596 -11.959  1.00  0.00    -0.096 Cl
ENDBRANCH  18  20
ENDBRANCH  14  16
ENDBRANCH  13  14
ENDBRANCH   9  13
BRANCH   6  24
HETATM   24  N3  UNL     1      14.251   4.238  -7.617  1.00  0.00    -0.385 N 
ATOM     25  H32 UNL     1      14.753   3.457  -8.039  1.00  0.00     0.157 HD
ATOM     26  H31 UNL     1      13.959   4.122  -6.646  1.00  0.00     0.157 HD
ENDBRANCH   6  24
BRANCH   1  27
HETATM   27  C4  UNL     1      14.540   7.494 -12.609  1.00  0.00     0.154 C 
BRANCH  27  28
HETATM   28  C2  UNL     1      15.615   7.369 -13.650  1.00  0.00    -0.003 C 
HETATM   29  C1  UNL     1      16.767   8.236 -13.192  1.00  0.00     0.011 C 
HETATM   30  C3  UNL     1      15.222   7.771 -15.029  1.00  0.00     0.011 C 
ENDBRANCH  27  28
ENDBRANCH   1  27
TORSDOF 7
ENDMDL
MODEL 3
REMARK VINA RESULT: -7.859943586      3.030      5.886
REMARK  7 active torsions:
REMARK  status: ('A' for Active; 'I' for Inactive)
REMARK    1  A    between atoms: C2_2  and  C4_4 
REMARK    2  A    between atoms: C4_4  and  N1_5 
REMARK    3  A    between atoms: C7_10  and  N3_11 
REMARK    4  A    between atoms: C8_16  and  S1_17 
REMARK    5  A    between atoms: S1_17  and  C9_18 
REMARK    6  A    between atoms: C9_18  and  C11_20 
REMARK       I    between atoms: C11_20  and  N5_22 
REMARK    7  A    between atoms: N5_22  and  C12_24 
ROOT
HETATM    1  N1  UNL     1       9.277   9.454  -8.509  1.00  0.00    -0.276 N 
HETATM    2  N2  UNL     1       8.405  10.090  -9.260  1.00  0.00    -0.307 N 
ATOM      3  H2  UNL     1       7.478  10.376  -8.949  1.00  0.00     0.186 HD
HETATM    4  C5  UNL     1       8.890  10.314 -10.485  1.00  0.00     0.126 A 
HETATM    5  C6  UNL     1      10.156   9.790 -10.526  1.00  0.00     0.070 A 
HETATM    6  C7  UNL     1      11.117   9.741 -11.540  1.00  0.00     0.116 A 
HETATM    7  N4  UNL     1      12.276   9.145 -11.240  1.00  0.00    -0.322 N 
ATOM      8  H4  UNL     1      12.999   9.093 -11.957  1.00  0.00     0.169 HD
HETATM    9  C8  UNL     1      12.530   8.611 -10.026  1.00  0.00     0.148 A 
HETATM   10  N6  UNL     1      11.571   8.678  -9.068  1.00  0.00    -0.321 N 
ATOM     11  H6  UNL     1      11.767   8.273  -8.153  1.00  0.00     0.169 HD
HETATM   12  C15 UNL     1      10.367   9.260  -9.272  1.00  0.00     0.139 A 
ENDROOT
BRANCH   9  13
HETATM   13  S1  UNL     1      14.087   7.821  -9.651  1.00  0.00    -0.080 SA
BRANCH  13  14
HETATM   14  C9  UNL     1      14.381   6.486 -10.835  1.00  0.00     0.143 C 
HETATM   15  C10 UNL     1      13.092   5.985 -11.450  1.00  0.00     0.031 C 
BRANCH  14  16
HETATM   16  C11 UNL     1      15.282   6.916 -11.931  1.00  0.00     0.233 C 
HETATM   17  O1  UNL     1      16.519   6.631 -11.869  1.00  0.00    -0.272 OA
HETATM   18  N5  UNL     1      14.745   7.638 -13.028  1.00  0.00    -0.338 N 
ATOM     19  H5  UNL     1      13.745   7.842 -13.031  1.00  0.00     0.164 HD
BRANCH  18  20
HETATM   20  C12 UNL     1      15.537   8.096 -14.136  1.00  0.00     0.102 C 
HETATM   21  C13 UNL     1      16.118   6.960 -14.949  1.00  0.00     0.056 C 
HETATM   22  C14 UNL     1      14.666   8.918 -15.056  1.00  0.00     0.056 C 
HETATM   23 CL1  UNL     1      16.840   9.168 -13.538  1.00  0.00    -0.096 Cl
ENDBRANCH  18  20
ENDBRANCH  14  16
ENDBRANCH  13  14
ENDBRANCH   9  13
BRANCH   6  24
HETATM   24  N3  UNL     1      10.870  10.253 -12.700  1.00  0.00    -0.385 N 
ATOM     25  H32 UNL     1      11.572  10.750 -13.248  1.00  0.00     0.157 HD
ATOM     26  H31 UNL     1       9.940  10.173 -13.112  1.00  0.00     0.157 HD
ENDBRANCH   6  24
BRANCH   1  27
HETATM   27  C4  UNL     1       9.115   9.023  -7.131  1.00  0.00     0.154 C 
BRANCH  27  28
HETATM   28  C2  UNL     1       7.745   9.273  -6.571  1.00  0.00    -0.003 C 
HETATM   29  C1  UNL     1       7.766  10.662  -5.970  1.00  0.00     0.011 C 
HETATM   30  C3  UNL     1       7.288   8.304  -5.538  1.00  0.00     0.011 C 
ENDBRANCH  27  28
ENDBRANCH   1  27
TORSDOF 7
ENDMDL
MODEL 4
REMARK VINA RESULT: -7.843287502      2.544      5.337
REMARK  7 active torsions:
REMARK  status: ('A' for Active; 'I' for Inactive)
REMARK    1  A    between atoms: C2_2  and  C4_4 
REMARK    2  A    between atoms: C4_4  and  N1_5 
REMARK    3  A    between atoms: C7_10  and  N3_11 
REMARK    4  A    between atoms: C8_16  and  S1_17 
REMARK    5  A    between atoms: S1_17  and  C9_18 
REMARK    6  A    between atoms: C9_18  and  C11_20 
REMARK       I    between atoms: C11_20  and  N5_22 
REMARK    7  A    between atoms: N5_22  and  C12_24 
ROOT
HETATM    1  N1  UNL     1      14.871   6.597 -11.312  1.00  0.00    -0.276 N 
HETATM    2  N2  UNL     1      15.396   5.412 -11.533  1.00  0.00    -0.307 N 
ATOM      3  H2  UNL     1      15.862   5.143 -12.399  1.00  0.00     0.186 HD
HETATM    4  C5  UNL     1      15.241   4.606 -10.479  1.00  0.00     0.126 A 
HETATM    5  C6  UNL     1      14.573   5.317  -9.516  1.00  0.00     0.070 A 
HETATM    6  C7  UNL     1      14.152   4.979  -8.226  1.00  0.00     0.116 A 
HETATM    7  N4  UNL     1      13.516   5.931  -7.535  1.00  0.00    -0.322 N 
ATOM      8  H4  UNL     1      13.195   5.717  -6.591  1.00  0.00     0.169 HD
HETATM    9  C8  UNL     1      13.281   7.163  -8.034  1.00  0.00     0.148 A 
HETATM   10  N6  UNL     1      13.706   7.452  -9.290  1.00  0.00    -0.321 N 
ATOM     11  H6  UNL     1      13.526   8.385  -9.663  1.00  0.00     0.169 HD
HETATM   12  C15 UNL     1      14.358   6.560 -10.070  1.00  0.00     0.139 A 
ENDROOT
BRANCH   9  13
HETATM   13  S1  UNL     1      12.429   8.416  -7.088  1.00  0.00    -0.080 SA
BRANCH  13  14
HETATM   14  C9  UNL     1      10.700   8.489  -7.612  1.00  0.00     0.143 C 
HETATM   15  C10 UNL     1       9.922   9.534  -6.840  1.00  0.00     0.031 C 
BRANCH  14  16
HETATM   16  C11 UNL     1      10.579   8.795  -9.058  1.00  0.00     0.233 C 
HETATM   17  O1  UNL     1      10.648   7.849  -9.903  1.00  0.00    -0.272 OA
HETATM   18  N5  UNL     1      10.388  10.140  -9.469  1.00  0.00    -0.338 N 
ATOM     19  H5  UNL     1      10.338  10.863  -8.751  1.00  0.00     0.164 HD
BRANCH  18  20
HETATM   20  C12 UNL     1      10.260  10.534 -10.844  1.00  0.00     0.102 C 
HETATM   21  C13 UNL     1       9.169   9.778 -11.571  1.00  0.00     0.056 C 
HETATM   22  C14 UNL     1       9.914  12.003 -10.905  1.00  0.00     0.056 C 
HETATM   23 CL1  UNL     1      11.829  10.322 -11.678  1.00  0.00    -0.096 Cl
ENDBRANCH  18  20
ENDBRANCH  14  16
ENDBRANCH  13  14
ENDBRANCH   9  13
BRANCH   6  24
HETATM   24  N3  UNL     1      14.378   3.799  -7.752  1.00  0.00    -0.385 N 
ATOM     25  H32 UNL     1      14.909   3.090  -8.258  1.00  0.00     0.157 HD
ATOM     26  H31 UNL     1      14.023   3.535  -6.833  1.00  0.00     0.157 HD
ENDBRANCH   6  24
BRANCH   1  27
HETATM   27  C4  UNL     1      14.827   7.733 -12.216  1.00  0.00     0.154 C 
BRANCH  27  28
HETATM   28  C2  UNL     1      15.747   7.608 -13.397  1.00  0.00    -0.003 C 
HETATM   29  C1  UNL     1      16.898   8.561 -13.155  1.00  0.00     0.011 C 
HETATM   30  C3  UNL     1      15.137   7.910 -14.720  1.00  0.00     0.011 C 
ENDBRANCH  27  28
ENDBRANCH   1  27
TORSDOF 7
ENDMDL
MODEL 5
REMARK VINA RESULT: -7.761501084      2.678      5.568
REMARK  7 active torsions:
REMARK  status: ('A' for Active; 'I' for Inactive)
REMARK    1  A    between atoms: C2_2  and  C4_4 
REMARK    2  A    between atoms: C4_4  and  N1_5 
REMARK    3  A    between atoms: C7_10  and  N3_11 
REMARK    4  A    between atoms: C8_16  and  S1_17 
REMARK    5  A    between atoms: S1_17  and  C9_18 
REMARK    6  A    between atoms: C9_18  and  C11_20 
REMARK       I    between atoms: C11_20  and  N5_22 
REMARK    7  A    between atoms: N5_22  and  C12_24 
ROOT
HETATM    1  N1  UNL     1       9.540   9.728  -8.744  1.00  0.00    -0.276 N 
HETATM    2  N2  UNL     1       9.217   9.849  -7.475  1.00  0.00    -0.307 N 
ATOM      3  H2  UNL     1       8.523  10.505  -7.118  1.00  0.00     0.186 HD
HETATM    4  C5  UNL     1       9.913   9.001  -6.712  1.00  0.00     0.126 A 
HETATM    5  C6  UNL     1      10.739   8.288  -7.542  1.00  0.00     0.070 A 
HETATM    6  C7  UNL     1      11.672   7.277  -7.293  1.00  0.00     0.116 A 
HETATM    7  N4  UNL     1      12.318   6.783  -8.354  1.00  0.00    -0.322 N 
ATOM      8  H4  UNL     1      13.006   6.045  -8.207  1.00  0.00     0.169 HD
HETATM    9  C8  UNL     1      12.098   7.220  -9.613  1.00  0.00     0.148 A 
HETATM   10  N6  UNL     1      11.184   8.203  -9.814  1.00  0.00    -0.321 N 
ATOM     11  H6  UNL     1      11.021   8.529 -10.766  1.00  0.00     0.169 HD
HETATM   12  C15 UNL     1      10.478   8.768  -8.807  1.00  0.00     0.139 A 
ENDROOT
BRANCH   9  13
HETATM   13  S1  UNL     1      12.976   6.542 -11.013  1.00  0.00    -0.080 SA
BRANCH  13  14
HETATM   14  C9  UNL     1      14.749   6.531 -10.660  1.00  0.00     0.143 C 
HETATM   15  C10 UNL     1      15.230   5.159 -10.236  1.00  0.00     0.031 C 
BRANCH  14  16
HETATM   16  C11 UNL     1      15.543   6.958 -11.836  1.00  0.00     0.233 C 
HETATM   17  O1  UNL     1      16.777   6.659 -11.898  1.00  0.00    -0.272 OA
HETATM   18  N5  UNL     1      14.909   7.693 -12.872  1.00  0.00    -0.338 N 
ATOM     19  H5  UNL     1      13.917   7.908 -12.775  1.00  0.00     0.164 HD
BRANCH  18  20
HETATM   20  C12 UNL     1      15.594   8.150 -14.049  1.00  0.00     0.102 C 
HETATM   21  C13 UNL     1      16.097   7.013 -14.912  1.00  0.00     0.056 C 
HETATM   22  C14 UNL     1      14.641   8.970 -14.885  1.00  0.00     0.056 C 
HETATM   23 CL1  UNL     1      16.947   9.222 -13.577  1.00  0.00    -0.096 Cl
ENDBRANCH  18  20
ENDBRANCH  14  16
ENDBRANCH  13  14
ENDBRANCH   9  13
BRANCH   6  24
HETATM   24  N3  UNL     1      11.880   6.862  -6.088  1.00  0.00    -0.385 N 
ATOM     25  H32 UNL     1      12.620   7.233  -5.493  1.00  0.00     0.157 HD
ATOM     26  H31 UNL     1      11.293   6.131  -5.686  1.00  0.00     0.157 HD
ENDBRANCH   6  24
BRANCH   1  27
HETATM   27  C4  UNL     1       9.013  10.479  -9.870  1.00  0.00     0.154 C 
BRANCH  27  28
HETATM   28  C2  UNL     1       9.924  11.570 -10.355  1.00  0.00    -0.003 C 
HETATM   29  C1  UNL     1       9.062  12.796 -10.565  1.00  0.00     0.011 C 
HETATM   30  C3  UNL     1      10.664  11.275 -11.612  1.00  0.00     0.011 C 
ENDBRANCH  27  28
ENDBRANCH   1  27
TORSDOF 7
ENDMDL
