MODEL 1
REMARK VINA RESULT: -7.918597608      0.000      0.000
REMARK  6 active torsions:
REMARK  status: ('A' for Active; 'I' for Inactive)
REMARK    1  A    between atoms: N1_2  and  C2_3 
REMARK    2  A    between atoms: N1_2  and  C5_8 
REMARK    3  A    between atoms: C2_3  and  C3_4 
REMARK    4  A    between atoms: C3_4  and  C4_5 
REMARK    5  A    between atoms: C4_5  and  O1_6 
REMARK    6  A    between atoms: C5_8  and  C6_9 
ROOT
HETATM    1  C6  UNL     1      10.843  10.010 -11.351  1.00  0.00     0.036 A 
HETATM    2  C7  UNL     1      11.619  10.542 -12.405  1.00  0.00     0.128 A 
HETATM    3  F1  UNL     1      11.065  11.542 -13.141  1.00  0.00    -0.205 F 
HETATM    4  C8  UNL     1      12.840  10.004 -12.676  1.00  0.00     0.066 A 
HETATM    5  C9  UNL     1      13.352   8.921 -11.938  1.00  0.00     0.062 A 
HETATM    6  C10 UNL     1      14.626   8.491 -12.363  1.00  0.00     0.100 C 
HETATM    7  N2  UNL     1      15.687   8.127 -12.754  1.00  0.00    -0.191 NA
HETATM    8  C11 UNL     1      12.586   8.438 -10.941  1.00  0.00     0.046 A 
HETATM    9  C12 UNL     1      11.304   8.994 -10.626  1.00  0.00     0.059 A 
HETATM   10  N3  UNL     1      10.591   8.749  -9.385  1.00  0.00    -0.347 N 
ATOM     11  H3  UNL     1       9.605   9.001  -9.319  1.00  0.00     0.166 HD
HETATM   12  C13 UNL     1      11.247   8.154  -8.240  1.00  0.00     0.105 C 
HETATM   13  S1  UNL     1      10.371   8.438  -6.856  1.00  0.00    -0.063 SA
HETATM   14  C14 UNL     1      12.446   7.372  -8.011  1.00  0.00     0.076 C 
HETATM   15  C15 UNL     1      13.511   8.075  -7.226  1.00  0.00     0.046 C 
HETATM   16  C16 UNL     1      12.016   6.191  -7.111  1.00  0.00     0.046 C 
HETATM   17  N4  UNL     1      12.989   6.750  -9.196  1.00  0.00    -0.368 N 
ATOM     18  H4  UNL     1      13.382   5.819  -9.049  1.00  0.00     0.161 HD
HETATM   19  C17 UNL     1      13.058   7.183 -10.416  1.00  0.00     0.091 C 
HETATM   20  S2  UNL     1      13.757   6.084 -11.619  1.00  0.00    -0.032 SA
ENDROOT
BRANCH   1  21
HETATM   21  C5  UNL     1       9.460  10.582 -11.275  1.00  0.00     0.316 C 
BRANCH  21  22
HETATM   22  N1  UNL     1       9.457  11.531 -10.187  1.00  0.00     0.088 N 
HETATM   23  C1  UNL     1       8.390  11.245  -9.201  1.00  0.00     0.310 C 
BRANCH  22  24
HETATM   24  C2  UNL     1       9.334  12.907 -10.562  1.00  0.00     0.274 C 
BRANCH  24  25
HETATM   25  C3  UNL     1       8.834  13.767  -9.399  1.00  0.00     0.056 C 
BRANCH  25  26
HETATM   26  C4  UNL     1       8.198  15.039  -9.875  1.00  0.00     0.165 C 
BRANCH  26  27
HETATM   27  O1  UNL     1       7.071  14.745 -10.662  1.00  0.00    -0.401 OA
ATOM     28  H1  UNL     1       6.443  15.456 -10.606  1.00  0.00     0.209 HD
ENDBRANCH  26  27
ENDBRANCH  25  26
ENDBRANCH  24  25
ENDBRANCH  22  24
ENDBRANCH  21  22
ENDBRANCH   1  21
TORSDOF 6
ENDMDL
MODEL 2
REMARK VINA RESULT: -7.397946317      3.942      6.524
REMARK  6 active torsions:
REMARK  status: ('A' for Active; 'I' for Inactive)
REMARK    1  A    between atoms: N1_2  and  C2_3 
REMARK    2  A    between atoms: N1_2  and  C5_8 
REMARK    3  A    between atoms: C2_3  and  C3_4 
REMARK    4  A    between atoms: C3_4  and  C4_5 
REMARK    5  A    between atoms: C4_5  and  O1_6 
REMARK    6  A    between atoms: C5_8  and  C6_9 
ROOT
HETATM    1  C6  UNL     1      13.759   7.995  -9.922  1.00  0.00     0.036 A 
HETATM    2  C7  UNL     1      14.649   7.448 -10.875  1.00  0.00     0.128 A 
HETATM    3  F1  UNL     1      15.551   6.535 -10.430  1.00  0.00    -0.205 F 
HETATM    4  C8  UNL     1      14.608   7.893 -12.162  1.00  0.00     0.066 A 
HETATM    5  C9  UNL     1      13.708   8.893 -12.572  1.00  0.00     0.062 A 
HETATM    6  C10 UNL     1      13.814   9.232 -13.936  1.00  0.00     0.100 C 
HETATM    7  N2  UNL     1      13.936   9.522 -15.081  1.00  0.00    -0.191 NA
HETATM    8  C11 UNL     1      12.875   9.392 -11.638  1.00  0.00     0.046 A 
HETATM    9  C12 UNL     1      12.887   8.933 -10.281  1.00  0.00     0.059 A 
HETATM   10  N3  UNL     1      11.821   9.180  -9.327  1.00  0.00    -0.347 N 
ATOM     11  H3  UNL     1      11.989   9.009  -8.336  1.00  0.00     0.166 HD
HETATM   12  C13 UNL     1      10.523   9.663  -9.750  1.00  0.00     0.105 C 
HETATM   13  S1  UNL     1       9.387   9.390  -8.567  1.00  0.00    -0.063 SA
HETATM   14  C14 UNL     1       9.986  10.328 -10.921  1.00  0.00     0.076 C 
HETATM   15  C15 UNL     1       9.033   9.502 -11.728  1.00  0.00     0.046 C 
HETATM   16  C16 UNL     1       9.129  11.499 -10.386  1.00  0.00     0.046 C 
HETATM   17  N4  UNL     1      10.979  10.957 -11.760  1.00  0.00    -0.368 N 
ATOM     18  H4  UNL     1      10.691  11.843 -12.176  1.00  0.00     0.161 HD
HETATM   19  C17 UNL     1      12.179  10.576 -12.069  1.00  0.00     0.091 C 
HETATM   20  S2  UNL     1      13.126  11.667 -13.099  1.00  0.00    -0.032 SA
ENDROOT
BRANCH   1  21
HETATM   21  C5  UNL     1      14.027   7.540  -8.520  1.00  0.00     0.316 C 
BRANCH  21  22
HETATM   22  N1  UNL     1      13.264   6.331  -8.318  1.00  0.00     0.088 N 
HETATM   23  C1  UNL     1      12.110   6.544  -7.416  1.00  0.00     0.310 C 
BRANCH  22  24
HETATM   24  C2  UNL     1      13.997   5.209  -7.814  1.00  0.00     0.274 C 
BRANCH  24  25
HETATM   25  C3  UNL     1      14.308   4.195  -8.918  1.00  0.00     0.056 C 
BRANCH  25  26
HETATM   26  C4  UNL     1      14.494   2.811  -8.372  1.00  0.00     0.165 C 
BRANCH  26  27
HETATM   27  O1  UNL     1      15.502   2.816  -7.392  1.00  0.00    -0.401 OA
ATOM     28  H1  UNL     1      15.372   2.091  -6.791  1.00  0.00     0.209 HD
ENDBRANCH  26  27
ENDBRANCH  25  26
ENDBRANCH  24  25
ENDBRANCH  22  24
ENDBRANCH  21  22
ENDBRANCH   1  21
TORSDOF 6
ENDMDL
MODEL 3
REMARK VINA RESULT: -7.311838266      1.792      2.102
REMARK  6 active torsions:
REMARK  status: ('A' for Active; 'I' for Inactive)
REMARK    1  A    between atoms: N1_2  and  C2_3 
REMARK    2  A    between atoms: N1_2  and  C5_8 
REMARK    3  A    between atoms: C2_3  and  C3_4 
REMARK    4  A    between atoms: C3_4  and  C4_5 
REMARK    5  A    between atoms: C4_5  and  O1_6 
REMARK    6  A    between atoms: C5_8  and  C6_9 
ROOT
HETATM    1  C6  UNL     1      11.813  10.322 -11.358  1.00  0.00     0.036 A 
HETATM    2  C7  UNL     1      12.555  10.653 -12.514  1.00  0.00     0.128 A 
HETATM    3  F1  UNL     1      12.216  11.798 -13.164  1.00  0.00    -0.205 F 
HETATM    4  C8  UNL     1      13.521   9.800 -12.957  1.00  0.00     0.066 A 
HETATM    5  C9  UNL     1      13.797   8.588 -12.300  1.00  0.00     0.062 A 
HETATM    6  C10 UNL     1      14.821   7.831 -12.904  1.00  0.00     0.100 C 
HETATM    7  N2  UNL     1      15.668   7.196 -13.443  1.00  0.00    -0.191 NA
HETATM    8  C11 UNL     1      13.070   8.304 -11.202  1.00  0.00     0.046 A 
HETATM    9  C12 UNL     1      12.058   9.188 -10.706  1.00  0.00     0.059 A 
HETATM   10  N3  UNL     1      11.484   9.107  -9.375  1.00  0.00    -0.347 N 
ATOM     11  H3  UNL     1      10.632   9.627  -9.167  1.00  0.00     0.166 HD
HETATM   12  C13 UNL     1      12.094   8.305  -8.336  1.00  0.00     0.105 C 
HETATM   13  S1  UNL     1      11.537   8.770  -6.840  1.00  0.00    -0.063 SA
HETATM   14  C14 UNL     1      13.037   7.205  -8.282  1.00  0.00     0.076 C 
HETATM   15  C15 UNL     1      14.357   7.544  -7.659  1.00  0.00     0.046 C 
HETATM   16  C16 UNL     1      12.415   6.160  -7.327  1.00  0.00     0.046 C 
HETATM   17  N4  UNL     1      13.208   6.502  -9.531  1.00  0.00    -0.368 N 
ATOM     18  H4  UNL     1      13.333   5.493  -9.442  1.00  0.00     0.161 HD
HETATM   19  C17 UNL     1      13.229   6.947 -10.749  1.00  0.00     0.091 C 
HETATM   20  S2  UNL     1      13.409   5.743 -12.039  1.00  0.00    -0.032 SA
ENDROOT
BRANCH   1  21
HETATM   21  C5  UNL     1      10.678  11.260 -11.084  1.00  0.00     0.316 C 
BRANCH  21  22
HETATM   22  N1  UNL     1       9.517  10.448 -10.807  1.00  0.00     0.088 N 
HETATM   23  C1  UNL     1       8.988   9.797 -12.028  1.00  0.00     0.310 C 
BRANCH  22  24
HETATM   24  C2  UNL     1       8.423  11.118 -10.173  1.00  0.00     0.274 C 
BRANCH  24  25
HETATM   25  C3  UNL     1       8.411  10.876  -8.662  1.00  0.00     0.056 C 
BRANCH  25  26
HETATM   26  C4  UNL     1       8.141   9.440  -8.327  1.00  0.00     0.165 C 
BRANCH  26  27
HETATM   27  O1  UNL     1       6.755   9.203  -8.321  1.00  0.00    -0.401 OA
ATOM     28  H1  UNL     1       6.584   8.290  -8.122  1.00  0.00     0.209 HD
ENDBRANCH  26  27
ENDBRANCH  25  26
ENDBRANCH  24  25
ENDBRANCH  22  24
ENDBRANCH  21  22
ENDBRANCH   1  21
TORSDOF 6
ENDMDL
MODEL 4
REMARK VINA RESULT: -7.228345446      1.491      1.834
REMARK  6 active torsions:
REMARK  status: ('A' for Active; 'I' for Inactive)
REMARK    1  A    between atoms: N1_2  and  C2_3 
REMARK    2  A    between atoms: N1_2  and  C5_8 
REMARK    3  A    between atoms: C2_3  and  C3_4 
REMARK    4  A    between atoms: C3_4  and  C4_5 
REMARK    5  A    between atoms: C4_5  and  O1_6 
REMARK    6  A    between atoms: C5_8  and  C6_9 
ROOT
HETATM    1  C6  UNL     1       9.762   9.426  -9.958  1.00  0.00     0.036 A 
HETATM    2  C7  UNL     1       9.881  10.344 -11.026  1.00  0.00     0.128 A 
HETATM    3  F1  UNL     1       8.821  11.160 -11.266  1.00  0.00    -0.205 F 
HETATM    4  C8  UNL     1      11.005  10.334 -11.796  1.00  0.00     0.066 A 
HETATM    5  C9  UNL     1      12.053   9.425 -11.564  1.00  0.00     0.062 A 
HETATM    6  C10 UNL     1      13.131   9.555 -12.463  1.00  0.00     0.100 C 
HETATM    7  N2  UNL     1      14.018   9.663 -13.246  1.00  0.00    -0.191 NA
HETATM    8  C11 UNL     1      11.906   8.564 -10.538  1.00  0.00     0.046 A 
HETATM    9  C12 UNL     1      10.741   8.562  -9.705  1.00  0.00     0.059 A 
HETATM   10  N3  UNL     1      10.665   7.906  -8.411  1.00  0.00    -0.347 N 
ATOM     11  H3  UNL     1       9.752   7.768  -7.976  1.00  0.00     0.166 HD
HETATM   12  C13 UNL     1      11.852   7.445  -7.725  1.00  0.00     0.105 C 
HETATM   13  S1  UNL     1      11.533   7.197  -6.112  1.00  0.00    -0.063 SA
HETATM   14  C14 UNL     1      13.219   7.134  -8.095  1.00  0.00     0.076 C 
HETATM   15  C15 UNL     1      14.247   8.066  -7.529  1.00  0.00     0.046 C 
HETATM   16  C16 UNL     1      13.534   5.768  -7.445  1.00  0.00     0.046 C 
HETATM   17  N4  UNL     1      13.423   6.922  -9.509  1.00  0.00    -0.368 N 
ATOM     18  H4  UNL     1      14.096   6.190  -9.740  1.00  0.00     0.161 HD
HETATM   19  C17 UNL     1      12.888   7.511 -10.532  1.00  0.00     0.091 C 
HETATM   20  S2  UNL     1      13.361   6.920 -12.136  1.00  0.00    -0.032 SA
ENDROOT
BRANCH   1  21
HETATM   21  C5  UNL     1       8.412   9.434  -9.307  1.00  0.00     0.316 C 
BRANCH  21  22
HETATM   22  N1  UNL     1       8.393  10.552  -8.394  1.00  0.00     0.088 N 
HETATM   23  C1  UNL     1       8.595  10.129  -6.990  1.00  0.00     0.310 C 
BRANCH  22  24
HETATM   24  C2  UNL     1       7.215  11.365  -8.430  1.00  0.00     0.274 C 
BRANCH  24  25
HETATM   25  C3  UNL     1       7.516  12.813  -8.038  1.00  0.00     0.056 C 
BRANCH  25  26
HETATM   26  C4  UNL     1       8.413  13.488  -9.032  1.00  0.00     0.165 C 
BRANCH  26  27
HETATM   27  O1  UNL     1       7.662  13.916 -10.141  1.00  0.00    -0.401 OA
ATOM     28  H1  UNL     1       7.857  13.370 -10.893  1.00  0.00     0.209 HD
ENDBRANCH  26  27
ENDBRANCH  25  26
ENDBRANCH  24  25
ENDBRANCH  22  24
ENDBRANCH  21  22
ENDBRANCH   1  21
TORSDOF 6
ENDMDL
MODEL 5
REMARK VINA RESULT: -7.127520440      1.924      2.310
REMARK  6 active torsions:
REMARK  status: ('A' for Active; 'I' for Inactive)
REMARK    1  A    between atoms: N1_2  and  C2_3 
REMARK    2  A    between atoms: N1_2  and  C5_8 
REMARK    3  A    between atoms: C2_3  and  C3_4 
REMARK    4  A    between atoms: C3_4  and  C4_5 
REMARK    5  A    between atoms: C4_5  and  O1_6 
REMARK    6  A    between atoms: C5_8  and  C6_9 
ROOT
HETATM    1  C6  UNL     1       9.735   9.458  -9.842  1.00  0.00     0.036 A 
HETATM    2  C7  UNL     1       9.829  10.394 -10.897  1.00  0.00     0.128 A 
HETATM    3  F1  UNL     1       8.765  11.216 -11.095  1.00  0.00    -0.205 F 
HETATM    4  C8  UNL     1      10.933  10.395 -11.694  1.00  0.00     0.066 A 
HETATM    5  C9  UNL     1      11.985   9.481 -11.505  1.00  0.00     0.062 A 
HETATM    6  C10 UNL     1      13.040   9.625 -12.428  1.00  0.00     0.100 C 
HETATM    7  N2  UNL     1      13.907   9.745 -13.232  1.00  0.00    -0.191 NA
HETATM    8  C11 UNL     1      11.863   8.603 -10.491  1.00  0.00     0.046 A 
HETATM    9  C12 UNL     1      10.719   8.588  -9.628  1.00  0.00     0.059 A 
HETATM   10  N3  UNL     1      10.675   7.911  -8.344  1.00  0.00    -0.347 N 
ATOM     11  H3  UNL     1       9.774   7.766  -7.889  1.00  0.00     0.166 HD
HETATM   12  C13 UNL     1      11.879   7.436  -7.697  1.00  0.00     0.105 C 
HETATM   13  S1  UNL     1      11.600   7.160  -6.081  1.00  0.00    -0.063 SA
HETATM   14  C14 UNL     1      13.235   7.130  -8.107  1.00  0.00     0.076 C 
HETATM   15  C15 UNL     1      14.279   8.050  -7.551  1.00  0.00     0.046 C 
HETATM   16  C16 UNL     1      13.564   5.752  -7.488  1.00  0.00     0.046 C 
HETATM   17  N4  UNL     1      13.402   6.941  -9.529  1.00  0.00    -0.368 N 
ATOM     18  H4  UNL     1      14.068   6.213  -9.789  1.00  0.00     0.161 HD
HETATM   19  C17 UNL     1      12.843   7.549 -10.528  1.00  0.00     0.091 C 
HETATM   20  S2  UNL     1      13.274   6.985 -12.153  1.00  0.00    -0.032 SA
ENDROOT
BRANCH   1  21
HETATM   21  C5  UNL     1       8.403   9.457  -9.156  1.00  0.00     0.316 C 
BRANCH  21  22
HETATM   22  N1  UNL     1       8.528  10.301  -7.992  1.00  0.00     0.088 N 
HETATM   23  C1  UNL     1       8.161   9.590  -6.746  1.00  0.00     0.310 C 
BRANCH  22  24
HETATM   24  C2  UNL     1       7.781  11.521  -8.024  1.00  0.00     0.274 C 
BRANCH  24  25
HETATM   25  C3  UNL     1       6.300  11.269  -8.315  1.00  0.00     0.056 C 
BRANCH  25  26
HETATM   26  C4  UNL     1       5.464  12.489  -8.067  1.00  0.00     0.165 C 
BRANCH  26  27
HETATM   27  O1  UNL     1       4.210  12.344  -8.687  1.00  0.00    -0.401 OA
ATOM     28  H1  UNL     1       3.555  12.108  -8.040  1.00  0.00     0.209 HD
ENDBRANCH  26  27
ENDBRANCH  25  26
ENDBRANCH  24  25
ENDBRANCH  22  24
ENDBRANCH  21  22
ENDBRANCH   1  21
TORSDOF 6
ENDMDL
