MODEL 1
REMARK VINA RESULT: -7.824346060      0.000      0.000
REMARK  7 active torsions:
REMARK  status: ('A' for Active; 'I' for Inactive)
REMARK       I    between atoms: C2_2  and  N1_4 
REMARK    1  A    between atoms: N1_4  and  C3_6 
REMARK    2  A    between atoms: C3_6  and  C4_7 
REMARK    3  A    between atoms: C3_6  and  C20_33 
REMARK    4  A    between atoms: C4_7  and  C5_9 
REMARK    5  A    between atoms: C5_9  and  N2_10 
REMARK    6  A    between atoms: C5_9  and  N3_14 
REMARK    7  A    between atoms: C8_17  and  C9_18 
ROOT
HETATM    1  N3  UNL     1      -4.605  13.469   7.012  1.00  0.00     0.126 N 
HETATM    2  C6  UNL     1      -5.926  12.967   7.240  1.00  0.00     0.276 C 
HETATM    3  C7  UNL     1      -6.021  12.524   8.713  1.00  0.00     0.037 C 
HETATM    4  C8  UNL     1      -5.877  13.770   9.557  1.00  0.00     0.018 C 
HETATM    5  C18 UNL     1      -4.573  14.414   9.249  1.00  0.00     0.037 C 
HETATM    6  C19 UNL     1      -3.796  13.645   8.171  1.00  0.00     0.276 C 
ENDROOT
BRANCH   1   7
HETATM    7  C5  UNL     1      -3.971  12.832   5.924  1.00  0.00     0.487 C 
BRANCH   7   8
HETATM    8  C4  UNL     1      -4.521  13.077   4.586  1.00  0.00     0.212 C 
HETATM    9  O2  UNL     1      -4.592  12.210   3.758  1.00  0.00    -0.291 OA
BRANCH   8  10
HETATM   10  C3  UNL     1      -5.008  14.432   4.232  1.00  0.00     0.196 C 
BRANCH  10  11
HETATM   11  N1  UNL     1      -4.156  15.035   3.205  1.00  0.00    -0.347 N 
HETATM   12  C2  UNL     1      -3.781  16.389   3.317  1.00  0.00     0.214 C 
HETATM   13  C1  UNL     1      -2.918  17.036   2.293  1.00  0.00     0.117 C 
HETATM   14  O1  UNL     1      -4.166  17.098   4.292  1.00  0.00    -0.274 OA
ATOM     15  H1  UNL     1      -3.836  14.478   2.413  1.00  0.00     0.163 HD
ENDBRANCH  10  11
BRANCH  10  16
HETATM   16  C20 UNL     1      -6.431  14.426   3.695  1.00  0.00     0.137 C 
HETATM   17  C21 UNL     1      -7.244  15.601   4.175  1.00  0.00     0.053 C 
HETATM   18 CL1  UNL     1      -6.367  14.466   1.929  1.00  0.00    -0.099 Cl
HETATM   19 CL2  UNL     1      -7.171  12.897   4.257  1.00  0.00    -0.099 Cl
ENDBRANCH  10  16
ENDBRANCH   8  10
ENDBRANCH   7   8
BRANCH   7  20
HETATM   20  N2  UNL     1      -2.518  12.999   5.935  1.00  0.00    -0.040 N 
ATOM     21  H23 UNL     1      -2.055  12.224   6.410  1.00  0.00     0.277 HD
ATOM     22  H22 UNL     1      -2.118  12.872   5.005  1.00  0.00     0.277 HD
ATOM     23  H21 UNL     1      -2.255  13.898   6.337  1.00  0.00     0.277 HD
ENDBRANCH   7  20
ENDBRANCH   1   7
BRANCH   4  24
HETATM   24  C9  UNL     1      -6.039  13.427  11.029  1.00  0.00     0.046 C 
HETATM   25  C10 UNL     1      -6.240  11.931  11.210  1.00  0.00     0.040 C 
HETATM   26  N4  UNL     1      -7.251  14.082  11.460  1.00  0.00    -0.350 N 
HETATM   27  C11 UNL     1      -7.547  15.349  11.980  1.00  0.00     0.226 C 
ATOM     28  H4  UNL     1      -8.076  13.490  11.364  1.00  0.00     0.163 HD
HETATM   29  O3  UNL     1      -8.791  15.515  12.244  1.00  0.00    -0.273 OA
HETATM   30  C12 UNL     1      -6.664  16.484  12.260  1.00  0.00     0.034 C 
HETATM   31  C13 UNL     1      -6.594  17.480  11.092  1.00  0.00     0.025 C 
HETATM   32  C14 UNL     1      -7.351  17.281  13.384  1.00  0.00     0.025 C 
HETATM   33  C15 UNL     1      -5.303  16.131  12.751  1.00  0.00     0.020 C 
HETATM   34  C16 UNL     1      -5.127  14.662  13.029  1.00  0.00     0.019 C 
HETATM   35  C17 UNL     1      -4.809  13.878  11.778  1.00  0.00     0.086 C 
HETATM   36 BR1  UNL     1      -3.852  12.283  12.335  1.00  0.00    -0.089 Br
ENDBRANCH   4  24
TORSDOF 7
ENDMDL
MODEL 2
REMARK VINA RESULT: -7.740818506      1.777      2.584
REMARK  7 active torsions:
REMARK  status: ('A' for Active; 'I' for Inactive)
REMARK       I    between atoms: C2_2  and  N1_4 
REMARK    1  A    between atoms: N1_4  and  C3_6 
REMARK    2  A    between atoms: C3_6  and  C4_7 
REMARK    3  A    between atoms: C3_6  and  C20_33 
REMARK    4  A    between atoms: C4_7  and  C5_9 
REMARK    5  A    between atoms: C5_9  and  N2_10 
REMARK    6  A    between atoms: C5_9  and  N3_14 
REMARK    7  A    between atoms: C8_17  and  C9_18 
ROOT
HETATM    1  N3  UNL     1      -4.096  12.904   6.781  1.00  0.00     0.126 N 
HETATM    2  C6  UNL     1      -3.308  13.135   7.953  1.00  0.00     0.276 C 
HETATM    3  C7  UNL     1      -4.239  13.671   9.058  1.00  0.00     0.037 C 
HETATM    4  C8  UNL     1      -5.205  12.557   9.395  1.00  0.00     0.018 C 
HETATM    5  C18 UNL     1      -5.953  12.178   8.168  1.00  0.00     0.037 C 
HETATM    6  C19 UNL     1      -5.507  13.000   6.950  1.00  0.00     0.276 C 
ENDROOT
BRANCH   1   7
HETATM    7  C5  UNL     1      -3.578  13.566   5.647  1.00  0.00     0.487 C 
BRANCH   7   8
HETATM    8  C4  UNL     1      -4.407  13.578   4.437  1.00  0.00     0.212 C 
HETATM    9  O2  UNL     1      -4.609  12.584   3.794  1.00  0.00    -0.291 OA
BRANCH   8  10
HETATM   10  C3  UNL     1      -5.020  14.849   3.983  1.00  0.00     0.196 C 
BRANCH  10  11
HETATM   11  N1  UNL     1      -4.197  15.480   2.949  1.00  0.00    -0.347 N 
HETATM   12  C2  UNL     1      -3.720  16.792   3.141  1.00  0.00     0.214 C 
HETATM   13  C1  UNL     1      -2.883  17.465   2.113  1.00  0.00     0.117 C 
HETATM   14  O1  UNL     1      -3.990  17.440   4.194  1.00  0.00    -0.274 OA
ATOM     15  H1  UNL     1      -3.969  14.971   2.094  1.00  0.00     0.163 HD
ENDBRANCH  10  11
BRANCH  10  16
HETATM   16  C20 UNL     1      -6.412  14.657   3.400  1.00  0.00     0.137 C 
HETATM   17  C21 UNL     1      -6.398  14.444   1.908  1.00  0.00     0.053 C 
HETATM   18 CL1  UNL     1      -7.155  13.250   4.166  1.00  0.00    -0.099 Cl
HETATM   19 CL2  UNL     1      -7.330  16.141   3.798  1.00  0.00    -0.099 Cl
ENDBRANCH  10  16
ENDBRANCH   8  10
ENDBRANCH   7   8
BRANCH   7  20
HETATM   20  N2  UNL     1      -3.070  14.903   5.952  1.00  0.00    -0.040 N 
ATOM     21  H23 UNL     1      -2.465  14.896   6.773  1.00  0.00     0.277 HD
ATOM     22  H22 UNL     1      -2.389  15.213   5.258  1.00  0.00     0.277 HD
ATOM     23  H21 UNL     1      -3.833  15.572   6.053  1.00  0.00     0.277 HD
ENDBRANCH   7  20
ENDBRANCH   1   7
BRANCH   4  24
HETATM   24  C9  UNL     1      -6.113  12.982  10.539  1.00  0.00     0.046 C 
HETATM   25  C10 UNL     1      -5.779  12.206  11.803  1.00  0.00     0.040 C 
HETATM   26  N4  UNL     1      -7.451  12.611  10.144  1.00  0.00    -0.350 N 
HETATM   27  C11 UNL     1      -8.472  13.249   9.428  1.00  0.00     0.226 C 
ATOM     28  H4  UNL     1      -7.711  11.675  10.456  1.00  0.00     0.163 HD
HETATM   29  O3  UNL     1      -9.535  12.541   9.312  1.00  0.00    -0.273 OA
HETATM   30  C12 UNL     1      -8.501  14.575   8.806  1.00  0.00     0.034 C 
HETATM   31  C13 UNL     1      -8.103  14.541   7.322  1.00  0.00     0.025 C 
HETATM   32  C14 UNL     1      -9.984  14.991   8.780  1.00  0.00     0.025 C 
HETATM   33  C15 UNL     1      -7.767  15.643   9.539  1.00  0.00     0.020 C 
HETATM   34  C16 UNL     1      -7.253  15.204  10.885  1.00  0.00     0.019 C 
HETATM   35  C17 UNL     1      -5.942  14.461  10.780  1.00  0.00     0.086 C 
HETATM   36 BR1  UNL     1      -5.035  14.670  12.484  1.00  0.00    -0.089 Br
ENDBRANCH   4  24
TORSDOF 7
ENDMDL
MODEL 3
REMARK VINA RESULT: -7.685598344      2.048      2.968
REMARK  7 active torsions:
REMARK  status: ('A' for Active; 'I' for Inactive)
REMARK       I    between atoms: C2_2  and  N1_4 
REMARK    1  A    between atoms: N1_4  and  C3_6 
REMARK    2  A    between atoms: C3_6  and  C4_7 
REMARK    3  A    between atoms: C3_6  and  C20_33 
REMARK    4  A    between atoms: C4_7  and  C5_9 
REMARK    5  A    between atoms: C5_9  and  N2_10 
REMARK    6  A    between atoms: C5_9  and  N3_14 
REMARK    7  A    between atoms: C8_17  and  C9_18 
ROOT
HETATM    1  N3  UNL     1      -7.651  13.934   7.173  1.00  0.00     0.126 N 
HETATM    2  C6  UNL     1      -6.266  13.576   7.215  1.00  0.00     0.276 C 
HETATM    3  C7  UNL     1      -5.746  13.843   8.641  1.00  0.00     0.037 C 
HETATM    4  C8  UNL     1      -6.472  12.885   9.559  1.00  0.00     0.018 C 
HETATM    5  C18 UNL     1      -7.935  13.121   9.444  1.00  0.00     0.037 C 
HETATM    6  C19 UNL     1      -8.257  14.226   8.429  1.00  0.00     0.276 C 
ENDROOT
BRANCH   1   7
HETATM    7  C5  UNL     1      -7.937  14.850   6.138  1.00  0.00     0.487 C 
BRANCH   7   8
HETATM    8  C4  UNL     1      -7.818  14.365   4.759  1.00  0.00     0.212 C 
HETATM    9  O2  UNL     1      -8.749  13.889   4.169  1.00  0.00    -0.291 OA
BRANCH   8  10
HETATM   10  C3  UNL     1      -6.513  14.457   4.060  1.00  0.00     0.196 C 
BRANCH  10  11
HETATM   11  N1  UNL     1      -6.368  13.369   3.091  1.00  0.00    -0.347 N 
HETATM   12  C2  UNL     1      -5.288  12.471   3.207  1.00  0.00     0.214 C 
HETATM   13  C1  UNL     1      -5.106  11.355   2.241  1.00  0.00     0.117 C 
HETATM   14  O1  UNL     1      -4.436  12.586   4.137  1.00  0.00    -0.274 OA
ATOM     15  H1  UNL     1      -7.044  13.261   2.336  1.00  0.00     0.163 HD
ENDBRANCH  10  11
BRANCH  10  16
HETATM   16  C20 UNL     1      -6.341  15.765   3.302  1.00  0.00     0.137 C 
HETATM   17  C21 UNL     1      -7.453  16.747   3.568  1.00  0.00     0.053 C 
HETATM   18 CL1  UNL     1      -4.809  16.499   3.788  1.00  0.00    -0.099 Cl
HETATM   19 CL2  UNL     1      -6.304  15.335   1.565  1.00  0.00    -0.099 Cl
ENDBRANCH  10  16
ENDBRANCH   8  10
ENDBRANCH   7   8
BRANCH   7  20
HETATM   20  N2  UNL     1      -9.197  15.562   6.339  1.00  0.00    -0.040 N 
ATOM     21  H23 UNL     1      -9.745  15.607   5.479  1.00  0.00     0.277 HD
ATOM     22  H22 UNL     1      -9.848  15.021   6.910  1.00  0.00     0.277 HD
ATOM     23  H21 UNL     1      -9.037  16.490   6.730  1.00  0.00     0.277 HD
ENDBRANCH   7  20
ENDBRANCH   1   7
BRANCH   4  24
HETATM   24  C9  UNL     1      -5.955  13.032  10.982  1.00  0.00     0.046 C 
HETATM   25  C10 UNL     1      -5.763  11.668  11.624  1.00  0.00     0.040 C 
HETATM   26  N4  UNL     1      -6.994  13.714  11.715  1.00  0.00    -0.350 N 
HETATM   27  C11 UNL     1      -7.302  15.060  11.954  1.00  0.00     0.226 C 
ATOM     28  H4  UNL     1      -7.652  13.073  12.158  1.00  0.00     0.163 HD
HETATM   29  O3  UNL     1      -8.339  15.225  12.688  1.00  0.00    -0.273 OA
HETATM   30  C12 UNL     1      -6.626  16.277  11.497  1.00  0.00     0.034 C 
HETATM   31  C13 UNL     1      -7.232  16.840  10.202  1.00  0.00     0.025 C 
HETATM   32  C14 UNL     1      -6.946  17.353  12.552  1.00  0.00     0.025 C 
HETATM   33  C15 UNL     1      -5.142  16.191  11.406  1.00  0.00     0.020 C 
HETATM   34  C16 UNL     1      -4.580  14.907  11.957  1.00  0.00     0.019 C 
HETATM   35  C17 UNL     1      -4.644  13.780  10.955  1.00  0.00     0.086 C 
HETATM   36 BR1  UNL     1      -3.247  12.518  11.430  1.00  0.00    -0.089 Br
ENDBRANCH   4  24
TORSDOF 7
ENDMDL
MODEL 4
REMARK VINA RESULT: -7.667202031      1.872      2.467
REMARK  7 active torsions:
REMARK  status: ('A' for Active; 'I' for Inactive)
REMARK       I    between atoms: C2_2  and  N1_4 
REMARK    1  A    between atoms: N1_4  and  C3_6 
REMARK    2  A    between atoms: C3_6  and  C4_7 
REMARK    3  A    between atoms: C3_6  and  C20_33 
REMARK    4  A    between atoms: C4_7  and  C5_9 
REMARK    5  A    between atoms: C5_9  and  N2_10 
REMARK    6  A    between atoms: C5_9  and  N3_14 
REMARK    7  A    between atoms: C8_17  and  C9_18 
ROOT
HETATM    1  N3  UNL     1      -7.347  13.680   7.118  1.00  0.00     0.126 N 
HETATM    2  C6  UNL     1      -5.982  13.292   7.311  1.00  0.00     0.276 C 
HETATM    3  C7  UNL     1      -5.587  13.638   8.759  1.00  0.00     0.037 C 
HETATM    4  C8  UNL     1      -6.422  12.760   9.664  1.00  0.00     0.018 C 
HETATM    5  C18 UNL     1      -7.861  13.023   9.399  1.00  0.00     0.037 C 
HETATM    6  C19 UNL     1      -8.056  14.067   8.291  1.00  0.00     0.276 C 
ENDROOT
BRANCH   1   7
HETATM    7  C5  UNL     1      -7.509  14.533   6.005  1.00  0.00     0.487 C 
BRANCH   7   8
HETATM    8  C4  UNL     1      -7.540  13.910   4.678  1.00  0.00     0.212 C 
HETATM    9  O2  UNL     1      -8.447  13.206   4.326  1.00  0.00    -0.291 OA
BRANCH   8  10
HETATM   10  C3  UNL     1      -6.423  14.146   3.732  1.00  0.00     0.196 C 
BRANCH  10  11
HETATM   11  N1  UNL     1      -5.580  15.251   4.192  1.00  0.00    -0.347 N 
HETATM   12  C2  UNL     1      -5.158  16.234   3.275  1.00  0.00     0.214 C 
HETATM   13  C1  UNL     1      -4.300  17.371   3.705  1.00  0.00     0.117 C 
HETATM   14  O1  UNL     1      -5.493  16.182   2.056  1.00  0.00    -0.274 OA
ATOM     15  H1  UNL     1      -5.301  15.309   5.171  1.00  0.00     0.163 HD
ENDBRANCH  10  11
BRANCH  10  16
HETATM   16  C20 UNL     1      -5.524  12.930   3.565  1.00  0.00     0.137 C 
HETATM   17  C21 UNL     1      -6.163  11.656   4.057  1.00  0.00     0.053 C 
HETATM   18 CL1  UNL     1      -5.139  12.744   1.850  1.00  0.00    -0.099 Cl
HETATM   19 CL2  UNL     1      -4.039  13.273   4.503  1.00  0.00    -0.099 Cl
ENDBRANCH  10  16
ENDBRANCH   8  10
ENDBRANCH   7   8
BRANCH   7  20
HETATM   20  N2  UNL     1      -8.611  15.480   6.169  1.00  0.00    -0.040 N 
ATOM     21  H23 UNL     1      -9.232  15.476   5.359  1.00  0.00     0.277 HD
ATOM     22  H22 UNL     1      -9.276  15.163   6.876  1.00  0.00     0.277 HD
ATOM     23  H21 UNL     1      -8.264  16.417   6.373  1.00  0.00     0.277 HD
ENDBRANCH   7  20
ENDBRANCH   1   7
BRANCH   4  24
HETATM   24  C9  UNL     1      -6.033  12.986  11.116  1.00  0.00     0.046 C 
HETATM   25  C10 UNL     1      -5.920  11.661  11.852  1.00  0.00     0.040 C 
HETATM   26  N4  UNL     1      -7.124  13.720  11.711  1.00  0.00    -0.350 N 
HETATM   27  C11 UNL     1      -7.433  15.081  11.843  1.00  0.00     0.226 C 
ATOM     28  H4  UNL     1      -7.829  13.112  12.129  1.00  0.00     0.163 HD
HETATM   29  O3  UNL     1      -8.530  15.298  12.469  1.00  0.00    -0.273 OA
HETATM   30  C12 UNL     1      -6.701  16.262  11.379  1.00  0.00     0.034 C 
HETATM   31  C13 UNL     1      -7.181  16.752  10.004  1.00  0.00     0.025 C 
HETATM   32  C14 UNL     1      -7.100  17.401  12.336  1.00  0.00     0.025 C 
HETATM   33  C15 UNL     1      -5.217  16.157  11.428  1.00  0.00     0.020 C 
HETATM   34  C16 UNL     1      -4.725  14.903  12.102  1.00  0.00     0.019 C 
HETATM   35  C17 UNL     1      -4.715  13.719  11.165  1.00  0.00     0.086 C 
HETATM   36 BR1  UNL     1      -3.385  12.475  11.838  1.00  0.00    -0.089 Br
ENDBRANCH   4  24
TORSDOF 7
ENDMDL
MODEL 5
REMARK VINA RESULT: -7.663209334      4.252      6.525
REMARK  7 active torsions:
REMARK  status: ('A' for Active; 'I' for Inactive)
REMARK       I    between atoms: C2_2  and  N1_4 
REMARK    1  A    between atoms: N1_4  and  C3_6 
REMARK    2  A    between atoms: C3_6  and  C4_7 
REMARK    3  A    between atoms: C3_6  and  C20_33 
REMARK    4  A    between atoms: C4_7  and  C5_9 
REMARK    5  A    between atoms: C5_9  and  N2_10 
REMARK    6  A    between atoms: C5_9  and  N3_14 
REMARK    7  A    between atoms: C8_17  and  C9_18 
ROOT
HETATM    1  N3  UNL     1      -9.601  14.609   9.312  1.00  0.00     0.126 N 
HETATM    2  C6  UNL     1      -9.726  13.289   9.851  1.00  0.00     0.276 C 
HETATM    3  C7  UNL     1      -8.419  12.949  10.593  1.00  0.00     0.037 C 
HETATM    4  C8  UNL     1      -8.326  13.894  11.771  1.00  0.00     0.018 C 
HETATM    5  C18 UNL     1      -8.337  15.293  11.270  1.00  0.00     0.037 C 
HETATM    6  C19 UNL     1      -8.464  15.352   9.741  1.00  0.00     0.276 C 
ENDROOT
BRANCH   1   7
HETATM    7  C5  UNL     1      -9.858  14.648   7.925  1.00  0.00     0.487 C 
BRANCH   7   8
HETATM    8  C4  UNL     1     -10.945  15.521   7.466  1.00  0.00     0.212 C 
HETATM    9  O2  UNL     1     -10.746  16.651   7.110  1.00  0.00    -0.291 OA
BRANCH   8  10
HETATM   10  C3  UNL     1     -12.335  15.006   7.439  1.00  0.00     0.196 C 
BRANCH  10  11
HETATM   11  N1  UNL     1     -13.230  15.894   8.183  1.00  0.00    -0.347 N 
HETATM   12  C2  UNL     1     -13.693  15.509   9.457  1.00  0.00     0.214 C 
HETATM   13  C1  UNL     1     -14.605  16.384  10.242  1.00  0.00     0.117 C 
HETATM   14  O1  UNL     1     -13.350  14.406   9.974  1.00  0.00    -0.274 OA
ATOM     15  H1  UNL     1     -13.516  16.787   7.782  1.00  0.00     0.163 HD
ENDBRANCH  10  11
BRANCH  10  16
HETATM   16  C20 UNL     1     -12.890  14.882   6.028  1.00  0.00     0.137 C 
HETATM   17  C21 UNL     1     -13.927  15.929   5.712  1.00  0.00     0.053 C 
HETATM   18 CL1  UNL     1     -11.555  15.043   4.881  1.00  0.00    -0.099 Cl
HETATM   19 CL2  UNL     1     -13.613  13.249   5.917  1.00  0.00    -0.099 Cl
ENDBRANCH  10  16
ENDBRANCH   8  10
ENDBRANCH   7   8
BRANCH   7  20
HETATM   20  N2  UNL     1      -8.650  14.847   7.126  1.00  0.00    -0.040 N 
ATOM     21  H23 UNL     1      -8.077  14.003   7.096  1.00  0.00     0.277 HD
ATOM     22  H22 UNL     1      -8.865  14.925   6.132  1.00  0.00     0.277 HD
ATOM     23  H21 UNL     1      -8.117  15.650   7.460  1.00  0.00     0.277 HD
ENDBRANCH   7  20
ENDBRANCH   1   7
BRANCH   4  24
HETATM   24  C9  UNL     1      -7.096  13.570  12.604  1.00  0.00     0.046 C 
HETATM   25  C10 UNL     1      -7.347  13.880  14.071  1.00  0.00     0.040 C 
HETATM   26  N4  UNL     1      -6.057  14.460  12.145  1.00  0.00    -0.350 N 
HETATM   27  C11 UNL     1      -5.084  14.393  11.139  1.00  0.00     0.226 C 
ATOM     28  H4  UNL     1      -6.024  15.334  12.671  1.00  0.00     0.163 HD
HETATM   29  O3  UNL     1      -4.337  15.433  11.080  1.00  0.00    -0.273 OA
HETATM   30  C12 UNL     1      -4.804  13.333  10.167  1.00  0.00     0.034 C 
HETATM   31  C13 UNL     1      -5.524  13.554   8.828  1.00  0.00     0.025 C 
HETATM   32  C14 UNL     1      -3.312  13.476   9.813  1.00  0.00     0.025 C 
HETATM   33  C15 UNL     1      -4.999  11.942  10.662  1.00  0.00     0.020 C 
HETATM   34  C16 UNL     1      -5.298  11.865  12.136  1.00  0.00     0.019 C 
HETATM   35  C17 UNL     1      -6.758  12.109  12.435  1.00  0.00     0.086 C 
HETATM   36 BR1  UNL     1      -7.146  11.225  14.120  1.00  0.00    -0.089 Br
ENDBRANCH   4  24
TORSDOF 7
ENDMDL
