MODEL 1
REMARK VINA RESULT: -8.951327232      0.000      0.000
REMARK  8 active torsions:
REMARK  status: ('A' for Active; 'I' for Inactive)
REMARK       I    between atoms: C2_2  and  N1_4 
REMARK    1  A    between atoms: N1_4  and  C3_6 
REMARK    2  A    between atoms: N2_9  and  C6_10 
REMARK    3  A    between atoms: C6_10  and  O2_11 
REMARK    4  A    between atoms: C6_10  and  N3_13 
REMARK    5  A    between atoms: C11_18  and  C12_19 
REMARK       I    between atoms: C12_19  and  N4_21 
REMARK    6  A    between atoms: N4_21  and  C13_23 
REMARK       I    between atoms: N5_26  and  C16_27 
REMARK    7  A    between atoms: C16_27  and  C17_29 
REMARK    8  A    between atoms: C17_29  and  C18_30 
ROOT
HETATM    1  C12 UNL     1      -6.072  14.319  11.134  1.00  0.00     0.241 C 
HETATM    2  O3  UNL     1      -6.324  15.565  11.110  1.00  0.00    -0.271 OA
HETATM    3  N4  UNL     1      -6.886  13.481  10.369  1.00  0.00    -0.355 N 
ATOM      4  H4  UNL     1      -6.693  12.480  10.379  1.00  0.00     0.162 HD
ENDROOT
BRANCH   1   5
HETATM    5  C11 UNL     1      -4.945  13.901  11.972  1.00  0.00     0.179 C 
HETATM    6  N3  UNL     1      -4.247  12.734  11.423  1.00  0.00    -0.334 N 
HETATM    7  C7  UNL     1      -4.761  11.460  11.807  1.00  0.00     0.127 C 
HETATM    8  C8  UNL     1      -4.473  11.217  13.287  1.00  0.00     0.020 C 
HETATM    9  C9  UNL     1      -4.591  12.513  14.059  1.00  0.00     0.004 C 
HETATM   10  C10 UNL     1      -5.429  13.535  13.334  1.00  0.00     0.035 C 
BRANCH   6  11
HETATM   11  C6  UNL     1      -3.137  12.960  10.602  1.00  0.00     0.218 C 
BRANCH  11  12
HETATM   12  N2  UNL     1      -3.011  12.786   9.204  1.00  0.00    -0.345 N 
HETATM   13  C5  UNL     1      -1.927  12.313   8.390  1.00  0.00     0.128 C 
HETATM   14  C4  UNL     1      -2.214  12.717   6.976  1.00  0.00     0.046 C 
HETATM   15  C3  UNL     1      -3.480  13.492   7.008  1.00  0.00     0.104 C 
HETATM   16  C24 UNL     1      -4.134  13.099   8.285  1.00  0.00     0.151 C 
BRANCH  15  17
HETATM   17  N1  UNL     1      -4.258  13.112   5.841  1.00  0.00    -0.355 N 
HETATM   18  C2  UNL     1      -4.363  13.953   4.712  1.00  0.00     0.213 C 
HETATM   19  C1  UNL     1      -5.167  13.545   3.528  1.00  0.00     0.117 C 
HETATM   20  O1  UNL     1      -3.768  15.057   4.717  1.00  0.00    -0.274 OA
ATOM     21  H1  UNL     1      -4.742  12.214   5.838  1.00  0.00     0.162 HD
ENDBRANCH  15  17
ENDBRANCH  11  12
BRANCH  11  22
HETATM   22  O2  UNL     1      -2.056  13.387  11.184  1.00  0.00    -0.332 OA
ATOM     23  H2  UNL     1      -2.157  14.222  11.628  1.00  0.00     0.220 HD
ENDBRANCH  11  22
ENDBRANCH   6  11
ENDBRANCH   1   5
BRANCH   3  24
HETATM   24  C13 UNL     1      -7.982  13.957   9.567  1.00  0.00     0.087 C 
HETATM   25  C14 UNL     1      -7.613  14.146   8.116  1.00  0.00     0.045 C 
HETATM   26  C15 UNL     1      -8.853  14.715   7.426  1.00  0.00     0.127 C 
HETATM   27  N5  UNL     1     -10.007  14.695   8.303  1.00  0.00    -0.352 N 
HETATM   28  C16 UNL     1     -10.788  15.875   8.500  1.00  0.00     0.225 C 
HETATM   29  C22 UNL     1     -10.338  13.468   8.960  1.00  0.00     0.127 C 
HETATM   30  O4  UNL     1     -10.460  16.932   7.901  1.00  0.00    -0.273 OA
HETATM   31  C23 UNL     1      -9.113  12.973   9.695  1.00  0.00     0.045 C 
BRANCH  28  32
HETATM   32  C17 UNL     1     -11.968  15.909   9.380  1.00  0.00     0.161 C 
BRANCH  32  33
HETATM   33  C18 UNL     1     -11.631  16.514  10.687  1.00  0.00     0.043 A 
HETATM   34  N6  UNL     1     -10.453  16.498  11.291  1.00  0.00    -0.347 N 
HETATM   35  C19 UNL     1     -10.479  17.141  12.468  1.00  0.00     0.127 A 
ATOM     36  H6  UNL     1      -9.622  16.049  10.905  1.00  0.00     0.167 HD
HETATM   37 CL1  UNL     1      -9.123  17.331  13.550  1.00  0.00    -0.063 Cl
HETATM   38  C20 UNL     1     -11.755  17.605  12.640  1.00  0.00     0.096 A 
HETATM   39 CL2  UNL     1     -12.355  18.523  14.013  1.00  0.00    -0.079 Cl
HETATM   40  C21 UNL     1     -12.470  17.219  11.540  1.00  0.00     0.082 A 
HETATM   41 CL3  UNL     1     -14.161  17.547  11.240  1.00  0.00    -0.080 Cl
ENDBRANCH  32  33
ENDBRANCH  28  32
ENDBRANCH   3  24
TORSDOF 8
ENDMDL
MODEL 2
REMARK VINA RESULT: -8.764275511      3.868      9.596
REMARK  8 active torsions:
REMARK  status: ('A' for Active; 'I' for Inactive)
REMARK       I    between atoms: C2_2  and  N1_4 
REMARK    1  A    between atoms: N1_4  and  C3_6 
REMARK    2  A    between atoms: N2_9  and  C6_10 
REMARK    3  A    between atoms: C6_10  and  O2_11 
REMARK    4  A    between atoms: C6_10  and  N3_13 
REMARK    5  A    between atoms: C11_18  and  C12_19 
REMARK       I    between atoms: C12_19  and  N4_21 
REMARK    6  A    between atoms: N4_21  and  C13_23 
REMARK       I    between atoms: N5_26  and  C16_27 
REMARK    7  A    between atoms: C16_27  and  C17_29 
REMARK    8  A    between atoms: C17_29  and  C18_30 
ROOT
HETATM    1  C12 UNL     1     -10.519  15.259   7.457  1.00  0.00     0.241 C 
HETATM    2  O3  UNL     1      -9.451  15.489   6.805  1.00  0.00    -0.271 OA
HETATM    3  N4  UNL     1     -10.391  14.689   8.724  1.00  0.00    -0.355 N 
ATOM      4  H4  UNL     1     -11.240  14.500   9.257  1.00  0.00     0.162 HD
ENDROOT
BRANCH   1   5
HETATM    5  C11 UNL     1     -11.774  15.622   6.793  1.00  0.00     0.179 C 
HETATM    6  N3  UNL     1     -12.925  14.905   7.351  1.00  0.00    -0.334 N 
HETATM    7  C7  UNL     1     -13.207  13.630   6.775  1.00  0.00     0.127 C 
HETATM    8  C8  UNL     1     -13.729  13.817   5.351  1.00  0.00     0.020 C 
HETATM    9  C9  UNL     1     -13.020  14.977   4.686  1.00  0.00     0.004 C 
HETATM   10  C10 UNL     1     -11.699  15.290   5.341  1.00  0.00     0.035 C 
BRANCH   6  11
HETATM   11  C6  UNL     1     -13.656  15.528   8.368  1.00  0.00     0.218 C 
BRANCH  11  12
HETATM   12  N2  UNL     1     -13.413  15.542   9.761  1.00  0.00    -0.345 N 
HETATM   13  C5  UNL     1     -13.882  14.700  10.826  1.00  0.00     0.128 C 
HETATM   14  C4  UNL     1     -13.626  15.417  12.115  1.00  0.00     0.046 C 
HETATM   15  C3  UNL     1     -13.039  16.733  11.757  1.00  0.00     0.104 C 
HETATM   16  C24 UNL     1     -12.515  16.552  10.376  1.00  0.00     0.151 C 
BRANCH  15  17
HETATM   17  N1  UNL     1     -11.990  17.024  12.719  1.00  0.00    -0.355 N 
HETATM   18  C2  UNL     1     -11.926  18.261  13.397  1.00  0.00     0.213 C 
HETATM   19  C1  UNL     1     -10.841  18.539  14.377  1.00  0.00     0.117 C 
HETATM   20  O1  UNL     1     -12.798  19.131  13.162  1.00  0.00    -0.274 OA
ATOM     21  H1  UNL     1     -11.280  16.316  12.909  1.00  0.00     0.162 HD
ENDBRANCH  15  17
ENDBRANCH  11  12
BRANCH  11  22
HETATM   22  O2  UNL     1     -14.714  16.191   8.006  1.00  0.00    -0.332 OA
ATOM     23  H2  UNL     1     -15.333  15.685   7.492  1.00  0.00     0.220 HD
ENDBRANCH  11  22
ENDBRANCH   6  11
ENDBRANCH   1   5
BRANCH   3  24
HETATM   24  C13 UNL     1      -9.124  14.354   9.319  1.00  0.00     0.087 C 
HETATM   25  C14 UNL     1      -8.909  15.010  10.661  1.00  0.00     0.045 C 
HETATM   26  C15 UNL     1      -7.506  14.612  11.116  1.00  0.00     0.127 C 
HETATM   27  N5  UNL     1      -6.931  13.601  10.250  1.00  0.00    -0.352 N 
HETATM   28  C16 UNL     1      -5.627  13.781   9.693  1.00  0.00     0.225 C 
HETATM   29  C22 UNL     1      -7.701  12.429   9.973  1.00  0.00     0.127 C 
HETATM   30  O4  UNL     1      -4.986  14.829   9.965  1.00  0.00    -0.273 OA
HETATM   31  C23 UNL     1      -9.055  12.856   9.452  1.00  0.00     0.045 C 
BRANCH  28  32
HETATM   32  C17 UNL     1      -4.998  12.787   8.807  1.00  0.00     0.161 C 
BRANCH  32  33
HETATM   33  C18 UNL     1      -5.220  13.135   7.386  1.00  0.00     0.043 A 
HETATM   34  N6  UNL     1      -6.384  13.337   6.789  1.00  0.00    -0.347 N 
HETATM   35  C19 UNL     1      -6.240  13.640   5.490  1.00  0.00     0.127 A 
ATOM     36  H6  UNL     1      -7.285  13.270   7.262  1.00  0.00     0.167 HD
HETATM   37 CL1  UNL     1      -7.542  13.971   4.376  1.00  0.00    -0.063 Cl
HETATM   38  C20 UNL     1      -4.897  13.635   5.226  1.00  0.00     0.096 A 
HETATM   39 CL2  UNL     1      -4.137  13.969   3.678  1.00  0.00    -0.079 Cl
HETATM   40  C21 UNL     1      -4.264  13.324   6.398  1.00  0.00     0.082 A 
HETATM   41 CL3  UNL     1      -2.536  13.179   6.630  1.00  0.00    -0.080 Cl
ENDBRANCH  32  33
ENDBRANCH  28  32
ENDBRANCH   3  24
TORSDOF 8
ENDMDL
MODEL 3
REMARK VINA RESULT: -8.708290195      4.095      8.499
REMARK  8 active torsions:
REMARK  status: ('A' for Active; 'I' for Inactive)
REMARK       I    between atoms: C2_2  and  N1_4 
REMARK    1  A    between atoms: N1_4  and  C3_6 
REMARK    2  A    between atoms: N2_9  and  C6_10 
REMARK    3  A    between atoms: C6_10  and  O2_11 
REMARK    4  A    between atoms: C6_10  and  N3_13 
REMARK    5  A    between atoms: C11_18  and  C12_19 
REMARK       I    between atoms: C12_19  and  N4_21 
REMARK    6  A    between atoms: N4_21  and  C13_23 
REMARK       I    between atoms: N5_26  and  C16_27 
REMARK    7  A    between atoms: C16_27  and  C17_29 
REMARK    8  A    between atoms: C17_29  and  C18_30 
ROOT
HETATM    1  C12 UNL     1     -10.061  14.119  11.177  1.00  0.00     0.241 C 
HETATM    2  O3  UNL     1      -9.800  13.554  10.068  1.00  0.00    -0.271 OA
HETATM    3  N4  UNL     1      -8.993  14.369  12.041  1.00  0.00    -0.355 N 
ATOM      4  H4  UNL     1      -9.190  14.822  12.933  1.00  0.00     0.162 HD
ENDROOT
BRANCH   1   5
HETATM    5  C11 UNL     1     -11.468  14.445  11.423  1.00  0.00     0.179 C 
HETATM    6  N3  UNL     1     -11.989  15.420  10.460  1.00  0.00    -0.334 N 
HETATM    7  C7  UNL     1     -11.806  16.793  10.798  1.00  0.00     0.127 C 
HETATM    8  C8  UNL     1     -12.700  17.151  11.985  1.00  0.00     0.020 C 
HETATM    9  C9  UNL     1     -12.784  15.984  12.943  1.00  0.00     0.004 C 
HETATM   10  C10 UNL     1     -11.625  15.031  12.785  1.00  0.00     0.035 C 
BRANCH   6  11
HETATM   11  C6  UNL     1     -12.635  14.933   9.318  1.00  0.00     0.218 C 
BRANCH  11  12
HETATM   12  N2  UNL     1     -12.201  14.947   7.973  1.00  0.00    -0.345 N 
HETATM   13  C5  UNL     1     -11.011  15.462   7.354  1.00  0.00     0.128 C 
HETATM   14  C4  UNL     1     -11.272  15.554   5.882  1.00  0.00     0.046 C 
HETATM   15  C3  UNL     1     -12.677  15.125   5.675  1.00  0.00     0.104 C 
HETATM   16  C24 UNL     1     -13.019  14.341   6.892  1.00  0.00     0.151 C 
BRANCH  15  17
HETATM   17  N1  UNL     1     -12.719  14.322   4.464  1.00  0.00    -0.355 N 
HETATM   18  C2  UNL     1     -13.869  14.269   3.646  1.00  0.00     0.213 C 
HETATM   19  C1  UNL     1     -13.890  13.439   2.411  1.00  0.00     0.117 C 
HETATM   20  O1  UNL     1     -14.880  14.934   3.973  1.00  0.00    -0.274 OA
ATOM     21  H1  UNL     1     -11.895  13.781   4.198  1.00  0.00     0.162 HD
ENDBRANCH  15  17
ENDBRANCH  11  12
BRANCH  11  22
HETATM   22  O2  UNL     1     -13.803  14.388   9.494  1.00  0.00    -0.332 OA
ATOM     23  H2  UNL     1     -14.472  14.698   8.895  1.00  0.00     0.220 HD
ENDBRANCH  11  22
ENDBRANCH   6  11
ENDBRANCH   1   5
BRANCH   3  24
HETATM   24  C13 UNL     1      -7.630  14.021  11.738  1.00  0.00     0.087 C 
HETATM   25  C14 UNL     1      -6.629  14.751  12.599  1.00  0.00     0.045 C 
HETATM   26  C15 UNL     1      -5.245  14.326  12.108  1.00  0.00     0.127 C 
HETATM   27  N5  UNL     1      -5.330  13.240  11.151  1.00  0.00    -0.352 N 
HETATM   28  C16 UNL     1      -4.663  13.331   9.891  1.00  0.00     0.225 C 
HETATM   29  C22 UNL     1      -6.096  12.085  11.504  1.00  0.00     0.127 C 
HETATM   30  O4  UNL     1      -4.000  14.366   9.623  1.00  0.00    -0.273 OA
HETATM   31  C23 UNL     1      -7.481  12.533  11.911  1.00  0.00     0.045 C 
BRANCH  28  32
HETATM   32  C17 UNL     1      -4.718  12.257   8.884  1.00  0.00     0.161 C 
BRANCH  32  33
HETATM   33  C18 UNL     1      -5.033  12.807   7.547  1.00  0.00     0.043 A 
HETATM   34  N6  UNL     1      -6.235  13.078   7.062  1.00  0.00    -0.347 N 
HETATM   35  C19 UNL     1      -6.178  13.571   5.816  1.00  0.00     0.127 A 
ATOM     36  H6  UNL     1      -7.103  12.930   7.577  1.00  0.00     0.167 HD
HETATM   37 CL1  UNL     1      -7.551  14.044   4.848  1.00  0.00    -0.063 Cl
HETATM   38  C20 UNL     1      -4.855  13.624   5.468  1.00  0.00     0.096 A 
HETATM   39 CL2  UNL     1      -4.200  14.192   3.941  1.00  0.00    -0.079 Cl
HETATM   40  C21 UNL     1      -4.145  13.152   6.538  1.00  0.00     0.082 A 
HETATM   41 CL3  UNL     1      -2.406  13.000   6.635  1.00  0.00    -0.080 Cl
ENDBRANCH  32  33
ENDBRANCH  28  32
ENDBRANCH   3  24
TORSDOF 8
ENDMDL
MODEL 4
REMARK VINA RESULT: -8.633069002      4.803      7.784
REMARK  8 active torsions:
REMARK  status: ('A' for Active; 'I' for Inactive)
REMARK       I    between atoms: C2_2  and  N1_4 
REMARK    1  A    between atoms: N1_4  and  C3_6 
REMARK    2  A    between atoms: N2_9  and  C6_10 
REMARK    3  A    between atoms: C6_10  and  O2_11 
REMARK    4  A    between atoms: C6_10  and  N3_13 
REMARK    5  A    between atoms: C11_18  and  C12_19 
REMARK       I    between atoms: C12_19  and  N4_21 
REMARK    6  A    between atoms: N4_21  and  C13_23 
REMARK       I    between atoms: N5_26  and  C16_27 
REMARK    7  A    between atoms: C16_27  and  C17_29 
REMARK    8  A    between atoms: C17_29  and  C18_30 
ROOT
HETATM    1  C12 UNL     1      -4.785  13.130   7.111  1.00  0.00     0.241 C 
HETATM    2  O3  UNL     1      -3.964  13.844   6.453  1.00  0.00    -0.271 OA
HETATM    3  N4  UNL     1      -6.111  13.106   6.678  1.00  0.00    -0.355 N 
ATOM      4  H4  UNL     1      -6.779  12.537   7.197  1.00  0.00     0.162 HD
ENDROOT
BRANCH   1   5
HETATM    5  C11 UNL     1      -4.237  12.406   8.262  1.00  0.00     0.179 C 
HETATM    6  N3  UNL     1      -4.662  12.989   9.538  1.00  0.00    -0.334 N 
HETATM    7  C7  UNL     1      -3.844  14.041  10.049  1.00  0.00     0.127 C 
HETATM    8  C8  UNL     1      -2.500  13.471  10.499  1.00  0.00     0.020 C 
HETATM    9  C9  UNL     1      -2.070  12.357   9.570  1.00  0.00     0.004 C 
HETATM   10  C10 UNL     1      -2.746  12.442   8.225  1.00  0.00     0.035 C 
BRANCH   6  11
HETATM   11  C6  UNL     1      -5.801  12.459  10.155  1.00  0.00     0.218 C 
BRANCH  11  12
HETATM   12  N2  UNL     1      -5.966  12.005  11.483  1.00  0.00    -0.345 N 
HETATM   13  C5  UNL     1      -7.051  12.137  12.415  1.00  0.00     0.128 C 
HETATM   14  C4  UNL     1      -6.519  11.814  13.777  1.00  0.00     0.046 C 
HETATM   15  C3  UNL     1      -5.069  11.542  13.610  1.00  0.00     0.104 C 
HETATM   16  C24 UNL     1      -4.907  11.220  12.166  1.00  0.00     0.151 C 
BRANCH  15  17
HETATM   17  N1  UNL     1      -4.729  10.424  14.473  1.00  0.00    -0.355 N 
HETATM   18  C2  UNL     1      -3.968  10.599  15.650  1.00  0.00     0.213 C 
HETATM   19  C1  UNL     1      -3.629   9.439  16.519  1.00  0.00     0.117 C 
HETATM   20  O1  UNL     1      -3.576  11.749  15.957  1.00  0.00    -0.274 OA
ATOM     21  H1  UNL     1      -5.048   9.487  14.223  1.00  0.00     0.162 HD
ENDBRANCH  15  17
ENDBRANCH  11  12
BRANCH  11  22
HETATM   22  O2  UNL     1      -6.869  12.358   9.421  1.00  0.00    -0.332 OA
ATOM     23  H2  UNL     1      -6.940  13.019   8.742  1.00  0.00     0.220 HD
ENDBRANCH  11  22
ENDBRANCH   6  11
ENDBRANCH   1   5
BRANCH   3  24
HETATM   24  C13 UNL     1      -6.586  13.844   5.537  1.00  0.00     0.087 C 
HETATM   25  C14 UNL     1      -6.533  13.049   4.255  1.00  0.00     0.045 C 
HETATM   26  C15 UNL     1      -6.999  13.989   3.144  1.00  0.00     0.127 C 
HETATM   27  N5  UNL     1      -7.523  15.230   3.681  1.00  0.00    -0.352 N 
HETATM   28  C16 UNL     1      -7.051  16.487   3.193  1.00  0.00     0.225 C 
HETATM   29  C22 UNL     1      -8.520  15.157   4.704  1.00  0.00     0.127 C 
HETATM   30  O4  UNL     1      -6.174  16.502   2.291  1.00  0.00    -0.273 OA
HETATM   31  C23 UNL     1      -7.997  14.283   5.821  1.00  0.00     0.045 C 
BRANCH  28  32
HETATM   32  C17 UNL     1      -7.550  17.775   3.704  1.00  0.00     0.161 C 
BRANCH  32  33
HETATM   33  C18 UNL     1      -8.264  18.520   2.643  1.00  0.00     0.043 A 
HETATM   34  N6  UNL     1      -7.744  19.402   1.804  1.00  0.00    -0.347 N 
HETATM   35  C19 UNL     1      -8.660  19.897   0.959  1.00  0.00     0.127 A 
ATOM     36  H6  UNL     1      -6.761  19.674   1.801  1.00  0.00     0.167 HD
HETATM   37 CL1  UNL     1      -8.357  21.082  -0.286  1.00  0.00    -0.063 Cl
HETATM   38  C20 UNL     1      -9.852  19.298   1.269  1.00  0.00     0.096 A 
HETATM   39 CL2  UNL     1     -11.395  19.573   0.475  1.00  0.00    -0.079 Cl
HETATM   40  C21 UNL     1      -9.609  18.445   2.309  1.00  0.00     0.082 A 
HETATM   41 CL3  UNL     1     -10.786  17.423   3.103  1.00  0.00    -0.080 Cl
ENDBRANCH  32  33
ENDBRANCH  28  32
ENDBRANCH   3  24
TORSDOF 8
ENDMDL
MODEL 5
REMARK VINA RESULT: -8.625397125      6.771      9.088
REMARK  8 active torsions:
REMARK  status: ('A' for Active; 'I' for Inactive)
REMARK       I    between atoms: C2_2  and  N1_4 
REMARK    1  A    between atoms: N1_4  and  C3_6 
REMARK    2  A    between atoms: N2_9  and  C6_10 
REMARK    3  A    between atoms: C6_10  and  O2_11 
REMARK    4  A    between atoms: C6_10  and  N3_13 
REMARK    5  A    between atoms: C11_18  and  C12_19 
REMARK       I    between atoms: C12_19  and  N4_21 
REMARK    6  A    between atoms: N4_21  and  C13_23 
REMARK       I    between atoms: N5_26  and  C16_27 
REMARK    7  A    between atoms: C16_27  and  C17_29 
REMARK    8  A    between atoms: C17_29  and  C18_30 
ROOT
HETATM    1  C12 UNL     1      -9.772  15.809   4.309  1.00  0.00     0.241 C 
HETATM    2  O3  UNL     1      -9.965  16.672   3.395  1.00  0.00    -0.271 OA
HETATM    3  N4  UNL     1     -10.860  15.024   4.696  1.00  0.00    -0.355 N 
ATOM      4  H4  UNL     1     -10.718  14.328   5.427  1.00  0.00     0.162 HD
ENDROOT
BRANCH   1   5
HETATM    5  C11 UNL     1      -8.415  15.737   4.857  1.00  0.00     0.179 C 
HETATM    6  N3  UNL     1      -7.457  15.181   3.897  1.00  0.00    -0.334 N 
HETATM    7  C7  UNL     1      -7.329  13.760   3.892  1.00  0.00     0.127 C 
HETATM    8  C8  UNL     1      -6.645  13.304   5.180  1.00  0.00     0.020 C 
HETATM    9  C9  UNL     1      -7.087  14.172   6.339  1.00  0.00     0.004 C 
HETATM   10  C10 UNL     1      -8.399  14.863   6.066  1.00  0.00     0.035 C 
BRANCH   6  11
HETATM   11  C6  UNL     1      -6.739  16.074   3.093  1.00  0.00     0.218 C 
BRANCH  11  12
HETATM   12  N2  UNL     1      -5.363  16.396   3.127  1.00  0.00    -0.345 N 
HETATM   13  C5  UNL     1      -4.366  16.240   4.149  1.00  0.00     0.128 C 
HETATM   14  C4  UNL     1      -3.202  17.108   3.780  1.00  0.00     0.046 C 
HETATM   15  C3  UNL     1      -3.583  17.818   2.533  1.00  0.00     0.104 C 
HETATM   16  C24 UNL     1      -4.685  17.002   1.954  1.00  0.00     0.151 C 
BRANCH  15  17
HETATM   17  N1  UNL     1      -2.411  17.862   1.676  1.00  0.00    -0.355 N 
HETATM   18  C2  UNL     1      -2.092  19.006   0.911  1.00  0.00     0.213 C 
HETATM   19  C1  UNL     1      -0.887  19.029   0.038  1.00  0.00     0.117 C 
HETATM   20  O1  UNL     1      -2.842  20.009   0.974  1.00  0.00    -0.274 OA
ATOM     21  H1  UNL     1      -1.802  17.045   1.625  1.00  0.00     0.162 HD
ENDBRANCH  15  17
ENDBRANCH  11  12
BRANCH  11  22
HETATM   22  O2  UNL     1      -7.413  16.711   2.182  1.00  0.00    -0.332 OA
ATOM     23  H2  UNL     1      -7.925  17.439   2.514  1.00  0.00     0.220 HD
ENDBRANCH  11  22
ENDBRANCH   6  11
ENDBRANCH   1   5
BRANCH   3  24
HETATM   24  C13 UNL     1     -12.172  15.147   4.116  1.00  0.00     0.087 C 
HETATM   25  C14 UNL     1     -12.977  13.873   4.202  1.00  0.00     0.045 C 
HETATM   26  C15 UNL     1     -14.300  14.150   3.488  1.00  0.00     0.127 C 
HETATM   27  N5  UNL     1     -14.441  15.553   3.153  1.00  0.00    -0.352 N 
HETATM   28  C16 UNL     1     -14.777  15.951   1.822  1.00  0.00     0.225 C 
HETATM   29  C22 UNL     1     -14.237  16.520   4.187  1.00  0.00     0.127 C 
HETATM   30  O4  UNL     1     -14.948  15.065   0.945  1.00  0.00    -0.273 OA
HETATM   31  C23 UNL     1     -12.888  16.267   4.821  1.00  0.00     0.045 C 
BRANCH  28  32
HETATM   32  C17 UNL     1     -14.931  17.361   1.429  1.00  0.00     0.161 C 
BRANCH  32  33
HETATM   33  C18 UNL     1     -13.774  17.813   0.625  1.00  0.00     0.043 A 
HETATM   34  N6  UNL     1     -12.668  18.384   1.076  1.00  0.00    -0.347 N 
HETATM   35  C19 UNL     1     -11.808  18.671   0.087  1.00  0.00     0.127 A 
ATOM     36  H6  UNL     1     -12.490  18.582   2.060  1.00  0.00     0.167 HD
HETATM   37 CL1  UNL     1     -10.248  19.427   0.286  1.00  0.00    -0.063 Cl
HETATM   38  C20 UNL     1     -12.393  18.260  -1.081  1.00  0.00     0.096 A 
HETATM   39 CL2  UNL     1     -11.708  18.390  -2.694  1.00  0.00    -0.079 Cl
HETATM   40  C21 UNL     1     -13.609  17.728  -0.750  1.00  0.00     0.082 A 
HETATM   41 CL3  UNL     1     -14.777  17.051  -1.862  1.00  0.00    -0.080 Cl
ENDBRANCH  32  33
ENDBRANCH  28  32
ENDBRANCH   3  24
TORSDOF 8
ENDMDL
