MODEL 1
REMARK VINA RESULT: -6.572151618      0.000      0.000
REMARK  2 active torsions:
REMARK  status: ('A' for Active; 'I' for Inactive)
REMARK    1  A    between atoms: C2_2  and  C4_4 
REMARK    2  A    between atoms: C4_4  and  C6_7 
ROOT
HETATM    1  C4  UNL     1      -5.689   2.977  15.900  1.00  0.00     0.126 C 
HETATM    2  C5  UNL     1      -4.734   1.849  16.079  1.00  0.00     0.066 C 
HETATM    3  N1  UNL     1      -3.982   0.982  16.228  1.00  0.00    -0.197 NA
ENDROOT
BRANCH   1   4
HETATM    4  C2  UNL     1      -6.731   2.892  16.948  1.00  0.00    -0.003 C 
HETATM    5  C1  UNL     1      -7.586   1.645  16.851  1.00  0.00     0.011 C 
HETATM    6  C3  UNL     1      -6.296   3.052  18.363  1.00  0.00     0.011 C 
ENDBRANCH   1   4
BRANCH   1   7
HETATM    7  C6  UNL     1      -4.926   4.250  15.797  1.00  0.00     0.203 C 
HETATM    8  C7  UNL     1      -5.617   5.395  15.152  1.00  0.00     0.036 C 
HETATM    9  C8  UNL     1      -4.533   6.152  14.406  1.00  0.00     0.029 C 
HETATM   10  C9  UNL     1      -3.385   5.198  14.335  1.00  0.00     0.233 C 
HETATM   11  N2  UNL     1      -3.715   3.993  15.041  1.00  0.00    -0.070 N 
ATOM     12  H22 UNL     1      -2.949   3.648  15.621  1.00  0.00     0.277 HD
ATOM     13  H21 UNL     1      -3.793   3.181  14.429  1.00  0.00     0.277 HD
ENDBRANCH   1   7
TORSDOF 2
ENDMDL
MODEL 2
REMARK VINA RESULT: -6.239241597      0.594      1.191
REMARK  2 active torsions:
REMARK  status: ('A' for Active; 'I' for Inactive)
REMARK    1  A    between atoms: C2_2  and  C4_4 
REMARK    2  A    between atoms: C4_4  and  C6_7 
ROOT
HETATM    1  C4  UNL     1      -5.710   2.358  16.024  1.00  0.00     0.126 C 
HETATM    2  C5  UNL     1      -4.639   1.331  15.902  1.00  0.00     0.066 C 
HETATM    3  N1  UNL     1      -3.796   0.543  15.817  1.00  0.00    -0.197 NA
ENDROOT
BRANCH   1   4
HETATM    4  C2  UNL     1      -6.563   2.023  17.187  1.00  0.00    -0.003 C 
HETATM    5  C1  UNL     1      -6.421   2.995  18.341  1.00  0.00     0.011 C 
HETATM    6  C3  UNL     1      -8.013   1.806  16.933  1.00  0.00     0.011 C 
ENDBRANCH   1   4
BRANCH   1   7
HETATM    7  C6  UNL     1      -5.092   3.712  15.996  1.00  0.00     0.203 C 
HETATM    8  C7  UNL     1      -5.854   4.780  15.302  1.00  0.00     0.036 C 
HETATM    9  C8  UNL     1      -4.805   5.669  14.658  1.00  0.00     0.029 C 
HETATM   10  C9  UNL     1      -3.552   4.855  14.680  1.00  0.00     0.233 C 
HETATM   11  N2  UNL     1      -3.800   3.607  15.347  1.00  0.00    -0.070 N 
ATOM     12  H22 UNL     1      -3.052   3.343  15.988  1.00  0.00     0.277 HD
ATOM     13  H21 UNL     1      -3.732   2.803  14.724  1.00  0.00     0.277 HD
ENDBRANCH   1   7
TORSDOF 2
ENDMDL
MODEL 3
REMARK VINA RESULT: -5.748346901      1.956      2.505
REMARK  2 active torsions:
REMARK  status: ('A' for Active; 'I' for Inactive)
REMARK    1  A    between atoms: C2_2  and  C4_4 
REMARK    2  A    between atoms: C4_4  and  C6_7 
ROOT
HETATM    1  C4  UNL     1      -5.953   2.454  15.982  1.00  0.00     0.126 C 
HETATM    2  C5  UNL     1      -5.800   1.137  16.661  1.00  0.00     0.066 C 
HETATM    3  N1  UNL     1      -5.663   0.115  17.187  1.00  0.00    -0.197 NA
ENDROOT
BRANCH   1   4
HETATM    4  C2  UNL     1      -6.003   3.518  17.010  1.00  0.00    -0.003 C 
HETATM    5  C1  UNL     1      -6.793   4.737  16.580  1.00  0.00     0.011 C 
HETATM    6  C3  UNL     1      -6.447   3.130  18.377  1.00  0.00     0.011 C 
ENDBRANCH   1   4
BRANCH   1   7
HETATM    7  C6  UNL     1      -4.919   2.577  14.919  1.00  0.00     0.203 C 
HETATM    8  C7  UNL     1      -5.284   3.373  13.720  1.00  0.00     0.036 C 
HETATM    9  C8  UNL     1      -4.592   2.688  12.556  1.00  0.00     0.029 C 
HETATM   10  C9  UNL     1      -4.210   1.342  13.081  1.00  0.00     0.233 C 
HETATM   11  N2  UNL     1      -4.572   1.245  14.467  1.00  0.00    -0.070 N 
ATOM     12  H22 UNL     1      -3.849   0.806  15.038  1.00  0.00     0.277 HD
ATOM     13  H21 UNL     1      -5.309   0.561  14.638  1.00  0.00     0.277 HD
ENDBRANCH   1   7
TORSDOF 2
ENDMDL
MODEL 4
REMARK VINA RESULT: -5.611871900      1.270      1.641
REMARK  2 active torsions:
REMARK  status: ('A' for Active; 'I' for Inactive)
REMARK    1  A    between atoms: C2_2  and  C4_4 
REMARK    2  A    between atoms: C4_4  and  C6_7 
ROOT
HETATM    1  C4  UNL     1      -5.696   2.816  15.739  1.00  0.00     0.126 C 
HETATM    2  C5  UNL     1      -4.681   1.744  15.941  1.00  0.00     0.066 C 
HETATM    3  N1  UNL     1      -3.880   0.924  16.095  1.00  0.00    -0.197 NA
ENDROOT
BRANCH   1   4
HETATM    4  C2  UNL     1      -6.010   3.429  17.050  1.00  0.00    -0.003 C 
HETATM    5  C1  UNL     1      -7.050   4.528  16.969  1.00  0.00     0.011 C 
HETATM    6  C3  UNL     1      -6.380   2.514  18.164  1.00  0.00     0.011 C 
ENDBRANCH   1   4
BRANCH   1   7
HETATM    7  C6  UNL     1      -5.238   3.721  14.652  1.00  0.00     0.203 C 
HETATM    8  C7  UNL     1      -4.888   3.088  13.355  1.00  0.00     0.036 C 
HETATM    9  C8  UNL     1      -3.735   3.906  12.805  1.00  0.00     0.029 C 
HETATM   10  C9  UNL     1      -3.237   4.694  13.973  1.00  0.00     0.233 C 
HETATM   11  N2  UNL     1      -4.064   4.433  15.118  1.00  0.00    -0.070 N 
ATOM     12  H22 UNL     1      -4.292   5.277  15.645  1.00  0.00     0.277 HD
ATOM     13  H21 UNL     1      -3.570   3.941  15.862  1.00  0.00     0.277 HD
ENDBRANCH   1   7
TORSDOF 2
ENDMDL
MODEL 5
REMARK VINA RESULT: -5.595422744      2.852      3.865
REMARK  2 active torsions:
REMARK  status: ('A' for Active; 'I' for Inactive)
REMARK    1  A    between atoms: C2_2  and  C4_4 
REMARK    2  A    between atoms: C4_4  and  C6_7 
ROOT
HETATM    1  C4  UNL     1      -5.066   2.604  14.337  1.00  0.00     0.126 C 
HETATM    2  C5  UNL     1      -4.498   1.866  15.499  1.00  0.00     0.066 C 
HETATM    3  N1  UNL     1      -4.040   1.293  16.394  1.00  0.00    -0.197 NA
ENDROOT
BRANCH   1   4
HETATM    4  C2  UNL     1      -5.001   4.056  14.616  1.00  0.00    -0.003 C 
HETATM    5  C1  UNL     1      -5.927   4.500  15.730  1.00  0.00     0.011 C 
HETATM    6  C3  UNL     1      -3.657   4.648  14.859  1.00  0.00     0.011 C 
ENDBRANCH   1   4
BRANCH   1   7
HETATM    7  C6  UNL     1      -4.421   2.117  13.088  1.00  0.00     0.203 C 
HETATM    8  C7  UNL     1      -5.173   2.320  11.824  1.00  0.00     0.036 C 
HETATM    9  C8  UNL     1      -4.852   1.111  10.965  1.00  0.00     0.029 C 
HETATM   10  C9  UNL     1      -4.273   0.113  11.916  1.00  0.00     0.233 C 
HETATM   11  N2  UNL     1      -4.182   0.694  13.226  1.00  0.00    -0.070 N 
ATOM     12  H22 UNL     1      -3.300   0.482  13.694  1.00  0.00     0.277 HD
ATOM     13  H21 UNL     1      -4.802   0.249  13.902  1.00  0.00     0.277 HD
ENDBRANCH   1   7
TORSDOF 2
ENDMDL
