MODEL 1
REMARK VINA RESULT: -7.605957156      0.000      0.000
REMARK  4 active torsions:
REMARK  status: ('A' for Active; 'I' for Inactive)
REMARK       I    between atoms: C2_5  and  N3_6 
REMARK       I    between atoms: C2_5  and  N5_20 
REMARK    1  A    between atoms: N3_6  and  C3_8 
REMARK    2  A    between atoms: C5_12  and  C6_13 
REMARK    3  A    between atoms: C6_13  and  C7_14 
REMARK    4  A    between atoms: N5_20  and  C12_22 
ROOT
HETATM    1  N1  UNL     1      -1.614   4.408   9.571  1.00  0.00    -0.171 NA
HETATM    2  C1  UNL     1      -1.310   5.213  10.339  1.00  0.00     0.196 C 
HETATM    3  N2  UNL     1      -0.951   6.194  11.268  1.00  0.00    -0.126 N 
ATOM      4  H2  UNL     1      -0.876   7.162  10.957  1.00  0.00     0.197 HD
HETATM    5  C2  UNL     1      -0.712   5.915  12.513  1.00  0.00     0.689 C 
HETATM    6  N3  UNL     1      -0.828   4.557  12.904  1.00  0.00    -0.170 N 
ATOM      7  H3  UNL     1       0.007   3.977  12.993  1.00  0.00     0.186 HD
HETATM    8  N5  UNL     1      -0.350   6.930  13.441  1.00  0.00    -0.219 N 
ATOM      9  H5  UNL     1       0.002   6.662  14.360  1.00  0.00     0.178 HD
ENDROOT
BRANCH   6  10
HETATM   10  C3  UNL     1      -2.015   4.045  13.153  1.00  0.00     0.164 A 
HETATM   11  N4  UNL     1      -2.582   2.984  12.575  1.00  0.00    -0.345 N 
HETATM   12  C4  UNL     1      -3.771   2.629  12.960  1.00  0.00     0.104 A 
ATOM     13  H4  UNL     1      -2.092   2.463  11.847  1.00  0.00     0.167 HD
HETATM   14  C5  UNL     1      -4.378   3.366  13.940  1.00  0.00     0.002 A 
HETATM   15  S1  UNL     1      -3.197   4.552  14.271  1.00  0.00    -0.057 SA
BRANCH  14  16
HETATM   16  C6  UNL     1      -5.734   3.179  14.566  1.00  0.00     0.052 C 
BRANCH  16  17
HETATM   17  C7  UNL     1      -5.614   2.592  15.934  1.00  0.00    -0.010 C 
HETATM   18  C8  UNL     1      -5.198   1.142  15.899  1.00  0.00     0.005 C 
HETATM   19  C9  UNL     1      -5.790   0.634  17.213  1.00  0.00     0.000 C 
HETATM   20  C10 UNL     1      -7.183   1.221  17.174  1.00  0.00     0.000 C 
HETATM   21  C11 UNL     1      -6.978   2.594  16.578  1.00  0.00     0.005 C 
ENDBRANCH  16  17
ENDBRANCH  14  16
ENDBRANCH   6  10
BRANCH   8  22
HETATM   22  C12 UNL     1      -0.467   8.316  13.114  1.00  0.00     0.131 C 
HETATM   23  C13 UNL     1       0.862   9.038  13.363  1.00  0.00     0.298 C 
HETATM   24  N6  UNL     1       0.604  10.359  13.909  1.00  0.00     0.090 N 
HETATM   25  C14 UNL     1      -0.463  11.027  13.191  1.00  0.00     0.273 C 
HETATM   26  C18 UNL     1       0.262  10.174  15.325  1.00  0.00     0.273 C 
HETATM   27  C15 UNL     1      -1.775  10.376  13.588  1.00  0.00     0.037 C 
HETATM   28  C16 UNL     1      -1.472   8.965  14.040  1.00  0.00     0.014 C 
HETATM   29  C17 UNL     1      -0.812   9.089  15.415  1.00  0.00     0.037 C 
ENDBRANCH   8  22
TORSDOF 4
ENDMDL
MODEL 2
REMARK VINA RESULT: -7.594022553      3.530      5.276
REMARK  4 active torsions:
REMARK  status: ('A' for Active; 'I' for Inactive)
REMARK       I    between atoms: C2_5  and  N3_6 
REMARK       I    between atoms: C2_5  and  N5_20 
REMARK    1  A    between atoms: N3_6  and  C3_8 
REMARK    2  A    between atoms: C5_12  and  C6_13 
REMARK    3  A    between atoms: C6_13  and  C7_14 
REMARK    4  A    between atoms: N5_20  and  C12_22 
ROOT
HETATM    1  N1  UNL     1      -4.065   4.746   8.986  1.00  0.00    -0.171 NA
HETATM    2  C1  UNL     1      -2.917   4.680   8.898  1.00  0.00     0.196 C 
HETATM    3  N2  UNL     1      -1.525   4.612   8.795  1.00  0.00    -0.126 N 
ATOM      4  H2  UNL     1      -1.046   5.257   8.167  1.00  0.00     0.197 HD
HETATM    5  C2  UNL     1      -0.820   3.756   9.470  1.00  0.00     0.689 C 
HETATM    6  N3  UNL     1      -1.525   2.877  10.332  1.00  0.00    -0.170 N 
ATOM      7  H3  UNL     1      -1.728   1.923  10.033  1.00  0.00     0.186 HD
HETATM    8  N5  UNL     1       0.596   3.706   9.350  1.00  0.00    -0.219 N 
ATOM      9  H5  UNL     1       1.102   2.917   9.751  1.00  0.00     0.178 HD
ENDROOT
BRANCH   6  10
HETATM   10  C3  UNL     1      -1.917   3.294  11.517  1.00  0.00     0.164 A 
HETATM   11  N4  UNL     1      -1.232   4.039  12.387  1.00  0.00    -0.345 N 
HETATM   12  C4  UNL     1      -1.795   4.351  13.515  1.00  0.00     0.104 A 
ATOM     13  H4  UNL     1      -0.287   4.356  12.171  1.00  0.00     0.167 HD
HETATM   14  C5  UNL     1      -3.064   3.896  13.750  1.00  0.00     0.002 A 
HETATM   15  S1  UNL     1      -3.398   3.029  12.319  1.00  0.00    -0.057 SA
BRANCH  14  16
HETATM   16  C6  UNL     1      -3.940   4.106  14.956  1.00  0.00     0.052 C 
BRANCH  16  17
HETATM   17  C7  UNL     1      -4.884   2.961  15.135  1.00  0.00    -0.010 C 
HETATM   18  C8  UNL     1      -6.212   3.400  15.701  1.00  0.00     0.005 C 
HETATM   19  C9  UNL     1      -6.674   2.119  16.395  1.00  0.00     0.000 C 
HETATM   20  C10 UNL     1      -5.423   1.696  17.132  1.00  0.00     0.000 C 
HETATM   21  C11 UNL     1      -4.308   2.022  16.164  1.00  0.00     0.005 C 
ENDBRANCH  16  17
ENDBRANCH  14  16
ENDBRANCH   6  10
BRANCH   8  22
HETATM   22  C12 UNL     1       1.325   4.736   8.679  1.00  0.00     0.131 C 
HETATM   23  C13 UNL     1       1.679   4.297   7.253  1.00  0.00     0.298 C 
HETATM   24  N6  UNL     1       3.010   4.769   6.916  1.00  0.00     0.090 N 
HETATM   25  C14 UNL     1       3.200   6.148   7.321  1.00  0.00     0.273 C 
HETATM   26  C18 UNL     1       3.961   3.878   7.591  1.00  0.00     0.273 C 
HETATM   27  C15 UNL     1       3.344   6.177   8.831  1.00  0.00     0.037 C 
HETATM   28  C16 UNL     1       2.644   4.956   9.386  1.00  0.00     0.014 C 
HETATM   29  C17 UNL     1       3.542   3.763   9.058  1.00  0.00     0.037 C 
ENDBRANCH   8  22
TORSDOF 4
ENDMDL
MODEL 3
REMARK VINA RESULT: -7.520819416      3.649      4.709
REMARK  4 active torsions:
REMARK  status: ('A' for Active; 'I' for Inactive)
REMARK       I    between atoms: C2_5  and  N3_6 
REMARK       I    between atoms: C2_5  and  N5_20 
REMARK    1  A    between atoms: N3_6  and  C3_8 
REMARK    2  A    between atoms: C5_12  and  C6_13 
REMARK    3  A    between atoms: C6_13  and  C7_14 
REMARK    4  A    between atoms: N5_20  and  C12_22 
ROOT
HETATM    1  N1  UNL     1      -5.021   5.303   9.834  1.00  0.00    -0.171 NA
HETATM    2  C1  UNL     1      -3.904   5.107   9.618  1.00  0.00     0.196 C 
HETATM    3  N2  UNL     1      -2.549   4.882   9.362  1.00  0.00    -0.126 N 
ATOM      4  H2  UNL     1      -2.033   5.565   8.808  1.00  0.00     0.197 HD
HETATM    5  C2  UNL     1      -1.925   3.833   9.804  1.00  0.00     0.689 C 
HETATM    6  N3  UNL     1      -2.680   2.908  10.569  1.00  0.00    -0.170 N 
ATOM      7  H3  UNL     1      -3.042   2.060  10.134  1.00  0.00     0.186 HD
HETATM    8  N5  UNL     1      -0.545   3.625   9.531  1.00  0.00    -0.219 N 
ATOM      9  H5  UNL     1      -0.128   2.717   9.737  1.00  0.00     0.178 HD
ENDROOT
BRANCH   6  10
HETATM   10  C3  UNL     1      -2.914   3.146  11.842  1.00  0.00     0.164 A 
HETATM   11  N4  UNL     1      -2.183   3.883  12.682  1.00  0.00    -0.345 N 
HETATM   12  C4  UNL     1      -2.581   4.001  13.912  1.00  0.00     0.104 A 
ATOM     13  H4  UNL     1      -1.330   4.344  12.363  1.00  0.00     0.167 HD
HETATM   14  C5  UNL     1      -3.733   3.359  14.281  1.00  0.00     0.002 A 
HETATM   15  S1  UNL     1      -4.199   2.605  12.823  1.00  0.00    -0.057 SA
BRANCH  14  16
HETATM   16  C6  UNL     1      -4.412   3.326  15.624  1.00  0.00     0.052 C 
BRANCH  16  17
HETATM   17  C7  UNL     1      -5.491   2.292  15.650  1.00  0.00    -0.010 C 
HETATM   18  C8  UNL     1      -6.650   2.698  16.528  1.00  0.00     0.005 C 
HETATM   19  C9  UNL     1      -7.210   1.333  16.925  1.00  0.00     0.000 C 
HETATM   20  C10 UNL     1      -5.955   0.579  17.302  1.00  0.00     0.000 C 
HETATM   21  C11 UNL     1      -4.939   1.040  16.282  1.00  0.00     0.005 C 
ENDBRANCH  16  17
ENDBRANCH  14  16
ENDBRANCH   6  10
BRANCH   8  22
HETATM   22  C12 UNL     1       0.270   4.659   8.976  1.00  0.00     0.131 C 
HETATM   23  C13 UNL     1       1.183   4.090   7.883  1.00  0.00     0.298 C 
HETATM   24  N6  UNL     1       2.485   4.730   7.955  1.00  0.00     0.090 N 
HETATM   25  C14 UNL     1       2.359   6.164   8.125  1.00  0.00     0.273 C 
HETATM   26  C18 UNL     1       3.197   4.119   9.084  1.00  0.00     0.273 C 
HETATM   27  C15 UNL     1       1.915   6.431   9.551  1.00  0.00     0.037 C 
HETATM   28  C16 UNL     1       1.191   5.199  10.047  1.00  0.00     0.014 C 
HETATM   29  C17 UNL     1       2.268   4.143  10.299  1.00  0.00     0.037 C 
ENDBRANCH   8  22
TORSDOF 4
ENDMDL
MODEL 4
REMARK VINA RESULT: -7.391640609      3.447      4.162
REMARK  4 active torsions:
REMARK  status: ('A' for Active; 'I' for Inactive)
REMARK       I    between atoms: C2_5  and  N3_6 
REMARK       I    between atoms: C2_5  and  N5_20 
REMARK    1  A    between atoms: N3_6  and  C3_8 
REMARK    2  A    between atoms: C5_12  and  C6_13 
REMARK    3  A    between atoms: C6_13  and  C7_14 
REMARK    4  A    between atoms: N5_20  and  C12_22 
ROOT
HETATM    1  N1  UNL     1      -5.200   5.069  10.402  1.00  0.00    -0.171 NA
HETATM    2  C1  UNL     1      -4.049   5.081  10.315  1.00  0.00     0.196 C 
HETATM    3  N2  UNL     1      -2.655   5.104  10.219  1.00  0.00    -0.126 N 
ATOM      4  H2  UNL     1      -2.189   5.993  10.041  1.00  0.00     0.197 HD
HETATM    5  C2  UNL     1      -1.933   4.033  10.350  1.00  0.00     0.689 C 
HETATM    6  N3  UNL     1      -2.622   2.818  10.597  1.00  0.00    -0.170 N 
ATOM      7  H3  UNL     1      -2.798   2.166   9.832  1.00  0.00     0.186 HD
HETATM    8  N5  UNL     1      -0.516   4.081  10.249  1.00  0.00    -0.219 N 
ATOM      9  H5  UNL     1       0.008   3.208  10.179  1.00  0.00     0.178 HD
ENDROOT
BRANCH   6  10
HETATM   10  C3  UNL     1      -3.033   2.532  11.814  1.00  0.00     0.164 A 
HETATM   11  N4  UNL     1      -2.735   3.172  12.947  1.00  0.00    -0.345 N 
HETATM   12  C4  UNL     1      -3.244   2.736  14.059  1.00  0.00     0.104 A 
ATOM     13  H4  UNL     1      -2.120   3.986  12.939  1.00  0.00     0.167 HD
HETATM   14  C5  UNL     1      -4.061   1.639  14.007  1.00  0.00     0.002 A 
HETATM   15  S1  UNL     1      -4.062   1.279  12.339  1.00  0.00    -0.057 SA
BRANCH  14  16
HETATM   16  C6  UNL     1      -4.774   0.932  15.129  1.00  0.00     0.052 C 
BRANCH  16  17
HETATM   17  C7  UNL     1      -5.003   1.857  16.281  1.00  0.00    -0.010 C 
HETATM   18  C8  UNL     1      -5.557   1.140  17.487  1.00  0.00     0.005 C 
HETATM   19  C9  UNL     1      -6.304   2.274  18.187  1.00  0.00     0.000 C 
HETATM   20  C10 UNL     1      -7.052   2.910  17.037  1.00  0.00     0.000 C 
HETATM   21  C11 UNL     1      -6.067   2.852  15.891  1.00  0.00     0.005 C 
ENDBRANCH  16  17
ENDBRANCH  14  16
ENDBRANCH   6  10
BRANCH   8  22
HETATM   22  C12 UNL     1       0.191   5.323  10.244  1.00  0.00     0.131 C 
HETATM   23  C13 UNL     1       0.632   5.680   8.820  1.00  0.00     0.298 C 
HETATM   24  N6  UNL     1       1.953   6.284   8.857  1.00  0.00     0.090 N 
HETATM   25  C14 UNL     1       2.054   7.266   9.918  1.00  0.00     0.273 C 
HETATM   26  C18 UNL     1       2.915   5.191   9.047  1.00  0.00     0.273 C 
HETATM   27  C15 UNL     1       2.125   6.523  11.240  1.00  0.00     0.037 C 
HETATM   28  C16 UNL     1       1.463   5.178  11.050  1.00  0.00     0.014 C 
HETATM   29  C17 UNL     1       2.434   4.336  10.221  1.00  0.00     0.037 C 
ENDBRANCH   8  22
TORSDOF 4
ENDMDL
MODEL 5
REMARK VINA RESULT: -7.229235979      1.876      2.200
REMARK  4 active torsions:
REMARK  status: ('A' for Active; 'I' for Inactive)
REMARK       I    between atoms: C2_5  and  N3_6 
REMARK       I    between atoms: C2_5  and  N5_20 
REMARK    1  A    between atoms: N3_6  and  C3_8 
REMARK    2  A    between atoms: C5_12  and  C6_13 
REMARK    3  A    between atoms: C6_13  and  C7_14 
REMARK    4  A    between atoms: N5_20  and  C12_22 
ROOT
HETATM    1  N1  UNL     1      -5.886   5.836  10.050  1.00  0.00    -0.171 NA
HETATM    2  C1  UNL     1      -5.017   6.319  10.636  1.00  0.00     0.196 C 
HETATM    3  N2  UNL     1      -3.972   6.906  11.354  1.00  0.00    -0.126 N 
ATOM      4  H2  UNL     1      -4.083   7.862  11.691  1.00  0.00     0.197 HD
HETATM    5  C2  UNL     1      -2.866   6.276  11.610  1.00  0.00     0.689 C 
HETATM    6  N3  UNL     1      -2.754   4.948  11.124  1.00  0.00    -0.170 N 
ATOM      7  H3  UNL     1      -2.236   4.760  10.265  1.00  0.00     0.186 HD
HETATM    8  N5  UNL     1      -1.817   6.893  12.344  1.00  0.00    -0.219 N 
ATOM      9  H5  UNL     1      -0.901   6.445  12.376  1.00  0.00     0.178 HD
ENDROOT
BRANCH   6  10
HETATM   10  C3  UNL     1      -3.318   3.958  11.783  1.00  0.00     0.164 A 
HETATM   11  N4  UNL     1      -4.206   3.074  11.323  1.00  0.00    -0.345 N 
HETATM   12  C4  UNL     1      -4.650   2.162  12.134  1.00  0.00     0.104 A 
ATOM     13  H4  UNL     1      -4.528   3.114  10.356  1.00  0.00     0.167 HD
HETATM   14  C5  UNL     1      -4.182   2.158  13.420  1.00  0.00     0.002 A 
HETATM   15  S1  UNL     1      -3.107   3.484  13.407  1.00  0.00    -0.057 SA
BRANCH  14  16
HETATM   16  C6  UNL     1      -4.524   1.227  14.552  1.00  0.00     0.052 C 
BRANCH  16  17
HETATM   17  C7  UNL     1      -4.819   1.993  15.801  1.00  0.00    -0.010 C 
HETATM   18  C8  UNL     1      -5.186   1.089  16.952  1.00  0.00     0.005 C 
HETATM   19  C9  UNL     1      -6.052   2.024  17.796  1.00  0.00     0.000 C 
HETATM   20  C10 UNL     1      -6.954   2.641  16.751  1.00  0.00     0.000 C 
HETATM   21  C11 UNL     1      -6.042   2.843  15.563  1.00  0.00     0.005 C 
ENDBRANCH  16  17
ENDBRANCH  14  16
ENDBRANCH   6  10
BRANCH   8  22
HETATM   22  C12 UNL     1      -2.016   8.127  13.037  1.00  0.00     0.131 C 
HETATM   23  C13 UNL     1      -1.768   9.313  12.098  1.00  0.00     0.298 C 
HETATM   24  N6  UNL     1      -1.097  10.377  12.825  1.00  0.00     0.090 N 
HETATM   25  C14 UNL     1      -1.704  10.591  14.124  1.00  0.00     0.273 C 
HETATM   26  C18 UNL     1       0.312   9.983  12.952  1.00  0.00     0.273 C 
HETATM   27  C15 UNL     1      -1.304   9.437  15.025  1.00  0.00     0.037 C 
HETATM   28  C16 UNL     1      -0.991   8.250  14.143  1.00  0.00     0.014 C 
HETATM   29  C17 UNL     1       0.356   8.550  13.485  1.00  0.00     0.037 C 
ENDBRANCH   8  22
TORSDOF 4
ENDMDL
