MODEL 1
REMARK VINA RESULT: -7.773709009      0.000      0.000
REMARK  15 active torsions:
REMARK  status: ('A' for Active; 'I' for Inactive)
REMARK       I    between atoms: C2_2  and  N1_4 
REMARK    1  A    between atoms: C3_5  and  N2_6 
REMARK    2  A    between atoms: N2_6  and  C4_8 
REMARK    3  A    between atoms: C4_8  and  C5_9 
REMARK    4  A    between atoms: C5_9  and  N3_10 
REMARK    5  A    between atoms: N3_10  and  C6_12 
REMARK    6  A    between atoms: N4_15  and  C9_16 
REMARK    7  A    between atoms: C10_18  and  O3_19 
REMARK    8  A    between atoms: C10_18  and  C11_21 
REMARK    9  A    between atoms: C11_21  and  O4_22 
REMARK   10  A    between atoms: N5_24  and  O5_25 
REMARK   11  A    between atoms: C12_27  and  O6_28 
REMARK   12  A    between atoms: N8_35  and  N9_36 
REMARK   13  A    between atoms: N9_36  and  O7_38 
REMARK   14  A    between atoms: O7_38  and  C14_39 
REMARK   15  A    between atoms: C14_39  and  C16_41 
ROOT
HETATM    1  C4  UNL     1     -10.471   4.849   9.662  1.00  0.00     0.157 C 
ENDROOT
BRANCH   1   2
HETATM    2  N2  UNL     1     -11.147   5.241   8.463  1.00  0.00    -0.224 N 
ATOM      3  H2  UNL     1     -10.595   5.527   7.654  1.00  0.00     0.177 HD
BRANCH   2   4
HETATM    4  C3  UNL     1     -12.583   5.245   8.366  1.00  0.00     0.682 C 
HETATM    5  N1  UNL     1     -13.268   5.178   7.099  1.00  0.00    -0.123 N 
HETATM    6  C2  UNL     1     -12.636   5.736   5.973  1.00  0.00     0.236 C 
HETATM    7  C17 UNL     1     -14.579   4.550   7.013  1.00  0.00     0.143 C 
HETATM    8  C1  UNL     1     -13.167   5.702   4.599  1.00  0.00     0.118 C 
HETATM    9  O1  UNL     1     -11.510   6.327   6.116  1.00  0.00    -0.273 OA
HETATM   10  N8  UNL     1     -15.059   4.262   8.336  1.00  0.00    -0.261 N 
HETATM   11  C18 UNL     1     -14.453   3.266   6.251  1.00  0.00     0.065 C 
HETATM   12  C19 UNL     1     -15.515   5.493   6.298  1.00  0.00     0.065 C 
HETATM   13  C13 UNL     1     -14.738   5.235   9.307  1.00  0.00     0.287 C 
HETATM   14  N7  UNL     1     -13.300   5.274   9.439  1.00  0.00    -0.208 N 
ATOM     15  H7  UNL     1     -12.861   5.323  10.358  1.00  0.00     0.179 HD
BRANCH  10  16
HETATM   16  N9  UNL     1     -15.564   3.084   8.649  1.00  0.00    -0.205 N 
ATOM     17  H9  UNL     1     -15.664   2.377   7.919  1.00  0.00     0.216 HD
BRANCH  16  18
HETATM   18  O7  UNL     1     -15.943   2.795   9.881  1.00  0.00    -0.249 OA
BRANCH  18  19
HETATM   19  C14 UNL     1     -15.412   1.556  10.234  1.00  0.00     0.250 C 
HETATM   20  C15 UNL     1     -15.145   1.510  11.748  1.00  0.00     0.054 C 
BRANCH  19  21
HETATM   21  C16 UNL     1     -14.127   1.291   9.563  1.00  0.00     0.205 C 
HETATM   22  O8  UNL     1     -14.020   0.287   8.794  1.00  0.00    -0.646 OA
HETATM   23  O9  UNL     1     -13.006   2.094   9.730  1.00  0.00    -0.646 OA
ENDBRANCH  19  21
ENDBRANCH  18  19
ENDBRANCH  16  18
ENDBRANCH  10  16
ENDBRANCH   2   4
ENDBRANCH   1   2
BRANCH   1  24
HETATM   24  C5  UNL     1      -8.994   4.990   9.675  1.00  0.00     0.141 C 
BRANCH  24  25
HETATM   25  N3  UNL     1      -8.275   4.032  10.455  1.00  0.00    -0.374 N 
ATOM     26  H3  UNL     1      -7.732   4.355  11.256  1.00  0.00     0.161 HD
BRANCH  25  27
HETATM   27  C6  UNL     1      -8.292   2.749  10.174  1.00  0.00     0.117 A 
HETATM   28  C7  UNL     1      -7.323   2.030   9.510  1.00  0.00     0.068 A 
HETATM   29  C8  UNL     1      -7.762   0.725   9.444  1.00  0.00     0.117 A 
HETATM   30  N4  UNL     1      -8.959   0.654  10.047  1.00  0.00    -0.268 N 
HETATM   31  N6  UNL     1      -9.263   1.875  10.479  1.00  0.00    -0.281 N 
ATOM     32  H6  UNL     1     -10.121   2.114  10.977  1.00  0.00     0.189 HD
BRANCH  30  33
HETATM   33  C9  UNL     1      -9.797  -0.480  10.227  1.00  0.00     0.293 C 
HETATM   34  O2  UNL     1     -11.089  -0.156  10.706  1.00  0.00    -0.308 OA
HETATM   35  C10 UNL     1     -11.625  -1.439  10.816  1.00  0.00     0.275 C 
HETATM   36  N5  UNL     1     -10.589  -2.248  11.443  1.00  0.00    -0.104 NA
HETATM   37  C12 UNL     1      -9.350  -1.468  11.259  1.00  0.00     0.274 C 
BRANCH  35  38
HETATM   38  O3  UNL     1     -11.870  -1.872   9.504  1.00  0.00    -0.350 OA
ATOM     39  H3  UNL     1     -12.530  -2.553   9.570  1.00  0.00     0.214 HD
ENDBRANCH  35  38
BRANCH  35  40
HETATM   40  C11 UNL     1     -12.851  -1.514  11.669  1.00  0.00     0.253 C 
BRANCH  40  41
HETATM   41  O4  UNL     1     -13.954  -1.747  10.885  1.00  0.00    -0.394 OA
ATOM     42  H4  UNL     1     -14.188  -2.668  10.921  1.00  0.00     0.209 HD
ENDBRANCH  40  41
ENDBRANCH  35  40
BRANCH  36  43
HETATM   43  O5  UNL     1     -10.423  -3.384  10.700  1.00  0.00    -0.306 OA
ATOM     44  H5  UNL     1     -10.697  -4.126  11.226  1.00  0.00     0.237 HD
ENDBRANCH  36  43
BRANCH  37  45
HETATM   45  O6  UNL     1      -9.092  -0.884  12.504  1.00  0.00    -0.374 OA
ATOM     46  H6  UNL     1      -9.537  -1.321  13.221  1.00  0.00     0.212 HD
ENDBRANCH  37  45
ENDBRANCH  30  33
ENDBRANCH  25  27
ENDBRANCH  24  25
ENDBRANCH   1  24
TORSDOF 15
ENDMDL
MODEL 2
REMARK VINA RESULT: -7.424683324      2.290      5.580
REMARK  15 active torsions:
REMARK  status: ('A' for Active; 'I' for Inactive)
REMARK       I    between atoms: C2_2  and  N1_4 
REMARK    1  A    between atoms: C3_5  and  N2_6 
REMARK    2  A    between atoms: N2_6  and  C4_8 
REMARK    3  A    between atoms: C4_8  and  C5_9 
REMARK    4  A    between atoms: C5_9  and  N3_10 
REMARK    5  A    between atoms: N3_10  and  C6_12 
REMARK    6  A    between atoms: N4_15  and  C9_16 
REMARK    7  A    between atoms: C10_18  and  O3_19 
REMARK    8  A    between atoms: C10_18  and  C11_21 
REMARK    9  A    between atoms: C11_21  and  O4_22 
REMARK   10  A    between atoms: N5_24  and  O5_25 
REMARK   11  A    between atoms: C12_27  and  O6_28 
REMARK   12  A    between atoms: N8_35  and  N9_36 
REMARK   13  A    between atoms: N9_36  and  O7_38 
REMARK   14  A    between atoms: O7_38  and  C14_39 
REMARK   15  A    between atoms: C14_39  and  C16_41 
ROOT
HETATM    1  C4  UNL     1     -15.170   4.622  10.237  1.00  0.00     0.157 C 
ENDROOT
BRANCH   1   2
HETATM    2  N2  UNL     1     -13.822   4.420   9.801  1.00  0.00    -0.224 N 
ATOM      3  H2  UNL     1     -13.198   3.847  10.370  1.00  0.00     0.177 HD
BRANCH   2   4
HETATM    4  C3  UNL     1     -13.320   5.001   8.584  1.00  0.00     0.682 C 
HETATM    5  N1  UNL     1     -13.761   4.562   7.283  1.00  0.00    -0.123 N 
HETATM    6  C2  UNL     1     -14.152   3.219   7.134  1.00  0.00     0.236 C 
HETATM    7  C17 UNL     1     -13.786   5.499   6.169  1.00  0.00     0.143 C 
HETATM    8  C1  UNL     1     -14.681   2.623   5.895  1.00  0.00     0.118 C 
HETATM    9  O1  UNL     1     -14.055   2.425   8.133  1.00  0.00    -0.273 OA
HETATM   10  N8  UNL     1     -13.145   6.724   6.559  1.00  0.00    -0.261 N 
HETATM   11  C18 UNL     1     -15.212   5.790   5.812  1.00  0.00     0.065 C 
HETATM   12  C19 UNL     1     -13.072   4.870   4.998  1.00  0.00     0.065 C 
HETATM   13  C13 UNL     1     -12.022   6.562   7.398  1.00  0.00     0.287 C 
HETATM   14  N7  UNL     1     -12.473   5.974   8.638  1.00  0.00    -0.208 N 
ATOM     15  H7  UNL     1     -12.131   6.318   9.534  1.00  0.00     0.179 HD
BRANCH  10  16
HETATM   16  N9  UNL     1     -13.696   7.899   6.327  1.00  0.00    -0.205 N 
ATOM     17  H9  UNL     1     -14.708   7.959   6.210  1.00  0.00     0.216 HD
BRANCH  16  18
HETATM   18  O7  UNL     1     -12.973   9.002   6.242  1.00  0.00    -0.249 OA
BRANCH  18  19
HETATM   19  C14 UNL     1     -13.258   9.632   5.031  1.00  0.00     0.250 C 
HETATM   20  C15 UNL     1     -13.935  10.988   5.291  1.00  0.00     0.054 C 
BRANCH  19  21
HETATM   21  C16 UNL     1     -14.182   8.842   4.198  1.00  0.00     0.205 C 
HETATM   22  O8  UNL     1     -13.712   8.018   3.355  1.00  0.00    -0.646 OA
HETATM   23  O9  UNL     1     -15.563   8.953   4.285  1.00  0.00    -0.646 OA
ENDBRANCH  19  21
ENDBRANCH  18  19
ENDBRANCH  16  18
ENDBRANCH  10  16
ENDBRANCH   2   4
ENDBRANCH   1   2
BRANCH   1  24
HETATM   24  C5  UNL     1     -15.726   3.624  11.183  1.00  0.00     0.141 C 
BRANCH  24  25
HETATM   25  N3  UNL     1     -15.756   2.270  10.727  1.00  0.00    -0.374 N 
ATOM     26  H3  UNL     1     -16.332   2.035   9.919  1.00  0.00     0.161 HD
BRANCH  25  27
HETATM   27  C6  UNL     1     -15.066   1.319  11.315  1.00  0.00     0.117 A 
HETATM   28  C7  UNL     1     -15.438   0.580  12.415  1.00  0.00     0.068 A 
HETATM   29  C8  UNL     1     -14.409  -0.299  12.678  1.00  0.00     0.117 A 
HETATM   30  N4  UNL     1     -13.443  -0.098  11.767  1.00  0.00    -0.268 N 
HETATM   31  N6  UNL     1     -13.851   0.874  10.958  1.00  0.00    -0.281 N 
ATOM     32  H6  UNL     1     -13.313   1.234  10.169  1.00  0.00     0.189 HD
BRANCH  30  33
HETATM   33  C9  UNL     1     -12.194  -0.766  11.635  1.00  0.00     0.293 C 
HETATM   34  O2  UNL     1     -11.086   0.114  11.610  1.00  0.00    -0.308 OA
HETATM   35  C10 UNL     1     -10.058  -0.813  11.430  1.00  0.00     0.275 C 
HETATM   36  N5  UNL     1     -10.528  -1.730  10.401  1.00  0.00    -0.104 NA
HETATM   37  C12 UNL     1     -11.988  -1.522  10.360  1.00  0.00     0.274 C 
BRANCH  35  38
HETATM   38  O3  UNL     1      -9.913  -1.475  12.660  1.00  0.00    -0.350 OA
ATOM     39  H3  UNL     1      -9.678  -0.806  13.293  1.00  0.00     0.214 HD
ENDBRANCH  35  38
BRANCH  35  40
HETATM   40  C11 UNL     1      -8.772  -0.210  10.963  1.00  0.00     0.253 C 
BRANCH  40  41
HETATM   41  O4  UNL     1      -8.431  -0.726   9.737  1.00  0.00    -0.394 OA
ATOM     42  H4  UNL     1      -7.763  -0.185   9.332  1.00  0.00     0.209 HD
ENDBRANCH  40  41
ENDBRANCH  35  40
BRANCH  36  43
HETATM   43  O5  UNL     1     -10.350  -3.009  10.852  1.00  0.00    -0.306 OA
ATOM     44  H5  UNL     1      -9.466  -3.280  10.637  1.00  0.00     0.237 HD
ENDBRANCH  36  43
BRANCH  37  45
HETATM   45  O6  UNL     1     -12.220  -0.750   9.218  1.00  0.00    -0.374 OA
ATOM     46  H6  UNL     1     -12.835  -1.150   8.614  1.00  0.00     0.212 HD
ENDBRANCH  37  45
ENDBRANCH  30  33
ENDBRANCH  25  27
ENDBRANCH  24  25
ENDBRANCH   1  24
TORSDOF 15
ENDMDL
MODEL 3
REMARK VINA RESULT: -7.409876577      1.320      1.865
REMARK  15 active torsions:
REMARK  status: ('A' for Active; 'I' for Inactive)
REMARK       I    between atoms: C2_2  and  N1_4 
REMARK    1  A    between atoms: C3_5  and  N2_6 
REMARK    2  A    between atoms: N2_6  and  C4_8 
REMARK    3  A    between atoms: C4_8  and  C5_9 
REMARK    4  A    between atoms: C5_9  and  N3_10 
REMARK    5  A    between atoms: N3_10  and  C6_12 
REMARK    6  A    between atoms: N4_15  and  C9_16 
REMARK    7  A    between atoms: C10_18  and  O3_19 
REMARK    8  A    between atoms: C10_18  and  C11_21 
REMARK    9  A    between atoms: C11_21  and  O4_22 
REMARK   10  A    between atoms: N5_24  and  O5_25 
REMARK   11  A    between atoms: C12_27  and  O6_28 
REMARK   12  A    between atoms: N8_35  and  N9_36 
REMARK   13  A    between atoms: N9_36  and  O7_38 
REMARK   14  A    between atoms: O7_38  and  C14_39 
REMARK   15  A    between atoms: C14_39  and  C16_41 
ROOT
HETATM    1  C4  UNL     1     -10.458   5.959   7.900  1.00  0.00     0.157 C 
ENDROOT
BRANCH   1   2
HETATM    2  N2  UNL     1     -11.615   6.698   8.305  1.00  0.00    -0.224 N 
ATOM      3  H2  UNL     1     -11.507   7.675   8.579  1.00  0.00     0.177 HD
BRANCH   2   4
HETATM    4  C3  UNL     1     -12.925   6.104   8.339  1.00  0.00     0.682 C 
HETATM    5  N1  UNL     1     -13.709   5.904   7.145  1.00  0.00    -0.123 N 
HETATM    6  C2  UNL     1     -13.539   6.808   6.081  1.00  0.00     0.236 C 
HETATM    7  C17 UNL     1     -14.648   4.794   7.069  1.00  0.00     0.143 C 
HETATM    8  C1  UNL     1     -14.214   6.716   4.774  1.00  0.00     0.118 C 
HETATM    9  O1  UNL     1     -12.742   7.799   6.223  1.00  0.00    -0.273 OA
HETATM   10  N8  UNL     1     -14.761   4.173   8.359  1.00  0.00    -0.261 N 
HETATM   11  C18 UNL     1     -14.131   3.786   6.088  1.00  0.00     0.065 C 
HETATM   12  C19 UNL     1     -15.985   5.328   6.614  1.00  0.00     0.065 C 
HETATM   13  C13 UNL     1     -14.718   5.066   9.451  1.00  0.00     0.287 C 
HETATM   14  N7  UNL     1     -13.418   5.697   9.460  1.00  0.00    -0.208 N 
ATOM     15  H7  UNL     1     -12.901   5.817  10.331  1.00  0.00     0.179 HD
BRANCH  10  16
HETATM   16  N9  UNL     1     -14.690   2.864   8.508  1.00  0.00    -0.205 N 
ATOM     17  H9  UNL     1     -14.987   2.261   7.740  1.00  0.00     0.216 HD
BRANCH  16  18
HETATM   18  O7  UNL     1     -14.244   2.314   9.623  1.00  0.00    -0.249 OA
BRANCH  18  19
HETATM   19  C14 UNL     1     -15.310   1.699  10.276  1.00  0.00     0.250 C 
HETATM   20  C15 UNL     1     -15.670   2.482  11.550  1.00  0.00     0.054 C 
BRANCH  19  21
HETATM   21  C16 UNL     1     -14.986   0.323  10.694  1.00  0.00     0.205 C 
HETATM   22  O8  UNL     1     -14.688  -0.542   9.815  1.00  0.00    -0.646 OA
HETATM   23  O9  UNL     1     -14.991  -0.085  12.021  1.00  0.00    -0.646 OA
ENDBRANCH  19  21
ENDBRANCH  18  19
ENDBRANCH  16  18
ENDBRANCH  10  16
ENDBRANCH   2   4
ENDBRANCH   1   2
BRANCH   1  24
HETATM   24  C5  UNL     1      -9.625   5.373   8.979  1.00  0.00     0.141 C 
BRANCH  24  25
HETATM   25  N3  UNL     1      -8.585   4.486   8.562  1.00  0.00    -0.374 N 
ATOM     26  H3  UNL     1      -7.869   4.831   7.923  1.00  0.00     0.161 HD
BRANCH  25  27
HETATM   27  C6  UNL     1      -8.522   3.240   8.975  1.00  0.00     0.117 A 
HETATM   28  C7  UNL     1      -7.548   2.314   8.679  1.00  0.00     0.068 A 
HETATM   29  C8  UNL     1      -7.889   1.147   9.328  1.00  0.00     0.117 A 
HETATM   30  N4  UNL     1      -9.034   1.358   9.996  1.00  0.00    -0.268 N 
HETATM   31  N6  UNL     1      -9.401   2.617   9.774  1.00  0.00    -0.281 N 
ATOM     32  H6  UNL     1     -10.240   3.051  10.161  1.00  0.00     0.189 HD
BRANCH  30  33
HETATM   33  C9  UNL     1      -9.770   0.451  10.808  1.00  0.00     0.293 C 
HETATM   34  O2  UNL     1      -9.560  -0.906  10.467  1.00  0.00    -0.308 OA
HETATM   35  C10 UNL     1     -10.425  -1.511  11.380  1.00  0.00     0.275 C 
HETATM   36  N5  UNL     1     -11.654  -0.731  11.336  1.00  0.00    -0.104 NA
HETATM   37  C12 UNL     1     -11.260   0.544  10.708  1.00  0.00     0.274 C 
BRANCH  35  38
HETATM   38  O3  UNL     1      -9.807  -1.398  12.635  1.00  0.00    -0.350 OA
ATOM     39  H3  UNL     1      -8.973  -1.848  12.559  1.00  0.00     0.214 HD
ENDBRANCH  35  38
BRANCH  35  40
HETATM   40  C11 UNL     1     -10.763  -2.929  11.048  1.00  0.00     0.253 C 
BRANCH  40  41
HETATM   41  O4  UNL     1     -11.934  -2.977  10.333  1.00  0.00    -0.394 OA
ATOM     42  H4  UNL     1     -12.208  -3.880  10.219  1.00  0.00     0.209 HD
ENDBRANCH  40  41
ENDBRANCH  35  40
BRANCH  36  43
HETATM   43  O5  UNL     1     -12.009  -0.416  12.619  1.00  0.00    -0.306 OA
ATOM     44  H5  UNL     1     -12.391  -1.187  13.020  1.00  0.00     0.237 HD
ENDBRANCH  36  43
BRANCH  37  45
HETATM   45  O6  UNL     1     -11.730   0.469   9.392  1.00  0.00    -0.374 OA
ATOM     46  H6  UNL     1     -12.567   0.026   9.319  1.00  0.00     0.212 HD
ENDBRANCH  37  45
ENDBRANCH  30  33
ENDBRANCH  25  27
ENDBRANCH  24  25
ENDBRANCH   1  24
TORSDOF 15
ENDMDL
MODEL 4
REMARK VINA RESULT: -7.363176462      2.495      5.437
REMARK  15 active torsions:
REMARK  status: ('A' for Active; 'I' for Inactive)
REMARK       I    between atoms: C2_2  and  N1_4 
REMARK    1  A    between atoms: C3_5  and  N2_6 
REMARK    2  A    between atoms: N2_6  and  C4_8 
REMARK    3  A    between atoms: C4_8  and  C5_9 
REMARK    4  A    between atoms: C5_9  and  N3_10 
REMARK    5  A    between atoms: N3_10  and  C6_12 
REMARK    6  A    between atoms: N4_15  and  C9_16 
REMARK    7  A    between atoms: C10_18  and  O3_19 
REMARK    8  A    between atoms: C10_18  and  C11_21 
REMARK    9  A    between atoms: C11_21  and  O4_22 
REMARK   10  A    between atoms: N5_24  and  O5_25 
REMARK   11  A    between atoms: C12_27  and  O6_28 
REMARK   12  A    between atoms: N8_35  and  N9_36 
REMARK   13  A    between atoms: N9_36  and  O7_38 
REMARK   14  A    between atoms: O7_38  and  C14_39 
REMARK   15  A    between atoms: C14_39  and  C16_41 
ROOT
HETATM    1  C4  UNL     1     -15.134   4.568  10.412  1.00  0.00     0.157 C 
ENDROOT
BRANCH   1   2
HETATM    2  N2  UNL     1     -13.792   4.236  10.041  1.00  0.00    -0.224 N 
ATOM      3  H2  UNL     1     -13.289   3.532  10.581  1.00  0.00     0.177 HD
BRANCH   2   4
HETATM    4  C3  UNL     1     -13.133   4.865   8.927  1.00  0.00     0.682 C 
HETATM    5  N1  UNL     1     -13.536   4.631   7.562  1.00  0.00    -0.123 N 
HETATM    6  C2  UNL     1     -14.091   3.380   7.241  1.00  0.00     0.236 C 
HETATM    7  C17 UNL     1     -13.358   5.674   6.562  1.00  0.00     0.143 C 
HETATM    8  C1  UNL     1     -14.608   2.997   5.914  1.00  0.00     0.118 C 
HETATM    9  O1  UNL     1     -14.172   2.479   8.146  1.00  0.00    -0.273 OA
HETATM   10  N8  UNL     1     -12.587   6.749   7.123  1.00  0.00    -0.261 N 
HETATM   11  C18 UNL     1     -14.703   6.198   6.162  1.00  0.00     0.065 C 
HETATM   12  C19 UNL     1     -12.653   5.077   5.368  1.00  0.00     0.065 C 
HETATM   13  C13 UNL     1     -11.557   6.344   7.999  1.00  0.00     0.287 C 
HETATM   14  N7  UNL     1     -12.170   5.698   9.137  1.00  0.00    -0.208 N 
ATOM     15  H7  UNL     1     -11.848   5.895  10.085  1.00  0.00     0.179 HD
BRANCH  10  16
HETATM   16  N9  UNL     1     -12.959   8.008   6.996  1.00  0.00    -0.205 N 
ATOM     17  H9  UNL     1     -13.927   8.218   6.749  1.00  0.00     0.216 HD
BRANCH  16  18
HETATM   18  O7  UNL     1     -12.111   9.005   7.179  1.00  0.00    -0.249 OA
BRANCH  18  19
HETATM   19  C14 UNL     1     -12.712   9.959   7.999  1.00  0.00     0.250 C 
HETATM   20  C15 UNL     1     -12.094  11.342   7.737  1.00  0.00     0.054 C 
BRANCH  19  21
HETATM   21  C16 UNL     1     -12.517   9.663   9.430  1.00  0.00     0.205 C 
HETATM   22  O8  UNL     1     -13.100   8.661   9.944  1.00  0.00    -0.646 OA
HETATM   23  O9  UNL     1     -11.716  10.437  10.259  1.00  0.00    -0.646 OA
ENDBRANCH  19  21
ENDBRANCH  18  19
ENDBRANCH  16  18
ENDBRANCH  10  16
ENDBRANCH   2   4
ENDBRANCH   1   2
BRANCH   1  24
HETATM   24  C5  UNL     1     -15.892   3.544  11.172  1.00  0.00     0.141 C 
BRANCH  24  25
HETATM   25  N3  UNL     1     -15.810   2.204  10.682  1.00  0.00    -0.374 N 
ATOM     26  H3  UNL     1     -16.319   1.957   9.833  1.00  0.00     0.161 HD
BRANCH  25  27
HETATM   27  C6  UNL     1     -15.099   1.281  11.289  1.00  0.00     0.117 A 
HETATM   28  C7  UNL     1     -15.443   0.577  12.420  1.00  0.00     0.068 A 
HETATM   29  C8  UNL     1     -14.400  -0.282  12.695  1.00  0.00     0.117 A 
HETATM   30  N4  UNL     1     -13.453  -0.104  11.759  1.00  0.00    -0.268 N 
HETATM   31  N6  UNL     1     -13.886   0.836  10.925  1.00  0.00    -0.281 N 
ATOM     32  H6  UNL     1     -13.366   1.174  10.114  1.00  0.00     0.189 HD
BRANCH  30  33
HETATM   33  C9  UNL     1     -12.201  -0.763  11.627  1.00  0.00     0.293 C 
HETATM   34  O2  UNL     1     -11.097   0.123  11.608  1.00  0.00    -0.308 OA
HETATM   35  C10 UNL     1     -10.064  -0.797  11.427  1.00  0.00     0.275 C 
HETATM   36  N5  UNL     1     -10.526  -1.712  10.392  1.00  0.00    -0.104 NA
HETATM   37  C12 UNL     1     -11.987  -1.513  10.349  1.00  0.00     0.274 C 
BRANCH  35  38
HETATM   38  O3  UNL     1      -9.917  -1.464  12.653  1.00  0.00    -0.350 OA
ATOM     39  H3  UNL     1      -9.819  -0.786  13.312  1.00  0.00     0.214 HD
ENDBRANCH  35  38
BRANCH  35  40
HETATM   40  C11 UNL     1      -8.780  -0.185  10.965  1.00  0.00     0.253 C 
BRANCH  40  41
HETATM   41  O4  UNL     1      -8.426  -0.704   9.744  1.00  0.00    -0.394 OA
ATOM     42  H4  UNL     1      -9.170  -0.681   9.154  1.00  0.00     0.209 HD
ENDBRANCH  40  41
ENDBRANCH  35  40
BRANCH  36  43
HETATM   43  O5  UNL     1     -10.342  -2.992  10.837  1.00  0.00    -0.306 OA
ATOM     44  H5  UNL     1      -9.893  -3.482  10.158  1.00  0.00     0.237 HD
ENDBRANCH  36  43
BRANCH  37  45
HETATM   45  O6  UNL     1     -12.221  -0.736   9.209  1.00  0.00    -0.374 OA
ATOM     46  H6  UNL     1     -13.139  -0.529   9.080  1.00  0.00     0.212 HD
ENDBRANCH  37  45
ENDBRANCH  30  33
ENDBRANCH  25  27
ENDBRANCH  24  25
ENDBRANCH   1  24
TORSDOF 15
ENDMDL
MODEL 5
REMARK VINA RESULT: -7.345132393      2.268      5.075
REMARK  15 active torsions:
REMARK  status: ('A' for Active; 'I' for Inactive)
REMARK       I    between atoms: C2_2  and  N1_4 
REMARK    1  A    between atoms: C3_5  and  N2_6 
REMARK    2  A    between atoms: N2_6  and  C4_8 
REMARK    3  A    between atoms: C4_8  and  C5_9 
REMARK    4  A    between atoms: C5_9  and  N3_10 
REMARK    5  A    between atoms: N3_10  and  C6_12 
REMARK    6  A    between atoms: N4_15  and  C9_16 
REMARK    7  A    between atoms: C10_18  and  O3_19 
REMARK    8  A    between atoms: C10_18  and  C11_21 
REMARK    9  A    between atoms: C11_21  and  O4_22 
REMARK   10  A    between atoms: N5_24  and  O5_25 
REMARK   11  A    between atoms: C12_27  and  O6_28 
REMARK   12  A    between atoms: N8_35  and  N9_36 
REMARK   13  A    between atoms: N9_36  and  O7_38 
REMARK   14  A    between atoms: O7_38  and  C14_39 
REMARK   15  A    between atoms: C14_39  and  C16_41 
ROOT
HETATM    1  C4  UNL     1     -16.131   4.342  10.693  1.00  0.00     0.157 C 
ENDROOT
BRANCH   1   2
HETATM    2  N2  UNL     1     -15.947   4.142   9.287  1.00  0.00    -0.224 N 
ATOM      3  H2  UNL     1     -16.761   3.945   8.705  1.00  0.00     0.177 HD
BRANCH   2   4
HETATM    4  C3  UNL     1     -14.648   4.211   8.673  1.00  0.00     0.682 C 
HETATM    5  N1  UNL     1     -14.361   5.104   7.577  1.00  0.00    -0.123 N 
HETATM    6  C2  UNL     1     -15.409   5.428   6.696  1.00  0.00     0.236 C 
HETATM    7  C17 UNL     1     -13.018   5.638   7.406  1.00  0.00     0.143 C 
HETATM    8  C1  UNL     1     -15.304   6.367   5.564  1.00  0.00     0.118 C 
HETATM    9  O1  UNL     1     -16.556   4.885   6.860  1.00  0.00    -0.273 OA
HETATM   10  N8  UNL     1     -12.122   4.981   8.316  1.00  0.00    -0.261 N 
HETATM   11  C18 UNL     1     -13.036   7.105   7.715  1.00  0.00     0.065 C 
HETATM   12  C19 UNL     1     -12.591   5.411   5.976  1.00  0.00     0.065 C 
HETATM   13  C13 UNL     1     -12.381   3.608   8.512  1.00  0.00     0.287 C 
HETATM   14  N7  UNL     1     -13.683   3.483   9.125  1.00  0.00    -0.208 N 
ATOM     15  H7  UNL     1     -13.837   2.835   9.897  1.00  0.00     0.179 HD
BRANCH  10  16
HETATM   16  N9  UNL     1     -11.273   5.659   9.064  1.00  0.00    -0.205 N 
ATOM     17  H9  UNL     1     -11.163   6.661   8.906  1.00  0.00     0.216 HD
BRANCH  16  18
HETATM   18  O7  UNL     1     -10.562   5.076  10.012  1.00  0.00    -0.249 OA
BRANCH  18  19
HETATM   19  C14 UNL     1      -9.208   5.251   9.728  1.00  0.00     0.250 C 
HETATM   20  C15 UNL     1      -8.712   4.120   8.812  1.00  0.00     0.054 C 
BRANCH  19  21
HETATM   21  C16 UNL     1      -8.377   5.216  10.945  1.00  0.00     0.205 C 
HETATM   22  O8  UNL     1      -8.772   4.549  11.950  1.00  0.00    -0.646 OA
HETATM   23  O9  UNL     1      -7.166   5.886  11.053  1.00  0.00    -0.646 OA
ENDBRANCH  19  21
ENDBRANCH  18  19
ENDBRANCH  16  18
ENDBRANCH  10  16
ENDBRANCH   2   4
ENDBRANCH   1   2
BRANCH   1  24
HETATM   24  C5  UNL     1     -16.328   3.128  11.522  1.00  0.00     0.141 C 
BRANCH  24  25
HETATM   25  N3  UNL     1     -15.965   1.885  10.918  1.00  0.00    -0.374 N 
ATOM     26  H3  UNL     1     -16.333   1.659   9.995  1.00  0.00     0.161 HD
BRANCH  25  27
HETATM   27  C6  UNL     1     -15.173   1.023  11.515  1.00  0.00     0.117 A 
HETATM   28  C7  UNL     1     -15.404   0.363  12.701  1.00  0.00     0.068 A 
HETATM   29  C8  UNL     1     -14.307  -0.437  12.939  1.00  0.00     0.117 A 
HETATM   30  N4  UNL     1     -13.437  -0.267  11.931  1.00  0.00    -0.268 N 
HETATM   31  N6  UNL     1     -13.970   0.611  11.086  1.00  0.00    -0.281 N 
ATOM     32  H6  UNL     1     -13.523   0.929  10.225  1.00  0.00     0.189 HD
BRANCH  30  33
HETATM   33  C9  UNL     1     -12.168  -0.879  11.739  1.00  0.00     0.293 C 
HETATM   34  O2  UNL     1     -11.097   0.045  11.704  1.00  0.00    -0.308 OA
HETATM   35  C10 UNL     1     -10.040  -0.834  11.465  1.00  0.00     0.275 C 
HETATM   36  N5  UNL     1     -10.508  -1.741  10.425  1.00  0.00    -0.104 NA
HETATM   37  C12 UNL     1     -11.975  -1.592  10.437  1.00  0.00     0.274 C 
BRANCH  35  38
HETATM   38  O3  UNL     1      -9.828  -1.523  12.669  1.00  0.00    -0.350 OA
ATOM     39  H3  UNL     1     -10.690  -1.742  13.003  1.00  0.00     0.214 HD
ENDBRANCH  35  38
BRANCH  35  40
HETATM   40  C11 UNL     1      -8.795  -0.168  10.973  1.00  0.00     0.253 C 
BRANCH  40  41
HETATM   41  O4  UNL     1      -8.419  -0.706   9.768  1.00  0.00    -0.394 OA
ATOM     42  H4  UNL     1      -7.480  -0.852   9.756  1.00  0.00     0.209 HD
ENDBRANCH  40  41
ENDBRANCH  35  40
BRANCH  36  43
HETATM   43  O5  UNL     1     -10.264  -3.024  10.833  1.00  0.00    -0.306 OA
ATOM     44  H5  UNL     1      -9.976  -3.526  10.080  1.00  0.00     0.237 HD
ENDBRANCH  36  43
BRANCH  37  45
HETATM   45  O6  UNL     1     -12.275  -0.797   9.325  1.00  0.00    -0.374 OA
ATOM     46  H6  UNL     1     -11.832  -1.080   8.534  1.00  0.00     0.212 HD
ENDBRANCH  37  45
ENDBRANCH  30  33
ENDBRANCH  25  27
ENDBRANCH  24  25
ENDBRANCH   1  24
TORSDOF 15
ENDMDL
