MODEL 1
REMARK VINA RESULT: -3.262617394      0.000      0.000
REMARK  4 active torsions:
REMARK  status: ('A' for Active; 'I' for Inactive)
REMARK    1  A    between atoms: O1_2  and  C2_3 
REMARK    2  A    between atoms: C4_5  and  N1_6 
REMARK    3  A    between atoms: N1_6  and  C5_8 
REMARK    4  A    between atoms: C6_12  and  N3_13 
ROOT
HETATM    1  C2  UNL     1       4.107  39.691  -1.517  1.00  0.00     0.076 A 
HETATM    2  C3  UNL     1       4.487  38.539  -1.082  1.00  0.00     0.035 A 
HETATM    3  C4  UNL     1       5.889  38.871  -1.207  1.00  0.00     0.144 A 
HETATM    4  C6  UNL     1       5.452  40.171  -1.700  1.00  0.00     0.265 A 
ENDROOT
BRANCH   3   5
HETATM    5  N1  UNL     1       6.668  38.041  -2.099  1.00  0.00    -0.376 N 
ATOM      6  H1  UNL     1       6.297  37.812  -3.021  1.00  0.00     0.161 HD
BRANCH   5   7
HETATM    7  C5  UNL     1       7.926  37.545  -1.719  1.00  0.00     0.169 C 
HETATM    8  N2  UNL     1       9.011  37.825  -2.373  1.00  0.00    -0.396 N 
ATOM      9  H22 UNL     1       8.930  38.430  -3.191  1.00  0.00     0.156 HD
ATOM     10  H21 UNL     1       9.925  37.465  -2.097  1.00  0.00     0.156 HD
ENDBRANCH   5   7
ENDBRANCH   3   5
BRANCH   4  11
HETATM   11  N3  UNL     1       5.699  40.444  -3.121  1.00  0.00    -0.067 N 
ATOM     12  H33 UNL     1       6.537  39.972  -3.461  1.00  0.00     0.275 HD
ATOM     13  H32 UNL     1       5.016  39.985  -3.723  1.00  0.00     0.275 HD
ATOM     14  H31 UNL     1       5.735  41.450  -3.281  1.00  0.00     0.275 HD
ENDBRANCH   4  11
BRANCH   1  15
HETATM   15  O1  UNL     1       2.844  40.250  -1.728  1.00  0.00    -0.358 OA
HETATM   16  C1  UNL     1       2.307  40.357  -3.055  1.00  0.00     0.209 C 
ENDBRANCH   1  15
TORSDOF 4
ENDMDL
MODEL 2
REMARK VINA RESULT: -2.963014837      2.523      4.513
REMARK  4 active torsions:
REMARK  status: ('A' for Active; 'I' for Inactive)
REMARK    1  A    between atoms: O1_2  and  C2_3 
REMARK    2  A    between atoms: C4_5  and  N1_6 
REMARK    3  A    between atoms: N1_6  and  C5_8 
REMARK    4  A    between atoms: C6_12  and  N3_13 
ROOT
HETATM    1  C2  UNL     1       6.320  39.496  -1.777  1.00  0.00     0.076 A 
HETATM    2  C3  UNL     1       5.720  40.066  -2.764  1.00  0.00     0.035 A 
HETATM    3  C4  UNL     1       4.484  40.209  -2.027  1.00  0.00     0.144 A 
HETATM    4  C6  UNL     1       5.169  39.564  -0.914  1.00  0.00     0.265 A 
ENDROOT
BRANCH   3   5
HETATM    5  N1  UNL     1       3.325  39.544  -2.581  1.00  0.00    -0.376 N 
ATOM      6  H1  UNL     1       3.216  38.539  -2.450  1.00  0.00     0.161 HD
BRANCH   5   7
HETATM    7  C5  UNL     1       2.348  40.257  -3.294  1.00  0.00     0.169 C 
HETATM    8  N2  UNL     1       2.407  40.423  -4.580  1.00  0.00    -0.396 N 
ATOM      9  H22 UNL     1       3.199  40.015  -5.075  1.00  0.00     0.156 HD
ATOM     10  H21 UNL     1       1.697  40.941  -5.098  1.00  0.00     0.156 HD
ENDBRANCH   5   7
ENDBRANCH   3   5
BRANCH   4  11
HETATM   11  N3  UNL     1       4.718  38.210  -0.571  1.00  0.00    -0.067 N 
ATOM     12  H33 UNL     1       3.702  38.126  -0.604  1.00  0.00     0.275 HD
ATOM     13  H32 UNL     1       4.947  37.534  -1.301  1.00  0.00     0.275 HD
ATOM     14  H31 UNL     1       5.096  37.936   0.335  1.00  0.00     0.275 HD
ENDBRANCH   4  11
BRANCH   1  15
HETATM   15  O1  UNL     1       7.617  39.001  -1.620  1.00  0.00    -0.358 OA
HETATM   16  C1  UNL     1       8.013  37.780  -2.261  1.00  0.00     0.209 C 
ENDBRANCH   1  15
TORSDOF 4
ENDMDL
MODEL 3
REMARK VINA RESULT: -2.886516593      9.826     10.474
REMARK  4 active torsions:
REMARK  status: ('A' for Active; 'I' for Inactive)
REMARK    1  A    between atoms: O1_2  and  C2_3 
REMARK    2  A    between atoms: C4_5  and  N1_6 
REMARK    3  A    between atoms: N1_6  and  C5_8 
REMARK    4  A    between atoms: C6_12  and  N3_13 
ROOT
HETATM    1  C2  UNL     1       9.821  31.504   2.622  1.00  0.00     0.076 A 
HETATM    2  C3  UNL     1       9.938  32.691   3.107  1.00  0.00     0.035 A 
HETATM    3  C4  UNL     1      11.093  32.992   2.292  1.00  0.00     0.144 A 
HETATM    4  C6  UNL     1      10.956  31.648   1.746  1.00  0.00     0.265 A 
ENDROOT
BRANCH   3   5
HETATM    5  N1  UNL     1      12.314  33.310   2.999  1.00  0.00    -0.376 N 
ATOM      6  H1  UNL     1      12.504  32.862   3.895  1.00  0.00     0.161 HD
BRANCH   5   7
HETATM    7  C5  UNL     1      13.242  34.225   2.474  1.00  0.00     0.169 C 
HETATM    8  N2  UNL     1      13.382  35.425   2.950  1.00  0.00    -0.396 N 
ATOM      9  H22 UNL     1      12.788  35.697   3.733  1.00  0.00     0.156 HD
ATOM     10  H21 UNL     1      14.057  36.089   2.569  1.00  0.00     0.156 HD
ENDBRANCH   5   7
ENDBRANCH   3   5
BRANCH   4  11
HETATM   11  N3  UNL     1      12.002  30.686   2.118  1.00  0.00    -0.067 N 
ATOM     12  H33 UNL     1      12.443  30.926   3.006  1.00  0.00     0.275 HD
ATOM     13  H32 UNL     1      11.613  29.782   2.385  1.00  0.00     0.275 HD
ATOM     14  H31 UNL     1      12.682  30.603   1.363  1.00  0.00     0.275 HD
ENDBRANCH   4  11
BRANCH   1  15
HETATM   15  O1  UNL     1       8.916  30.468   2.868  1.00  0.00    -0.358 OA
HETATM   16  C1  UNL     1       8.793  29.905   4.182  1.00  0.00     0.209 C 
ENDBRANCH   1  15
TORSDOF 4
ENDMDL
MODEL 4
REMARK VINA RESULT: -2.796455412      9.800     10.911
REMARK  4 active torsions:
REMARK  status: ('A' for Active; 'I' for Inactive)
REMARK    1  A    between atoms: O1_2  and  C2_3 
REMARK    2  A    between atoms: C4_5  and  N1_6 
REMARK    3  A    between atoms: N1_6  and  C5_8 
REMARK    4  A    between atoms: C6_12  and  N3_13 
ROOT
HETATM    1  C2  UNL     1      12.661  32.713   2.338  1.00  0.00     0.076 A 
HETATM    2  C3  UNL     1      11.700  33.510   2.655  1.00  0.00     0.035 A 
HETATM    3  C4  UNL     1      10.784  32.423   2.919  1.00  0.00     0.144 A 
HETATM    4  C6  UNL     1      11.875  31.526   2.558  1.00  0.00     0.265 A 
ENDROOT
BRANCH   3   5
HETATM    5  N1  UNL     1       9.585  32.383   2.111  1.00  0.00    -0.376 N 
ATOM      6  H1  UNL     1       9.496  33.016   1.317  1.00  0.00     0.161 HD
BRANCH   5   7
HETATM    7  C5  UNL     1       8.541  31.489   2.401  1.00  0.00     0.169 C 
HETATM    8  N2  UNL     1       8.582  30.676   3.413  1.00  0.00    -0.396 N 
ATOM      9  H22 UNL     1       9.410  30.700   4.008  1.00  0.00     0.156 HD
ATOM     10  H21 UNL     1       7.824  30.027   3.623  1.00  0.00     0.156 HD
ENDBRANCH   5   7
ENDBRANCH   3   5
BRANCH   4  11
HETATM   11  N3  UNL     1      11.718  30.787   1.299  1.00  0.00    -0.067 N 
ATOM     12  H33 UNL     1      11.360  31.380   0.550  1.00  0.00     0.275 HD
ATOM     13  H32 UNL     1      12.617  30.547   0.882  1.00  0.00     0.275 HD
ATOM     14  H31 UNL     1      11.134  29.965   1.449  1.00  0.00     0.275 HD
ENDBRANCH   4  11
BRANCH   1  15
HETATM   15  O1  UNL     1      13.978  32.937   1.931  1.00  0.00    -0.358 OA
HETATM   16  C1  UNL     1      14.485  34.274   1.806  1.00  0.00     0.209 C 
ENDBRANCH   1  15
TORSDOF 4
ENDMDL
MODEL 5
REMARK VINA RESULT: -2.659996629      1.436      1.567
REMARK  4 active torsions:
REMARK  status: ('A' for Active; 'I' for Inactive)
REMARK    1  A    between atoms: O1_2  and  C2_3 
REMARK    2  A    between atoms: C4_5  and  N1_6 
REMARK    3  A    between atoms: N1_6  and  C5_8 
REMARK    4  A    between atoms: C6_12  and  N3_13 
ROOT
HETATM    1  C2  UNL     1       4.330  39.722  -2.369  1.00  0.00     0.076 A 
HETATM    2  C3  UNL     1       5.400  39.276  -2.933  1.00  0.00     0.035 A 
HETATM    3  C4  UNL     1       5.895  38.695  -1.705  1.00  0.00     0.144 A 
HETATM    4  C6  UNL     1       4.683  39.202  -1.073  1.00  0.00     0.265 A 
ENDROOT
BRANCH   3   5
HETATM    5  N1  UNL     1       7.164  39.194  -1.224  1.00  0.00    -0.376 N 
ATOM      6  H1  UNL     1       7.204  39.679  -0.329  1.00  0.00     0.161 HD
BRANCH   5   7
HETATM    7  C5  UNL     1       8.343  39.022  -1.968  1.00  0.00     0.169 C 
HETATM    8  N2  UNL     1       8.801  37.850  -2.286  1.00  0.00    -0.396 N 
ATOM      9  H22 UNL     1       8.273  37.034  -1.977  1.00  0.00     0.156 HD
ATOM     10  H21 UNL     1       9.657  37.725  -2.827  1.00  0.00     0.156 HD
ENDBRANCH   5   7
ENDBRANCH   3   5
BRANCH   4  11
HETATM   11  N3  UNL     1       4.861  40.305  -0.121  1.00  0.00    -0.067 N 
ATOM     12  H33 UNL     1       5.832  40.612  -0.068  1.00  0.00     0.275 HD
ATOM     13  H32 UNL     1       4.449  41.174  -0.461  1.00  0.00     0.275 HD
ATOM     14  H31 UNL     1       4.493  40.040   0.792  1.00  0.00     0.275 HD
ENDBRANCH   4  11
BRANCH   1  15
HETATM   15  O1  UNL     1       3.237  40.444  -2.855  1.00  0.00    -0.358 OA
HETATM   16  C1  UNL     1       2.306  39.835  -3.760  1.00  0.00     0.209 C 
ENDBRANCH   1  15
TORSDOF 4
ENDMDL
