MODEL 1
REMARK VINA RESULT: -3.921543714      0.000      0.000
REMARK  4 active torsions:
REMARK  status: ('A' for Active; 'I' for Inactive)
REMARK    1  A    between atoms: N1_1  and  N2_4 
REMARK    2  A    between atoms: C1_6  and  N3_7 
REMARK    3  A    between atoms: N3_7  and  C2_9 
REMARK    4  A    between atoms: C2_9  and  C3_10 
ROOT
HETATM    1  N3  UNL     1       6.811  38.952  -1.307  1.00  0.00    -0.379 N 
ATOM      2  H3  UNL     1       7.238  38.746  -0.404  1.00  0.00     0.160 HD
ENDROOT
BRANCH   1   3
HETATM    3  C1  UNL     1       7.108  38.123  -2.420  1.00  0.00     0.192 C 
HETATM    4  N2  UNL     1       8.275  37.731  -2.758  1.00  0.00    -0.303 N 
ATOM      5  H2  UNL     1       8.342  37.136  -3.585  1.00  0.00     0.187 HD
BRANCH   4   6
HETATM    6  N1  UNL     1       9.451  38.036  -2.113  1.00  0.00    -0.344 N 
ATOM      7  H12 UNL     1       9.421  37.999  -1.094  1.00  0.00     0.176 HD
ATOM      8  H11 UNL     1      10.333  38.290  -2.558  1.00  0.00     0.176 HD
ENDBRANCH   4   6
ENDBRANCH   1   3
BRANCH   1   9
HETATM    9  C2  UNL     1       5.915  40.086  -1.423  1.00  0.00     0.178 C 
BRANCH   9  10
HETATM   10  C3  UNL     1       4.504  39.648  -1.599  1.00  0.00     0.043 A 
HETATM   11  C4  UNL     1       3.793  38.739  -0.842  1.00  0.00     0.115 A 
HETATM   12  N4  UNL     1       2.531  38.627  -1.343  1.00  0.00    -0.360 N 
HETATM   13  C5  UNL     1       2.459  39.458  -2.401  1.00  0.00     0.180 A 
ATOM     14  H4  UNL     1       1.785  38.030  -0.986  1.00  0.00     0.166 HD
HETATM   15  N5  UNL     1       3.652  40.071  -2.550  1.00  0.00    -0.353 N 
ATOM     16  H5  UNL     1       3.875  40.753  -3.274  1.00  0.00     0.166 HD
ENDBRANCH   9  10
ENDBRANCH   1   9
TORSDOF 4
ENDMDL
MODEL 2
REMARK VINA RESULT: -3.881690036      0.975      1.276
REMARK  4 active torsions:
REMARK  status: ('A' for Active; 'I' for Inactive)
REMARK    1  A    between atoms: N1_1  and  N2_4 
REMARK    2  A    between atoms: C1_6  and  N3_7 
REMARK    3  A    between atoms: N3_7  and  C2_9 
REMARK    4  A    between atoms: C2_9  and  C3_10 
ROOT
HETATM    1  N3  UNL     1       6.696  39.368  -2.020  1.00  0.00    -0.379 N 
ATOM      2  H3  UNL     1       7.243  39.748  -2.791  1.00  0.00     0.160 HD
ENDROOT
BRANCH   1   3
HETATM    3  C1  UNL     1       6.907  38.024  -1.615  1.00  0.00     0.192 C 
HETATM    4  N2  UNL     1       8.020  37.402  -1.674  1.00  0.00    -0.303 N 
ATOM      5  H2  UNL     1       8.027  36.435  -1.348  1.00  0.00     0.187 HD
BRANCH   4   6
HETATM    6  N1  UNL     1       9.212  37.913  -2.134  1.00  0.00    -0.344 N 
ATOM      7  H12 UNL     1       9.138  38.708  -2.769  1.00  0.00     0.176 HD
ATOM      8  H11 UNL     1      10.143  37.571  -1.899  1.00  0.00     0.176 HD
ENDBRANCH   4   6
ENDBRANCH   1   3
BRANCH   1   9
HETATM    9  C2  UNL     1       5.719  40.214  -1.362  1.00  0.00     0.178 C 
BRANCH   9  10
HETATM   10  C3  UNL     1       4.329  39.787  -1.680  1.00  0.00     0.043 A 
HETATM   11  C4  UNL     1       3.548  40.157  -2.755  1.00  0.00     0.115 A 
HETATM   12  N4  UNL     1       2.338  39.538  -2.666  1.00  0.00    -0.360 N 
HETATM   13  C5  UNL     1       2.367  38.790  -1.546  1.00  0.00     0.180 A 
ATOM     14  H4  UNL     1       1.561  39.624  -3.321  1.00  0.00     0.166 HD
HETATM   15  N5  UNL     1       3.571  38.945  -0.955  1.00  0.00    -0.353 N 
ATOM     16  H5  UNL     1       3.862  38.490  -0.090  1.00  0.00     0.166 HD
ENDBRANCH   9  10
ENDBRANCH   1   9
TORSDOF 4
ENDMDL
MODEL 3
REMARK VINA RESULT: -3.867531920      1.293      1.611
REMARK  4 active torsions:
REMARK  status: ('A' for Active; 'I' for Inactive)
REMARK    1  A    between atoms: N1_1  and  N2_4 
REMARK    2  A    between atoms: C1_6  and  N3_7 
REMARK    3  A    between atoms: N3_7  and  C2_9 
REMARK    4  A    between atoms: C2_9  and  C3_10 
ROOT
HETATM    1  N3  UNL     1       7.261  39.988  -1.835  1.00  0.00    -0.379 N 
ATOM      2  H3  UNL     1       7.393  40.410  -0.916  1.00  0.00     0.160 HD
ENDROOT
BRANCH   1   3
HETATM    3  C1  UNL     1       8.203  39.035  -2.302  1.00  0.00     0.192 C 
HETATM    4  N2  UNL     1       8.341  37.849  -1.848  1.00  0.00    -0.303 N 
ATOM      5  H2  UNL     1       9.062  37.270  -2.279  1.00  0.00     0.187 HD
BRANCH   4   6
HETATM    6  N1  UNL     1       7.609  37.280  -0.832  1.00  0.00    -0.344 N 
ATOM      7  H12 UNL     1       7.410  36.285  -0.931  1.00  0.00     0.176 HD
ATOM      8  H11 UNL     1       7.255  37.761  -0.004  1.00  0.00     0.176 HD
ENDBRANCH   4   6
ENDBRANCH   1   3
BRANCH   1   9
HETATM    9  C2  UNL     1       6.115  40.377  -2.633  1.00  0.00     0.178 C 
BRANCH   9  10
HETATM   10  C3  UNL     1       4.854  39.803  -2.090  1.00  0.00     0.043 A 
HETATM   11  C4  UNL     1       3.568  39.973  -2.559  1.00  0.00     0.115 A 
HETATM   12  N4  UNL     1       2.705  39.273  -1.772  1.00  0.00    -0.360 N 
HETATM   13  C5  UNL     1       3.448  38.673  -0.821  1.00  0.00     0.180 A 
ATOM     14  H4  UNL     1       1.693  39.214  -1.880  1.00  0.00     0.166 HD
HETATM   15  N5  UNL     1       4.744  38.996  -1.019  1.00  0.00    -0.353 N 
ATOM     16  H5  UNL     1       5.522  38.676  -0.444  1.00  0.00     0.166 HD
ENDBRANCH   9  10
ENDBRANCH   1   9
TORSDOF 4
ENDMDL
MODEL 4
REMARK VINA RESULT: -3.809268060      1.255      4.758
REMARK  4 active torsions:
REMARK  status: ('A' for Active; 'I' for Inactive)
REMARK    1  A    between atoms: N1_1  and  N2_4 
REMARK    2  A    between atoms: C1_6  and  N3_7 
REMARK    3  A    between atoms: N3_7  and  C2_9 
REMARK    4  A    between atoms: C2_9  and  C3_10 
ROOT
HETATM    1  N3  UNL     1       4.539  39.549  -0.446  1.00  0.00    -0.379 N 
ATOM      2  H3  UNL     1       4.633  39.757   0.548  1.00  0.00     0.160 HD
ENDROOT
BRANCH   1   3
HETATM    3  C1  UNL     1       3.486  38.701  -0.880  1.00  0.00     0.192 C 
HETATM    4  N2  UNL     1       2.513  39.056  -1.626  1.00  0.00    -0.303 N 
ATOM      5  H2  UNL     1       1.824  38.340  -1.860  1.00  0.00     0.187 HD
BRANCH   4   6
HETATM    6  N1  UNL     1       2.306  40.313  -2.145  1.00  0.00    -0.344 N 
ATOM      7  H12 UNL     1       1.342  40.541  -2.387  1.00  0.00     0.176 HD
ATOM      8  H11 UNL     1       3.021  41.023  -2.305  1.00  0.00     0.176 HD
ENDBRANCH   4   6
ENDBRANCH   1   3
BRANCH   1   9
HETATM    9  C2  UNL     1       5.485  40.125  -1.382  1.00  0.00     0.178 C 
BRANCH   9  10
HETATM   10  C3  UNL     1       6.648  39.224  -1.604  1.00  0.00     0.043 A 
HETATM   11  C4  UNL     1       7.909  39.554  -2.054  1.00  0.00     0.115 A 
HETATM   12  N4  UNL     1       8.674  38.429  -2.115  1.00  0.00    -0.360 N 
HETATM   13  C5  UNL     1       7.896  37.409  -1.707  1.00  0.00     0.180 A 
ATOM     14  H4  UNL     1       9.648  38.371  -2.412  1.00  0.00     0.166 HD
HETATM   15  N5  UNL     1       6.674  37.894  -1.400  1.00  0.00    -0.353 N 
ATOM     16  H5  UNL     1       5.890  37.337  -1.063  1.00  0.00     0.166 HD
ENDBRANCH   9  10
ENDBRANCH   1   9
TORSDOF 4
ENDMDL
MODEL 5
REMARK VINA RESULT: -3.674946818      1.178      4.791
REMARK  4 active torsions:
REMARK  status: ('A' for Active; 'I' for Inactive)
REMARK    1  A    between atoms: N1_1  and  N2_4 
REMARK    2  A    between atoms: C1_6  and  N3_7 
REMARK    3  A    between atoms: N3_7  and  C2_9 
REMARK    4  A    between atoms: C2_9  and  C3_10 
ROOT
HETATM    1  N3  UNL     1       4.586  40.079  -2.683  1.00  0.00    -0.379 N 
ATOM      2  H3  UNL     1       4.950  39.741  -3.573  1.00  0.00     0.160 HD
ENDROOT
BRANCH   1   3
HETATM    3  C1  UNL     1       3.217  40.444  -2.586  1.00  0.00     0.192 C 
HETATM    4  N2  UNL     1       2.306  39.749  -2.024  1.00  0.00    -0.303 N 
ATOM      5  H2  UNL     1       1.361  40.134  -2.029  1.00  0.00     0.187 HD
BRANCH   4   6
HETATM    6  N1  UNL     1       2.478  38.529  -1.410  1.00  0.00    -0.344 N 
ATOM      7  H12 UNL     1       1.823  37.798  -1.684  1.00  0.00     0.176 HD
ATOM      8  H11 UNL     1       3.193  38.301  -0.719  1.00  0.00     0.176 HD
ENDBRANCH   4   6
ENDBRANCH   1   3
BRANCH   1   9
HETATM    9  C2  UNL     1       5.479  40.176  -1.545  1.00  0.00     0.178 C 
BRANCH   9  10
HETATM   10  C3  UNL     1       6.636  39.249  -1.681  1.00  0.00     0.043 A 
HETATM   11  C4  UNL     1       7.906  39.533  -2.139  1.00  0.00     0.115 A 
HETATM   12  N4  UNL     1       8.660  38.400  -2.103  1.00  0.00    -0.360 N 
HETATM   13  C5  UNL     1       7.867  37.421  -1.627  1.00  0.00     0.180 A 
ATOM     14  H4  UNL     1       9.637  38.310  -2.382  1.00  0.00     0.166 HD
HETATM   15  N5  UNL     1       6.647  37.940  -1.374  1.00  0.00    -0.353 N 
ATOM     16  H5  UNL     1       5.852  37.418  -1.005  1.00  0.00     0.166 HD
ENDBRANCH   9  10
ENDBRANCH   1   9
TORSDOF 4
ENDMDL
