MODEL 1
REMARK VINA RESULT: -7.202926428      0.000      0.000
REMARK  11 active torsions:
REMARK  status: ('A' for Active; 'I' for Inactive)
REMARK    1  A    between atoms: S1_2  and  C2_4 
REMARK    2  A    between atoms: C2_4  and  C3_5 
REMARK    3  A    between atoms: C3_5  and  C4_6 
REMARK    4  A    between atoms: C4_6  and  N1_7 
REMARK    5  A    between atoms: N1_7  and  C5_9 
REMARK    6  A    between atoms: C6_12  and  N3_13 
REMARK    7  A    between atoms: C7_18  and  N5_19 
REMARK    8  A    between atoms: N5_19  and  O2_21 
REMARK    9  A    between atoms: O2_21  and  C8_22 
REMARK   10  A    between atoms: C8_22  and  C9_23 
REMARK   11  A    between atoms: C9_23  and  O3_24 
ROOT
HETATM    1  C5  UNL     1      85.053 -31.033   0.877  1.00  0.00     0.707 A 
HETATM    2  N2  UNL     1      83.725 -30.941   0.742  1.00  0.00    -0.022 N 
ATOM      3  H2  UNL     1      83.289 -31.380  -0.068  1.00  0.00     0.203 HD
HETATM    4  C6  UNL     1      82.935 -30.297   1.622  1.00  0.00     0.705 A 
HETATM    5  N4  UNL     1      83.509 -29.718   2.689  1.00  0.00    -0.020 N 
ATOM      6  H4  UNL     1      82.931 -29.225   3.370  1.00  0.00     0.203 HD
HETATM    7  C7  UNL     1      84.858 -29.785   2.869  1.00  0.00     0.731 A 
HETATM    8  N6  UNL     1      85.596 -30.437   1.965  1.00  0.00    -0.020 N 
ATOM      9  H6  UNL     1      86.606 -30.488   2.100  1.00  0.00     0.203 HD
ENDROOT
BRANCH   1  10
HETATM   10  N1  UNL     1      85.848 -31.637   0.063  1.00  0.00    -0.225 N 
ATOM     11  H1  UNL     1      86.263 -32.541   0.287  1.00  0.00     0.177 HD
BRANCH  10  12
HETATM   12  C4  UNL     1      86.122 -30.950  -1.204  1.00  0.00     0.139 C 
BRANCH  12  13
HETATM   13  C3  UNL     1      87.191 -31.595  -1.989  1.00  0.00     0.033 C 
BRANCH  13  14
HETATM   14  C2  UNL     1      87.991 -30.639  -2.804  1.00  0.00     0.110 C 
BRANCH  14  15
HETATM   15  S1  UNL     1      87.964 -28.977  -2.295  1.00  0.00     0.010 S 
HETATM   16  C1  UNL     1      86.555 -28.031  -2.633  1.00  0.00     0.127 C 
HETATM   17  O1  UNL     1      89.367 -28.181  -2.689  1.00  0.00    -0.258 OA
ENDBRANCH  14  15
ENDBRANCH  13  14
ENDBRANCH  12  13
ENDBRANCH  10  12
ENDBRANCH   1  10
BRANCH   4  18
HETATM   18  N3  UNL     1      81.662 -30.231   1.455  1.00  0.00    -0.234 N 
ATOM     19  H32 UNL     1      81.063 -30.999   1.759  1.00  0.00     0.174 HD
ATOM     20  H31 UNL     1      81.224 -29.419   1.020  1.00  0.00     0.174 HD
ENDBRANCH   4  18
BRANCH   7  21
HETATM   21  N5  UNL     1      85.353 -29.213   3.907  1.00  0.00    -0.095 N 
ATOM     22  H5  UNL     1      84.995 -29.468   4.827  1.00  0.00     0.213 HD
BRANCH  21  23
HETATM   23  O2  UNL     1      86.336 -28.280   3.819  1.00  0.00    -0.264 OA
BRANCH  23  24
HETATM   24  C8  UNL     1      86.155 -27.123   3.034  1.00  0.00     0.227 C 
BRANCH  24  25
HETATM   25  C9  UNL     1      87.161 -27.191   1.903  1.00  0.00     0.192 C 
BRANCH  25  26
HETATM   26  O3  UNL     1      87.996 -26.076   1.893  1.00  0.00    -0.399 OA
ATOM     27  H3  UNL     1      88.799 -26.238   2.375  1.00  0.00     0.209 HD
ENDBRANCH  25  26
ENDBRANCH  24  25
ENDBRANCH  23  24
ENDBRANCH  21  23
ENDBRANCH   7  21
TORSDOF 11
ENDMDL
MODEL 2
REMARK VINA RESULT: -7.116559415      1.010      1.217
REMARK  11 active torsions:
REMARK  status: ('A' for Active; 'I' for Inactive)
REMARK    1  A    between atoms: S1_2  and  C2_4 
REMARK    2  A    between atoms: C2_4  and  C3_5 
REMARK    3  A    between atoms: C3_5  and  C4_6 
REMARK    4  A    between atoms: C4_6  and  N1_7 
REMARK    5  A    between atoms: N1_7  and  C5_9 
REMARK    6  A    between atoms: C6_12  and  N3_13 
REMARK    7  A    between atoms: C7_18  and  N5_19 
REMARK    8  A    between atoms: N5_19  and  O2_21 
REMARK    9  A    between atoms: O2_21  and  C8_22 
REMARK   10  A    between atoms: C8_22  and  C9_23 
REMARK   11  A    between atoms: C9_23  and  O3_24 
ROOT
HETATM    1  C5  UNL     1      84.729 -31.154   0.601  1.00  0.00     0.707 A 
HETATM    2  N2  UNL     1      83.412 -30.923   0.560  1.00  0.00    -0.022 N 
ATOM      3  H2  UNL     1      82.898 -31.196  -0.277  1.00  0.00     0.203 HD
HETATM    4  C6  UNL     1      82.730 -30.348   1.568  1.00  0.00     0.705 A 
HETATM    5  N4  UNL     1      83.405 -29.988   2.671  1.00  0.00    -0.020 N 
ATOM      6  H4  UNL     1      82.910 -29.551   3.449  1.00  0.00     0.203 HD
HETATM    7  C7  UNL     1      84.748 -30.203   2.760  1.00  0.00     0.731 A 
HETATM    8  N6  UNL     1      85.376 -30.778   1.730  1.00  0.00    -0.020 N 
ATOM      9  H6  UNL     1      86.381 -30.940   1.796  1.00  0.00     0.203 HD
ENDROOT
BRANCH   1  10
HETATM   10  N1  UNL     1      85.423 -31.700  -0.336  1.00  0.00    -0.225 N 
ATOM     11  H1  UNL     1      85.409 -32.707  -0.500  1.00  0.00     0.177 HD
BRANCH  10  12
HETATM   12  C4  UNL     1      86.235 -30.792  -1.154  1.00  0.00     0.139 C 
BRANCH  12  13
HETATM   13  C3  UNL     1      87.215 -31.498  -1.999  1.00  0.00     0.033 C 
BRANCH  13  14
HETATM   14  C2  UNL     1      88.089 -30.586  -2.788  1.00  0.00     0.110 C 
BRANCH  14  15
HETATM   15  S1  UNL     1      88.031 -28.901  -2.362  1.00  0.00     0.010 S 
HETATM   16  C1  UNL     1      86.671 -27.964  -2.877  1.00  0.00     0.127 C 
HETATM   17  O1  UNL     1      89.474 -28.134  -2.657  1.00  0.00    -0.258 OA
ENDBRANCH  14  15
ENDBRANCH  13  14
ENDBRANCH  12  13
ENDBRANCH  10  12
ENDBRANCH   1  10
BRANCH   4  18
HETATM   18  N3  UNL     1      81.463 -30.143   1.488  1.00  0.00    -0.234 N 
ATOM     19  H32 UNL     1      81.069 -29.666   0.677  1.00  0.00     0.174 HD
ATOM     20  H31 UNL     1      80.827 -30.450   2.225  1.00  0.00     0.174 HD
ENDBRANCH   4  18
BRANCH   7  21
HETATM   21  N5  UNL     1      85.343 -29.839   3.838  1.00  0.00    -0.095 N 
ATOM     22  H5  UNL     1      85.124 -30.323   4.709  1.00  0.00     0.213 HD
BRANCH  21  23
HETATM   23  O2  UNL     1      86.253 -28.831   3.857  1.00  0.00    -0.264 OA
BRANCH  23  24
HETATM   24  C8  UNL     1      86.196 -27.798   2.899  1.00  0.00     0.227 C 
BRANCH  24  25
HETATM   25  C9  UNL     1      85.388 -26.670   3.509  1.00  0.00     0.192 C 
BRANCH  25  26
HETATM   26  O3  UNL     1      84.679 -27.098   4.629  1.00  0.00    -0.399 OA
ATOM     27  H3  UNL     1      84.370 -27.990   4.525  1.00  0.00     0.209 HD
ENDBRANCH  25  26
ENDBRANCH  24  25
ENDBRANCH  23  24
ENDBRANCH  21  23
ENDBRANCH   7  21
TORSDOF 11
ENDMDL
MODEL 3
REMARK VINA RESULT: -7.021472960      3.877      7.017
REMARK  11 active torsions:
REMARK  status: ('A' for Active; 'I' for Inactive)
REMARK    1  A    between atoms: S1_2  and  C2_4 
REMARK    2  A    between atoms: C2_4  and  C3_5 
REMARK    3  A    between atoms: C3_5  and  C4_6 
REMARK    4  A    between atoms: C4_6  and  N1_7 
REMARK    5  A    between atoms: N1_7  and  C5_9 
REMARK    6  A    between atoms: C6_12  and  N3_13 
REMARK    7  A    between atoms: C7_18  and  N5_19 
REMARK    8  A    between atoms: N5_19  and  O2_21 
REMARK    9  A    between atoms: O2_21  and  C8_22 
REMARK   10  A    between atoms: C8_22  and  C9_23 
REMARK   11  A    between atoms: C9_23  and  O3_24 
ROOT
HETATM    1  C5  UNL     1      86.122 -30.753  -1.536  1.00  0.00     0.707 A 
HETATM    2  N2  UNL     1      86.923 -29.713  -1.789  1.00  0.00    -0.022 N 
ATOM      3  H2  UNL     1      86.628 -28.788  -1.480  1.00  0.00     0.203 HD
HETATM    4  C6  UNL     1      88.100 -29.826  -2.433  1.00  0.00     0.705 A 
HETATM    5  N4  UNL     1      88.490 -31.044  -2.840  1.00  0.00    -0.020 N 
ATOM      6  H4  UNL     1      89.379 -31.154  -3.329  1.00  0.00     0.203 HD
HETATM    7  C7  UNL     1      87.708 -32.134  -2.605  1.00  0.00     0.731 A 
HETATM    8  N6  UNL     1      86.548 -31.967  -1.962  1.00  0.00    -0.020 N 
ATOM      9  H6  UNL     1      85.962 -32.783  -1.785  1.00  0.00     0.203 HD
ENDROOT
BRANCH   1  10
HETATM   10  N1  UNL     1      84.989 -30.695  -0.925  1.00  0.00    -0.225 N 
ATOM     11  H1  UNL     1      84.196 -30.183  -1.309  1.00  0.00     0.177 HD
BRANCH  10  12
HETATM   12  C4  UNL     1      84.906 -31.409   0.354  1.00  0.00     0.139 C 
BRANCH  12  13
HETATM   13  C3  UNL     1      85.486 -30.649   1.477  1.00  0.00     0.033 C 
BRANCH  13  14
HETATM   14  C2  UNL     1      84.623 -29.530   1.948  1.00  0.00     0.110 C 
BRANCH  14  15
HETATM   15  S1  UNL     1      85.125 -28.729   3.406  1.00  0.00     0.010 S 
HETATM   16  C1  UNL     1      85.567 -27.057   3.322  1.00  0.00     0.127 C 
HETATM   17  O1  UNL     1      86.224 -29.629   4.266  1.00  0.00    -0.258 OA
ENDBRANCH  14  15
ENDBRANCH  13  14
ENDBRANCH  12  13
ENDBRANCH  10  12
ENDBRANCH   1  10
BRANCH   4  18
HETATM   18  N3  UNL     1      88.842 -28.799  -2.657  1.00  0.00    -0.234 N 
ATOM     19  H32 UNL     1      89.379 -28.732  -3.521  1.00  0.00     0.174 HD
ATOM     20  H31 UNL     1      88.910 -28.035  -1.984  1.00  0.00     0.174 HD
ENDBRANCH   4  18
BRANCH   7  21
HETATM   21  N5  UNL     1      88.130 -33.275  -3.017  1.00  0.00    -0.095 N 
ATOM     22  H5  UNL     1      88.466 -33.359  -3.976  1.00  0.00     0.213 HD
BRANCH  21  23
HETATM   23  O2  UNL     1      88.145 -34.373  -2.217  1.00  0.00    -0.264 OA
BRANCH  23  24
HETATM   24  C8  UNL     1      89.197 -35.307  -2.304  1.00  0.00     0.227 C 
BRANCH  24  25
HETATM   25  C9  UNL     1      88.785 -36.519  -1.493  1.00  0.00     0.192 C 
BRANCH  25  26
HETATM   26  O3  UNL     1      89.776 -36.890  -0.588  1.00  0.00    -0.399 OA
ATOM     27  H3  UNL     1      89.861 -37.835  -0.533  1.00  0.00     0.209 HD
ENDBRANCH  25  26
ENDBRANCH  24  25
ENDBRANCH  23  24
ENDBRANCH  21  23
ENDBRANCH   7  21
TORSDOF 11
ENDMDL
MODEL 4
REMARK VINA RESULT: -6.965681515      1.460      1.697
REMARK  11 active torsions:
REMARK  status: ('A' for Active; 'I' for Inactive)
REMARK    1  A    between atoms: S1_2  and  C2_4 
REMARK    2  A    between atoms: C2_4  and  C3_5 
REMARK    3  A    between atoms: C3_5  and  C4_6 
REMARK    4  A    between atoms: C4_6  and  N1_7 
REMARK    5  A    between atoms: N1_7  and  C5_9 
REMARK    6  A    between atoms: C6_12  and  N3_13 
REMARK    7  A    between atoms: C7_18  and  N5_19 
REMARK    8  A    between atoms: N5_19  and  O2_21 
REMARK    9  A    between atoms: O2_21  and  C8_22 
REMARK   10  A    between atoms: C8_22  and  C9_23 
REMARK   11  A    between atoms: C9_23  and  O3_24 
ROOT
HETATM    1  C5  UNL     1      84.880 -30.874  -0.246  1.00  0.00     0.707 A 
HETATM    2  N2  UNL     1      83.577 -30.865   0.055  1.00  0.00    -0.022 N 
ATOM      3  H2  UNL     1      82.913 -31.164  -0.658  1.00  0.00     0.203 HD
HETATM    4  C6  UNL     1      83.097 -30.480   1.253  1.00  0.00     0.705 A 
HETATM    5  N4  UNL     1      83.971 -30.086   2.193  1.00  0.00    -0.020 N 
ATOM      6  H4  UNL     1      83.631 -29.790   3.108  1.00  0.00     0.203 HD
HETATM    7  C7  UNL     1      85.308 -30.078   1.933  1.00  0.00     0.731 A 
HETATM    8  N6  UNL     1      85.732 -30.470   0.728  1.00  0.00    -0.020 N 
ATOM      9  H6  UNL     1      86.733 -30.465   0.533  1.00  0.00     0.203 HD
ENDROOT
BRANCH   1  10
HETATM   10  N1  UNL     1      85.386 -31.233  -1.374  1.00  0.00    -0.225 N 
ATOM     11  H1  UNL     1      84.815 -31.330  -2.214  1.00  0.00     0.177 HD
BRANCH  10  12
HETATM   12  C4  UNL     1      86.830 -31.495  -1.383  1.00  0.00     0.139 C 
BRANCH  12  13
HETATM   13  C3  UNL     1      87.473 -31.133  -2.659  1.00  0.00     0.033 C 
BRANCH  13  14
HETATM   14  C2  UNL     1      88.232 -29.852  -2.601  1.00  0.00     0.110 C 
BRANCH  14  15
HETATM   15  S1  UNL     1      87.302 -28.417  -2.289  1.00  0.00     0.010 S 
HETATM   16  C1  UNL     1      87.269 -27.788  -0.677  1.00  0.00     0.127 C 
HETATM   17  O1  UNL     1      85.789 -28.494  -2.967  1.00  0.00    -0.258 OA
ENDBRANCH  14  15
ENDBRANCH  13  14
ENDBRANCH  12  13
ENDBRANCH  10  12
ENDBRANCH   1  10
BRANCH   4  18
HETATM   18  N3  UNL     1      81.835 -30.485   1.502  1.00  0.00    -0.234 N 
ATOM     19  H32 UNL     1      81.476 -30.966   2.327  1.00  0.00     0.174 HD
ATOM     20  H31 UNL     1      81.170 -30.015   0.887  1.00  0.00     0.174 HD
ENDBRANCH   4  18
BRANCH   7  21
HETATM   21  N5  UNL     1      86.098 -29.692   2.869  1.00  0.00    -0.095 N 
ATOM     22  H5  UNL     1      86.157 -30.245   3.724  1.00  0.00     0.213 HD
BRANCH  21  23
HETATM   23  O2  UNL     1      86.856 -28.569   2.759  1.00  0.00    -0.264 OA
BRANCH  23  24
HETATM   24  C8  UNL     1      86.252 -27.295   2.768  1.00  0.00     0.227 C 
BRANCH  24  25
HETATM   25  C9  UNL     1      85.522 -27.159   4.089  1.00  0.00     0.192 C 
BRANCH  25  26
HETATM   26  O3  UNL     1      86.334 -27.518   5.161  1.00  0.00    -0.399 OA
ATOM     27  H3  UNL     1      86.762 -26.761   5.543  1.00  0.00     0.209 HD
ENDBRANCH  25  26
ENDBRANCH  24  25
ENDBRANCH  23  24
ENDBRANCH  21  23
ENDBRANCH   7  21
TORSDOF 11
ENDMDL
MODEL 5
REMARK VINA RESULT: -6.916712913      1.918      2.325
REMARK  11 active torsions:
REMARK  status: ('A' for Active; 'I' for Inactive)
REMARK    1  A    between atoms: S1_2  and  C2_4 
REMARK    2  A    between atoms: C2_4  and  C3_5 
REMARK    3  A    between atoms: C3_5  and  C4_6 
REMARK    4  A    between atoms: C4_6  and  N1_7 
REMARK    5  A    between atoms: N1_7  and  C5_9 
REMARK    6  A    between atoms: C6_12  and  N3_13 
REMARK    7  A    between atoms: C7_18  and  N5_19 
REMARK    8  A    between atoms: N5_19  and  O2_21 
REMARK    9  A    between atoms: O2_21  and  C8_22 
REMARK   10  A    between atoms: C8_22  and  C9_23 
REMARK   11  A    between atoms: C9_23  and  O3_24 
ROOT
HETATM    1  C5  UNL     1      84.973 -29.385  -0.152  1.00  0.00     0.707 A 
HETATM    2  N2  UNL     1      83.711 -29.760   0.082  1.00  0.00    -0.022 N 
ATOM      3  H2  UNL     1      83.055 -29.765  -0.698  1.00  0.00     0.203 HD
HETATM    4  C6  UNL     1      83.263 -30.130   1.296  1.00  0.00     0.705 A 
HETATM    5  N4  UNL     1      84.127 -30.124   2.324  1.00  0.00    -0.020 N 
ATOM      6  H4  UNL     1      83.811 -30.402   3.254  1.00  0.00     0.203 HD
HETATM    7  C7  UNL     1      85.423 -29.749   2.135  1.00  0.00     0.731 A 
HETATM    8  N6  UNL     1      85.816 -29.391   0.909  1.00  0.00    -0.020 N 
ATOM      9  H6  UNL     1      86.786 -29.111   0.766  1.00  0.00     0.203 HD
ENDROOT
BRANCH   1  10
HETATM   10  N1  UNL     1      85.447 -29.022  -1.293  1.00  0.00    -0.225 N 
ATOM     11  H1  UNL     1      84.848 -28.883  -2.107  1.00  0.00     0.177 HD
BRANCH  10  12
HETATM   12  C4  UNL     1      86.899 -28.822  -1.357  1.00  0.00     0.139 C 
BRANCH  12  13
HETATM   13  C3  UNL     1      87.487 -29.267  -2.634  1.00  0.00     0.033 C 
BRANCH  13  14
HETATM   14  C2  UNL     1      88.367 -30.461  -2.501  1.00  0.00     0.110 C 
BRANCH  14  15
HETATM   15  S1  UNL     1      87.569 -32.001  -2.391  1.00  0.00     0.010 S 
HETATM   16  C1  UNL     1      87.727 -33.111  -3.709  1.00  0.00     0.127 C 
HETATM   17  O1  UNL     1      85.997 -31.853  -1.876  1.00  0.00    -0.258 OA
ENDBRANCH  14  15
ENDBRANCH  13  14
ENDBRANCH  12  13
ENDBRANCH  10  12
ENDBRANCH   1  10
BRANCH   4  18
HETATM   18  N3  UNL     1      82.040 -30.484   1.479  1.00  0.00    -0.234 N 
ATOM     19  H32 UNL     1      81.772 -31.465   1.400  1.00  0.00     0.174 HD
ATOM     20  H31 UNL     1      81.317 -29.801   1.706  1.00  0.00     0.174 HD
ENDBRANCH   4  18
BRANCH   7  21
HETATM   21  N5  UNL     1      86.205 -29.762   3.153  1.00  0.00    -0.095 N 
ATOM     22  H5  UNL     1      86.638 -30.643   3.431  1.00  0.00     0.213 HD
BRANCH  21  23
HETATM   23  O2  UNL     1      86.474 -28.641   3.872  1.00  0.00    -0.264 OA
BRANCH  23  24
HETATM   24  C8  UNL     1      85.480 -27.660   4.065  1.00  0.00     0.227 C 
BRANCH  24  25
HETATM   25  C9  UNL     1      85.900 -26.440   3.270  1.00  0.00     0.192 C 
BRANCH  25  26
HETATM   26  O3  UNL     1      86.875 -26.756   2.326  1.00  0.00    -0.399 OA
ATOM     27  H3  UNL     1      87.472 -27.419   2.652  1.00  0.00     0.209 HD
ENDBRANCH  25  26
ENDBRANCH  24  25
ENDBRANCH  23  24
ENDBRANCH  21  23
ENDBRANCH   7  21
TORSDOF 11
ENDMDL
