MODEL 1
REMARK VINA RESULT: -6.719718967      0.000      0.000
REMARK  10 active torsions:
REMARK  status: ('A' for Active; 'I' for Inactive)
REMARK    1  A    between atoms: O1_2  and  C2_3 
REMARK    2  A    between atoms: C3_6  and  N2_7 
REMARK    3  A    between atoms: N2_7  and  C4_9 
REMARK    4  A    between atoms: C4_9  and  C5_10 
REMARK    5  A    between atoms: C5_10  and  N3_11 
REMARK    6  A    between atoms: C6_17  and  N5_18 
REMARK    7  A    between atoms: N5_18  and  C7_20 
REMARK    8  A    between atoms: C7_20  and  C8_21 
REMARK    9  A    between atoms: C8_21  and  O2_22 
REMARK   10  A    between atoms: O2_22  and  N6_23 
REMARK       I    between atoms: N6_23  and  C9_25 
ROOT
HETATM    1  C2  UNL     1      51.804  12.539  80.462  1.00  0.00     0.252 A 
HETATM    2  N1  UNL     1      52.895  12.048  81.082  1.00  0.00    -0.154 N 
ATOM      3  H1  UNL     1      53.067  11.042  81.097  1.00  0.00     0.188 HD
HETATM    4  C3  UNL     1      53.768  12.899  81.689  1.00  0.00     0.695 A 
HETATM    5  N4  UNL     1      53.569  14.229  81.684  1.00  0.00    -0.022 N 
ATOM      6  H4  UNL     1      54.233  14.853  82.144  1.00  0.00     0.203 HD
HETATM    7  C6  UNL     1      52.484  14.726  81.068  1.00  0.00     0.695 A 
HETATM    8  N9  UNL     1      51.615  13.872  80.465  1.00  0.00    -0.154 N 
ATOM      9  H9  UNL     1      50.793  14.255  79.998  1.00  0.00     0.188 HD
ENDROOT
BRANCH   7  10
HETATM   10  N5  UNL     1      52.206  15.977  81.009  1.00  0.00    -0.223 N 
ATOM     11  H5  UNL     1      51.633  16.289  80.225  1.00  0.00     0.177 HD
BRANCH  10  12
HETATM   12  C7  UNL     1      52.627  16.970  81.942  1.00  0.00     0.166 C 
BRANCH  12  13
HETATM   13  C8  UNL     1      51.994  16.654  83.294  1.00  0.00     0.221 C 
BRANCH  13  14
HETATM   14  O2  UNL     1      52.943  16.098  84.161  1.00  0.00    -0.276 OA
BRANCH  14  15
HETATM   15  N6  UNL     1      54.073  16.829  84.020  1.00  0.00    -0.239 N 
HETATM   16  C9  UNL     1      55.341  16.211  83.969  1.00  0.00     0.205 C 
HETATM   17  N7  UNL     1      55.865  15.753  85.057  1.00  0.00    -0.372 N 
HETATM   18  N8  UNL     1      56.032  16.090  82.753  1.00  0.00    -0.062 NA
ATOM     19  H72 UNL     1      55.362  15.840  85.941  1.00  0.00     0.158 HD
ATOM     20  H71 UNL     1      56.781  15.306  85.020  1.00  0.00     0.158 HD
ATOM     21  H6  UNL     1      54.007  17.845  83.951  1.00  0.00     0.197 HD
ENDBRANCH  14  15
ENDBRANCH  13  14
ENDBRANCH  12  13
ENDBRANCH  10  12
ENDBRANCH   7  10
BRANCH   4  22
HETATM   22  N2  UNL     1      54.778  12.362  82.256  1.00  0.00    -0.224 N 
ATOM     23  H2  UNL     1      55.335  11.717  81.696  1.00  0.00     0.177 HD
BRANCH  22  24
HETATM   24  C4  UNL     1      55.202  12.583  83.615  1.00  0.00     0.165 C 
BRANCH  24  25
HETATM   25  C5  UNL     1      56.714  12.369  83.776  1.00  0.00     0.249 C 
BRANCH  25  26
HETATM   26  N3  UNL     1      57.365  13.387  82.971  1.00  0.00    -0.078 N 
ATOM     27  H33 UNL     1      57.153  13.310  81.976  1.00  0.00     0.274 HD
ATOM     28  H32 UNL     1      56.979  14.321  83.112  1.00  0.00     0.274 HD
ATOM     29  H31 UNL     1      58.362  13.328  83.176  1.00  0.00     0.274 HD
ENDBRANCH  25  26
ENDBRANCH  24  25
ENDBRANCH  22  24
ENDBRANCH   4  22
BRANCH   1  30
HETATM   30  O1  UNL     1      50.875  11.702  79.822  1.00  0.00    -0.326 OA
HETATM   31  C1  UNL     1      51.367  10.529  79.210  1.00  0.00     0.213 C 
ENDBRANCH   1  30
TORSDOF 10
ENDMDL
MODEL 2
REMARK VINA RESULT: -6.612015231      2.039      4.657
REMARK  10 active torsions:
REMARK  status: ('A' for Active; 'I' for Inactive)
REMARK    1  A    between atoms: O1_2  and  C2_3 
REMARK    2  A    between atoms: C3_6  and  N2_7 
REMARK    3  A    between atoms: N2_7  and  C4_9 
REMARK    4  A    between atoms: C4_9  and  C5_10 
REMARK    5  A    between atoms: C5_10  and  N3_11 
REMARK    6  A    between atoms: C6_17  and  N5_18 
REMARK    7  A    between atoms: N5_18  and  C7_20 
REMARK    8  A    between atoms: C7_20  and  C8_21 
REMARK    9  A    between atoms: C8_21  and  O2_22 
REMARK   10  A    between atoms: O2_22  and  N6_23 
REMARK       I    between atoms: N6_23  and  C9_25 
ROOT
HETATM    1  C2  UNL     1      52.274  14.911  81.441  1.00  0.00     0.252 A 
HETATM    2  N1  UNL     1      51.358  13.999  81.056  1.00  0.00    -0.154 N 
ATOM      3  H1  UNL     1      50.507  14.298  80.579  1.00  0.00     0.188 HD
HETATM    4  C3  UNL     1      51.573  12.678  81.307  1.00  0.00     0.695 A 
HETATM    5  N4  UNL     1      52.686  12.255  81.933  1.00  0.00    -0.022 N 
ATOM      6  H4  UNL     1      52.831  11.261  82.114  1.00  0.00     0.203 HD
HETATM    7  C6  UNL     1      53.602  13.157  82.319  1.00  0.00     0.695 A 
HETATM    8  N9  UNL     1      53.383  14.475  82.067  1.00  0.00    -0.154 N 
ATOM      9  H9  UNL     1      54.082  15.156  82.363  1.00  0.00     0.188 HD
ENDROOT
BRANCH   7  10
HETATM   10  N5  UNL     1      54.694  12.854  82.922  1.00  0.00    -0.223 N 
ATOM     11  H5  UNL     1      55.514  12.681  82.340  1.00  0.00     0.177 HD
BRANCH  10  12
HETATM   12  C7  UNL     1      54.863  12.738  84.333  1.00  0.00     0.166 C 
BRANCH  12  13
HETATM   13  C8  UNL     1      56.126  13.499  84.728  1.00  0.00     0.221 C 
BRANCH  13  14
HETATM   14  O2  UNL     1      57.164  13.223  83.831  1.00  0.00    -0.276 OA
BRANCH  14  15
HETATM   15  N6  UNL     1      58.163  14.091  84.114  1.00  0.00    -0.239 N 
HETATM   16  C9  UNL     1      58.385  15.236  83.317  1.00  0.00     0.205 C 
HETATM   17  N7  UNL     1      58.937  15.099  82.158  1.00  0.00    -0.372 N 
HETATM   18  N8  UNL     1      58.013  16.511  83.771  1.00  0.00    -0.062 NA
ATOM     19  H72 UNL     1      59.208  14.172  81.828  1.00  0.00     0.158 HD
ATOM     20  H71 UNL     1      59.098  15.926  81.581  1.00  0.00     0.158 HD
ATOM     21  H6  UNL     1      58.765  13.916  84.918  1.00  0.00     0.197 HD
ENDBRANCH  14  15
ENDBRANCH  13  14
ENDBRANCH  12  13
ENDBRANCH  10  12
ENDBRANCH   7  10
BRANCH   4  22
HETATM   22  N2  UNL     1      50.663  11.875  80.915  1.00  0.00    -0.224 N 
ATOM     23  H2  UNL     1      49.702  12.219  80.930  1.00  0.00     0.177 HD
BRANCH  22  24
HETATM   24  C4  UNL     1      50.867  10.525  80.453  1.00  0.00     0.165 C 
BRANCH  24  25
HETATM   25  C5  UNL     1      51.295  10.492  78.979  1.00  0.00     0.249 C 
BRANCH  25  26
HETATM   26  N3  UNL     1      52.613   9.886  78.942  1.00  0.00    -0.078 N 
ATOM     27  H33 UNL     1      53.320  10.486  78.517  1.00  0.00     0.274 HD
ATOM     28  H32 UNL     1      53.047   9.810  79.863  1.00  0.00     0.274 HD
ATOM     29  H31 UNL     1      52.509   8.988  78.470  1.00  0.00     0.274 HD
ENDBRANCH  25  26
ENDBRANCH  24  25
ENDBRANCH  22  24
ENDBRANCH   4  22
BRANCH   1  30
HETATM   30  O1  UNL     1      52.097  16.284  81.204  1.00  0.00    -0.326 OA
HETATM   31  C1  UNL     1      52.517  17.179  82.211  1.00  0.00     0.213 C 
ENDBRANCH   1  30
TORSDOF 10
ENDMDL
MODEL 3
REMARK VINA RESULT: -6.580570500      1.489      3.561
REMARK  10 active torsions:
REMARK  status: ('A' for Active; 'I' for Inactive)
REMARK    1  A    between atoms: O1_2  and  C2_3 
REMARK    2  A    between atoms: C3_6  and  N2_7 
REMARK    3  A    between atoms: N2_7  and  C4_9 
REMARK    4  A    between atoms: C4_9  and  C5_10 
REMARK    5  A    between atoms: C5_10  and  N3_11 
REMARK    6  A    between atoms: C6_17  and  N5_18 
REMARK    7  A    between atoms: N5_18  and  C7_20 
REMARK    8  A    between atoms: C7_20  and  C8_21 
REMARK    9  A    between atoms: C8_21  and  O2_22 
REMARK   10  A    between atoms: O2_22  and  N6_23 
REMARK       I    between atoms: N6_23  and  C9_25 
ROOT
HETATM    1  C2  UNL     1      53.639  12.895  82.164  1.00  0.00     0.252 A 
HETATM    2  N1  UNL     1      52.618  12.067  81.864  1.00  0.00    -0.154 N 
ATOM      3  H1  UNL     1      52.688  11.071  82.072  1.00  0.00     0.188 HD
HETATM    4  C3  UNL     1      51.493  12.566  81.281  1.00  0.00     0.695 A 
HETATM    5  N4  UNL     1      51.373  13.875  80.996  1.00  0.00    -0.022 N 
ATOM      6  H4  UNL     1      50.522  14.233  80.559  1.00  0.00     0.203 HD
HETATM    7  C6  UNL     1      52.385  14.706  81.292  1.00  0.00     0.695 A 
HETATM    8  N9  UNL     1      53.507  14.202  81.873  1.00  0.00    -0.154 N 
ATOM      9  H9  UNL     1      54.273  14.837  82.096  1.00  0.00     0.188 HD
ENDROOT
BRANCH   7  10
HETATM   10  N5  UNL     1      52.366  15.968  81.060  1.00  0.00    -0.223 N 
ATOM     11  H5  UNL     1      52.139  16.262  80.110  1.00  0.00     0.177 HD
BRANCH  10  12
HETATM   12  C7  UNL     1      52.635  16.994  82.012  1.00  0.00     0.166 C 
BRANCH  12  13
HETATM   13  C8  UNL     1      51.985  16.601  83.336  1.00  0.00     0.221 C 
BRANCH  13  14
HETATM   14  O2  UNL     1      52.950  16.132  84.235  1.00  0.00    -0.276 OA
BRANCH  14  15
HETATM   15  N6  UNL     1      54.080  16.836  83.994  1.00  0.00    -0.239 N 
HETATM   16  C9  UNL     1      55.340  16.202  83.948  1.00  0.00     0.205 C 
HETATM   17  N7  UNL     1      55.900  15.830  85.052  1.00  0.00    -0.372 N 
HETATM   18  N8  UNL     1      55.986  15.973  82.723  1.00  0.00    -0.062 NA
ATOM     19  H72 UNL     1      55.431  15.995  85.942  1.00  0.00     0.158 HD
ATOM     20  H71 UNL     1      56.811  15.371  85.019  1.00  0.00     0.158 HD
ATOM     21  H6  UNL     1      54.020  17.843  83.843  1.00  0.00     0.197 HD
ENDBRANCH  14  15
ENDBRANCH  13  14
ENDBRANCH  12  13
ENDBRANCH  10  12
ENDBRANCH   7  10
BRANCH   4  22
HETATM   22  N2  UNL     1      50.569  11.724  81.025  1.00  0.00    -0.224 N 
ATOM     23  H2  UNL     1      49.614  12.000  81.254  1.00  0.00     0.177 HD
BRANCH  22  24
HETATM   24  C4  UNL     1      50.751  10.418  80.444  1.00  0.00     0.165 C 
BRANCH  24  25
HETATM   25  C5  UNL     1      51.204  10.512  78.979  1.00  0.00     0.249 C 
BRANCH  25  26
HETATM   26  N3  UNL     1      52.494   9.851  78.900  1.00  0.00    -0.078 N 
ATOM     27  H33 UNL     1      53.266  10.435  79.224  1.00  0.00     0.274 HD
ATOM     28  H32 UNL     1      52.606   9.101  79.583  1.00  0.00     0.274 HD
ATOM     29  H31 UNL     1      52.604   9.539  77.936  1.00  0.00     0.274 HD
ENDBRANCH  25  26
ENDBRANCH  24  25
ENDBRANCH  22  24
ENDBRANCH   4  22
BRANCH   1  30
HETATM   30  O1  UNL     1      54.819  12.427  82.765  1.00  0.00    -0.326 OA
HETATM   31  C1  UNL     1      54.927  12.540  84.167  1.00  0.00     0.213 C 
ENDBRANCH   1  30
TORSDOF 10
ENDMDL
MODEL 4
REMARK VINA RESULT: -6.337300318      1.586      3.686
REMARK  10 active torsions:
REMARK  status: ('A' for Active; 'I' for Inactive)
REMARK    1  A    between atoms: O1_2  and  C2_3 
REMARK    2  A    between atoms: C3_6  and  N2_7 
REMARK    3  A    between atoms: N2_7  and  C4_9 
REMARK    4  A    between atoms: C4_9  and  C5_10 
REMARK    5  A    between atoms: C5_10  and  N3_11 
REMARK    6  A    between atoms: C6_17  and  N5_18 
REMARK    7  A    between atoms: N5_18  and  C7_20 
REMARK    8  A    between atoms: C7_20  and  C8_21 
REMARK    9  A    between atoms: C8_21  and  O2_22 
REMARK   10  A    between atoms: O2_22  and  N6_23 
REMARK       I    between atoms: N6_23  and  C9_25 
ROOT
HETATM    1  C2  UNL     1      51.541  12.416  80.285  1.00  0.00     0.252 A 
HETATM    2  N1  UNL     1      51.600  13.751  80.103  1.00  0.00    -0.154 N 
ATOM      3  H1  UNL     1      51.051  14.192  79.366  1.00  0.00     0.188 HD
HETATM    4  C3  UNL     1      52.396  14.508  80.908  1.00  0.00     0.695 A 
HETATM    5  N4  UNL     1      53.131  13.953  81.889  1.00  0.00    -0.022 N 
ATOM      6  H4  UNL     1      53.723  14.536  82.483  1.00  0.00     0.203 HD
HETATM    7  C6  UNL     1      53.078  12.625  82.076  1.00  0.00     0.695 A 
HETATM    8  N9  UNL     1      52.282  11.873  81.269  1.00  0.00    -0.154 N 
ATOM      9  H9  UNL     1      52.245  10.865  81.415  1.00  0.00     0.188 HD
ENDROOT
BRANCH   7  10
HETATM   10  N5  UNL     1      53.740  12.003  82.983  1.00  0.00    -0.223 N 
ATOM     11  H5  UNL     1      53.718  10.984  82.957  1.00  0.00     0.177 HD
BRANCH  10  12
HETATM   12  C7  UNL     1      54.502  12.612  84.023  1.00  0.00     0.166 C 
BRANCH  12  13
HETATM   13  C8  UNL     1      55.969  12.614  83.601  1.00  0.00     0.221 C 
BRANCH  13  14
HETATM   14  O2  UNL     1      56.305  13.835  83.006  1.00  0.00    -0.276 OA
BRANCH  14  15
HETATM   15  N6  UNL     1      57.378  14.313  83.680  1.00  0.00    -0.239 N 
HETATM   16  C9  UNL     1      58.181  15.341  83.140  1.00  0.00     0.205 C 
HETATM   17  N7  UNL     1      59.003  15.063  82.183  1.00  0.00    -0.372 N 
HETATM   18  N8  UNL     1      58.094  16.654  83.630  1.00  0.00    -0.062 NA
ATOM     19  H72 UNL     1      59.066  14.110  81.826  1.00  0.00     0.158 HD
ATOM     20  H71 UNL     1      59.583  15.806  81.792  1.00  0.00     0.158 HD
ATOM     21  H6  UNL     1      57.610  13.924  84.594  1.00  0.00     0.197 HD
ENDBRANCH  14  15
ENDBRANCH  13  14
ENDBRANCH  12  13
ENDBRANCH  10  12
ENDBRANCH   7  10
BRANCH   4  22
HETATM   22  N2  UNL     1      52.401  15.763  80.677  1.00  0.00    -0.224 N 
ATOM     23  H2  UNL     1      52.056  16.067  79.766  1.00  0.00     0.177 HD
BRANCH  22  24
HETATM   24  C4  UNL     1      52.850  16.789  81.583  1.00  0.00     0.165 C 
BRANCH  24  25
HETATM   25  C5  UNL     1      54.252  17.294  81.213  1.00  0.00     0.249 C 
BRANCH  25  26
HETATM   26  N3  UNL     1      55.183  16.627  82.105  1.00  0.00    -0.078 N 
ATOM     27  H33 UNL     1      54.735  15.944  82.717  1.00  0.00     0.274 HD
ATOM     28  H32 UNL     1      55.807  15.978  81.625  1.00  0.00     0.274 HD
ATOM     29  H31 UNL     1      55.677  17.360  82.613  1.00  0.00     0.274 HD
ENDBRANCH  25  26
ENDBRANCH  24  25
ENDBRANCH  22  24
ENDBRANCH   4  22
BRANCH   1  30
HETATM   30  O1  UNL     1      50.736  11.594  79.480  1.00  0.00    -0.326 OA
HETATM   31  C1  UNL     1      51.260  10.342  79.094  1.00  0.00     0.213 C 
ENDBRANCH   1  30
TORSDOF 10
ENDMDL
MODEL 5
REMARK VINA RESULT: -6.323554885      2.358      5.361
REMARK  10 active torsions:
REMARK  status: ('A' for Active; 'I' for Inactive)
REMARK    1  A    between atoms: O1_2  and  C2_3 
REMARK    2  A    between atoms: C3_6  and  N2_7 
REMARK    3  A    between atoms: N2_7  and  C4_9 
REMARK    4  A    between atoms: C4_9  and  C5_10 
REMARK    5  A    between atoms: C5_10  and  N3_11 
REMARK    6  A    between atoms: C6_17  and  N5_18 
REMARK    7  A    between atoms: N5_18  and  C7_20 
REMARK    8  A    between atoms: C7_20  and  C8_21 
REMARK    9  A    between atoms: C8_21  and  O2_22 
REMARK   10  A    between atoms: O2_22  and  N6_23 
REMARK       I    between atoms: N6_23  and  C9_25 
ROOT
HETATM    1  C2  UNL     1      54.078  14.728  83.573  1.00  0.00     0.252 A 
HETATM    2  N1  UNL     1      53.334  14.323  82.524  1.00  0.00    -0.154 N 
ATOM      3  H1  UNL     1      52.491  14.836  82.266  1.00  0.00     0.188 HD
HETATM    4  C3  UNL     1      53.713  13.228  81.809  1.00  0.00     0.695 A 
HETATM    5  N4  UNL     1      54.821  12.533  82.125  1.00  0.00    -0.022 N 
ATOM      6  H4  UNL     1      55.091  11.714  81.579  1.00  0.00     0.203 HD
HETATM    7  C6  UNL     1      55.567  12.930  83.169  1.00  0.00     0.695 A 
HETATM    8  N9  UNL     1      55.184  14.024  83.879  1.00  0.00    -0.154 N 
ATOM      9  H9  UNL     1      55.754  14.321  84.672  1.00  0.00     0.188 HD
ENDROOT
BRANCH   7  10
HETATM   10  N5  UNL     1      56.639  12.335  83.549  1.00  0.00    -0.223 N 
ATOM     11  H5  UNL     1      57.321  12.102  82.828  1.00  0.00     0.177 HD
BRANCH  10  12
HETATM   12  C7  UNL     1      56.960  11.973  84.890  1.00  0.00     0.166 C 
BRANCH  12  13
HETATM   13  C8  UNL     1      58.245  12.694  85.286  1.00  0.00     0.221 C 
BRANCH  13  14
HETATM   14  O2  UNL     1      59.018  12.976  84.153  1.00  0.00    -0.276 OA
BRANCH  14  15
HETATM   15  N6  UNL     1      59.319  14.294  84.206  1.00  0.00    -0.239 N 
HETATM   16  C9  UNL     1      58.614  15.236  83.425  1.00  0.00     0.205 C 
HETATM   17  N7  UNL     1      58.853  15.311  82.158  1.00  0.00    -0.372 N 
HETATM   18  N8  UNL     1      57.662  16.085  84.011  1.00  0.00    -0.062 NA
ATOM     19  H72 UNL     1      59.545  14.694  81.733  1.00  0.00     0.158 HD
ATOM     20  H71 UNL     1      58.344  15.992  81.594  1.00  0.00     0.158 HD
ATOM     21  H6  UNL     1      60.068  14.612  84.820  1.00  0.00     0.197 HD
ENDBRANCH  14  15
ENDBRANCH  13  14
ENDBRANCH  12  13
ENDBRANCH  10  12
ENDBRANCH   7  10
BRANCH   4  22
HETATM   22  N2  UNL     1      52.961  12.904  80.831  1.00  0.00    -0.224 N 
ATOM     23  H2  UNL     1      53.393  12.863  79.908  1.00  0.00     0.177 HD
BRANCH  22  24
HETATM   24  C4  UNL     1      51.557  12.592  80.910  1.00  0.00     0.165 C 
BRANCH  24  25
HETATM   25  C5  UNL     1      51.314  11.270  81.654  1.00  0.00     0.249 C 
BRANCH  25  26
HETATM   26  N3  UNL     1      49.968  10.845  81.317  1.00  0.00    -0.078 N 
ATOM     27  H33 UNL     1      49.524  11.433  80.611  1.00  0.00     0.274 HD
ATOM     28  H32 UNL     1      49.941   9.971  80.790  1.00  0.00     0.274 HD
ATOM     29  H31 UNL     1      49.447  10.804  82.192  1.00  0.00     0.274 HD
ENDBRANCH  25  26
ENDBRANCH  24  25
ENDBRANCH  22  24
ENDBRANCH   4  22
BRANCH   1  30
HETATM   30  O1  UNL     1      53.728  15.851  84.340  1.00  0.00    -0.326 OA
HETATM   31  C1  UNL     1      53.353  17.023  83.649  1.00  0.00     0.213 C 
ENDBRANCH   1  30
TORSDOF 10
ENDMDL
