MODEL 1
REMARK VINA RESULT: -8.669341480      0.000      0.000
REMARK  11 active torsions:
REMARK  status: ('A' for Active; 'I' for Inactive)
REMARK    1  A    between atoms: O1_2  and  N1_3 
REMARK    2  A    between atoms: N1_3  and  C2_5 
REMARK    3  A    between atoms: C4_8  and  C5_9 
REMARK    4  A    between atoms: N2_12  and  C6_13 
REMARK    5  A    between atoms: C6_13  and  C7_14 
REMARK    6  A    between atoms: C6_13  and  C15_37 
REMARK    7  A    between atoms: C7_14  and  N3_15 
REMARK    8  A    between atoms: C13_28  and  N7_29 
REMARK       I    between atoms: C15_37  and  N10_39 
REMARK    9  A    between atoms: N10_39  and  C16_41 
REMARK   10  A    between atoms: C18_43  and  O7_44 
REMARK   11  A    between atoms: C19_46  and  C20_47 
ROOT
HETATM    1  C6  UNL     1      18.502  -8.183 -11.565  1.00  0.00     0.195 C 
ENDROOT
BRANCH   1   2
HETATM    2  N2  UNL     1      17.527  -7.206 -12.056  1.00  0.00    -0.353 N 
HETATM    3  C2  UNL     1      16.719  -7.568 -13.105  1.00  0.00     0.267 C 
HETATM    4  S1  UNL     1      15.061  -7.649 -12.295  1.00  0.00    -0.119 SA
HETATM    5  C3  UNL     1      15.487  -6.383 -11.031  1.00  0.00     0.113 C 
HETATM    6  C4  UNL     1      16.973  -6.414 -11.039  1.00  0.00     0.193 C 
BRANCH   3   7
HETATM    7  N1  UNL     1      16.582  -6.693 -14.236  1.00  0.00    -0.270 N 
ATOM      8  H1  UNL     1      16.255  -5.731 -14.141  1.00  0.00     0.191 HD
BRANCH   7   9
HETATM    9  O1  UNL     1      16.906  -7.214 -15.409  1.00  0.00    -0.287 OA
HETATM   10  C1  UNL     1      15.750  -7.704 -16.014  1.00  0.00     0.237 C 
ENDBRANCH   7   9
ENDBRANCH   3   7
BRANCH   6  11
HETATM   11  C5  UNL     1      17.566  -5.071 -10.873  1.00  0.00     0.197 C 
HETATM   12  O2  UNL     1      17.458  -4.492  -9.774  1.00  0.00    -0.646 OA
HETATM   13  O3  UNL     1      18.233  -4.449 -11.903  1.00  0.00    -0.646 OA
ENDBRANCH   6  11
ENDBRANCH   1   2
BRANCH   1  14
HETATM   14  C7  UNL     1      17.989  -9.578 -11.776  1.00  0.00     0.186 C 
BRANCH  14  15
HETATM   15  N3  UNL     1      17.966 -10.433 -10.644  1.00  0.00    -0.261 N 
HETATM   16  C8  UNL     1      17.095 -10.212  -9.610  1.00  0.00     0.143 A 
HETATM   17  N4  UNL     1      16.174  -9.247  -9.365  1.00  0.00    -0.336 N 
HETATM   18  C11 UNL     1      17.269 -11.213  -8.700  1.00  0.00     0.124 A 
HETATM   19  C9  UNL     1      15.428  -9.250  -8.251  1.00  0.00     0.185 A 
ATOM     20  H4  UNL     1      16.046  -8.499 -10.047  1.00  0.00     0.168 HD
HETATM   21  N5  UNL     1      15.598 -10.226  -7.367  1.00  0.00    -0.319 N 
HETATM   22  C10 UNL     1      16.501 -11.213  -7.556  1.00  0.00     0.264 A 
ATOM     23  H5  UNL     1      15.031 -10.230  -6.520  1.00  0.00     0.169 HD
HETATM   24  O4  UNL     1      16.684 -12.143  -6.743  1.00  0.00    -0.267 OA
HETATM   25  C12 UNL     1      18.251 -12.040  -9.196  1.00  0.00     0.167 A 
HETATM   26  N6  UNL     1      18.801 -13.187  -8.711  1.00  0.00    -0.174 N 
HETATM   27  N9  UNL     1      18.670 -11.546 -10.398  1.00  0.00    -0.183 N 
HETATM   28  C13 UNL     1      19.747 -13.851  -9.381  1.00  0.00     0.681 A 
ATOM     29  H6  UNL     1      18.482 -13.550  -7.813  1.00  0.00     0.186 HD
HETATM   30  N8  UNL     1      20.142 -13.345 -10.562  1.00  0.00    -0.140 N 
HETATM   31  C14 UNL     1      19.620 -12.211 -11.075  1.00  0.00     0.361 A 
ATOM     32  H8  UNL     1      20.864 -13.837 -11.090  1.00  0.00     0.189 HD
HETATM   33  O5  UNL     1      20.019 -11.780 -12.183  1.00  0.00    -0.244 OA
BRANCH  28  34
HETATM   34  N7  UNL     1      20.245 -14.934  -8.890  1.00  0.00    -0.234 N 
ATOM     35  H72 UNL     1      21.025 -14.928  -8.233  1.00  0.00     0.174 HD
ATOM     36  H71 UNL     1      19.860 -15.840  -9.157  1.00  0.00     0.174 HD
ENDBRANCH  28  34
ENDBRANCH  14  15
ENDBRANCH   1  14
BRANCH   1  37
HETATM   37  C15 UNL     1      19.808  -7.851 -12.114  1.00  0.00     0.242 C 
HETATM   38  O6  UNL     1      20.584  -8.835 -12.433  1.00  0.00    -0.271 OA
HETATM   39  N10 UNL     1      20.316  -6.532 -12.340  1.00  0.00    -0.346 N 
ATOM     40  H10 UNL     1      19.729  -5.733 -12.098  1.00  0.00     0.163 HD
BRANCH  39  41
HETATM   41  C16 UNL     1      21.616  -6.288 -12.892  1.00  0.00     0.179 C 
HETATM   42  C17 UNL     1      21.455  -6.050 -14.386  1.00  0.00     0.069 C 
HETATM   43  C18 UNL     1      22.380  -4.972 -14.884  1.00  0.00     0.152 C 
HETATM   44  C19 UNL     1      22.062  -3.637 -14.205  1.00  0.00     0.202 C 
HETATM   45  N12 UNL     1      22.255  -3.835 -12.790  1.00  0.00    -0.344 N 
HETATM   46  C21 UNL     1      22.345  -5.157 -12.258  1.00  0.00     0.241 C 
ATOM     47  H12 UNL     1      22.328  -3.030 -12.168  1.00  0.00     0.163 HD
HETATM   48  O9  UNL     1      23.049  -5.364 -11.242  1.00  0.00    -0.271 OA
BRANCH  43  49
HETATM   49  O7  UNL     1      22.130  -4.800 -16.236  1.00  0.00    -0.393 OA
ATOM     50  H7  UNL     1      22.819  -5.246 -16.714  1.00  0.00     0.210 HD
ENDBRANCH  43  49
BRANCH  44  51
HETATM   51  C20 UNL     1      23.012  -2.640 -14.763  1.00  0.00     0.256 C 
HETATM   52  N11 UNL     1      22.618  -1.314 -15.020  1.00  0.00    -0.060 NA
HETATM   53  O8  UNL     1      24.202  -2.984 -15.016  1.00  0.00    -0.274 OA
ENDBRANCH  44  51
ENDBRANCH  39  41
ENDBRANCH   1  37
TORSDOF 11
ENDMDL
MODEL 2
REMARK VINA RESULT: -8.632189681      3.125      5.001
REMARK  11 active torsions:
REMARK  status: ('A' for Active; 'I' for Inactive)
REMARK    1  A    between atoms: O1_2  and  N1_3 
REMARK    2  A    between atoms: N1_3  and  C2_5 
REMARK    3  A    between atoms: C4_8  and  C5_9 
REMARK    4  A    between atoms: N2_12  and  C6_13 
REMARK    5  A    between atoms: C6_13  and  C7_14 
REMARK    6  A    between atoms: C6_13  and  C15_37 
REMARK    7  A    between atoms: C7_14  and  N3_15 
REMARK    8  A    between atoms: C13_28  and  N7_29 
REMARK       I    between atoms: C15_37  and  N10_39 
REMARK    9  A    between atoms: N10_39  and  C16_41 
REMARK   10  A    between atoms: C18_43  and  O7_44 
REMARK   11  A    between atoms: C19_46  and  C20_47 
ROOT
HETATM    1  C6  UNL     1      20.179  -6.948 -12.361  1.00  0.00     0.195 C 
ENDROOT
BRANCH   1   2
HETATM    2  N2  UNL     1      19.385  -5.718 -12.424  1.00  0.00    -0.353 N 
HETATM    3  C2  UNL     1      19.199  -5.007 -11.266  1.00  0.00     0.267 C 
HETATM    4  S1  UNL     1      20.169  -3.471 -11.603  1.00  0.00    -0.119 SA
HETATM    5  C3  UNL     1      19.910  -3.568 -13.421  1.00  0.00     0.113 C 
HETATM    6  C4  UNL     1      19.564  -5.001 -13.617  1.00  0.00     0.193 C 
BRANCH   3   7
HETATM    7  N1  UNL     1      17.878  -4.585 -10.890  1.00  0.00    -0.270 N 
ATOM      8  H1  UNL     1      17.184  -4.299 -11.580  1.00  0.00     0.191 HD
BRANCH   7   9
HETATM    9  O1  UNL     1      17.619  -4.590  -9.592  1.00  0.00    -0.287 OA
HETATM   10  C1  UNL     1      16.238  -4.591  -9.412  1.00  0.00     0.237 C 
ENDBRANCH   7   9
ENDBRANCH   3   7
BRANCH   6  11
HETATM   11  C5  UNL     1      18.523  -5.195 -14.648  1.00  0.00     0.197 C 
HETATM   12  O2  UNL     1      18.798  -4.950 -15.839  1.00  0.00    -0.646 OA
HETATM   13  O3  UNL     1      17.263  -5.638 -14.321  1.00  0.00    -0.646 OA
ENDBRANCH   6  11
ENDBRANCH   1   2
BRANCH   1  14
HETATM   14  C7  UNL     1      19.376  -8.110 -12.866  1.00  0.00     0.186 C 
BRANCH  14  15
HETATM   15  N3  UNL     1      19.054  -9.126 -11.929  1.00  0.00    -0.261 N 
HETATM   16  C8  UNL     1      19.856 -10.226 -11.776  1.00  0.00     0.143 A 
HETATM   17  N4  UNL     1      20.989 -10.639 -12.397  1.00  0.00    -0.336 N 
HETATM   18  C11 UNL     1      19.324 -10.992 -10.782  1.00  0.00     0.124 A 
HETATM   19  C9  UNL     1      21.602 -11.783 -12.059  1.00  0.00     0.185 A 
ATOM     20  H4  UNL     1      21.385 -10.065 -13.141  1.00  0.00     0.168 HD
HETATM   21  N5  UNL     1      21.082 -12.527 -11.091  1.00  0.00    -0.319 N 
HETATM   22  C10 UNL     1      19.956 -12.167 -10.437  1.00  0.00     0.264 A 
ATOM     23  H5  UNL     1      21.547 -13.397 -10.832  1.00  0.00     0.169 HD
HETATM   24  O4  UNL     1      19.444 -12.847  -9.523  1.00  0.00    -0.267 OA
HETATM   25  C12 UNL     1      18.195 -10.344 -10.336  1.00  0.00     0.167 A 
HETATM   26  N6  UNL     1      17.300 -10.650  -9.356  1.00  0.00    -0.174 N 
HETATM   27  N9  UNL     1      18.043  -9.192 -11.052  1.00  0.00    -0.183 N 
HETATM   28  C13 UNL     1      16.267  -9.853  -9.073  1.00  0.00     0.681 A 
ATOM     29  H6  UNL     1      17.421 -11.512  -8.825  1.00  0.00     0.186 HD
HETATM   30  N8  UNL     1      16.139  -8.724  -9.793  1.00  0.00    -0.140 N 
HETATM   31  C14 UNL     1      17.007  -8.386 -10.770  1.00  0.00     0.361 A 
ATOM     32  H8  UNL     1      15.357  -8.100  -9.592  1.00  0.00     0.189 HD
HETATM   33  O5  UNL     1      16.846  -7.321 -11.412  1.00  0.00    -0.244 OA
BRANCH  28  34
HETATM   34  N7  UNL     1      15.439 -10.176  -8.140  1.00  0.00    -0.234 N 
ATOM     35  H72 UNL     1      15.747 -10.506  -7.226  1.00  0.00     0.174 HD
ATOM     36  H71 UNL     1      14.435 -10.105  -8.302  1.00  0.00     0.174 HD
ENDBRANCH  28  34
ENDBRANCH  14  15
ENDBRANCH   1  14
BRANCH   1  37
HETATM   37  C15 UNL     1      21.472  -6.696 -12.981  1.00  0.00     0.242 C 
HETATM   38  O6  UNL     1      22.350  -6.059 -12.280  1.00  0.00    -0.271 OA
HETATM   39  N10 UNL     1      21.867  -7.095 -14.298  1.00  0.00    -0.346 N 
ATOM     40  H10 UNL     1      21.196  -7.600 -14.878  1.00  0.00     0.163 HD
BRANCH  39  41
HETATM   41  C16 UNL     1      23.165  -6.813 -14.835  1.00  0.00     0.179 C 
HETATM   42  C17 UNL     1      24.009  -8.073 -14.710  1.00  0.00     0.069 C 
HETATM   43  C18 UNL     1      24.897  -8.272 -15.909  1.00  0.00     0.152 C 
HETATM   44  C19 UNL     1      24.056  -8.448 -17.176  1.00  0.00     0.202 C 
HETATM   45  N12 UNL     1      23.284  -7.241 -17.332  1.00  0.00    -0.344 N 
HETATM   46  C21 UNL     1      23.152  -6.329 -16.241  1.00  0.00     0.241 C 
ATOM     47  H12 UNL     1      22.830  -7.037 -18.224  1.00  0.00     0.163 HD
HETATM   48  O9  UNL     1      23.023  -5.104 -16.475  1.00  0.00    -0.271 OA
BRANCH  43  49
HETATM   49  O7  UNL     1      25.588  -9.459 -15.723  1.00  0.00    -0.393 OA
ATOM     50  H7  UNL     1      25.976  -9.697 -16.557  1.00  0.00     0.210 HD
ENDBRANCH  43  49
BRANCH  44  51
HETATM   51  C20 UNL     1      25.012  -8.647 -18.296  1.00  0.00     0.256 C 
HETATM   52  N11 UNL     1      26.250  -7.979 -18.332  1.00  0.00    -0.060 NA
HETATM   53  O8  UNL     1      24.713  -9.434 -19.240  1.00  0.00    -0.274 OA
ENDBRANCH  44  51
ENDBRANCH  39  41
ENDBRANCH   1  37
TORSDOF 11
ENDMDL
MODEL 3
REMARK VINA RESULT: -8.610530526      2.212      3.195
REMARK  11 active torsions:
REMARK  status: ('A' for Active; 'I' for Inactive)
REMARK    1  A    between atoms: O1_2  and  N1_3 
REMARK    2  A    between atoms: N1_3  and  C2_5 
REMARK    3  A    between atoms: C4_8  and  C5_9 
REMARK    4  A    between atoms: N2_12  and  C6_13 
REMARK    5  A    between atoms: C6_13  and  C7_14 
REMARK    6  A    between atoms: C6_13  and  C15_37 
REMARK    7  A    between atoms: C7_14  and  N3_15 
REMARK    8  A    between atoms: C13_28  and  N7_29 
REMARK       I    between atoms: C15_37  and  N10_39 
REMARK    9  A    between atoms: N10_39  and  C16_41 
REMARK   10  A    between atoms: C18_43  and  O7_44 
REMARK   11  A    between atoms: C19_46  and  C20_47 
ROOT
HETATM    1  C6  UNL     1      19.114  -7.514 -11.861  1.00  0.00     0.195 C 
ENDROOT
BRANCH   1   2
HETATM    2  N2  UNL     1      18.192  -6.389 -12.040  1.00  0.00    -0.353 N 
HETATM    3  C2  UNL     1      18.517  -5.186 -11.465  1.00  0.00     0.267 C 
HETATM    4  S1  UNL     1      18.852  -4.135 -12.947  1.00  0.00    -0.119 SA
HETATM    5  C3  UNL     1      17.694  -5.077 -14.021  1.00  0.00     0.113 C 
HETATM    6  C4  UNL     1      17.574  -6.371 -13.300  1.00  0.00     0.193 C 
BRANCH   3   7
HETATM    7  N1  UNL     1      17.543  -4.485 -10.675  1.00  0.00    -0.270 N 
ATOM      8  H1  UNL     1      17.274  -3.522 -10.876  1.00  0.00     0.191 HD
BRANCH   7   9
HETATM    9  O1  UNL     1      17.018  -5.168  -9.670  1.00  0.00    -0.287 OA
HETATM   10  C1  UNL     1      15.812  -4.573  -9.308  1.00  0.00     0.237 C 
ENDBRANCH   7   9
ENDBRANCH   3   7
BRANCH   6  11
HETATM   11  C5  UNL     1      16.204  -6.922 -13.354  1.00  0.00     0.197 C 
HETATM   12  O2  UNL     1      15.478  -6.839 -12.344  1.00  0.00    -0.646 OA
HETATM   13  O3  UNL     1      15.717  -7.522 -14.491  1.00  0.00    -0.646 OA
ENDBRANCH   6  11
ENDBRANCH   1   2
BRANCH   1  14
HETATM   14  C7  UNL     1      18.408  -8.810 -12.131  1.00  0.00     0.186 C 
BRANCH  14  15
HETATM   15  N3  UNL     1      18.183  -9.663 -11.020  1.00  0.00    -0.261 N 
HETATM   16  C8  UNL     1      17.234  -9.364 -10.079  1.00  0.00     0.143 A 
HETATM   17  N4  UNL     1      16.390  -8.315  -9.918  1.00  0.00    -0.336 N 
HETATM   18  C11 UNL     1      17.214 -10.380  -9.171  1.00  0.00     0.124 A 
HETATM   19  C9  UNL     1      15.534  -8.250  -8.888  1.00  0.00     0.185 A 
ATOM     20  H4  UNL     1      16.406  -7.555 -10.598  1.00  0.00     0.168 HD
HETATM   21  N5  UNL     1      15.516  -9.241  -8.005  1.00  0.00    -0.319 N 
HETATM   22  C10 UNL     1      16.334 -10.310  -8.113  1.00  0.00     0.264 A 
ATOM     23  H5  UNL     1      14.865  -9.193  -7.221  1.00  0.00     0.169 HD
HETATM   24  O4  UNL     1      16.340 -11.257  -7.298  1.00  0.00    -0.267 OA
HETATM   25  C12 UNL     1      18.158 -11.297  -9.574  1.00  0.00     0.167 A 
HETATM   26  N6  UNL     1      18.542 -12.494  -9.051  1.00  0.00    -0.174 N 
HETATM   27  N9  UNL     1      18.747 -10.841 -10.718  1.00  0.00    -0.183 N 
HETATM   28  C13 UNL     1      19.484 -13.244  -9.627  1.00  0.00     0.681 A 
ATOM     29  H6  UNL     1      18.097 -12.828  -8.196  1.00  0.00     0.186 HD
HETATM   30  N8  UNL     1      20.048 -12.774 -10.754  1.00  0.00    -0.140 N 
HETATM   31  C14 UNL     1      19.694 -11.592 -11.302  1.00  0.00     0.361 A 
ATOM     32  H8  UNL     1      20.770 -13.331 -11.211  1.00  0.00     0.189 HD
HETATM   33  O5  UNL     1      20.248 -11.198 -12.356  1.00  0.00    -0.244 OA
BRANCH  28  34
HETATM   34  N7  UNL     1      19.822 -14.372  -9.103  1.00  0.00    -0.234 N 
ATOM     35  H72 UNL     1      19.515 -14.657  -8.174  1.00  0.00     0.174 HD
ATOM     36  H71 UNL     1      20.418 -15.018  -9.621  1.00  0.00     0.174 HD
ENDBRANCH  28  34
ENDBRANCH  14  15
ENDBRANCH   1  14
BRANCH   1  37
HETATM   37  C15 UNL     1      20.332  -7.237 -12.607  1.00  0.00     0.242 C 
HETATM   38  O6  UNL     1      20.428  -7.743 -13.793  1.00  0.00    -0.271 OA
HETATM   39  N10 UNL     1      21.438  -6.449 -12.154  1.00  0.00    -0.346 N 
ATOM     40  H10 UNL     1      21.394  -6.035 -11.222  1.00  0.00     0.163 HD
BRANCH  39  41
HETATM   41  C16 UNL     1      22.603  -6.218 -12.954  1.00  0.00     0.179 C 
HETATM   42  C17 UNL     1      23.028  -4.770 -12.759  1.00  0.00     0.069 C 
HETATM   43  C18 UNL     1      24.526  -4.628 -12.712  1.00  0.00     0.152 C 
HETATM   44  C19 UNL     1      25.100  -5.403 -11.522  1.00  0.00     0.202 C 
HETATM   45  N12 UNL     1      24.744  -6.786 -11.717  1.00  0.00    -0.344 N 
HETATM   46  C21 UNL     1      23.734  -7.139 -12.664  1.00  0.00     0.241 C 
ATOM     47  H12 UNL     1      25.213  -7.514 -11.178  1.00  0.00     0.163 HD
HETATM   48  O9  UNL     1      23.806  -8.241 -13.256  1.00  0.00    -0.271 OA
BRANCH  43  49
HETATM   49  O7  UNL     1      24.811  -3.290 -12.490  1.00  0.00    -0.393 OA
ATOM     50  H7  UNL     1      25.218  -3.223 -11.634  1.00  0.00     0.210 HD
ENDBRANCH  43  49
BRANCH  44  51
HETATM   51  C20 UNL     1      26.571  -5.196 -11.552  1.00  0.00     0.256 C 
HETATM   52  N11 UNL     1      27.185  -4.180 -10.795  1.00  0.00    -0.060 NA
HETATM   53  O8  UNL     1      27.293  -5.945 -12.269  1.00  0.00    -0.274 OA
ENDBRANCH  44  51
ENDBRANCH  39  41
ENDBRANCH   1  37
TORSDOF 11
ENDMDL
MODEL 4
REMARK VINA RESULT: -8.602629681      2.131      3.078
REMARK  11 active torsions:
REMARK  status: ('A' for Active; 'I' for Inactive)
REMARK    1  A    between atoms: O1_2  and  N1_3 
REMARK    2  A    between atoms: N1_3  and  C2_5 
REMARK    3  A    between atoms: C4_8  and  C5_9 
REMARK    4  A    between atoms: N2_12  and  C6_13 
REMARK    5  A    between atoms: C6_13  and  C7_14 
REMARK    6  A    between atoms: C6_13  and  C15_37 
REMARK    7  A    between atoms: C7_14  and  N3_15 
REMARK    8  A    between atoms: C13_28  and  N7_29 
REMARK       I    between atoms: C15_37  and  N10_39 
REMARK    9  A    between atoms: N10_39  and  C16_41 
REMARK   10  A    between atoms: C18_43  and  O7_44 
REMARK   11  A    between atoms: C19_46  and  C20_47 
ROOT
HETATM    1  C6  UNL     1      19.096  -7.454 -11.866  1.00  0.00     0.195 C 
ENDROOT
BRANCH   1   2
HETATM    2  N2  UNL     1      18.126  -6.379 -12.092  1.00  0.00    -0.353 N 
HETATM    3  C2  UNL     1      18.372  -5.154 -11.523  1.00  0.00     0.267 C 
HETATM    4  S1  UNL     1      18.705  -4.106 -13.007  1.00  0.00    -0.119 SA
HETATM    5  C3  UNL     1      17.633  -5.118 -14.107  1.00  0.00     0.113 C 
HETATM    6  C4  UNL     1      17.553  -6.408 -13.372  1.00  0.00     0.193 C 
BRANCH   3   7
HETATM    7  N1  UNL     1      17.337  -4.493 -10.777  1.00  0.00    -0.270 N 
ATOM      8  H1  UNL     1      16.912  -3.622 -11.094  1.00  0.00     0.191 HD
BRANCH   7   9
HETATM    9  O1  UNL     1      16.972  -5.086  -9.651  1.00  0.00    -0.287 OA
HETATM   10  C1  UNL     1      15.791  -4.499  -9.201  1.00  0.00     0.237 C 
ENDBRANCH   7   9
ENDBRANCH   3   7
BRANCH   6  11
HETATM   11  C5  UNL     1      16.214  -7.028 -13.464  1.00  0.00     0.197 C 
HETATM   12  O2  UNL     1      15.482  -7.042 -12.455  1.00  0.00    -0.646 OA
HETATM   13  O3  UNL     1      15.762  -7.587 -14.636  1.00  0.00    -0.646 OA
ENDBRANCH   6  11
ENDBRANCH   1   2
BRANCH   1  14
HETATM   14  C7  UNL     1      18.471  -8.786 -12.158  1.00  0.00     0.186 C 
BRANCH  14  15
HETATM   15  N3  UNL     1      18.239  -9.645 -11.054  1.00  0.00    -0.261 N 
HETATM   16  C8  UNL     1      17.286  -9.347 -10.114  1.00  0.00     0.143 A 
HETATM   17  N4  UNL     1      16.445  -8.296  -9.951  1.00  0.00    -0.336 N 
HETATM   18  C11 UNL     1      17.260 -10.368  -9.212  1.00  0.00     0.124 A 
HETATM   19  C9  UNL     1      15.584  -8.234  -8.925  1.00  0.00     0.185 A 
ATOM     20  H4  UNL     1      16.467  -7.533 -10.628  1.00  0.00     0.168 HD
HETATM   21  N5  UNL     1      15.560  -9.230  -8.047  1.00  0.00    -0.319 N 
HETATM   22  C10 UNL     1      16.375 -10.301  -8.158  1.00  0.00     0.264 A 
ATOM     23  H5  UNL     1      14.906  -9.184  -7.266  1.00  0.00     0.169 HD
HETATM   24  O4  UNL     1      16.375 -11.253  -7.348  1.00  0.00    -0.267 OA
HETATM   25  C12 UNL     1      18.203 -11.285  -9.616  1.00  0.00     0.167 A 
HETATM   26  N6  UNL     1      18.580 -12.487  -9.097  1.00  0.00    -0.174 N 
HETATM   27  N9  UNL     1      18.798 -10.826 -10.755  1.00  0.00    -0.183 N 
HETATM   28  C13 UNL     1      19.523 -13.236  -9.674  1.00  0.00     0.681 A 
ATOM     29  H6  UNL     1      18.131 -12.824  -8.246  1.00  0.00     0.186 HD
HETATM   30  N8  UNL     1      20.094 -12.762 -10.796  1.00  0.00    -0.140 N 
HETATM   31  C14 UNL     1      19.745 -11.577 -11.339  1.00  0.00     0.361 A 
ATOM     32  H8  UNL     1      20.816 -13.319 -11.252  1.00  0.00     0.189 HD
HETATM   33  O5  UNL     1      20.305 -11.178 -12.388  1.00  0.00    -0.244 OA
BRANCH  28  34
HETATM   34  N7  UNL     1      19.855 -14.368  -9.154  1.00  0.00    -0.234 N 
ATOM     35  H72 UNL     1      19.167 -15.079  -8.907  1.00  0.00     0.174 HD
ATOM     36  H71 UNL     1      20.837 -14.580  -8.976  1.00  0.00     0.174 HD
ENDBRANCH  28  34
ENDBRANCH  14  15
ENDBRANCH   1  14
BRANCH   1  37
HETATM   37  C15 UNL     1      20.331  -7.117 -12.559  1.00  0.00     0.242 C 
HETATM   38  O6  UNL     1      20.492  -7.599 -13.747  1.00  0.00    -0.271 OA
HETATM   39  N10 UNL     1      21.385  -6.294 -12.050  1.00  0.00    -0.346 N 
ATOM     40  H10 UNL     1      21.289  -5.898 -11.115  1.00  0.00     0.163 HD
BRANCH  39  41
HETATM   41  C16 UNL     1      22.571  -6.004 -12.801  1.00  0.00     0.179 C 
HETATM   42  C17 UNL     1      23.241  -7.325 -13.149  1.00  0.00     0.069 C 
HETATM   43  C18 UNL     1      23.827  -7.306 -14.536  1.00  0.00     0.152 C 
HETATM   44  C19 UNL     1      22.725  -7.101 -15.580  1.00  0.00     0.202 C 
HETATM   45  N12 UNL     1      22.110  -5.830 -15.290  1.00  0.00    -0.344 N 
HETATM   46  C21 UNL     1      22.333  -5.198 -14.029  1.00  0.00     0.241 C 
ATOM     47  H12 UNL     1      21.515  -5.381 -15.986  1.00  0.00     0.163 HD
HETATM   48  O9  UNL     1      22.327  -3.947 -13.959  1.00  0.00    -0.271 OA
BRANCH  43  49
HETATM   49  O7  UNL     1      24.373  -8.558 -14.774  1.00  0.00    -0.393 OA
ATOM     50  H7  UNL     1      23.782  -9.021 -15.357  1.00  0.00     0.210 HD
ENDBRANCH  43  49
BRANCH  44  51
HETATM   51  C20 UNL     1      23.393  -7.108 -16.908  1.00  0.00     0.256 C 
HETATM   52  N11 UNL     1      23.578  -5.922 -17.643  1.00  0.00    -0.060 NA
HETATM   53  O8  UNL     1      23.807  -8.200 -17.393  1.00  0.00    -0.274 OA
ENDBRANCH  44  51
ENDBRANCH  39  41
ENDBRANCH   1  37
TORSDOF 11
ENDMDL
MODEL 5
REMARK VINA RESULT: -8.486250545      2.463      3.546
REMARK  11 active torsions:
REMARK  status: ('A' for Active; 'I' for Inactive)
REMARK    1  A    between atoms: O1_2  and  N1_3 
REMARK    2  A    between atoms: N1_3  and  C2_5 
REMARK    3  A    between atoms: C4_8  and  C5_9 
REMARK    4  A    between atoms: N2_12  and  C6_13 
REMARK    5  A    between atoms: C6_13  and  C7_14 
REMARK    6  A    between atoms: C6_13  and  C15_37 
REMARK    7  A    between atoms: C7_14  and  N3_15 
REMARK    8  A    between atoms: C13_28  and  N7_29 
REMARK       I    between atoms: C15_37  and  N10_39 
REMARK    9  A    between atoms: N10_39  and  C16_41 
REMARK   10  A    between atoms: C18_43  and  O7_44 
REMARK   11  A    between atoms: C19_46  and  C20_47 
ROOT
HETATM    1  C6  UNL     1      19.119  -7.771 -11.895  1.00  0.00     0.195 C 
ENDROOT
BRANCH   1   2
HETATM    2  N2  UNL     1      17.983  -6.999 -12.405  1.00  0.00    -0.353 N 
HETATM    3  C2  UNL     1      17.846  -5.698 -11.991  1.00  0.00     0.267 C 
HETATM    4  S1  UNL     1      18.176  -4.766 -13.552  1.00  0.00    -0.119 SA
HETATM    5  C3  UNL     1      17.561  -6.123 -14.630  1.00  0.00     0.113 C 
HETATM    6  C4  UNL     1      17.654  -7.306 -13.734  1.00  0.00     0.193 C 
BRANCH   3   7
HETATM    7  N1  UNL     1      16.578  -5.236 -11.497  1.00  0.00    -0.270 N 
ATOM      8  H1  UNL     1      15.968  -4.634 -12.049  1.00  0.00     0.191 HD
BRANCH   7   9
HETATM    9  O1  UNL     1      16.253  -5.641 -10.279  1.00  0.00    -0.287 OA
HETATM   10  C1  UNL     1      15.752  -4.554  -9.566  1.00  0.00     0.237 C 
ENDBRANCH   7   9
ENDBRANCH   3   7
BRANCH   6  11
HETATM   11  C5  UNL     1      16.525  -8.243 -13.918  1.00  0.00     0.197 C 
HETATM   12  O2  UNL     1      16.450  -8.900 -14.974  1.00  0.00    -0.646 OA
HETATM   13  O3  UNL     1      15.561  -8.403 -12.951  1.00  0.00    -0.646 OA
ENDBRANCH   6  11
ENDBRANCH   1   2
BRANCH   1  14
HETATM   14  C7  UNL     1      18.938  -9.228 -12.206  1.00  0.00     0.186 C 
BRANCH  14  15
HETATM   15  N3  UNL     1      18.673 -10.091 -11.112  1.00  0.00    -0.261 N 
HETATM   16  C8  UNL     1      17.661  -9.823 -10.229  1.00  0.00     0.143 A 
HETATM   17  N4  UNL     1      16.777  -8.800 -10.117  1.00  0.00    -0.336 N 
HETATM   18  C11 UNL     1      17.618 -10.842  -9.325  1.00  0.00     0.124 A 
HETATM   19  C9  UNL     1      15.860  -8.764  -9.140  1.00  0.00     0.185 A 
ATOM     20  H4  UNL     1      16.811  -8.038 -10.794  1.00  0.00     0.168 HD
HETATM   21  N5  UNL     1      15.819  -9.758  -8.260  1.00  0.00    -0.319 N 
HETATM   22  C10 UNL     1      16.675 -10.802  -8.321  1.00  0.00     0.264 A 
ATOM     23  H5  UNL     1      15.122  -9.733  -7.517  1.00  0.00     0.169 HD
HETATM   24  O4  UNL     1      16.660 -11.751  -7.509  1.00  0.00    -0.267 OA
HETATM   25  C12 UNL     1      18.612 -11.729  -9.672  1.00  0.00     0.167 A 
HETATM   26  N6  UNL     1      18.999 -12.916  -9.128  1.00  0.00    -0.174 N 
HETATM   27  N9  UNL     1      19.253 -11.252 -10.778  1.00  0.00    -0.183 N 
HETATM   28  C13 UNL     1      19.997 -13.635  -9.649  1.00  0.00     0.681 A 
ATOM     29  H6  UNL     1      18.515 -13.265  -8.302  1.00  0.00     0.186 HD
HETATM   30  N8  UNL     1      20.613 -13.145 -10.739  1.00  0.00    -0.140 N 
HETATM   31  C14 UNL     1      20.256 -11.973 -11.306  1.00  0.00     0.361 A 
ATOM     32  H8  UNL     1      21.377 -13.678 -11.153  1.00  0.00     0.189 HD
HETATM   33  O5  UNL     1      20.859 -11.558 -12.324  1.00  0.00    -0.244 OA
BRANCH  28  34
HETATM   34  N7  UNL     1      20.337 -14.754  -9.107  1.00  0.00    -0.234 N 
ATOM     35  H72 UNL     1      20.073 -15.003  -8.154  1.00  0.00     0.174 HD
ATOM     36  H71 UNL     1      20.890 -15.429  -9.634  1.00  0.00     0.174 HD
ENDBRANCH  28  34
ENDBRANCH  14  15
ENDBRANCH   1  14
BRANCH   1  37
HETATM   37  C15 UNL     1      20.349  -7.132 -12.338  1.00  0.00     0.242 C 
HETATM   38  O6  UNL     1      20.710  -6.054 -11.722  1.00  0.00    -0.271 OA
HETATM   39  N10 UNL     1      21.205  -7.587 -13.391  1.00  0.00    -0.346 N 
ATOM     40  H10 UNL     1      20.949  -8.435 -13.897  1.00  0.00     0.163 HD
BRANCH  39  41
HETATM   41  C16 UNL     1      22.407  -6.901 -13.763  1.00  0.00     0.179 C 
HETATM   42  C17 UNL     1      23.589  -7.728 -13.280  1.00  0.00     0.069 C 
HETATM   43  C18 UNL     1      24.722  -7.714 -14.271  1.00  0.00     0.152 C 
HETATM   44  C19 UNL     1      24.283  -8.337 -15.598  1.00  0.00     0.202 C 
HETATM   45  N12 UNL     1      23.191  -7.535 -16.091  1.00  0.00    -0.344 N 
HETATM   46  C21 UNL     1      22.523  -6.622 -15.219  1.00  0.00     0.241 C 
ATOM     47  H12 UNL     1      22.894  -7.620 -17.063  1.00  0.00     0.163 HD
HETATM   48  O9  UNL     1      22.029  -5.571 -15.692  1.00  0.00    -0.271 OA
BRANCH  43  49
HETATM   49  O7  UNL     1      25.727  -8.525 -13.765  1.00  0.00    -0.393 OA
ATOM     50  H7  UNL     1      26.354  -7.962 -13.326  1.00  0.00     0.210 HD
ENDBRANCH  43  49
BRANCH  44  51
HETATM   51  C20 UNL     1      25.462  -8.289 -16.501  1.00  0.00     0.256 C 
HETATM   52  N11 UNL     1      26.490  -7.345 -16.316  1.00  0.00    -0.060 NA
HETATM   53  O8  UNL     1      25.551  -9.111 -17.457  1.00  0.00    -0.274 OA
ENDBRANCH  44  51
ENDBRANCH  39  41
ENDBRANCH   1  37
TORSDOF 11
ENDMDL
