MODEL 1
REMARK VINA RESULT: -7.389447513      0.000      0.000
REMARK  5 active torsions:
REMARK  status: ('A' for Active; 'I' for Inactive)
REMARK       I    between atoms: C1_2  and  N2_4 
REMARK    1  A    between atoms: N2_4  and  N3_5 
REMARK    2  A    between atoms: N3_5  and  C2_6 
REMARK    3  A    between atoms: C2_6  and  C3_7 
REMARK    4  A    between atoms: C2_6  and  C4_10 
REMARK    5  A    between atoms: C3_7  and  O2_8 
REMARK       I    between atoms: C4_10  and  N4_12 
ROOT
HETATM    1  C4  UNL     1       3.829  21.194   4.876  1.00  0.00     0.247 C 
HETATM    2  O3  UNL     1       3.938  20.184   5.672  1.00  0.00    -0.271 OA
HETATM    3  N4  UNL     1       4.494  21.253   3.710  1.00  0.00    -0.307 N 
ATOM      4  H4  UNL     1       4.547  22.240   3.462  1.00  0.00     0.170 HD
HETATM    5  C5  UNL     1       5.060  20.650   2.821  1.00  0.00     0.179 C 
HETATM    6  N5  UNL     1       5.117  19.281   2.936  1.00  0.00    -0.322 N 
ATOM      7  H5  UNL     1       4.535  18.881   3.672  1.00  0.00     0.169 HD
HETATM    8  C6  UNL     1       5.829  18.391   2.217  1.00  0.00     0.140 A 
HETATM    9  N6  UNL     1       5.661  17.045   2.237  1.00  0.00    -0.337 N 
ATOM     10  H6  UNL     1       4.977  16.541   2.800  1.00  0.00     0.168 HD
HETATM   11  C7  UNL     1       6.560  16.471   1.379  1.00  0.00     0.182 A 
HETATM   12  N7  UNL     1       7.281  17.454   0.829  1.00  0.00    -0.345 N 
ATOM     13  H7  UNL     1       8.029  17.325   0.147  1.00  0.00     0.167 HD
HETATM   14  C8  UNL     1       6.869  18.637   1.312  1.00  0.00     0.146 A 
HETATM   15  C9  UNL     1       7.327  19.865   0.973  1.00  0.00     0.279 C 
HETATM   16  O4  UNL     1       8.505  19.819   0.455  1.00  0.00    -0.265 OA
HETATM   17  N8  UNL     1       6.769  21.083   1.089  1.00  0.00    -0.285 N 
ATOM     18  H8  UNL     1       7.248  21.872   0.655  1.00  0.00     0.172 HD
HETATM   19  C10 UNL     1       5.584  21.330   1.760  1.00  0.00     0.292 C 
HETATM   20  O5  UNL     1       4.909  22.304   1.337  1.00  0.00    -0.264 OA
ENDROOT
BRANCH   1  21
HETATM   21  C2  UNL     1       2.927  22.262   5.350  1.00  0.00     0.229 C 
BRANCH  21  22
HETATM   22  N3  UNL     1       2.268  22.978   4.232  1.00  0.00    -0.041 NA
BRANCH  22  23
HETATM   23  N2  UNL     1       3.055  23.978   3.763  1.00  0.00    -0.276 NA
HETATM   24  C1  UNL     1       3.831  24.976   3.292  1.00  0.00     0.420 C 
HETATM   25  N1  UNL     1       5.224  25.157   3.708  1.00  0.00    -0.024 NA
HETATM   26  O1  UNL     1       3.480  25.856   2.479  1.00  0.00    -0.233 OA
ENDBRANCH  22  23
ENDBRANCH  21  22
BRANCH  21  27
HETATM   27  C3  UNL     1       3.508  23.191   6.347  1.00  0.00     0.198 C 
BRANCH  27  28
HETATM   28  O2  UNL     1       4.907  23.297   6.301  1.00  0.00    -0.399 OA
ATOM     29  H2  UNL     1       5.265  24.025   6.797  1.00  0.00     0.209 HD
ENDBRANCH  27  28
ENDBRANCH  21  27
ENDBRANCH   1  21
TORSDOF 5
ENDMDL
MODEL 2
REMARK VINA RESULT: -6.761913014      2.408      6.129
REMARK  5 active torsions:
REMARK  status: ('A' for Active; 'I' for Inactive)
REMARK       I    between atoms: C1_2  and  N2_4 
REMARK    1  A    between atoms: N2_4  and  N3_5 
REMARK    2  A    between atoms: N3_5  and  C2_6 
REMARK    3  A    between atoms: C2_6  and  C3_7 
REMARK    4  A    between atoms: C2_6  and  C4_10 
REMARK    5  A    between atoms: C3_7  and  O2_8 
REMARK       I    between atoms: C4_10  and  N4_12 
ROOT
HETATM    1  C4  UNL     1       3.608  18.754   1.684  1.00  0.00     0.247 C 
HETATM    2  O3  UNL     1       2.683  18.476   2.540  1.00  0.00    -0.271 OA
HETATM    3  N4  UNL     1       4.334  19.882   1.765  1.00  0.00    -0.307 N 
ATOM      4  H4  UNL     1       4.702  20.050   0.829  1.00  0.00     0.170 HD
HETATM    5  C5  UNL     1       4.744  20.789   2.458  1.00  0.00     0.179 C 
HETATM    6  N5  UNL     1       4.374  20.776   3.782  1.00  0.00    -0.322 N 
ATOM      7  H5  UNL     1       3.924  19.918   4.101  1.00  0.00     0.169 HD
HETATM    8  C6  UNL     1       4.519  21.732   4.721  1.00  0.00     0.140 A 
HETATM    9  N6  UNL     1       4.337  21.564   6.055  1.00  0.00    -0.337 N 
ATOM     10  H6  UNL     1       4.067  20.693   6.511  1.00  0.00     0.168 HD
HETATM   11  C7  UNL     1       4.576  22.752   6.690  1.00  0.00     0.182 A 
HETATM   12  N7  UNL     1       4.904  23.653   5.758  1.00  0.00    -0.345 N 
ATOM     13  H7  UNL     1       5.136  24.630   5.939  1.00  0.00     0.167 HD
HETATM   14  C8  UNL     1       4.880  23.074   4.547  1.00  0.00     0.146 A 
HETATM   15  C9  UNL     1       5.187  23.646   3.359  1.00  0.00     0.279 C 
HETATM   16  O4  UNL     1       5.095  24.930   3.399  1.00  0.00    -0.265 OA
HETATM   17  N8  UNL     1       5.557  23.107   2.184  1.00  0.00    -0.285 N 
ATOM     18  H8  UNL     1       5.859  23.738   1.441  1.00  0.00     0.172 HD
HETATM   19  C10 UNL     1       5.554  21.748   1.922  1.00  0.00     0.292 C 
HETATM   20  O5  UNL     1       6.403  21.351   1.083  1.00  0.00    -0.264 OA
ENDROOT
BRANCH   1  21
HETATM   21  C2  UNL     1       3.794  17.743   0.624  1.00  0.00     0.229 C 
BRANCH  21  22
HETATM   22  N3  UNL     1       5.226  17.492   0.333  1.00  0.00    -0.041 NA
BRANCH  22  23
HETATM   23  N2  UNL     1       5.969  17.538   1.466  1.00  0.00    -0.276 NA
HETATM   24  C1  UNL     1       6.701  17.585   2.599  1.00  0.00     0.420 C 
HETATM   25  N1  UNL     1       8.102  17.163   2.651  1.00  0.00    -0.024 NA
HETATM   26  O1  UNL     1       6.298  17.968   3.716  1.00  0.00    -0.233 OA
ENDBRANCH  22  23
ENDBRANCH  21  22
BRANCH  21  27
HETATM   27  C3  UNL     1       3.001  17.956  -0.608  1.00  0.00     0.198 C 
BRANCH  27  28
HETATM   28  O2  UNL     1       1.826  18.703  -0.424  1.00  0.00    -0.399 OA
ATOM     29  H2  UNL     1       1.503  18.719   0.470  1.00  0.00     0.209 HD
ENDBRANCH  27  28
ENDBRANCH  21  27
ENDBRANCH   1  21
TORSDOF 5
ENDMDL
MODEL 3
REMARK VINA RESULT: -6.729977782      1.990      3.437
REMARK  5 active torsions:
REMARK  status: ('A' for Active; 'I' for Inactive)
REMARK       I    between atoms: C1_2  and  N2_4 
REMARK    1  A    between atoms: N2_4  and  N3_5 
REMARK    2  A    between atoms: N3_5  and  C2_6 
REMARK    3  A    between atoms: C2_6  and  C3_7 
REMARK    4  A    between atoms: C2_6  and  C4_10 
REMARK    5  A    between atoms: C3_7  and  O2_8 
REMARK       I    between atoms: C4_10  and  N4_12 
ROOT
HETATM    1  C4  UNL     1       3.521  22.956   3.065  1.00  0.00     0.247 C 
HETATM    2  O3  UNL     1       4.221  23.775   2.356  1.00  0.00    -0.271 OA
HETATM    3  N4  UNL     1       3.626  21.624   2.921  1.00  0.00    -0.307 N 
ATOM      4  H4  UNL     1       2.759  21.229   3.284  1.00  0.00     0.170 HD
HETATM    5  C5  UNL     1       4.297  20.683   2.551  1.00  0.00     0.179 C 
HETATM    6  N5  UNL     1       5.531  20.972   2.016  1.00  0.00    -0.322 N 
ATOM      7  H5  UNL     1       5.841  21.937   2.131  1.00  0.00     0.169 HD
HETATM    8  C6  UNL     1       6.390  20.165   1.364  1.00  0.00     0.140 A 
HETATM    9  N6  UNL     1       7.681  20.460   1.067  1.00  0.00    -0.337 N 
ATOM     10  H6  UNL     1       8.159  21.330   1.300  1.00  0.00     0.168 HD
HETATM   11  C7  UNL     1       8.239  19.401   0.404  1.00  0.00     0.182 A 
HETATM   12  N7  UNL     1       7.302  18.453   0.289  1.00  0.00    -0.345 N 
ATOM     13  H7  UNL     1       7.432  17.548  -0.162  1.00  0.00     0.167 HD
HETATM   14  C8  UNL     1       6.163  18.879   0.859  1.00  0.00     0.146 A 
HETATM   15  C9  UNL     1       5.001  18.193   0.977  1.00  0.00     0.279 C 
HETATM   16  O4  UNL     1       4.909  17.239   0.118  1.00  0.00    -0.265 OA
HETATM   17  N8  UNL     1       3.963  18.346   1.819  1.00  0.00    -0.285 N 
ATOM     18  H8  UNL     1       3.232  17.636   1.811  1.00  0.00     0.172 HD
HETATM   19  C10 UNL     1       3.828  19.410   2.694  1.00  0.00     0.292 C 
HETATM   20  O5  UNL     1       3.191  19.170   3.753  1.00  0.00    -0.264 OA
ENDROOT
BRANCH   1  21
HETATM   21  C2  UNL     1       2.606  23.599   4.029  1.00  0.00     0.229 C 
BRANCH  21  22
HETATM   22  N3  UNL     1       3.302  24.020   5.268  1.00  0.00    -0.041 NA
BRANCH  22  23
HETATM   23  N2  UNL     1       3.914  22.968   5.865  1.00  0.00    -0.276 NA
HETATM   24  C1  UNL     1       4.531  21.926   6.460  1.00  0.00     0.420 C 
HETATM   25  N1  UNL     1       3.849  20.660   6.739  1.00  0.00    -0.024 NA
HETATM   26  O1  UNL     1       5.715  21.902   6.853  1.00  0.00    -0.233 OA
ENDBRANCH  22  23
ENDBRANCH  21  22
BRANCH  21  27
HETATM   27  C3  UNL     1       1.355  22.858   4.313  1.00  0.00     0.198 C 
BRANCH  27  28
HETATM   28  O2  UNL     1       1.545  21.555   4.800  1.00  0.00    -0.399 OA
ATOM     29  H2  UNL     1       1.125  21.380   5.635  1.00  0.00     0.209 HD
ENDBRANCH  27  28
ENDBRANCH  21  27
ENDBRANCH   1  21
TORSDOF 5
ENDMDL
MODEL 4
REMARK VINA RESULT: -6.702633001      1.901      6.774
REMARK  5 active torsions:
REMARK  status: ('A' for Active; 'I' for Inactive)
REMARK       I    between atoms: C1_2  and  N2_4 
REMARK    1  A    between atoms: N2_4  and  N3_5 
REMARK    2  A    between atoms: N3_5  and  C2_6 
REMARK    3  A    between atoms: C2_6  and  C3_7 
REMARK    4  A    between atoms: C2_6  and  C4_10 
REMARK    5  A    between atoms: C3_7  and  O2_8 
REMARK       I    between atoms: C4_10  and  N4_12 
ROOT
HETATM    1  C4  UNL     1       5.813  19.864   1.585  1.00  0.00     0.247 C 
HETATM    2  O3  UNL     1       6.627  20.733   1.088  1.00  0.00    -0.271 OA
HETATM    3  N4  UNL     1       4.841  20.213   2.444  1.00  0.00    -0.307 N 
ATOM      4  H4  UNL     1       4.599  19.367   2.959  1.00  0.00     0.170 HD
HETATM    5  C5  UNL     1       4.122  21.090   2.878  1.00  0.00     0.179 C 
HETATM    6  N5  UNL     1       4.266  22.341   2.326  1.00  0.00    -0.322 N 
ATOM      7  H5  UNL     1       4.847  22.384   1.489  1.00  0.00     0.169 HD
HETATM    8  C6  UNL     1       3.752  23.519   2.731  1.00  0.00     0.140 A 
HETATM    9  N6  UNL     1       3.750  24.670   2.012  1.00  0.00    -0.337 N 
ATOM     10  H6  UNL     1       4.139  24.784   1.077  1.00  0.00     0.168 HD
HETATM   11  C7  UNL     1       3.141  25.652   2.745  1.00  0.00     0.182 A 
HETATM   12  N7  UNL     1       2.766  25.115   3.911  1.00  0.00    -0.345 N 
ATOM     13  H7  UNL     1       2.285  25.614   4.661  1.00  0.00     0.167 HD
HETATM   14  C8  UNL     1       3.120  23.821   3.944  1.00  0.00     0.146 A 
HETATM   15  C9  UNL     1       2.883  22.932   4.937  1.00  0.00     0.279 C 
HETATM   16  O4  UNL     1       2.664  23.511   6.067  1.00  0.00    -0.265 OA
HETATM   17  N8  UNL     1       2.845  21.587   4.934  1.00  0.00    -0.285 N 
ATOM     18  H8  UNL     1       2.528  21.115   5.781  1.00  0.00     0.172 HD
HETATM   19  C10 UNL     1       3.209  20.806   3.851  1.00  0.00     0.292 C 
HETATM   20  O5  UNL     1       2.623  19.697   3.755  1.00  0.00    -0.264 OA
ENDROOT
BRANCH   1  21
HETATM   21  C2  UNL     1       6.043  18.475   1.139  1.00  0.00     0.229 C 
BRANCH  21  22
HETATM   22  N3  UNL     1       4.908  17.583   1.476  1.00  0.00    -0.041 NA
BRANCH  22  23
HETATM   23  N2  UNL     1       4.956  17.203   2.777  1.00  0.00    -0.276 NA
HETATM   24  C1  UNL     1       4.998  16.831   4.073  1.00  0.00     0.420 C 
HETATM   25  N1  UNL     1       5.693  15.624   4.526  1.00  0.00    -0.024 NA
HETATM   26  O1  UNL     1       4.462  17.433   5.026  1.00  0.00    -0.233 OA
ENDBRANCH  22  23
ENDBRANCH  21  22
BRANCH  21  27
HETATM   27  C3  UNL     1       7.349  17.890   1.521  1.00  0.00     0.198 C 
BRANCH  27  28
HETATM   28  O2  UNL     1       7.891  18.399   2.712  1.00  0.00    -0.399 OA
ATOM     29  H2  UNL     1       7.610  17.948   3.500  1.00  0.00     0.209 HD
ENDBRANCH  27  28
ENDBRANCH  21  27
ENDBRANCH   1  21
TORSDOF 5
ENDMDL
MODEL 5
REMARK VINA RESULT: -6.696060762      3.420      6.309
REMARK  5 active torsions:
REMARK  status: ('A' for Active; 'I' for Inactive)
REMARK       I    between atoms: C1_2  and  N2_4 
REMARK    1  A    between atoms: N2_4  and  N3_5 
REMARK    2  A    between atoms: N3_5  and  C2_6 
REMARK    3  A    between atoms: C2_6  and  C3_7 
REMARK    4  A    between atoms: C2_6  and  C4_10 
REMARK    5  A    between atoms: C3_7  and  O2_8 
REMARK       I    between atoms: C4_10  and  N4_12 
ROOT
HETATM    1  C4  UNL     1       2.764  22.800   8.530  1.00  0.00     0.247 C 
HETATM    2  O3  UNL     1       1.642  23.412   8.354  1.00  0.00    -0.271 OA
HETATM    3  N4  UNL     1       3.585  22.516   7.504  1.00  0.00    -0.307 N 
ATOM      4  H4  UNL     1       4.175  21.745   7.818  1.00  0.00     0.170 HD
HETATM    5  C5  UNL     1       3.935  22.770   6.371  1.00  0.00     0.179 C 
HETATM    6  N5  UNL     1       3.274  23.792   5.731  1.00  0.00    -0.322 N 
ATOM      7  H5  UNL     1       2.662  24.354   6.323  1.00  0.00     0.169 HD
HETATM    8  C6  UNL     1       3.317  24.160   4.435  1.00  0.00     0.140 A 
HETATM    9  N6  UNL     1       2.817  25.313   3.924  1.00  0.00    -0.337 N 
ATOM     10  H6  UNL     1       2.346  26.043   4.458  1.00  0.00     0.168 HD
HETATM   11  C7  UNL     1       3.048  25.339   2.575  1.00  0.00     0.182 A 
HETATM   12  N7  UNL     1       3.687  24.211   2.250  1.00  0.00    -0.345 N 
ATOM     13  H7  UNL     1       3.990  23.955   1.310  1.00  0.00     0.167 HD
HETATM   14  C8  UNL     1       3.869  23.465   3.352  1.00  0.00     0.146 A 
HETATM   15  C9  UNL     1       4.506  22.273   3.438  1.00  0.00     0.279 C 
HETATM   16  O4  UNL     1       4.565  21.669   2.303  1.00  0.00    -0.265 OA
HETATM   17  N8  UNL     1       5.065  21.641   4.485  1.00  0.00    -0.285 N 
ATOM     18  H8  UNL     1       5.603  20.794   4.301  1.00  0.00     0.172 HD
HETATM   19  C10 UNL     1       4.956  22.070   5.797  1.00  0.00     0.292 C 
HETATM   20  O5  UNL     1       5.919  21.775   6.551  1.00  0.00    -0.264 OA
ENDROOT
BRANCH   1  21
HETATM   21  C2  UNL     1       3.062  22.442   9.931  1.00  0.00     0.229 C 
BRANCH  21  22
HETATM   22  N3  UNL     1       4.445  21.937  10.099  1.00  0.00    -0.041 NA
BRANCH  22  23
HETATM   23  N2  UNL     1       4.572  20.686   9.593  1.00  0.00    -0.276 NA
HETATM   24  C1  UNL     1       4.705  19.439   9.094  1.00  0.00     0.420 C 
HETATM   25  N1  UNL     1       3.742  18.858   8.154  1.00  0.00    -0.024 NA
HETATM   26  O1  UNL     1       5.621  18.636   9.363  1.00  0.00    -0.233 OA
ENDBRANCH  22  23
ENDBRANCH  21  22
BRANCH  21  27
HETATM   27  C3  UNL     1       2.063  21.573  10.594  1.00  0.00     0.198 C 
BRANCH  27  28
HETATM   28  O2  UNL     1       1.470  20.618   9.752  1.00  0.00    -0.399 OA
ATOM     29  H2  UNL     1       1.398  20.883   8.842  1.00  0.00     0.209 HD
ENDBRANCH  27  28
ENDBRANCH  21  27
ENDBRANCH   1  21
TORSDOF 5
ENDMDL
