MODEL 1
REMARK VINA RESULT: -7.059265107      0.000      0.000
REMARK  7 active torsions:
REMARK  status: ('A' for Active; 'I' for Inactive)
REMARK    1  A    between atoms: C2_3  and  N2_4 
REMARK    2  A    between atoms: N2_4  and  O1_6 
REMARK       I    between atoms: N3_8  and  C3_9 
REMARK       I    between atoms: C3_9  and  N4_11 
REMARK    3  A    between atoms: N4_11  and  C4_13 
REMARK    4  A    between atoms: C4_13  and  C5_14 
REMARK    5  A    between atoms: C5_14  and  O3_15 
REMARK    6  A    between atoms: C5_14  and  C6_17 
REMARK    7  A    between atoms: C8_23  and  N7_24 
ROOT
HETATM    1  C1  UNL     1       0.823  21.994   4.494  1.00  0.00     0.176 C 
HETATM    2  N1  UNL     1       2.149  21.780   3.960  1.00  0.00    -0.176 N 
HETATM    3  C2  UNL     1       2.597  20.683   3.371  1.00  0.00     0.716 A 
HETATM    4  N3  UNL     1       3.919  20.845   2.988  1.00  0.00    -0.076 N 
HETATM    5  C3  UNL     1       4.670  19.844   2.343  1.00  0.00     0.343 C 
HETATM    6  O2  UNL     1       4.025  18.736   2.163  1.00  0.00    -0.246 OA
HETATM    7  N4  UNL     1       5.981  19.897   1.887  1.00  0.00    -0.339 N 
ATOM      8  H4  UNL     1       6.475  20.781   2.008  1.00  0.00     0.164 HD
HETATM    9  C7  UNL     1       4.273  22.087   3.363  1.00  0.00     0.182 A 
HETATM   10  N6  UNL     1       5.398  22.821   3.279  1.00  0.00    -0.173 N 
ATOM     11  H6  UNL     1       6.238  22.440   2.844  1.00  0.00     0.186 HD
HETATM   12  C8  UNL     1       5.388  24.075   3.787  1.00  0.00     0.680 A 
HETATM   13  N8  UNL     1       4.342  24.657   4.373  1.00  0.00    -0.154 N 
ATOM     14  H8  UNL     1       4.406  25.609   4.734  1.00  0.00     0.187 HD
HETATM   15  C9  UNL     1       3.212  23.963   4.474  1.00  0.00     0.291 A 
HETATM   16  O5  UNL     1       2.180  24.439   5.012  1.00  0.00    -0.265 OA
HETATM   17  C10 UNL     1       3.152  22.671   3.976  1.00  0.00     0.165 A 
ENDROOT
BRANCH   3  18
HETATM   18  N2  UNL     1       1.821  19.529   3.173  1.00  0.00    -0.098 N 
ATOM     19  H2  UNL     1       1.771  18.843   3.926  1.00  0.00     0.213 HD
BRANCH  18  20
HETATM   20  O1  UNL     1       1.185  19.298   2.110  1.00  0.00    -0.276 OA
ATOM     21  H1  UNL     1       1.496  18.706   1.434  1.00  0.00     0.245 HD
ENDBRANCH  18  20
ENDBRANCH   3  18
BRANCH   7  22
HETATM   22  C4  UNL     1       6.717  18.819   1.255  1.00  0.00     0.165 C 
BRANCH  22  23
HETATM   23  C5  UNL     1       7.779  19.306   0.336  1.00  0.00     0.224 C 
BRANCH  23  24
HETATM   24  O3  UNL     1       8.379  20.456   0.710  1.00  0.00    -0.385 OA
ATOM     25  H3  UNL     1       7.790  21.183   0.874  1.00  0.00     0.210 HD
ENDBRANCH  23  24
BRANCH  23  26
HETATM   26  C6  UNL     1       8.846  18.275   0.132  1.00  0.00     0.261 C 
HETATM   27  N5  UNL     1       8.976  17.220   1.049  1.00  0.00    -0.060 NA
HETATM   28  O4  UNL     1       9.603  18.371  -0.852  1.00  0.00    -0.274 OA
ENDBRANCH  23  26
ENDBRANCH  22  23
ENDBRANCH   7  22
BRANCH  12  29
HETATM   29  N7  UNL     1       6.477  24.785   3.705  1.00  0.00    -0.234 N 
ATOM     30  H72 UNL     1       7.305  24.308   3.348  1.00  0.00     0.174 HD
ATOM     31  H71 UNL     1       6.443  25.762   3.997  1.00  0.00     0.174 HD
ENDBRANCH  12  29
TORSDOF 7
ENDMDL
MODEL 2
REMARK VINA RESULT: -7.041488856      2.603      6.532
REMARK  7 active torsions:
REMARK  status: ('A' for Active; 'I' for Inactive)
REMARK    1  A    between atoms: C2_3  and  N2_4 
REMARK    2  A    between atoms: N2_4  and  O1_6 
REMARK       I    between atoms: N3_8  and  C3_9 
REMARK       I    between atoms: C3_9  and  N4_11 
REMARK    3  A    between atoms: N4_11  and  C4_13 
REMARK    4  A    between atoms: C4_13  and  C5_14 
REMARK    5  A    between atoms: C5_14  and  O3_15 
REMARK    6  A    between atoms: C5_14  and  C6_17 
REMARK    7  A    between atoms: C8_23  and  N7_24 
ROOT
HETATM    1  C1  UNL     1       6.485  15.061   3.089  1.00  0.00     0.176 C 
HETATM    2  N1  UNL     1       6.288  16.489   2.982  1.00  0.00    -0.176 N 
HETATM    3  C2  UNL     1       5.415  17.219   3.658  1.00  0.00     0.716 A 
HETATM    4  N3  UNL     1       5.513  18.553   3.290  1.00  0.00    -0.076 N 
HETATM    5  C3  UNL     1       4.707  19.569   3.833  1.00  0.00     0.343 C 
HETATM    6  O2  UNL     1       3.835  19.147   4.692  1.00  0.00    -0.246 OA
HETATM    7  N4  UNL     1       4.731  20.934   3.571  1.00  0.00    -0.339 N 
ATOM      8  H4  UNL     1       5.438  21.263   2.914  1.00  0.00     0.164 HD
HETATM    9  C7  UNL     1       6.482  18.618   2.360  1.00  0.00     0.182 A 
HETATM   10  N6  UNL     1       7.032  19.607   1.630  1.00  0.00    -0.173 N 
ATOM     11  H6  UNL     1       6.714  20.571   1.732  1.00  0.00     0.186 HD
HETATM   12  C8  UNL     1       8.018  19.291   0.758  1.00  0.00     0.680 A 
HETATM   13  N8  UNL     1       8.499  18.064   0.555  1.00  0.00    -0.154 N 
ATOM     14  H8  UNL     1       9.245  17.899  -0.121  1.00  0.00     0.187 HD
HETATM   15  C9  UNL     1       7.980  17.061   1.258  1.00  0.00     0.291 A 
HETATM   16  O5  UNL     1       8.378  15.876   1.128  1.00  0.00    -0.265 OA
HETATM   17  C10 UNL     1       6.966  17.314   2.170  1.00  0.00     0.165 A 
ENDROOT
BRANCH   3  18
HETATM   18  N2  UNL     1       4.525  16.694   4.609  1.00  0.00    -0.098 N 
ATOM     19  H2  UNL     1       3.608  16.381   4.292  1.00  0.00     0.213 HD
BRANCH  18  20
HETATM   20  O1  UNL     1       4.804  16.592   5.833  1.00  0.00    -0.276 OA
ATOM     21  H1  UNL     1       4.637  15.807   6.342  1.00  0.00     0.245 HD
ENDBRANCH  18  20
ENDBRANCH   3  18
BRANCH   7  22
HETATM   22  C4  UNL     1       3.850  21.935   4.140  1.00  0.00     0.165 C 
BRANCH  22  23
HETATM   23  C5  UNL     1       4.578  23.147   4.604  1.00  0.00     0.224 C 
BRANCH  23  24
HETATM   24  O3  UNL     1       5.796  22.916   5.136  1.00  0.00    -0.385 OA
ATOM     25  H3  UNL     1       5.812  22.819   6.080  1.00  0.00     0.210 HD
ENDBRANCH  23  24
BRANCH  23  26
HETATM   26  C6  UNL     1       4.738  24.148   3.501  1.00  0.00     0.261 C 
HETATM   27  N5  UNL     1       4.145  23.906   2.252  1.00  0.00    -0.060 NA
HETATM   28  O4  UNL     1       5.398  25.183   3.712  1.00  0.00    -0.274 OA
ENDBRANCH  23  26
ENDBRANCH  22  23
ENDBRANCH   7  22
BRANCH  12  29
HETATM   29  N7  UNL     1       8.550  20.247   0.052  1.00  0.00    -0.234 N 
ATOM     30  H72 UNL     1       8.014  21.111  -0.019  1.00  0.00     0.174 HD
ATOM     31  H71 UNL     1       9.458  20.082  -0.384  1.00  0.00     0.174 HD
ENDBRANCH  12  29
TORSDOF 7
ENDMDL
MODEL 3
REMARK VINA RESULT: -7.009470588      2.095      5.963
REMARK  7 active torsions:
REMARK  status: ('A' for Active; 'I' for Inactive)
REMARK    1  A    between atoms: C2_3  and  N2_4 
REMARK    2  A    between atoms: N2_4  and  O1_6 
REMARK       I    between atoms: N3_8  and  C3_9 
REMARK       I    between atoms: C3_9  and  N4_11 
REMARK    3  A    between atoms: N4_11  and  C4_13 
REMARK    4  A    between atoms: C4_13  and  C5_14 
REMARK    5  A    between atoms: C5_14  and  O3_15 
REMARK    6  A    between atoms: C5_14  and  C6_17 
REMARK    7  A    between atoms: C8_23  and  N7_24 
ROOT
HETATM    1  C1  UNL     1       5.202  17.231   3.239  1.00  0.00     0.176 C 
HETATM    2  N1  UNL     1       5.151  18.632   2.888  1.00  0.00    -0.176 N 
HETATM    3  C2  UNL     1       4.213  19.499   3.234  1.00  0.00     0.716 A 
HETATM    4  N3  UNL     1       4.498  20.753   2.714  1.00  0.00    -0.076 N 
HETATM    5  C3  UNL     1       3.678  21.879   2.908  1.00  0.00     0.343 C 
HETATM    6  O2  UNL     1       2.606  21.638   3.593  1.00  0.00    -0.246 OA
HETATM    7  N4  UNL     1       3.871  23.183   2.468  1.00  0.00    -0.339 N 
ATOM      8  H4  UNL     1       4.730  23.372   1.952  1.00  0.00     0.164 HD
HETATM    9  C7  UNL     1       5.651  20.626   2.033  1.00  0.00     0.182 A 
HETATM   10  N6  UNL     1       6.428  21.461   1.318  1.00  0.00    -0.173 N 
ATOM     11  H6  UNL     1       6.175  22.443   1.206  1.00  0.00     0.186 HD
HETATM   12  C8  UNL     1       7.553  20.966   0.750  1.00  0.00     0.680 A 
HETATM   13  N8  UNL     1       7.965  19.702   0.840  1.00  0.00    -0.154 N 
ATOM     14  H8  UNL     1       8.825  19.397   0.385  1.00  0.00     0.187 HD
HETATM   15  C9  UNL     1       7.223  18.847   1.539  1.00  0.00     0.291 A 
HETATM   16  O5  UNL     1       7.541  17.638   1.672  1.00  0.00    -0.265 OA
HETATM   17  C10 UNL     1       6.057  19.287   2.146  1.00  0.00     0.165 A 
ENDROOT
BRANCH   3  18
HETATM   18  N2  UNL     1       3.095  19.172   4.018  1.00  0.00    -0.098 N 
ATOM     19  H2  UNL     1       2.252  18.846   3.547  1.00  0.00     0.213 HD
BRANCH  18  20
HETATM   20  O1  UNL     1       3.082  19.263   5.275  1.00  0.00    -0.276 OA
ATOM     21  H1  UNL     1       2.358  19.638   5.763  1.00  0.00     0.245 HD
ENDBRANCH  18  20
ENDBRANCH   3  18
BRANCH   7  22
HETATM   22  C4  UNL     1       2.972  24.302   2.671  1.00  0.00     0.165 C 
BRANCH  22  23
HETATM   23  C5  UNL     1       3.365  25.157   3.822  1.00  0.00     0.224 C 
BRANCH  23  24
HETATM   24  O3  UNL     1       2.522  25.124   4.875  1.00  0.00    -0.385 OA
ATOM     25  H3  UNL     1       1.619  24.919   4.663  1.00  0.00     0.210 HD
ENDBRANCH  23  24
BRANCH  23  26
HETATM   26  C6  UNL     1       4.736  24.815   4.319  1.00  0.00     0.261 C 
HETATM   27  N5  UNL     1       4.881  23.987   5.442  1.00  0.00    -0.060 NA
HETATM   28  O4  UNL     1       5.729  25.274   3.723  1.00  0.00    -0.274 OA
ENDBRANCH  23  26
ENDBRANCH  22  23
ENDBRANCH   7  22
BRANCH  12  29
HETATM   29  N7  UNL     1       8.305  21.774   0.059  1.00  0.00    -0.234 N 
ATOM     30  H72 UNL     1       8.875  21.349  -0.672  1.00  0.00     0.174 HD
ATOM     31  H71 UNL     1       8.283  22.769   0.282  1.00  0.00     0.174 HD
ENDBRANCH  12  29
TORSDOF 7
ENDMDL
MODEL 4
REMARK VINA RESULT: -6.977573816      2.283      6.028
REMARK  7 active torsions:
REMARK  status: ('A' for Active; 'I' for Inactive)
REMARK    1  A    between atoms: C2_3  and  N2_4 
REMARK    2  A    between atoms: N2_4  and  O1_6 
REMARK       I    between atoms: N3_8  and  C3_9 
REMARK       I    between atoms: C3_9  and  N4_11 
REMARK    3  A    between atoms: N4_11  and  C4_13 
REMARK    4  A    between atoms: C4_13  and  C5_14 
REMARK    5  A    between atoms: C5_14  and  O3_15 
REMARK    6  A    between atoms: C5_14  and  C6_17 
REMARK    7  A    between atoms: C8_23  and  N7_24 
ROOT
HETATM    1  C1  UNL     1       2.366  17.208   1.286  1.00  0.00     0.176 C 
HETATM    2  N1  UNL     1       3.062  18.357   1.820  1.00  0.00    -0.176 N 
HETATM    3  C2  UNL     1       2.583  19.241   2.680  1.00  0.00     0.716 A 
HETATM    4  N3  UNL     1       3.538  20.206   2.964  1.00  0.00    -0.076 N 
HETATM    5  C3  UNL     1       3.317  21.283   3.841  1.00  0.00     0.343 C 
HETATM    6  O2  UNL     1       2.125  21.316   4.345  1.00  0.00    -0.246 OA
HETATM    7  N4  UNL     1       4.197  22.287   4.226  1.00  0.00    -0.339 N 
ATOM      8  H4  UNL     1       5.143  22.240   3.847  1.00  0.00     0.164 HD
HETATM    9  C7  UNL     1       4.627  19.883   2.243  1.00  0.00     0.182 A 
HETATM   10  N6  UNL     1       5.853  20.416   2.085  1.00  0.00    -0.173 N 
ATOM     11  H6  UNL     1       6.123  21.263   2.585  1.00  0.00     0.186 HD
HETATM   12  C8  UNL     1       6.718  19.802   1.245  1.00  0.00     0.680 A 
HETATM   13  N8  UNL     1       6.457  18.695   0.549  1.00  0.00    -0.154 N 
ATOM     14  H8  UNL     1       7.159  18.285  -0.067  1.00  0.00     0.187 HD
HETATM   15  C9  UNL     1       5.256  18.139   0.680  1.00  0.00     0.291 A 
HETATM   16  O5  UNL     1       4.931  17.095   0.061  1.00  0.00    -0.265 OA
HETATM   17  C10 UNL     1       4.320  18.717   1.524  1.00  0.00     0.165 A 
ENDROOT
BRANCH   3  18
HETATM   18  N2  UNL     1       1.287  19.188   3.218  1.00  0.00    -0.098 N 
ATOM     19  H2  UNL     1       1.152  18.717   4.112  1.00  0.00     0.213 HD
BRANCH  18  20
HETATM   20  O1  UNL     1       0.282  19.692   2.649  1.00  0.00    -0.276 OA
ATOM     21  H1  UNL     1      -0.364  20.220   3.105  1.00  0.00     0.245 HD
ENDBRANCH  18  20
ENDBRANCH   3  18
BRANCH   7  22
HETATM   22  C4  UNL     1       3.904  23.395   5.114  1.00  0.00     0.165 C 
BRANCH  22  23
HETATM   23  C5  UNL     1       3.158  24.492   4.440  1.00  0.00     0.224 C 
BRANCH  23  24
HETATM   24  O3  UNL     1       2.704  25.464   5.259  1.00  0.00    -0.385 OA
ATOM     25  H3  UNL     1       3.275  25.677   5.988  1.00  0.00     0.210 HD
ENDBRANCH  23  24
BRANCH  23  26
HETATM   26  C6  UNL     1       3.981  25.139   3.368  1.00  0.00     0.261 C 
HETATM   27  N5  UNL     1       3.343  25.732   2.268  1.00  0.00    -0.060 NA
HETATM   28  O4  UNL     1       5.221  25.140   3.473  1.00  0.00    -0.274 OA
ENDBRANCH  23  26
ENDBRANCH  22  23
ENDBRANCH   7  22
BRANCH  12  29
HETATM   29  N7  UNL     1       7.904  20.317   1.092  1.00  0.00    -0.234 N 
ATOM     30  H72 UNL     1       8.139  20.646   0.155  1.00  0.00     0.174 HD
ATOM     31  H71 UNL     1       8.522  20.364   1.902  1.00  0.00     0.174 HD
ENDBRANCH  12  29
TORSDOF 7
ENDMDL
MODEL 5
REMARK VINA RESULT: -6.902052952      2.462      6.614
REMARK  7 active torsions:
REMARK  status: ('A' for Active; 'I' for Inactive)
REMARK    1  A    between atoms: C2_3  and  N2_4 
REMARK    2  A    between atoms: N2_4  and  O1_6 
REMARK       I    between atoms: N3_8  and  C3_9 
REMARK       I    between atoms: C3_9  and  N4_11 
REMARK    3  A    between atoms: N4_11  and  C4_13 
REMARK    4  A    between atoms: C4_13  and  C5_14 
REMARK    5  A    between atoms: C5_14  and  O3_15 
REMARK    6  A    between atoms: C5_14  and  C6_17 
REMARK    7  A    between atoms: C8_23  and  N7_24 
ROOT
HETATM    1  C1  UNL     1       5.977  15.902   3.220  1.00  0.00     0.176 C 
HETATM    2  N1  UNL     1       6.028  17.263   2.735  1.00  0.00    -0.176 N 
HETATM    3  C2  UNL     1       5.221  18.254   3.076  1.00  0.00     0.716 A 
HETATM    4  N3  UNL     1       5.573  19.417   2.407  1.00  0.00    -0.076 N 
HETATM    5  C3  UNL     1       4.891  20.638   2.560  1.00  0.00     0.343 C 
HETATM    6  O2  UNL     1       3.877  20.578   3.362  1.00  0.00    -0.246 OA
HETATM    7  N4  UNL     1       5.165  21.868   1.974  1.00  0.00    -0.339 N 
ATOM      8  H4  UNL     1       5.981  21.915   1.364  1.00  0.00     0.164 HD
HETATM    9  C7  UNL     1       6.632  19.105   1.638  1.00  0.00     0.182 A 
HETATM   10  N6  UNL     1       7.409  19.782   0.773  1.00  0.00    -0.173 N 
ATOM     11  H6  UNL     1       7.244  20.771   0.586  1.00  0.00     0.186 HD
HETATM   12  C8  UNL     1       8.416  19.119   0.157  1.00  0.00     0.680 A 
HETATM   13  N8  UNL     1       8.708  17.831   0.336  1.00  0.00    -0.154 N 
ATOM     14  H8  UNL     1       9.484  17.395  -0.163  1.00  0.00     0.187 HD
HETATM   15  C9  UNL     1       7.962  17.129   1.184  1.00  0.00     0.291 A 
HETATM   16  O5  UNL     1       8.172  15.910   1.410  1.00  0.00    -0.265 OA
HETATM   17  C10 UNL     1       6.913  17.746   1.849  1.00  0.00     0.165 A 
ENDROOT
BRANCH   3  18
HETATM   18  N2  UNL     1       4.162  18.123   3.989  1.00  0.00    -0.098 N 
ATOM     19  H2  UNL     1       3.254  17.819   3.638  1.00  0.00     0.213 HD
BRANCH  18  20
HETATM   20  O1  UNL     1       4.279  18.363   5.221  1.00  0.00    -0.276 OA
ATOM     21  H1  UNL     1       4.893  18.996   5.572  1.00  0.00     0.245 HD
ENDBRANCH  18  20
ENDBRANCH   3  18
BRANCH   7  22
HETATM   22  C4  UNL     1       4.405  23.091   2.144  1.00  0.00     0.165 C 
BRANCH  22  23
HETATM   23  C5  UNL     1       4.804  23.854   3.357  1.00  0.00     0.224 C 
BRANCH  23  24
HETATM   24  O3  UNL     1       6.067  24.328   3.347  1.00  0.00    -0.385 OA
ATOM     25  H3  UNL     1       6.143  25.271   3.263  1.00  0.00     0.210 HD
ENDBRANCH  23  24
BRANCH  23  26
HETATM   26  C6  UNL     1       3.880  25.005   3.611  1.00  0.00     0.261 C 
HETATM   27  N5  UNL     1       3.219  25.105   4.845  1.00  0.00    -0.060 NA
HETATM   28  O4  UNL     1       3.715  25.859   2.720  1.00  0.00    -0.274 OA
ENDBRANCH  23  26
ENDBRANCH  22  23
ENDBRANCH   7  22
BRANCH  12  29
HETATM   29  N7  UNL     1       9.168  19.774  -0.680  1.00  0.00    -0.234 N 
ATOM     30  H72 UNL     1      10.057  20.118  -0.318  1.00  0.00     0.174 HD
ATOM     31  H71 UNL     1       8.833  19.906  -1.634  1.00  0.00     0.174 HD
ENDBRANCH  12  29
TORSDOF 7
ENDMDL
