MODEL 1
REMARK VINA RESULT: -8.812534204      0.000      0.000
REMARK  5 active torsions:
REMARK  status: ('A' for Active; 'I' for Inactive)
REMARK    1  A    between atoms: C3_4  and  O1_5 
REMARK    2  A    between atoms: C3_4  and  C4_7 
REMARK    3  A    between atoms: C7_10  and  O2_11 
REMARK    4  A    between atoms: C11_18  and  C12_19 
REMARK    5  A    between atoms: C12_19  and  S1_20 
ROOT
HETATM    1  C4  UNL     1      38.454  -4.082 -43.722  1.00  0.00     0.138 C 
HETATM    2  C5  UNL     1      39.120  -5.388 -43.326  1.00  0.00     0.050 C 
HETATM    3  C6  UNL     1      38.377  -6.112 -42.236  1.00  0.00     0.035 C 
HETATM    4  C7  UNL     1      36.951  -6.416 -42.554  1.00  0.00     0.120 C 
HETATM    5  C8  UNL     1      36.226  -5.305 -43.286  1.00  0.00     0.067 C 
HETATM    6  C9  UNL     1      37.049  -4.097 -43.292  1.00  0.00     0.175 C 
HETATM    7  O3  UNL     1      36.410  -2.934 -43.827  1.00  0.00    -0.310 OA
HETATM    8  C10 UNL     1      37.177  -1.771 -43.572  1.00  0.00     0.289 C 
HETATM    9  O4  UNL     1      36.785  -0.674 -43.988  1.00  0.00    -0.262 OA
HETATM   10  C11 UNL     1      38.447  -1.904 -42.798  1.00  0.00     0.232 C 
HETATM   11  O5  UNL     1      39.083  -3.089 -42.911  1.00  0.00    -0.354 OA
ENDROOT
BRANCH  10  12
HETATM   12  C12 UNL     1      38.194  -1.594 -41.339  1.00  0.00     0.121 C 
BRANCH  12  13
HETATM   13  S1  UNL     1      38.547  -2.871 -40.178  1.00  0.00    -0.125 SA
HETATM   14  C13 UNL     1      38.991  -2.241 -38.481  1.00  0.00     0.084 C 
HETATM   15  C14 UNL     1      40.295  -1.483 -38.816  1.00  0.00     0.027 C 
HETATM   16  C15 UNL     1      39.345  -3.509 -37.760  1.00  0.00    -0.001 A 
HETATM   17  C16 UNL     1      39.440  -3.476 -36.372  1.00  0.00     0.043 A 
HETATM   18  C20 UNL     1      39.492  -4.729 -38.448  1.00  0.00     0.038 A 
HETATM   19 CL2  UNL     1      39.289  -1.918 -35.569  1.00  0.00    -0.084 Cl
HETATM   20  C17 UNL     1      39.680  -4.649 -35.706  1.00  0.00     0.024 A 
HETATM   21  C18 UNL     1      39.827  -5.867 -36.389  1.00  0.00     0.003 A 
HETATM   22  C19 UNL     1      39.730  -5.885 -37.743  1.00  0.00     0.024 A 
HETATM   23 CL3  UNL     1      39.313  -4.751 -40.197  1.00  0.00    -0.120 Cl
ENDBRANCH  12  13
ENDBRANCH  10  12
BRANCH   1  24
HETATM   24  C3  UNL     1      38.774  -3.755 -45.116  1.00  0.00     0.097 C 
HETATM   25  C2  UNL     1      39.857  -3.321 -45.678  1.00  0.00     0.040 C 
HETATM   26  C1  UNL     1      39.866  -3.076 -47.163  1.00  0.00     0.064 C 
HETATM   27 CL1  UNL     1      41.325  -2.985 -44.839  1.00  0.00    -0.087 Cl
BRANCH  24  28
HETATM   28  O1  UNL     1      37.714  -3.940 -46.065  1.00  0.00    -0.360 OA
ATOM     29  H1  UNL     1      37.992  -4.454 -46.814  1.00  0.00     0.217 HD
ENDBRANCH  24  28
ENDBRANCH   1  24
BRANCH   4  30
HETATM   30  O2  UNL     1      36.772  -7.620 -43.244  1.00  0.00    -0.395 OA
ATOM     31  H2  UNL     1      36.149  -7.561 -43.959  1.00  0.00     0.210 HD
ENDBRANCH   4  30
TORSDOF 5
ENDMDL
MODEL 2
REMARK VINA RESULT: -8.646331949      3.322      5.807
REMARK  5 active torsions:
REMARK  status: ('A' for Active; 'I' for Inactive)
REMARK    1  A    between atoms: C3_4  and  O1_5 
REMARK    2  A    between atoms: C3_4  and  C4_7 
REMARK    3  A    between atoms: C7_10  and  O2_11 
REMARK    4  A    between atoms: C11_18  and  C12_19 
REMARK    5  A    between atoms: C12_19  and  S1_20 
ROOT
HETATM    1  C4  UNL     1      37.779  -0.712 -39.476  1.00  0.00     0.138 C 
HETATM    2  C5  UNL     1      36.261  -0.685 -39.413  1.00  0.00     0.050 C 
HETATM    3  C6  UNL     1      35.742   0.210 -38.319  1.00  0.00     0.035 C 
HETATM    4  C7  UNL     1      36.213   1.624 -38.399  1.00  0.00     0.120 C 
HETATM    5  C8  UNL     1      37.664   1.775 -38.807  1.00  0.00     0.067 C 
HETATM    6  C9  UNL     1      38.321   0.469 -38.792  1.00  0.00     0.175 C 
HETATM    7  O3  UNL     1      39.734   0.502 -39.018  1.00  0.00    -0.310 OA
HETATM    8  C10 UNL     1      40.320  -0.759 -38.745  1.00  0.00     0.289 C 
HETATM    9  O4  UNL     1      41.535  -0.919 -38.913  1.00  0.00    -0.262 OA
HETATM   10  C11 UNL     1      39.446  -1.866 -38.258  1.00  0.00     0.232 C 
HETATM   11  O5  UNL     1      38.159  -1.823 -38.663  1.00  0.00    -0.354 OA
ENDROOT
BRANCH  10  12
HETATM   12  C12 UNL     1      39.505  -1.940 -36.747  1.00  0.00     0.121 C 
BRANCH  12  13
HETATM   13  S1  UNL     1      39.620  -3.543 -36.029  1.00  0.00    -0.125 SA
HETATM   14  C13 UNL     1      39.183  -4.925 -37.202  1.00  0.00     0.084 C 
HETATM   15  C14 UNL     1      37.697  -4.588 -37.459  1.00  0.00     0.027 C 
HETATM   16  C15 UNL     1      39.254  -6.128 -36.307  1.00  0.00    -0.001 A 
HETATM   17  C16 UNL     1      39.283  -7.389 -36.896  1.00  0.00     0.043 A 
HETATM   18  C20 UNL     1      39.379  -5.999 -34.910  1.00  0.00     0.038 A 
HETATM   19 CL2  UNL     1      39.081  -7.492 -38.641  1.00  0.00    -0.084 Cl
HETATM   20  C17 UNL     1      39.433  -8.484 -36.086  1.00  0.00     0.024 A 
HETATM   21  C18 UNL     1      39.559  -8.359 -34.694  1.00  0.00     0.003 A 
HETATM   22  C19 UNL     1      39.531  -7.122 -34.133  1.00  0.00     0.024 A 
HETATM   23 CL3  UNL     1      39.394  -4.391 -34.198  1.00  0.00    -0.120 Cl
ENDBRANCH  12  13
ENDBRANCH  10  12
BRANCH   1  24
HETATM   24  C3  UNL     1      38.220  -1.016 -40.843  1.00  0.00     0.097 C 
HETATM   25  C2  UNL     1      38.479  -2.135 -41.441  1.00  0.00     0.040 C 
HETATM   26  C1  UNL     1      38.923  -2.112 -42.879  1.00  0.00     0.064 C 
HETATM   27 CL1  UNL     1      38.360  -3.688 -40.702  1.00  0.00    -0.087 Cl
BRANCH  24  28
HETATM   28  O1  UNL     1      38.410   0.112 -41.708  1.00  0.00    -0.360 OA
ATOM     29  H1  UNL     1      39.074   0.706 -41.378  1.00  0.00     0.217 HD
ENDBRANCH  24  28
ENDBRANCH   1  24
BRANCH   4  30
HETATM   30  O2  UNL     1      35.416   2.437 -39.212  1.00  0.00    -0.395 OA
ATOM     31  H2  UNL     1      35.886   3.164 -39.603  1.00  0.00     0.210 HD
ENDBRANCH   4  30
TORSDOF 5
ENDMDL
MODEL 3
REMARK VINA RESULT: -8.568008167      3.773      6.560
REMARK  5 active torsions:
REMARK  status: ('A' for Active; 'I' for Inactive)
REMARK    1  A    between atoms: C3_4  and  O1_5 
REMARK    2  A    between atoms: C3_4  and  C4_7 
REMARK    3  A    between atoms: C7_10  and  O2_11 
REMARK    4  A    between atoms: C11_18  and  C12_19 
REMARK    5  A    between atoms: C12_19  and  S1_20 
ROOT
HETATM    1  C4  UNL     1      36.609  -8.498 -40.260  1.00  0.00     0.138 C 
HETATM    2  C5  UNL     1      36.427  -7.234 -41.082  1.00  0.00     0.050 C 
HETATM    3  C6  UNL     1      37.668  -6.853 -41.844  1.00  0.00     0.035 C 
HETATM    4  C7  UNL     1      38.183  -7.913 -42.761  1.00  0.00     0.120 C 
HETATM    5  C8  UNL     1      38.102  -9.317 -42.196  1.00  0.00     0.067 C 
HETATM    6  C9  UNL     1      37.753  -9.261 -40.778  1.00  0.00     0.175 C 
HETATM    7  O3  UNL     1      37.790 -10.519 -40.097  1.00  0.00    -0.310 OA
HETATM    8  C10 UNL     1      37.682 -10.341 -38.696  1.00  0.00     0.289 C 
HETATM    9  O4  UNL     1      37.671 -11.329 -37.951  1.00  0.00    -0.262 OA
HETATM   10  C11 UNL     1      37.586  -8.953 -38.154  1.00  0.00     0.232 C 
HETATM   11  O5  UNL     1      37.017  -8.041 -38.970  1.00  0.00    -0.354 OA
ENDROOT
BRANCH  10  12
HETATM   12  C12 UNL     1      38.956  -8.474 -37.725  1.00  0.00     0.121 C 
BRANCH  12  13
HETATM   13  S1  UNL     1      39.241  -6.737 -37.759  1.00  0.00    -0.125 SA
HETATM   14  C13 UNL     1      38.878  -5.884 -36.142  1.00  0.00     0.084 C 
HETATM   15  C14 UNL     1      37.358  -6.148 -36.043  1.00  0.00     0.027 C 
HETATM   16  C15 UNL     1      39.092  -4.440 -36.495  1.00  0.00    -0.001 A 
HETATM   17  C16 UNL     1      39.207  -3.517 -35.460  1.00  0.00     0.043 A 
HETATM   18  C20 UNL     1      39.264  -4.028 -37.831  1.00  0.00     0.038 A 
HETATM   19 CL2  UNL     1      38.942  -4.080 -33.815  1.00  0.00    -0.084 Cl
HETATM   20  C17 UNL     1      39.486  -2.213 -35.777  1.00  0.00     0.024 A 
HETATM   21  C18 UNL     1      39.659  -1.799 -37.107  1.00  0.00     0.003 A 
HETATM   22  C19 UNL     1      39.546  -2.712 -38.107  1.00  0.00     0.024 A 
HETATM   23 CL3  UNL     1      39.168  -5.226 -39.114  1.00  0.00    -0.120 Cl
ENDBRANCH  12  13
ENDBRANCH  10  12
BRANCH   1  24
HETATM   24  C3  UNL     1      35.318  -9.173 -40.082  1.00  0.00     0.097 C 
HETATM   25  C2  UNL     1      34.327  -8.948 -39.279  1.00  0.00     0.040 C 
HETATM   26  C1  UNL     1      33.116  -9.841 -39.342  1.00  0.00     0.064 C 
HETATM   27 CL1  UNL     1      34.282  -7.681 -38.111  1.00  0.00    -0.087 Cl
BRANCH  24  28
HETATM   28  O1  UNL     1      35.071 -10.295 -40.940  1.00  0.00    -0.360 OA
ATOM     29  H1  UNL     1      34.269 -10.193 -41.438  1.00  0.00     0.217 HD
ENDBRANCH  24  28
ENDBRANCH   1  24
BRANCH   4  30
HETATM   30  O2  UNL     1      37.598  -7.890 -44.031  1.00  0.00    -0.395 OA
ATOM     31  H2  UNL     1      38.192  -7.613 -44.719  1.00  0.00     0.210 HD
ENDBRANCH   4  30
TORSDOF 5
ENDMDL
MODEL 4
REMARK VINA RESULT: -8.482778314      3.645      6.781
REMARK  5 active torsions:
REMARK  status: ('A' for Active; 'I' for Inactive)
REMARK    1  A    between atoms: C3_4  and  O1_5 
REMARK    2  A    between atoms: C3_4  and  C4_7 
REMARK    3  A    between atoms: C7_10  and  O2_11 
REMARK    4  A    between atoms: C11_18  and  C12_19 
REMARK    5  A    between atoms: C12_19  and  S1_20 
ROOT
HETATM    1  C4  UNL     1      39.106  -3.231 -44.221  1.00  0.00     0.138 C 
HETATM    2  C5  UNL     1      40.537  -2.738 -44.355  1.00  0.00     0.050 C 
HETATM    3  C6  UNL     1      41.258  -3.358 -45.521  1.00  0.00     0.035 C 
HETATM    4  C7  UNL     1      40.590  -3.155 -46.841  1.00  0.00     0.120 C 
HETATM    5  C8  UNL     1      39.081  -3.274 -46.800  1.00  0.00     0.067 C 
HETATM    6  C9  UNL     1      38.661  -3.799 -45.501  1.00  0.00     0.175 C 
HETATM    7  O3  UNL     1      37.265  -4.094 -45.393  1.00  0.00    -0.310 OA
HETATM    8  C10 UNL     1      36.991  -4.819 -44.207  1.00  0.00     0.289 C 
HETATM    9  O4  UNL     1      35.826  -5.137 -43.938  1.00  0.00    -0.262 OA
HETATM   10  C11 UNL     1      38.127  -5.182 -43.309  1.00  0.00     0.232 C 
HETATM   11  O5  UNL     1      39.183  -4.342 -43.327  1.00  0.00    -0.354 OA
ENDROOT
BRANCH  10  12
HETATM   12  C12 UNL     1      38.587  -6.591 -43.608  1.00  0.00     0.121 C 
BRANCH  12  13
HETATM   13  S1  UNL     1      37.351  -7.753 -44.081  1.00  0.00    -0.125 SA
HETATM   14  C13 UNL     1      36.489  -8.561 -42.640  1.00  0.00     0.084 C 
HETATM   15  C14 UNL     1      37.682  -9.316 -42.012  1.00  0.00     0.027 C 
HETATM   16  C15 UNL     1      35.599  -9.557 -43.326  1.00  0.00    -0.001 A 
HETATM   17  C16 UNL     1      34.575 -10.145 -42.591  1.00  0.00     0.043 A 
HETATM   18  C20 UNL     1      35.728  -9.832 -44.701  1.00  0.00     0.038 A 
HETATM   19 CL2  UNL     1      34.487  -9.796 -40.868  1.00  0.00    -0.084 Cl
HETATM   20  C17 UNL     1      33.710 -10.990 -43.236  1.00  0.00     0.024 A 
HETATM   21  C18 UNL     1      33.836 -11.266 -44.607  1.00  0.00     0.003 A 
HETATM   22  C19 UNL     1      34.839 -10.683 -45.312  1.00  0.00     0.024 A 
HETATM   23 CL3  UNL     1      36.998  -9.032 -45.618  1.00  0.00    -0.120 Cl
ENDBRANCH  12  13
ENDBRANCH  10  12
BRANCH   1  24
HETATM   24  C3  UNL     1      38.281  -2.212 -43.563  1.00  0.00     0.097 C 
HETATM   25  C2  UNL     1      38.179  -1.847 -42.325  1.00  0.00     0.040 C 
HETATM   26  C1  UNL     1      37.219  -0.746 -41.961  1.00  0.00     0.064 C 
HETATM   27 CL1  UNL     1      39.074  -2.542 -41.024  1.00  0.00    -0.087 Cl
BRANCH  24  28
HETATM   28  O1  UNL     1      37.413  -1.457 -44.419  1.00  0.00    -0.360 OA
ATOM     29  H1  UNL     1      36.726  -1.017 -43.931  1.00  0.00     0.217 HD
ENDBRANCH  24  28
ENDBRANCH   1  24
BRANCH   4  30
HETATM   30  O2  UNL     1      40.944  -1.958 -47.473  1.00  0.00    -0.395 OA
ATOM     31  H2  UNL     1      41.665  -2.049 -48.086  1.00  0.00     0.210 HD
ENDBRANCH   4  30
TORSDOF 5
ENDMDL
MODEL 5
REMARK VINA RESULT: -8.453395457      4.441      8.090
REMARK  5 active torsions:
REMARK  status: ('A' for Active; 'I' for Inactive)
REMARK    1  A    between atoms: C3_4  and  O1_5 
REMARK    2  A    between atoms: C3_4  and  C4_7 
REMARK    3  A    between atoms: C7_10  and  O2_11 
REMARK    4  A    between atoms: C11_18  and  C12_19 
REMARK    5  A    between atoms: C12_19  and  S1_20 
ROOT
HETATM    1  C4  UNL     1      37.291  -8.816 -36.723  1.00  0.00     0.138 C 
HETATM    2  C5  UNL     1      38.434  -9.023 -35.745  1.00  0.00     0.050 C 
HETATM    3  C6  UNL     1      39.340  -7.825 -35.649  1.00  0.00     0.035 C 
HETATM    4  C7  UNL     1      38.653  -6.555 -35.273  1.00  0.00     0.120 C 
HETATM    5  C8  UNL     1      37.297  -6.365 -35.921  1.00  0.00     0.067 C 
HETATM    6  C9  UNL     1      37.097  -7.378 -36.956  1.00  0.00     0.175 C 
HETATM    7  O3  UNL     1      35.913  -7.213 -37.742  1.00  0.00    -0.310 OA
HETATM    8  C10 UNL     1      35.923  -8.078 -38.863  1.00  0.00     0.289 C 
HETATM    9  O4  UNL     1      34.960  -8.086 -39.640  1.00  0.00    -0.262 OA
HETATM   10  C11 UNL     1      37.107  -8.961 -39.078  1.00  0.00     0.232 C 
HETATM   11  O5  UNL     1      37.772  -9.334 -37.964  1.00  0.00    -0.354 OA
ENDROOT
BRANCH  10  12
HETATM   12  C12 UNL     1      38.063  -8.309 -40.052  1.00  0.00     0.121 C 
BRANCH  12  13
HETATM   13  S1  UNL     1      38.346  -6.582 -39.860  1.00  0.00    -0.125 SA
HETATM   14  C13 UNL     1      38.132  -5.606 -41.434  1.00  0.00     0.084 C 
HETATM   15  C14 UNL     1      39.273  -6.217 -42.278  1.00  0.00     0.027 C 
HETATM   16  C15 UNL     1      38.540  -4.226 -41.003  1.00  0.00    -0.001 A 
HETATM   17  C16 UNL     1      38.223  -3.155 -41.833  1.00  0.00     0.043 A 
HETATM   18  C20 UNL     1      39.148  -3.996 -39.754  1.00  0.00     0.038 A 
HETATM   19 CL2  UNL     1      37.502  -3.505 -43.399  1.00  0.00    -0.084 Cl
HETATM   20  C17 UNL     1      38.519  -1.887 -41.404  1.00  0.00     0.024 A 
HETATM   21  C18 UNL     1      39.125  -1.654 -40.159  1.00  0.00     0.003 A 
HETATM   22  C19 UNL     1      39.426  -2.709 -39.359  1.00  0.00     0.024 A 
HETATM   23 CL3  UNL     1      39.487  -5.364 -38.703  1.00  0.00    -0.120 Cl
ENDBRANCH  12  13
ENDBRANCH  10  12
BRANCH   1  24
HETATM   24  C3  UNL     1      36.141  -9.641 -36.337  1.00  0.00     0.097 C 
HETATM   25  C2  UNL     1      35.963 -10.924 -36.314  1.00  0.00     0.040 C 
HETATM   26  C1  UNL     1      34.638 -11.473 -35.858  1.00  0.00     0.064 C 
HETATM   27 CL1  UNL     1      37.151 -12.083 -36.783  1.00  0.00    -0.087 Cl
BRANCH  24  28
HETATM   28  O1  UNL     1      34.976  -8.930 -35.894  1.00  0.00    -0.360 OA
ATOM     29  H1  UNL     1      35.201  -8.165 -35.378  1.00  0.00     0.217 HD
ENDBRANCH  24  28
ENDBRANCH   1  24
BRANCH   4  30
HETATM   30  O2  UNL     1      38.537  -6.367 -33.891  1.00  0.00    -0.395 OA
ATOM     31  H2  UNL     1      38.574  -7.174 -33.392  1.00  0.00     0.210 HD
ENDBRANCH   4  30
TORSDOF 5
ENDMDL
