MODEL 1
REMARK VINA RESULT: -4.676689688      0.000      0.000
REMARK  4 active torsions:
REMARK  status: ('A' for Active; 'I' for Inactive)
REMARK    1  A    between atoms: N1_1  and  C1_5 
REMARK    2  A    between atoms: C1_5  and  C2_6 
REMARK    3  A    between atoms: C2_6  and  S1_7 
REMARK    4  A    between atoms: S1_7  and  C3_8 
ROOT
HETATM    1  C2  UNL     1      44.533  78.066  34.312  1.00  0.00     0.101 C 
ENDROOT
BRANCH   1   2
HETATM    2  C1  UNL     1      46.015  78.098  33.953  1.00  0.00     0.239 C 
BRANCH   2   3
HETATM    3  N1  UNL     1      46.231  78.375  32.559  1.00  0.00    -0.079 N 
ATOM      4  H13 UNL     1      47.073  77.911  32.217  1.00  0.00     0.274 HD
ATOM      5  H12 UNL     1      45.539  77.904  31.978  1.00  0.00     0.274 HD
ATOM      6  H11 UNL     1      46.257  79.376  32.364  1.00  0.00     0.274 HD
ENDBRANCH   2   3
ENDBRANCH   1   2
BRANCH   1   7
HETATM    7  S1  UNL     1      44.365  78.892  35.903  1.00  0.00    -0.163 SA
BRANCH   7   8
HETATM    8  C3  UNL     1      43.005  78.243  36.891  1.00  0.00     0.047 C 
HETATM    9  C4  UNL     1      43.518  77.713  38.224  1.00  0.00     0.015 C 
HETATM   10  C5  UNL     1      43.958  78.969  38.928  1.00  0.00     0.001 C 
HETATM   11  C6  UNL     1      43.402  80.141  38.143  1.00  0.00     0.001 C 
HETATM   12  C7  UNL     1      42.249  79.467  37.402  1.00  0.00     0.015 C 
ENDBRANCH   7   8
ENDBRANCH   1   7
TORSDOF 4
ENDMDL
MODEL 2
REMARK VINA RESULT: -4.416648852      4.111      5.544
REMARK  4 active torsions:
REMARK  status: ('A' for Active; 'I' for Inactive)
REMARK    1  A    between atoms: N1_1  and  C1_5 
REMARK    2  A    between atoms: C1_5  and  C2_6 
REMARK    3  A    between atoms: C2_6  and  S1_7 
REMARK    4  A    between atoms: S1_7  and  C3_8 
ROOT
HETATM    1  C2  UNL     1      42.747  79.865  40.926  1.00  0.00     0.101 C 
ENDROOT
BRANCH   1   2
HETATM    2  C1  UNL     1      41.253  79.569  40.851  1.00  0.00     0.239 C 
BRANCH   2   3
HETATM    3  N1  UNL     1      40.845  78.579  41.811  1.00  0.00    -0.079 N 
ATOM      4  H13 UNL     1      39.831  78.565  41.916  1.00  0.00     0.274 HD
ATOM      5  H12 UNL     1      40.984  77.636  41.449  1.00  0.00     0.274 HD
ATOM      6  H11 UNL     1      41.309  78.700  42.711  1.00  0.00     0.274 HD
ENDBRANCH   2   3
ENDBRANCH   1   2
BRANCH   1   7
HETATM    7  S1  UNL     1      43.470  79.291  39.380  1.00  0.00    -0.163 SA
BRANCH   7   8
HETATM    8  C3  UNL     1      42.427  79.627  37.950  1.00  0.00     0.047 C 
HETATM    9  C4  UNL     1      43.219  80.352  36.868  1.00  0.00     0.015 C 
HETATM   10  C5  UNL     1      44.191  79.297  36.412  1.00  0.00     0.001 C 
HETATM   11  C6  UNL     1      43.722  77.976  36.990  1.00  0.00     0.001 C 
HETATM   12  C7  UNL     1      42.249  78.284  37.247  1.00  0.00     0.015 C 
ENDBRANCH   7   8
ENDBRANCH   1   7
TORSDOF 4
ENDMDL
MODEL 3
REMARK VINA RESULT: -4.379042495      4.162      5.521
REMARK  4 active torsions:
REMARK  status: ('A' for Active; 'I' for Inactive)
REMARK    1  A    between atoms: N1_1  and  C1_5 
REMARK    2  A    between atoms: C1_5  and  C2_6 
REMARK    3  A    between atoms: C2_6  and  S1_7 
REMARK    4  A    between atoms: S1_7  and  C3_8 
ROOT
HETATM    1  C2  UNL     1      41.459  79.292  40.618  1.00  0.00     0.101 C 
ENDROOT
BRANCH   1   2
HETATM    2  C1  UNL     1      41.959  79.589  42.028  1.00  0.00     0.239 C 
BRANCH   2   3
HETATM    3  N1  UNL     1      43.102  80.460  42.028  1.00  0.00    -0.079 N 
ATOM      4  H13 UNL     1      43.533  80.503  41.105  1.00  0.00     0.274 HD
ATOM      5  H12 UNL     1      42.822  81.436  42.122  1.00  0.00     0.274 HD
ATOM      6  H11 UNL     1      43.784  80.202  42.742  1.00  0.00     0.274 HD
ENDBRANCH   2   3
ENDBRANCH   1   2
BRANCH   1   7
HETATM    7  S1  UNL     1      42.464  80.273  39.492  1.00  0.00    -0.163 SA
BRANCH   7   8
HETATM    8  C3  UNL     1      43.887  79.370  38.853  1.00  0.00     0.047 C 
HETATM    9  C4  UNL     1      43.472  77.979  38.387  1.00  0.00     0.015 C 
HETATM   10  C5  UNL     1      42.618  78.279  37.184  1.00  0.00     0.001 C 
HETATM   11  C6  UNL     1      42.837  79.737  36.831  1.00  0.00     0.001 C 
HETATM   12  C7  UNL     1      44.189  79.991  37.492  1.00  0.00     0.015 C 
ENDBRANCH   7   8
ENDBRANCH   1   7
TORSDOF 4
ENDMDL
MODEL 4
REMARK VINA RESULT: -4.221481947      0.827      1.782
REMARK  4 active torsions:
REMARK  status: ('A' for Active; 'I' for Inactive)
REMARK    1  A    between atoms: N1_1  and  C1_5 
REMARK    2  A    between atoms: C1_5  and  C2_6 
REMARK    3  A    between atoms: C2_6  and  S1_7 
REMARK    4  A    between atoms: S1_7  and  C3_8 
ROOT
HETATM    1  C2  UNL     1      44.908  77.858  34.825  1.00  0.00     0.101 C 
ENDROOT
BRANCH   1   2
HETATM    2  C1  UNL     1      44.650  77.954  33.325  1.00  0.00     0.239 C 
BRANCH   2   3
HETATM    3  N1  UNL     1      45.849  78.231  32.583  1.00  0.00    -0.079 N 
ATOM      4  H13 UNL     1      45.823  79.165  32.175  1.00  0.00     0.274 HD
ATOM      5  H12 UNL     1      46.649  78.349  33.205  1.00  0.00     0.274 HD
ATOM      6  H11 UNL     1      46.037  77.523  31.873  1.00  0.00     0.274 HD
ENDBRANCH   2   3
ENDBRANCH   1   2
BRANCH   1   7
HETATM    7  S1  UNL     1      44.053  79.244  35.590  1.00  0.00    -0.163 SA
BRANCH   7   8
HETATM    8  C3  UNL     1      44.347  79.358  37.365  1.00  0.00     0.047 C 
HETATM    9  C4  UNL     1      43.386  80.354  38.003  1.00  0.00     0.015 C 
HETATM   10  C5  UNL     1      42.056  79.661  37.864  1.00  0.00     0.001 C 
HETATM   11  C6  UNL     1      42.339  78.225  37.470  1.00  0.00     0.001 C 
HETATM   12  C7  UNL     1      43.778  78.072  37.958  1.00  0.00     0.015 C 
ENDBRANCH   7   8
ENDBRANCH   1   7
TORSDOF 4
ENDMDL
MODEL 5
REMARK VINA RESULT: -4.156490952      1.576      2.277
REMARK  4 active torsions:
REMARK  status: ('A' for Active; 'I' for Inactive)
REMARK    1  A    between atoms: N1_1  and  C1_5 
REMARK    2  A    between atoms: C1_5  and  C2_6 
REMARK    3  A    between atoms: C2_6  and  S1_7 
REMARK    4  A    between atoms: S1_7  and  C3_8 
ROOT
HETATM    1  C2  UNL     1      44.132  77.645  36.167  1.00  0.00     0.101 C 
ENDROOT
BRANCH   1   2
HETATM    2  C1  UNL     1      44.455  78.760  35.179  1.00  0.00     0.239 C 
BRANCH   2   3
HETATM    3  N1  UNL     1      45.450  78.366  34.220  1.00  0.00    -0.079 N 
ATOM      4  H13 UNL     1      46.133  77.732  34.636  1.00  0.00     0.274 HD
ATOM      5  H12 UNL     1      45.057  77.741  33.516  1.00  0.00     0.274 HD
ATOM      6  H11 UNL     1      45.908  79.168  33.786  1.00  0.00     0.274 HD
ENDBRANCH   2   3
ENDBRANCH   1   2
BRANCH   1   7
HETATM    7  S1  UNL     1      43.009  78.342  37.390  1.00  0.00    -0.163 SA
BRANCH   7   8
HETATM    8  C3  UNL     1      43.858  79.307  38.653  1.00  0.00     0.047 C 
HETATM    9  C4  UNL     1      44.111  80.727  38.161  1.00  0.00     0.015 C 
HETATM   10  C5  UNL     1      42.722  81.301  38.087  1.00  0.00     0.001 C 
HETATM   11  C6  UNL     1      41.802  80.343  38.820  1.00  0.00     0.001 C 
HETATM   12  C7  UNL     1      42.803  79.614  39.713  1.00  0.00     0.015 C 
ENDBRANCH   7   8
ENDBRANCH   1   7
TORSDOF 4
ENDMDL
