MODEL 1
REMARK VINA RESULT: -5.625415884      0.000      0.000
REMARK  4 active torsions:
REMARK  status: ('A' for Active; 'I' for Inactive)
REMARK    1  A    between atoms: N1_2  and  C2_3 
REMARK    2  A    between atoms: N1_2  and  C8_13 
REMARK    3  A    between atoms: C2_3  and  C3_4 
REMARK    4  A    between atoms: C8_13  and  C9_14 
ROOT
HETATM    1  C1  UNL     1      49.552  40.544  90.896  1.00  0.00     0.310 C 
HETATM    2  N1  UNL     1      48.393  41.216  91.414  1.00  0.00     0.090 N 
ENDROOT
BRANCH   2   3
HETATM    3  C2  UNL     1      48.811  42.517  91.906  1.00  0.00     0.330 C 
BRANCH   3   4
HETATM    4  C3  UNL     1      49.645  42.423  93.106  1.00  0.00     0.055 A 
HETATM    5  C4  UNL     1      50.856  43.057  93.267  1.00  0.00     0.119 A 
HETATM    6  N2  UNL     1      51.388  42.771  94.487  1.00  0.00    -0.335 N 
HETATM    7  C5  UNL     1      50.504  41.968  95.062  1.00  0.00     0.146 A 
HETATM    8  C7  UNL     1      52.551  43.109  95.235  1.00  0.00     0.141 C 
HETATM    9  N3  UNL     1      49.458  41.743  94.267  1.00  0.00    -0.337 N 
HETATM   10  S1  UNL     1      51.168  41.545  96.664  1.00  0.00    -0.092 SA
ATOM     11  H3  UNL     1      48.654  41.159  94.493  1.00  0.00     0.168 HD
HETATM   12  C6  UNL     1      52.906  42.006  96.206  1.00  0.00     0.102 C 
ENDBRANCH   3   4
ENDBRANCH   2   3
BRANCH   2  13
HETATM   13  C8  UNL     1      47.396  41.486  90.404  1.00  0.00     0.277 C 
BRANCH  13  14
HETATM   14  C9  UNL     1      46.606  40.261  89.983  1.00  0.00     0.014 C 
HETATM   15  C10 UNL     1      45.199  40.383  90.433  1.00  0.00     0.006 C 
HETATM   16  C11 UNL     1      44.672  39.177  91.184  1.00  0.00     0.000 C 
HETATM   17  C12 UNL     1      44.901  37.874  90.493  1.00  0.00     0.000 C 
HETATM   18  C13 UNL     1      44.348  37.834  89.090  1.00  0.00     0.000 C 
HETATM   19  C14 UNL     1      45.519  37.983  88.147  1.00  0.00     0.000 C 
HETATM   20  C15 UNL     1      45.764  39.414  87.757  1.00  0.00     0.000 C 
HETATM   21  C16 UNL     1      46.842  40.076  88.524  1.00  0.00     0.006 C 
ENDBRANCH  13  14
ENDBRANCH   2  13
TORSDOF 4
ENDMDL
MODEL 2
REMARK VINA RESULT: -5.586836690      7.273     10.329
REMARK  4 active torsions:
REMARK  status: ('A' for Active; 'I' for Inactive)
REMARK    1  A    between atoms: N1_2  and  C2_3 
REMARK    2  A    between atoms: N1_2  and  C8_13 
REMARK    3  A    between atoms: C2_3  and  C3_4 
REMARK    4  A    between atoms: C8_13  and  C9_14 
ROOT
HETATM    1  C1  UNL     1      43.087  35.402  86.331  1.00  0.00     0.310 C 
HETATM    2  N1  UNL     1      44.327  35.810  85.733  1.00  0.00     0.090 N 
ENDROOT
BRANCH   2   3
HETATM    3  C2  UNL     1      44.491  35.073  84.492  1.00  0.00     0.330 C 
BRANCH   3   4
HETATM    4  C3  UNL     1      45.637  34.163  84.524  1.00  0.00     0.055 A 
HETATM    5  C4  UNL     1      45.582  32.853  84.943  1.00  0.00     0.119 A 
HETATM    6  N2  UNL     1      46.811  32.271  84.859  1.00  0.00    -0.335 N 
HETATM    7  C5  UNL     1      47.605  33.225  84.392  1.00  0.00     0.146 A 
HETATM    8  C7  UNL     1      47.393  30.998  85.112  1.00  0.00     0.141 C 
HETATM    9  N3  UNL     1      46.938  34.359  84.184  1.00  0.00    -0.337 N 
HETATM   10  S1  UNL     1      49.239  32.516  84.284  1.00  0.00    -0.092 SA
ATOM     11  H3  UNL     1      47.336  35.228  83.828  1.00  0.00     0.168 HD
HETATM   12  C6  UNL     1      48.857  31.134  85.463  1.00  0.00     0.102 C 
ENDBRANCH   3   4
ENDBRANCH   2   3
BRANCH   2  13
HETATM   13  C8  UNL     1      44.346  37.206  85.361  1.00  0.00     0.277 C 
BRANCH  13  14
HETATM   14  C9  UNL     1      44.491  38.150  86.539  1.00  0.00     0.014 C 
HETATM   15  C10 UNL     1      45.568  37.678  87.441  1.00  0.00     0.006 C 
HETATM   16  C11 UNL     1      45.173  37.586  88.901  1.00  0.00     0.000 C 
HETATM   17  C12 UNL     1      44.527  38.819  89.441  1.00  0.00     0.000 C 
HETATM   18  C13 UNL     1      45.359  40.063  89.255  1.00  0.00     0.000 C 
HETATM   19  C14 UNL     1      44.752  40.836  88.108  1.00  0.00     0.000 C 
HETATM   20  C15 UNL     1      45.387  40.498  86.788  1.00  0.00     0.000 C 
HETATM   21  C16 UNL     1      44.624  39.523  85.979  1.00  0.00     0.006 C 
ENDBRANCH  13  14
ENDBRANCH   2  13
TORSDOF 4
ENDMDL
MODEL 3
REMARK VINA RESULT: -5.419317940      7.473     10.368
REMARK  4 active torsions:
REMARK  status: ('A' for Active; 'I' for Inactive)
REMARK    1  A    between atoms: N1_2  and  C2_3 
REMARK    2  A    between atoms: N1_2  and  C8_13 
REMARK    3  A    between atoms: C2_3  and  C3_4 
REMARK    4  A    between atoms: C8_13  and  C9_14 
ROOT
HETATM    1  C1  UNL     1      45.057  37.907  89.186  1.00  0.00     0.310 C 
HETATM    2  N1  UNL     1      44.162  37.515  88.133  1.00  0.00     0.090 N 
ENDROOT
BRANCH   2   3
HETATM    3  C2  UNL     1      42.977  38.350  88.216  1.00  0.00     0.330 C 
BRANCH   3   4
HETATM    4  C3  UNL     1      41.744  37.569  88.331  1.00  0.00     0.055 A 
HETATM    5  C4  UNL     1      40.939  37.542  89.446  1.00  0.00     0.119 A 
HETATM    6  N2  UNL     1      39.871  36.721  89.245  1.00  0.00    -0.335 N 
HETATM    7  C5  UNL     1      40.029  36.254  88.014  1.00  0.00     0.146 A 
HETATM    8  C7  UNL     1      38.720  36.294  89.965  1.00  0.00     0.141 C 
HETATM    9  N3  UNL     1      41.132  36.739  87.446  1.00  0.00    -0.337 N 
HETATM   10  S1  UNL     1      38.660  35.151  87.709  1.00  0.00    -0.092 SA
ATOM     11  H3  UNL     1      41.462  36.524  86.505  1.00  0.00     0.168 HD
HETATM   12  C6  UNL     1      38.277  34.922  89.511  1.00  0.00     0.102 C 
ENDBRANCH   3   4
ENDBRANCH   2   3
BRANCH   2  13
HETATM   13  C8  UNL     1      44.706  37.740  86.814  1.00  0.00     0.277 C 
BRANCH  13  14
HETATM   14  C9  UNL     1      44.286  36.699  85.794  1.00  0.00     0.014 C 
HETATM   15  C10 UNL     1      44.285  37.288  84.435  1.00  0.00     0.006 C 
HETATM   16  C11 UNL     1      43.010  37.058  83.649  1.00  0.00     0.000 C 
HETATM   17  C12 UNL     1      42.559  35.635  83.614  1.00  0.00     0.000 C 
HETATM   18  C13 UNL     1      43.610  34.684  83.097  1.00  0.00     0.000 C 
HETATM   19  C14 UNL     1      44.183  33.963  84.294  1.00  0.00     0.000 C 
HETATM   20  C15 UNL     1      45.406  34.644  84.843  1.00  0.00     0.000 C 
HETATM   21  C16 UNL     1      45.146  35.504  86.019  1.00  0.00     0.006 C 
ENDBRANCH  13  14
ENDBRANCH   2  13
TORSDOF 4
ENDMDL
MODEL 4
REMARK VINA RESULT: -5.391334855      3.834      6.528
REMARK  4 active torsions:
REMARK  status: ('A' for Active; 'I' for Inactive)
REMARK    1  A    between atoms: N1_2  and  C2_3 
REMARK    2  A    between atoms: N1_2  and  C8_13 
REMARK    3  A    between atoms: C2_3  and  C3_4 
REMARK    4  A    between atoms: C8_13  and  C9_14 
ROOT
HETATM    1  C1  UNL     1      42.845  37.667  88.006  1.00  0.00     0.310 C 
HETATM    2  N1  UNL     1      44.242  37.944  88.183  1.00  0.00     0.090 N 
ENDROOT
BRANCH   2   3
HETATM    3  C2  UNL     1      44.550  37.812  89.597  1.00  0.00     0.330 C 
BRANCH   3   4
HETATM    4  C3  UNL     1      45.375  38.913  90.099  1.00  0.00     0.055 A 
HETATM    5  C4  UNL     1      45.326  39.402  91.384  1.00  0.00     0.119 A 
HETATM    6  N2  UNL     1      46.209  40.426  91.541  1.00  0.00    -0.335 N 
HETATM    7  C5  UNL     1      46.790  40.557  90.356  1.00  0.00     0.146 A 
HETATM    8  C7  UNL     1      46.635  41.301  92.580  1.00  0.00     0.141 C 
HETATM    9  N3  UNL     1      46.315  39.673  89.479  1.00  0.00    -0.337 N 
HETATM   10  S1  UNL     1      47.946  41.908  90.503  1.00  0.00    -0.092 SA
ATOM     11  H3  UNL     1      46.609  39.582  88.507  1.00  0.00     0.168 HD
HETATM   12  C6  UNL     1      47.127  42.613  92.012  1.00  0.00     0.102 C 
ENDBRANCH   3   4
ENDBRANCH   2   3
BRANCH   2  13
HETATM   13  C8  UNL     1      45.099  36.996  87.509  1.00  0.00     0.277 C 
BRANCH  13  14
HETATM   14  C9  UNL     1      44.425  36.273  86.359  1.00  0.00     0.014 C 
HETATM   15  C10 UNL     1      44.693  36.981  85.085  1.00  0.00     0.006 C 
HETATM   16  C11 UNL     1      43.459  37.273  84.255  1.00  0.00     0.000 C 
HETATM   17  C12 UNL     1      42.574  36.091  84.033  1.00  0.00     0.000 C 
HETATM   18  C13 UNL     1      43.289  34.913  83.419  1.00  0.00     0.000 C 
HETATM   19  C14 UNL     1      43.528  33.913  84.525  1.00  0.00     0.000 C 
HETATM   20  C15 UNL     1      44.872  34.087  85.176  1.00  0.00     0.000 C 
HETATM   21  C16 UNL     1      44.837  34.845  86.446  1.00  0.00     0.006 C 
ENDBRANCH  13  14
ENDBRANCH   2  13
TORSDOF 4
ENDMDL
MODEL 5
REMARK VINA RESULT: -5.378142928     12.119     15.189
REMARK  4 active torsions:
REMARK  status: ('A' for Active; 'I' for Inactive)
REMARK    1  A    between atoms: N1_2  and  C2_3 
REMARK    2  A    between atoms: N1_2  and  C8_13 
REMARK    3  A    between atoms: C2_3  and  C3_4 
REMARK    4  A    between atoms: C8_13  and  C9_14 
ROOT
HETATM    1  C1  UNL     1      37.686  34.847  84.535  1.00  0.00     0.310 C 
HETATM    2  N1  UNL     1      38.784  35.349  83.757  1.00  0.00     0.090 N 
ENDROOT
BRANCH   2   3
HETATM    3  C2  UNL     1      38.270  36.370  82.861  1.00  0.00     0.330 C 
BRANCH   3   4
HETATM    4  C3  UNL     1      38.759  36.214  81.490  1.00  0.00     0.055 A 
HETATM    5  C4  UNL     1      38.197  35.380  80.551  1.00  0.00     0.119 A 
HETATM    6  N2  UNL     1      38.880  35.455  79.375  1.00  0.00    -0.335 N 
HETATM    7  C5  UNL     1      39.850  36.329  79.601  1.00  0.00     0.146 A 
HETATM    8  C7  UNL     1      38.801  34.885  78.073  1.00  0.00     0.141 C 
HETATM    9  N3  UNL     1      39.805  36.797  80.848  1.00  0.00    -0.337 N 
HETATM   10  S1  UNL     1      40.791  36.447  78.090  1.00  0.00    -0.092 SA
ATOM     11  H3  UNL     1      40.447  37.479  81.252  1.00  0.00     0.168 HD
HETATM   12  C6  UNL     1      40.166  34.831  77.425  1.00  0.00     0.102 C 
ENDBRANCH   3   4
ENDBRANCH   2   3
BRANCH   2  13
HETATM   13  C8  UNL     1      39.792  36.006  84.557  1.00  0.00     0.277 C 
BRANCH  13  14
HETATM   14  C9  UNL     1      41.197  35.490  84.314  1.00  0.00     0.014 C 
HETATM   15  C10 UNL     1      42.064  36.587  83.823  1.00  0.00     0.006 C 
HETATM   16  C11 UNL     1      42.848  36.258  82.569  1.00  0.00     0.000 C 
HETATM   17  C12 UNL     1      43.601  34.971  82.635  1.00  0.00     0.000 C 
HETATM   18  C13 UNL     1      44.539  34.884  83.812  1.00  0.00     0.000 C 
HETATM   19  C14 UNL     1      43.883  33.989  84.838  1.00  0.00     0.000 C 
HETATM   20  C15 UNL     1      43.073  34.763  85.840  1.00  0.00     0.000 C 
HETATM   21  C16 UNL     1      41.621  34.790  85.557  1.00  0.00     0.006 C 
ENDBRANCH  13  14
ENDBRANCH   2  13
TORSDOF 4
ENDMDL
