MODEL 1
REMARK VINA RESULT: -6.324961143      0.000      0.000
REMARK  4 active torsions:
REMARK  status: ('A' for Active; 'I' for Inactive)
REMARK    1  A    between atoms: C2_2  and  C4_4 
REMARK    2  A    between atoms: C4_4  and  C5_5 
REMARK    3  A    between atoms: C5_5  and  C8_8 
REMARK    4  A    between atoms: C9_11  and  C10_12 
ROOT
HETATM    1  C5  UNL     1      43.624  37.248  85.044  1.00  0.00     0.028 C 
HETATM    2  C6  UNL     1      44.579  37.496  83.913  1.00  0.00     0.025 C 
HETATM    3  C7  UNL     1      42.516  38.249  84.835  1.00  0.00     0.025 C 
ENDROOT
BRANCH   1   4
HETATM    4  C4  UNL     1      43.080  35.835  85.164  1.00  0.00    -0.020 C 
HETATM    5  C14 UNL     1      43.824  35.209  86.320  1.00  0.00     0.041 C 
HETATM    6  C15 UNL     1      44.987  34.363  86.000  1.00  0.00     0.272 C 
HETATM    7  N3  UNL     1      44.925  33.544  84.864  1.00  0.00     0.084 N 
HETATM    8  C16 UNL     1      46.263  33.288  84.352  1.00  0.00     0.309 C 
HETATM    9  C17 UNL     1      43.989  33.822  83.854  1.00  0.00     0.272 C 
HETATM   10  C18 UNL     1      43.367  35.177  83.832  1.00  0.00     0.041 C 
BRANCH   4  11
HETATM   11  C2  UNL     1      41.602  35.780  85.354  1.00  0.00    -0.013 C 
HETATM   12  C1  UNL     1      40.805  35.582  84.088  1.00  0.00     0.010 C 
HETATM   13  C3  UNL     1      41.015  34.813  86.327  1.00  0.00     0.010 C 
ENDBRANCH   4  11
ENDBRANCH   1   4
BRANCH   1  14
HETATM   14  C8  UNL     1      44.335  37.669  86.291  1.00  0.00     0.157 A 
HETATM   15  N1  UNL     1      43.639  38.201  87.337  1.00  0.00    -0.326 N 
HETATM   16  C9  UNL     1      44.507  38.490  88.322  1.00  0.00     0.108 A 
ATOM     17  H1  UNL     1      42.631  38.354  87.366  1.00  0.00     0.169 HD
HETATM   18  N2  UNL     1      45.695  38.130  87.855  1.00  0.00    -0.247 N 
HETATM   19  O1  UNL     1      45.557  37.656  86.667  1.00  0.00    -0.222 OA
ATOM     20  H2  UNL     1      46.578  38.215  88.358  1.00  0.00     0.196 HD
BRANCH  16  21
HETATM   21  C10 UNL     1      44.146  39.110  89.626  1.00  0.00     0.055 C 
HETATM   22  C11 UNL     1      43.369  38.122  90.526  1.00  0.00     0.012 C 
HETATM   23  C12 UNL     1      44.727  37.660  91.011  1.00  0.00     0.002 C 
HETATM   24  C13 UNL     1      45.236  39.072  90.663  1.00  0.00     0.012 C 
ENDBRANCH  16  21
ENDBRANCH   1  14
TORSDOF 4
ENDMDL
MODEL 2
REMARK VINA RESULT: -6.318719316      2.486      5.829
REMARK  4 active torsions:
REMARK  status: ('A' for Active; 'I' for Inactive)
REMARK    1  A    between atoms: C2_2  and  C4_4 
REMARK    2  A    between atoms: C4_4  and  C5_5 
REMARK    3  A    between atoms: C5_5  and  C8_8 
REMARK    4  A    between atoms: C9_11  and  C10_12 
ROOT
HETATM    1  C5  UNL     1      44.533  35.325  84.244  1.00  0.00     0.028 C 
HETATM    2  C6  UNL     1      43.591  34.662  83.280  1.00  0.00     0.025 C 
HETATM    3  C7  UNL     1      45.380  36.232  83.389  1.00  0.00     0.025 C 
ENDROOT
BRANCH   1   4
HETATM    4  C4  UNL     1      43.892  36.084  85.393  1.00  0.00    -0.020 C 
HETATM    5  C14 UNL     1      43.209  35.037  86.242  1.00  0.00     0.041 C 
HETATM    6  C15 UNL     1      41.765  34.829  86.031  1.00  0.00     0.272 C 
HETATM    7  N3  UNL     1      40.961  35.945  85.762  1.00  0.00     0.084 N 
HETATM    8  C16 UNL     1      39.788  35.550  84.997  1.00  0.00     0.309 C 
HETATM    9  C17 UNL     1      41.550  37.134  85.300  1.00  0.00     0.272 C 
HETATM   10  C18 UNL     1      42.932  37.059  84.747  1.00  0.00     0.041 C 
BRANCH   4  11
HETATM   11  C2  UNL     1      44.859  36.900  86.182  1.00  0.00    -0.013 C 
HETATM   12  C1  UNL     1      44.720  38.392  86.009  1.00  0.00     0.010 C 
HETATM   13  C3  UNL     1      44.972  36.697  87.656  1.00  0.00     0.010 C 
ENDBRANCH   4  11
ENDBRANCH   1   4
BRANCH   1  14
HETATM   14  C8  UNL     1      45.447  34.249  84.741  1.00  0.00     0.157 A 
HETATM   15  N1  UNL     1      46.448  33.773  83.947  1.00  0.00    -0.326 N 
HETATM   16  C9  UNL     1      47.115  32.824  84.626  1.00  0.00     0.108 A 
ATOM     17  H1  UNL     1      46.657  34.085  82.998  1.00  0.00     0.169 HD
HETATM   18  N2  UNL     1      46.507  32.748  85.803  1.00  0.00    -0.247 N 
HETATM   19  O1  UNL     1      45.538  33.593  85.834  1.00  0.00    -0.222 OA
ATOM     20  H2  UNL     1      46.768  32.119  86.563  1.00  0.00     0.196 HD
BRANCH  16  21
HETATM   21  C10 UNL     1      48.264  32.041  84.097  1.00  0.00     0.055 C 
HETATM   22  C11 UNL     1      49.503  32.938  83.872  1.00  0.00     0.012 C 
HETATM   23  C12 UNL     1      49.846  32.648  85.319  1.00  0.00     0.002 C 
HETATM   24  C13 UNL     1      49.073  31.326  85.147  1.00  0.00     0.012 C 
ENDBRANCH  16  21
ENDBRANCH   1  14
TORSDOF 4
ENDMDL
MODEL 3
REMARK VINA RESULT: -6.219349889      2.979      4.890
REMARK  4 active torsions:
REMARK  status: ('A' for Active; 'I' for Inactive)
REMARK    1  A    between atoms: C2_2  and  C4_4 
REMARK    2  A    between atoms: C4_4  and  C5_5 
REMARK    3  A    between atoms: C5_5  and  C8_8 
REMARK    4  A    between atoms: C9_11  and  C10_12 
ROOT
HETATM    1  C5  UNL     1      43.489  35.905  85.673  1.00  0.00     0.028 C 
HETATM    2  C6  UNL     1      44.334  35.683  86.893  1.00  0.00     0.025 C 
HETATM    3  C7  UNL     1      43.155  37.375  85.702  1.00  0.00     0.025 C 
ENDROOT
BRANCH   1   4
HETATM    4  C4  UNL     1      44.109  35.503  84.346  1.00  0.00    -0.020 C 
HETATM    5  C14 UNL     1      43.584  34.116  84.055  1.00  0.00     0.041 C 
HETATM    6  C15 UNL     1      44.448  32.976  84.409  1.00  0.00     0.272 C 
HETATM    7  N3  UNL     1      45.831  33.102  84.223  1.00  0.00     0.084 N 
HETATM    8  C16 UNL     1      46.547  32.232  85.142  1.00  0.00     0.309 C 
HETATM    9  C17 UNL     1      46.406  34.380  84.107  1.00  0.00     0.272 C 
HETATM   10  C18 UNL     1      45.604  35.549  84.568  1.00  0.00     0.041 C 
BRANCH   4  11
HETATM   11  C2  UNL     1      43.814  36.456  83.237  1.00  0.00    -0.013 C 
HETATM   12  C1  UNL     1      45.022  37.159  82.667  1.00  0.00     0.010 C 
HETATM   13  C3  UNL     1      43.045  35.993  82.045  1.00  0.00     0.010 C 
ENDBRANCH   4  11
ENDBRANCH   1   4
BRANCH   1  14
HETATM   14  C8  UNL     1      42.202  35.181  85.919  1.00  0.00     0.157 A 
HETATM   15  N1  UNL     1      41.054  35.589  85.307  1.00  0.00    -0.326 N 
HETATM   16  C9  UNL     1      40.055  34.776  85.694  1.00  0.00     0.108 A 
ATOM     17  H1  UNL     1      40.966  36.376  84.664  1.00  0.00     0.169 HD
HETATM   18  N2  UNL     1      40.617  33.905  86.522  1.00  0.00    -0.247 N 
HETATM   19  O1  UNL     1      41.871  34.173  86.631  1.00  0.00    -0.222 OA
ATOM     20  H2  UNL     1      40.132  33.144  86.998  1.00  0.00     0.196 HD
BRANCH  16  21
HETATM   21  C10 UNL     1      38.635  34.902  85.267  1.00  0.00     0.055 C 
HETATM   22  C11 UNL     1      37.665  34.502  86.404  1.00  0.00     0.012 C 
HETATM   23  C12 UNL     1      37.761  35.947  86.851  1.00  0.00     0.002 C 
HETATM   24  C13 UNL     1      38.067  36.292  85.381  1.00  0.00     0.012 C 
ENDBRANCH  16  21
ENDBRANCH   1  14
TORSDOF 4
ENDMDL
MODEL 4
REMARK VINA RESULT: -6.213153657      1.898      6.318
REMARK  4 active torsions:
REMARK  status: ('A' for Active; 'I' for Inactive)
REMARK    1  A    between atoms: C2_2  and  C4_4 
REMARK    2  A    between atoms: C4_4  and  C5_5 
REMARK    3  A    between atoms: C5_5  and  C8_8 
REMARK    4  A    between atoms: C9_11  and  C10_12 
ROOT
HETATM    1  C5  UNL     1      44.247  39.064  87.325  1.00  0.00     0.028 C 
HETATM    2  C6  UNL     1      42.889  39.410  86.787  1.00  0.00     0.025 C 
HETATM    3  C7  UNL     1      45.197  39.954  86.566  1.00  0.00     0.025 C 
ENDROOT
BRANCH   1   4
HETATM    4  C4  UNL     1      44.430  39.208  88.826  1.00  0.00    -0.020 C 
HETATM    5  C14 UNL     1      43.674  40.459  89.210  1.00  0.00     0.041 C 
HETATM    6  C15 UNL     1      44.449  41.705  89.344  1.00  0.00     0.272 C 
HETATM    7  N3  UNL     1      45.736  41.636  89.896  1.00  0.00     0.084 N 
HETATM    8  C16 UNL     1      46.556  42.733  89.406  1.00  0.00     0.309 C 
HETATM    9  C17 UNL     1      46.416  40.406  89.929  1.00  0.00     0.272 C 
HETATM   10  C18 UNL     1      45.924  39.313  89.042  1.00  0.00     0.041 C 
BRANCH   4  11
HETATM   11  C2  UNL     1      43.972  38.019  89.600  1.00  0.00    -0.013 C 
HETATM   12  C1  UNL     1      44.766  37.731  90.850  1.00  0.00     0.010 C 
HETATM   13  C3  UNL     1      42.545  37.913  90.022  1.00  0.00     0.010 C 
ENDBRANCH   4  11
ENDBRANCH   1   4
BRANCH   1  14
HETATM   14  C8  UNL     1      44.532  37.667  86.870  1.00  0.00     0.157 A 
HETATM   15  N1  UNL     1      43.538  36.897  86.341  1.00  0.00    -0.326 N 
HETATM   16  C9  UNL     1      44.056  35.699  86.016  1.00  0.00     0.108 A 
ATOM     17  H1  UNL     1      42.567  37.180  86.213  1.00  0.00     0.169 HD
HETATM   18  N2  UNL     1      45.338  35.772  86.351  1.00  0.00    -0.247 N 
HETATM   19  O1  UNL     1      45.580  36.934  86.848  1.00  0.00    -0.222 OA
ATOM     20  H2  UNL     1      46.023  35.025  86.234  1.00  0.00     0.196 HD
BRANCH  16  21
HETATM   21  C10 UNL     1      43.289  34.565  85.432  1.00  0.00     0.055 C 
HETATM   22  C11 UNL     1      42.402  35.030  84.254  1.00  0.00     0.012 C 
HETATM   23  C12 UNL     1      43.615  34.786  83.381  1.00  0.00     0.002 C 
HETATM   24  C13 UNL     1      44.051  33.743  84.428  1.00  0.00     0.012 C 
ENDBRANCH  16  21
ENDBRANCH   1  14
TORSDOF 4
ENDMDL
MODEL 5
REMARK VINA RESULT: -6.150484411      1.963      6.203
REMARK  4 active torsions:
REMARK  status: ('A' for Active; 'I' for Inactive)
REMARK    1  A    between atoms: C2_2  and  C4_4 
REMARK    2  A    between atoms: C4_4  and  C5_5 
REMARK    3  A    between atoms: C5_5  and  C8_8 
REMARK    4  A    between atoms: C9_11  and  C10_12 
ROOT
HETATM    1  C5  UNL     1      44.237  38.049  88.141  1.00  0.00     0.028 C 
HETATM    2  C6  UNL     1      45.076  37.831  89.367  1.00  0.00     0.025 C 
HETATM    3  C7  UNL     1      42.824  37.787  88.594  1.00  0.00     0.025 C 
ENDROOT
BRANCH   1   4
HETATM    4  C4  UNL     1      44.364  39.408  87.475  1.00  0.00    -0.020 C 
HETATM    5  C14 UNL     1      45.827  39.774  87.573  1.00  0.00     0.041 C 
HETATM    6  C15 UNL     1      46.232  40.663  88.676  1.00  0.00     0.272 C 
HETATM    7  N3  UNL     1      45.367  41.702  89.049  1.00  0.00     0.084 N 
HETATM    8  C16 UNL     1      45.572  42.054  90.445  1.00  0.00     0.309 C 
HETATM    9  C17 UNL     1      44.012  41.647  88.683  1.00  0.00     0.272 C 
HETATM   10  C18 UNL     1      43.457  40.329  88.260  1.00  0.00     0.041 C 
BRANCH   4  11
HETATM   11  C2  UNL     1      43.876  39.430  86.066  1.00  0.00    -0.013 C 
HETATM   12  C1  UNL     1      42.506  40.034  85.879  1.00  0.00     0.010 C 
HETATM   13  C3  UNL     1      44.714  40.050  84.999  1.00  0.00     0.010 C 
ENDBRANCH   4  11
ENDBRANCH   1   4
BRANCH   1  14
HETATM   14  C8  UNL     1      44.583  36.941  87.196  1.00  0.00     0.157 A 
HETATM   15  N1  UNL     1      43.598  36.229  86.577  1.00  0.00    -0.326 N 
HETATM   16  C9  UNL     1      44.173  35.304  85.790  1.00  0.00     0.108 A 
ATOM     17  H1  UNL     1      42.595  36.374  86.692  1.00  0.00     0.169 HD
HETATM   18  N2  UNL     1      45.479  35.476  85.949  1.00  0.00    -0.247 N 
HETATM   19  O1  UNL     1      45.681  36.439  86.777  1.00  0.00    -0.222 OA
ATOM     20  H2  UNL     1      46.207  34.931  85.487  1.00  0.00     0.196 HD
BRANCH  16  21
HETATM   21  C10 UNL     1      43.439  34.308  84.963  1.00  0.00     0.055 C 
HETATM   22  C11 UNL     1      42.344  34.984  84.105  1.00  0.00     0.012 C 
HETATM   23  C12 UNL     1      43.430  35.188  83.069  1.00  0.00     0.002 C 
HETATM   24  C13 UNL     1      44.116  33.945  83.669  1.00  0.00     0.012 C 
ENDBRANCH  16  21
ENDBRANCH   1  14
TORSDOF 4
ENDMDL
