MODEL 1
REMARK VINA RESULT: -6.841272627      0.000      0.000
REMARK  9 active torsions:
REMARK  status: ('A' for Active; 'I' for Inactive)
REMARK    1  A    between atoms: C2_2  and  C3_3 
REMARK    2  A    between atoms: C3_3  and  N1_4 
REMARK    3  A    between atoms: C4_6  and  C5_7 
REMARK    4  A    between atoms: C5_7  and  C6_8 
REMARK    5  A    between atoms: C6_8  and  N2_9 
REMARK    6  A    between atoms: C7_10  and  O1_11 
REMARK    7  A    between atoms: C8_13  and  C15_23 
REMARK    8  A    between atoms: C9_14  and  C11_18 
REMARK    9  A    between atoms: C10_15  and  O2_16 
ROOT
HETATM    1  N2  UNL     1      43.715  35.257  85.129  1.00  0.00    -0.307 N 
HETATM    2  C7  UNL     1      43.097  35.275  86.318  1.00  0.00     0.156 A 
HETATM    3  C8  UNL     1      41.818  35.710  86.157  1.00  0.00     0.058 A 
HETATM    4  C9  UNL     1      41.630  35.974  84.815  1.00  0.00     0.013 A 
HETATM    5  C10 UNL     1      42.831  35.680  84.213  1.00  0.00     0.151 A 
ENDROOT
BRANCH   1   6
HETATM    6  C6  UNL     1      45.073  34.865  84.841  1.00  0.00     0.138 C 
BRANCH   6   7
HETATM    7  C5  UNL     1      45.241  33.358  84.875  1.00  0.00     0.064 C 
BRANCH   7   8
HETATM    8  C4  UNL     1      46.599  33.016  85.362  1.00  0.00     0.057 C 
HETATM    9  N1  UNL     1      47.635  33.521  84.825  1.00  0.00    -0.402 N 
ATOM     10  H1  UNL     1      47.514  34.170  84.048  1.00  0.00     0.158 HD
BRANCH   9  11
HETATM   11  C3  UNL     1      48.967  33.218  85.264  1.00  0.00     0.118 C 
BRANCH  11  12
HETATM   12  C2  UNL     1      49.006  31.773  85.701  1.00  0.00     0.015 C 
HETATM   13  C1  UNL     1      50.274  31.166  85.118  1.00  0.00     0.006 C 
ENDBRANCH  11  12
ENDBRANCH   9  11
ENDBRANCH   7   8
ENDBRANCH   6   7
ENDBRANCH   1   6
BRANCH   2  14
HETATM   14  O1  UNL     1      43.668  34.907  87.537  1.00  0.00    -0.345 OA
ATOM     15  H1  UNL     1      44.355  35.380  87.992  1.00  0.00     0.219 HD
ENDBRANCH   2  14
BRANCH   5  16
HETATM   16  O2  UNL     1      43.031  35.825  82.834  1.00  0.00    -0.345 OA
ATOM     17  H2  UNL     1      42.617  35.334  82.133  1.00  0.00     0.219 HD
ENDBRANCH   5  16
BRANCH   3  18
HETATM   18  C15 UNL     1      40.783  35.877  87.243  1.00  0.00     0.300 C 
HETATM   19  O3  UNL     1      41.392  36.619  88.227  1.00  0.00    -0.346 OA
HETATM   20  C13 UNL     1      41.729  37.892  87.953  1.00  0.00     0.068 C 
HETATM   21  C12 UNL     1      43.187  38.105  87.559  1.00  0.00     0.048 C 
HETATM   22  C14 UNL     1      41.338  38.817  89.112  1.00  0.00     0.047 C 
HETATM   23  C17 UNL     1      41.335  38.471  86.650  1.00  0.00     0.053 C 
HETATM   24  C11 UNL     1      42.735  38.123  86.121  1.00  0.00     0.035 C 
HETATM   25  C16 UNL     1      40.279  37.672  85.924  1.00  0.00     0.179 C 
HETATM   26  O4  UNL     1      39.754  36.639  86.711  1.00  0.00    -0.356 OA
ENDBRANCH   3  18
TORSDOF 9
ENDMDL
MODEL 2
REMARK VINA RESULT: -6.294259528      1.416      1.806
REMARK  9 active torsions:
REMARK  status: ('A' for Active; 'I' for Inactive)
REMARK    1  A    between atoms: C2_2  and  C3_3 
REMARK    2  A    between atoms: C3_3  and  N1_4 
REMARK    3  A    between atoms: C4_6  and  C5_7 
REMARK    4  A    between atoms: C5_7  and  C6_8 
REMARK    5  A    between atoms: C6_8  and  N2_9 
REMARK    6  A    between atoms: C7_10  and  O1_11 
REMARK    7  A    between atoms: C8_13  and  C15_23 
REMARK    8  A    between atoms: C9_14  and  C11_18 
REMARK    9  A    between atoms: C10_15  and  O2_16 
ROOT
HETATM    1  N2  UNL     1      42.454  35.906  85.271  1.00  0.00    -0.307 N 
HETATM    2  C7  UNL     1      41.952  35.375  86.394  1.00  0.00     0.156 A 
HETATM    3  C8  UNL     1      40.593  35.406  86.340  1.00  0.00     0.058 A 
HETATM    4  C9  UNL     1      40.233  35.980  85.137  1.00  0.00     0.013 A 
HETATM    5  C10 UNL     1      41.417  36.276  84.505  1.00  0.00     0.151 A 
ENDROOT
BRANCH   1   6
HETATM    6  C6  UNL     1      43.842  36.071  84.911  1.00  0.00     0.138 C 
BRANCH   6   7
HETATM    7  C5  UNL     1      44.336  34.931  84.041  1.00  0.00     0.064 C 
BRANCH   7   8
HETATM    8  C4  UNL     1      45.053  33.937  84.875  1.00  0.00     0.057 C 
HETATM    9  N1  UNL     1      46.298  33.735  84.730  1.00  0.00    -0.402 N 
ATOM     10  H1  UNL     1      46.800  34.273  84.024  1.00  0.00     0.158 HD
BRANCH   9  11
HETATM   11  C3  UNL     1      47.032  32.784  85.515  1.00  0.00     0.118 C 
BRANCH  11  12
HETATM   12  C2  UNL     1      48.446  32.724  84.989  1.00  0.00     0.015 C 
HETATM   13  C1  UNL     1      49.134  31.564  85.694  1.00  0.00     0.006 C 
ENDBRANCH  11  12
ENDBRANCH   9  11
ENDBRANCH   7   8
ENDBRANCH   6   7
ENDBRANCH   1   6
BRANCH   2  14
HETATM   14  O1  UNL     1      42.698  34.865  87.457  1.00  0.00    -0.345 OA
ATOM     15  H1  UNL     1      42.342  34.490  88.254  1.00  0.00     0.219 HD
ENDBRANCH   2  14
BRANCH   5  16
HETATM   16  O2  UNL     1      41.459  36.877  83.240  1.00  0.00    -0.345 OA
ATOM     17  H2  UNL     1      40.732  37.038  82.650  1.00  0.00     0.219 HD
ENDBRANCH   5  16
BRANCH   3  18
HETATM   18  C15 UNL     1      39.641  34.906  87.400  1.00  0.00     0.300 C 
HETATM   19  O3  UNL     1      40.074  35.460  88.581  1.00  0.00    -0.346 OA
HETATM   20  C13 UNL     1      39.993  36.795  88.730  1.00  0.00     0.068 C 
HETATM   21  C12 UNL     1      41.287  37.556  88.456  1.00  0.00     0.048 C 
HETATM   22  C14 UNL     1      39.433  37.154  90.111  1.00  0.00     0.047 C 
HETATM   23  C17 UNL     1      39.347  37.594  87.666  1.00  0.00     0.053 C 
HETATM   24  C11 UNL     1      40.742  37.873  87.086  1.00  0.00     0.035 C 
HETATM   25  C16 UNL     1      38.525  36.772  86.701  1.00  0.00     0.179 C 
HETATM   26  O4  UNL     1      38.394  35.439  87.111  1.00  0.00    -0.356 OA
ENDBRANCH   3  18
TORSDOF 9
ENDMDL
MODEL 3
REMARK VINA RESULT: -6.211107098      1.129      2.706
REMARK  9 active torsions:
REMARK  status: ('A' for Active; 'I' for Inactive)
REMARK    1  A    between atoms: C2_2  and  C3_3 
REMARK    2  A    between atoms: C3_3  and  N1_4 
REMARK    3  A    between atoms: C4_6  and  C5_7 
REMARK    4  A    between atoms: C5_7  and  C6_8 
REMARK    5  A    between atoms: C6_8  and  N2_9 
REMARK    6  A    between atoms: C7_10  and  O1_11 
REMARK    7  A    between atoms: C8_13  and  C15_23 
REMARK    8  A    between atoms: C9_14  and  C11_18 
REMARK    9  A    between atoms: C10_15  and  O2_16 
ROOT
HETATM    1  N2  UNL     1      44.210  35.835  85.420  1.00  0.00    -0.307 N 
HETATM    2  C7  UNL     1      43.267  36.721  85.069  1.00  0.00     0.156 A 
HETATM    3  C8  UNL     1      42.812  37.361  86.179  1.00  0.00     0.058 A 
HETATM    4  C9  UNL     1      43.497  36.856  87.267  1.00  0.00     0.013 A 
HETATM    5  C10 UNL     1      44.353  35.911  86.752  1.00  0.00     0.151 A 
ENDROOT
BRANCH   1   6
HETATM    6  C6  UNL     1      44.955  34.947  84.562  1.00  0.00     0.138 C 
BRANCH   6   7
HETATM    7  C5  UNL     1      44.951  33.524  85.088  1.00  0.00     0.064 C 
BRANCH   7   8
HETATM    8  C4  UNL     1      46.344  33.052  85.269  1.00  0.00     0.057 C 
HETATM    9  N1  UNL     1      47.331  33.764  84.903  1.00  0.00    -0.402 N 
ATOM     10  H1  UNL     1      47.145  34.672  84.478  1.00  0.00     0.158 HD
BRANCH   9  11
HETATM   11  C3  UNL     1      48.695  33.347  85.060  1.00  0.00     0.118 C 
BRANCH  11  12
HETATM   12  C2  UNL     1      48.701  31.921  85.557  1.00  0.00     0.015 C 
HETATM   13  C1  UNL     1      50.056  31.330  85.195  1.00  0.00     0.006 C 
ENDBRANCH  11  12
ENDBRANCH   9  11
ENDBRANCH   7   8
ENDBRANCH   6   7
ENDBRANCH   1   6
BRANCH   2  14
HETATM   14  O1  UNL     1      42.817  36.958  83.769  1.00  0.00    -0.345 OA
ATOM     15  H1  UNL     1      42.107  36.497  83.337  1.00  0.00     0.219 HD
ENDBRANCH   2  14
BRANCH   5  16
HETATM   16  O2  UNL     1      45.225  35.172  87.562  1.00  0.00    -0.345 OA
ATOM     17  H2  UNL     1      45.061  34.837  88.436  1.00  0.00     0.219 HD
ENDBRANCH   5  16
BRANCH   3  18
HETATM   18  C15 UNL     1      41.750  38.434  86.226  1.00  0.00     0.300 C 
HETATM   19  O3  UNL     1      40.663  37.910  85.568  1.00  0.00    -0.346 OA
HETATM   20  C13 UNL     1      40.030  36.856  86.115  1.00  0.00     0.068 C 
HETATM   21  C12 UNL     1      40.425  35.497  85.544  1.00  0.00     0.048 C 
HETATM   22  C14 UNL     1      38.511  37.048  86.060  1.00  0.00     0.047 C 
HETATM   23  C17 UNL     1      40.462  36.375  87.446  1.00  0.00     0.053 C 
HETATM   24  C11 UNL     1      41.329  35.323  86.737  1.00  0.00     0.035 C 
HETATM   25  C16 UNL     1      41.328  37.359  88.196  1.00  0.00     0.179 C 
HETATM   26  O4  UNL     1      41.402  38.604  87.557  1.00  0.00    -0.356 OA
ENDBRANCH   3  18
TORSDOF 9
ENDMDL
MODEL 4
REMARK VINA RESULT: -6.153862883      1.439      2.891
REMARK  9 active torsions:
REMARK  status: ('A' for Active; 'I' for Inactive)
REMARK    1  A    between atoms: C2_2  and  C3_3 
REMARK    2  A    between atoms: C3_3  and  N1_4 
REMARK    3  A    between atoms: C4_6  and  C5_7 
REMARK    4  A    between atoms: C5_7  and  C6_8 
REMARK    5  A    between atoms: C6_8  and  N2_9 
REMARK    6  A    between atoms: C7_10  and  O1_11 
REMARK    7  A    between atoms: C8_13  and  C15_23 
REMARK    8  A    between atoms: C9_14  and  C11_18 
REMARK    9  A    between atoms: C10_15  and  O2_16 
ROOT
HETATM    1  N2  UNL     1      43.422  35.880  85.541  1.00  0.00    -0.307 N 
HETATM    2  C7  UNL     1      42.708  36.800  84.879  1.00  0.00     0.156 A 
HETATM    3  C8  UNL     1      42.510  37.881  85.680  1.00  0.00     0.058 A 
HETATM    4  C9  UNL     1      43.124  37.626  86.890  1.00  0.00     0.013 A 
HETATM    5  C10 UNL     1      43.677  36.374  86.762  1.00  0.00     0.151 A 
ENDROOT
BRANCH   1   6
HETATM    6  C6  UNL     1      43.857  34.587  85.070  1.00  0.00     0.138 C 
BRANCH   6   7
HETATM    7  C5  UNL     1      45.294  34.620  84.586  1.00  0.00     0.064 C 
BRANCH   7   8
HETATM    8  C4  UNL     1      46.028  33.445  85.115  1.00  0.00     0.057 C 
HETATM    9  N1  UNL     1      47.296  33.382  85.055  1.00  0.00    -0.402 N 
ATOM     10  H1  UNL     1      47.803  34.160  84.633  1.00  0.00     0.158 HD
BRANCH   9  11
HETATM   11  C3  UNL     1      48.046  32.266  85.554  1.00  0.00     0.118 C 
BRANCH  11  12
HETATM   12  C2  UNL     1      49.514  32.546  85.338  1.00  0.00     0.015 C 
HETATM   13  C1  UNL     1      50.198  31.201  85.134  1.00  0.00     0.006 C 
ENDBRANCH  11  12
ENDBRANCH   9  11
ENDBRANCH   7   8
ENDBRANCH   6   7
ENDBRANCH   1   6
BRANCH   2  14
HETATM   14  O1  UNL     1      42.237  36.678  83.571  1.00  0.00    -0.345 OA
ATOM     15  H1  UNL     1      42.026  35.861  83.132  1.00  0.00     0.219 HD
ENDBRANCH   2  14
BRANCH   5  16
HETATM   16  O2  UNL     1      44.394  35.764  87.799  1.00  0.00    -0.345 OA
ATOM     17  H2  UNL     1      44.438  36.032  88.710  1.00  0.00     0.219 HD
ENDBRANCH   5  16
BRANCH   3  18
HETATM   18  C15 UNL     1      41.756  39.139  85.320  1.00  0.00     0.300 C 
HETATM   19  O3  UNL     1      40.547  38.718  84.820  1.00  0.00    -0.346 OA
HETATM   20  C13 UNL     1      39.690  38.098  85.652  1.00  0.00     0.068 C 
HETATM   21  C12 UNL     1      39.706  36.574  85.579  1.00  0.00     0.048 C 
HETATM   22  C14 UNL     1      38.267  38.636  85.465  1.00  0.00     0.047 C 
HETATM   23  C17 UNL     1      40.038  37.991  87.086  1.00  0.00     0.053 C 
HETATM   24  C11 UNL     1      40.583  36.583  86.805  1.00  0.00     0.035 C 
HETATM   25  C16 UNL     1      41.153  38.917  87.512  1.00  0.00     0.179 C 
HETATM   26  O4  UNL     1      41.514  39.821  86.504  1.00  0.00    -0.356 OA
ENDBRANCH   3  18
TORSDOF 9
ENDMDL
MODEL 5
REMARK VINA RESULT: -6.005783452      1.625      2.992
REMARK  9 active torsions:
REMARK  status: ('A' for Active; 'I' for Inactive)
REMARK    1  A    between atoms: C2_2  and  C3_3 
REMARK    2  A    between atoms: C3_3  and  N1_4 
REMARK    3  A    between atoms: C4_6  and  C5_7 
REMARK    4  A    between atoms: C5_7  and  C6_8 
REMARK    5  A    between atoms: C6_8  and  N2_9 
REMARK    6  A    between atoms: C7_10  and  O1_11 
REMARK    7  A    between atoms: C8_13  and  C15_23 
REMARK    8  A    between atoms: C9_14  and  C11_18 
REMARK    9  A    between atoms: C10_15  and  O2_16 
ROOT
HETATM    1  N2  UNL     1      43.314  36.232  85.907  1.00  0.00    -0.307 N 
HETATM    2  C7  UNL     1      42.749  37.438  85.755  1.00  0.00     0.156 A 
HETATM    3  C8  UNL     1      43.024  38.206  86.843  1.00  0.00     0.058 A 
HETATM    4  C9  UNL     1      43.789  37.450  87.709  1.00  0.00     0.013 A 
HETATM    5  C10 UNL     1      43.945  36.232  87.090  1.00  0.00     0.151 A 
ENDROOT
BRANCH   1   6
HETATM    6  C6  UNL     1      43.275  35.114  84.996  1.00  0.00     0.138 C 
BRANCH   6   7
HETATM    7  C5  UNL     1      44.539  35.024  84.162  1.00  0.00     0.064 C 
BRANCH   7   8
HETATM    8  C4  UNL     1      45.295  33.802  84.528  1.00  0.00     0.057 C 
HETATM    9  N1  UNL     1      46.361  33.871  85.215  1.00  0.00    -0.402 N 
ATOM     10  H1  UNL     1      46.690  34.789  85.513  1.00  0.00     0.158 HD
BRANCH   9  11
HETATM   11  C3  UNL     1      47.124  32.715  85.591  1.00  0.00     0.118 C 
BRANCH  11  12
HETATM   12  C2  UNL     1      48.478  32.803  84.928  1.00  0.00     0.015 C 
HETATM   13  C1  UNL     1      49.329  31.682  85.505  1.00  0.00     0.006 C 
ENDBRANCH  11  12
ENDBRANCH   9  11
ENDBRANCH   7   8
ENDBRANCH   6   7
ENDBRANCH   1   6
BRANCH   2  14
HETATM   14  O1  UNL     1      41.997  37.851  84.655  1.00  0.00    -0.345 OA
ATOM     15  H1  UNL     1      42.343  38.257  83.868  1.00  0.00     0.219 HD
ENDBRANCH   2  14
BRANCH   5  16
HETATM   16  O2  UNL     1      44.674  35.186  87.671  1.00  0.00    -0.345 OA
ATOM     17  H2  UNL     1      45.237  35.226  88.436  1.00  0.00     0.219 HD
ENDBRANCH   5  16
BRANCH   3  18
HETATM   18  C15 UNL     1      42.578  39.630  87.073  1.00  0.00     0.300 C 
HETATM   19  O3  UNL     1      41.220  39.634  86.856  1.00  0.00    -0.346 OA
HETATM   20  C13 UNL     1      40.434  38.946  87.704  1.00  0.00     0.068 C 
HETATM   21  C12 UNL     1      40.021  37.559  87.222  1.00  0.00     0.048 C 
HETATM   22  C14 UNL     1      39.204  39.774  88.095  1.00  0.00     0.047 C 
HETATM   23  C17 UNL     1      41.047  38.308  88.889  1.00  0.00     0.053 C 
HETATM   24  C11 UNL     1      41.116  36.995  88.092  1.00  0.00     0.035 C 
HETATM   25  C16 UNL     1      42.436  38.812  89.201  1.00  0.00     0.179 C 
HETATM   26  O4  UNL     1      42.796  39.914  88.413  1.00  0.00    -0.356 OA
ENDBRANCH   3  18
TORSDOF 9
ENDMDL
