MODEL 1
REMARK VINA RESULT: -6.846632100      0.000      0.000
REMARK  4 active torsions:
REMARK  status: ('A' for Active; 'I' for Inactive)
REMARK    1  A    between atoms: C2_2  and  C11_15 
REMARK    2  A    between atoms: N1_3  and  O1_5 
REMARK    3  A    between atoms: O1_5  and  C3_6 
REMARK    4  A    between atoms: C8_11  and  C9_12 
ROOT
HETATM    1  C3  UNL     1      22.993  14.281  11.686  1.00  0.00     0.164 C 
HETATM    2  C4  UNL     1      23.143  14.137  13.168  1.00  0.00     0.019 C 
HETATM    3  C5  UNL     1      24.661  14.000  13.356  1.00  0.00     0.012 C 
HETATM    4  C6  UNL     1      24.671  15.405  12.787  1.00  0.00    -0.003 C 
HETATM    5  C7  UNL     1      23.401  15.580  13.607  1.00  0.00     0.012 C 
HETATM    6  C8  UNL     1      24.213  15.148  11.376  1.00  0.00     0.044 C 
ENDROOT
BRANCH   1   7
HETATM    7  O1  UNL     1      21.877  14.997  11.283  1.00  0.00    -0.274 OA
BRANCH   7   8
HETATM    8  N1  UNL     1      20.702  15.141  11.908  1.00  0.00    -0.269 N 
HETATM    9  C2  UNL     1      20.105  16.233  12.216  1.00  0.00     0.070 C 
HETATM   10  C1  UNL     1      20.723  17.515  11.875  1.00  0.00     0.071 C 
ATOM     11  H1  UNL     1      20.226  14.279  12.171  1.00  0.00     0.194 HD
BRANCH   9  12
HETATM   12  C11 UNL     1      18.802  16.136  12.912  1.00  0.00     0.400 C 
HETATM   13  F1  UNL     1      18.931  16.490  14.247  1.00  0.00    -0.208 F 
HETATM   14  F2  UNL     1      18.413  14.791  12.817  1.00  0.00    -0.208 F 
ENDBRANCH   9  12
ENDBRANCH   7   8
ENDBRANCH   1   7
BRANCH   6  15
HETATM   15  C9  UNL     1      25.211  14.407  10.565  1.00  0.00    -0.012 C 
HETATM   16  C10 UNL     1      26.528  14.536  10.825  1.00  0.00     0.052 C 
HETATM   17 BR1  UNL     1      27.858  13.615   9.828  1.00  0.00    -0.064 Br
ENDBRANCH   6  15
TORSDOF 4
ENDMDL
MODEL 2
REMARK VINA RESULT: -6.626770414      5.034      6.677
REMARK  4 active torsions:
REMARK  status: ('A' for Active; 'I' for Inactive)
REMARK    1  A    between atoms: C2_2  and  C11_15 
REMARK    2  A    between atoms: N1_3  and  O1_5 
REMARK    3  A    between atoms: O1_5  and  C3_6 
REMARK    4  A    between atoms: C8_11  and  C9_12 
ROOT
HETATM    1  C3  UNL     1      24.908  15.043  12.591  1.00  0.00     0.164 C 
HETATM    2  C4  UNL     1      24.857  13.558  12.417  1.00  0.00     0.019 C 
HETATM    3  C5  UNL     1      23.423  13.203  12.839  1.00  0.00     0.012 C 
HETATM    4  C6  UNL     1      23.057  14.059  11.642  1.00  0.00    -0.003 C 
HETATM    5  C7  UNL     1      24.283  13.419  11.005  1.00  0.00     0.012 C 
HETATM    6  C8  UNL     1      23.505  15.418  12.111  1.00  0.00     0.044 C 
ENDROOT
BRANCH   1   7
HETATM    7  O1  UNL     1      25.805  15.694  11.760  1.00  0.00    -0.274 OA
BRANCH   7   8
HETATM    8  N1  UNL     1      26.635  15.171  10.849  1.00  0.00    -0.269 N 
HETATM    9  C2  UNL     1      27.758  14.587  11.054  1.00  0.00     0.070 C 
HETATM   10  C1  UNL     1      28.256  14.440  12.423  1.00  0.00     0.071 C 
ATOM     11  H1  UNL     1      26.340  15.247   9.876  1.00  0.00     0.194 HD
BRANCH   9  12
HETATM   12  C11 UNL     1      28.503  14.087   9.877  1.00  0.00     0.400 C 
HETATM   13  F1  UNL     1      27.930  12.919   9.394  1.00  0.00    -0.208 F 
HETATM   14  F2  UNL     1      29.804  13.820  10.329  1.00  0.00    -0.208 F 
ENDBRANCH   9  12
ENDBRANCH   7   8
ENDBRANCH   1   7
BRANCH   6  15
HETATM   15  C9  UNL     1      22.679  15.952  13.222  1.00  0.00    -0.012 C 
HETATM   16  C10 UNL     1      21.379  16.249  13.020  1.00  0.00     0.052 C 
HETATM   17 BR1  UNL     1      20.265  16.935  14.398  1.00  0.00    -0.064 Br
ENDBRANCH   6  15
TORSDOF 4
ENDMDL
MODEL 3
REMARK VINA RESULT: -6.615776255      1.330      1.820
REMARK  4 active torsions:
REMARK  status: ('A' for Active; 'I' for Inactive)
REMARK    1  A    between atoms: C2_2  and  C11_15 
REMARK    2  A    between atoms: N1_3  and  O1_5 
REMARK    3  A    between atoms: O1_5  and  C3_6 
REMARK    4  A    between atoms: C8_11  and  C9_12 
ROOT
HETATM    1  C3  UNL     1      23.572  15.416  12.004  1.00  0.00     0.164 C 
HETATM    2  C4  UNL     1      22.945  14.083  11.739  1.00  0.00     0.019 C 
HETATM    3  C5  UNL     1      24.120  13.237  11.228  1.00  0.00     0.012 C 
HETATM    4  C6  UNL     1      24.665  13.488  12.620  1.00  0.00    -0.003 C 
HETATM    5  C7  UNL     1      23.212  13.336  13.047  1.00  0.00     0.012 C 
HETATM    6  C8  UNL     1      24.922  14.970  12.567  1.00  0.00     0.044 C 
ENDROOT
BRANCH   1   7
HETATM    7  O1  UNL     1      22.950  16.163  12.992  1.00  0.00    -0.274 OA
BRANCH   7   8
HETATM    8  N1  UNL     1      21.771  15.950  13.586  1.00  0.00    -0.269 N 
HETATM    9  C2  UNL     1      20.638  16.475  13.294  1.00  0.00     0.070 C 
HETATM   10  C1  UNL     1      20.548  17.433  12.191  1.00  0.00     0.071 C 
ATOM     11  H1  UNL     1      21.772  15.291  14.365  1.00  0.00     0.194 HD
BRANCH   9  12
HETATM   12  C11 UNL     1      19.462  16.079  14.103  1.00  0.00     0.400 C 
HETATM   13  F1  UNL     1      18.332  15.973  13.306  1.00  0.00    -0.208 F 
HETATM   14  F2  UNL     1      19.280  17.103  15.044  1.00  0.00    -0.208 F 
ENDBRANCH   9  12
ENDBRANCH   7   8
ENDBRANCH   1   7
BRANCH   6  15
HETATM   15  C9  UNL     1      26.035  15.336  11.656  1.00  0.00    -0.012 C 
HETATM   16  C10 UNL     1      27.154  14.586  11.615  1.00  0.00     0.052 C 
HETATM   17 BR1  UNL     1      28.615  14.998  10.472  1.00  0.00    -0.064 Br
ENDBRANCH   6  15
TORSDOF 4
ENDMDL
MODEL 4
REMARK VINA RESULT: -6.411085123      5.064      6.612
REMARK  4 active torsions:
REMARK  status: ('A' for Active; 'I' for Inactive)
REMARK    1  A    between atoms: C2_2  and  C11_15 
REMARK    2  A    between atoms: N1_3  and  O1_5 
REMARK    3  A    between atoms: O1_5  and  C3_6 
REMARK    4  A    between atoms: C8_11  and  C9_12 
ROOT
HETATM    1  C3  UNL     1      24.529  14.108  13.018  1.00  0.00     0.164 C 
HETATM    2  C4  UNL     1      24.322  13.123  11.911  1.00  0.00     0.019 C 
HETATM    3  C5  UNL     1      22.818  13.234  11.619  1.00  0.00     0.012 C 
HETATM    4  C6  UNL     1      23.186  14.652  11.231  1.00  0.00    -0.003 C 
HETATM    5  C7  UNL     1      24.443  14.006  10.667  1.00  0.00     0.012 C 
HETATM    6  C8  UNL     1      23.584  15.222  12.567  1.00  0.00     0.044 C 
ENDROOT
BRANCH   1   7
HETATM    7  O1  UNL     1      25.800  14.657  13.075  1.00  0.00    -0.274 OA
BRANCH   7   8
HETATM    8  N1  UNL     1      26.953  14.150  12.622  1.00  0.00    -0.269 N 
HETATM    9  C2  UNL     1      27.736  14.648  11.738  1.00  0.00     0.070 C 
HETATM   10  C1  UNL     1      27.393  15.922  11.104  1.00  0.00     0.071 C 
ATOM     11  H1  UNL     1      27.243  13.260  13.028  1.00  0.00     0.194 HD
BRANCH   9  12
HETATM   12  C11 UNL     1      28.966  13.896  11.399  1.00  0.00     0.400 C 
HETATM   13  F1  UNL     1      28.803  13.199  10.211  1.00  0.00    -0.208 F 
HETATM   14  F2  UNL     1      29.165  12.991  12.452  1.00  0.00    -0.208 F 
ENDBRANCH   9  12
ENDBRANCH   7   8
ENDBRANCH   1   7
BRANCH   6  15
HETATM   15  C9  UNL     1      22.441  15.373  13.500  1.00  0.00    -0.012 C 
HETATM   16  C10 UNL     1      21.406  16.176  13.183  1.00  0.00     0.052 C 
HETATM   17 BR1  UNL     1      19.911  16.413  14.332  1.00  0.00    -0.064 Br
ENDBRANCH   6  15
TORSDOF 4
ENDMDL
MODEL 5
REMARK VINA RESULT: -6.153716277      1.775      2.437
REMARK  4 active torsions:
REMARK  status: ('A' for Active; 'I' for Inactive)
REMARK    1  A    between atoms: C2_2  and  C11_15 
REMARK    2  A    between atoms: N1_3  and  O1_5 
REMARK    3  A    between atoms: O1_5  and  C3_6 
REMARK    4  A    between atoms: C8_11  and  C9_12 
ROOT
HETATM    1  C3  UNL     1      23.331  15.134  12.403  1.00  0.00     0.164 C 
HETATM    2  C4  UNL     1      22.827  14.362  11.225  1.00  0.00     0.019 C 
HETATM    3  C5  UNL     1      24.116  13.954  10.495  1.00  0.00     0.012 C 
HETATM    4  C6  UNL     1      24.376  13.183  11.775  1.00  0.00    -0.003 C 
HETATM    5  C7  UNL     1      22.877  12.921  11.738  1.00  0.00     0.012 C 
HETATM    6  C8  UNL     1      24.569  14.309  12.755  1.00  0.00     0.044 C 
ENDROOT
BRANCH   1   7
HETATM    7  O1  UNL     1      22.500  15.107  13.512  1.00  0.00    -0.274 OA
BRANCH   7   8
HETATM    8  N1  UNL     1      21.849  16.119  14.096  1.00  0.00    -0.269 N 
HETATM    9  C2  UNL     1      20.643  16.503  13.886  1.00  0.00     0.070 C 
HETATM   10  C1  UNL     1      19.822  15.797  12.902  1.00  0.00     0.071 C 
ATOM     11  H1  UNL     1      22.373  16.649  14.792  1.00  0.00     0.194 HD
BRANCH   9  12
HETATM   12  C11 UNL     1      20.140  17.659  14.662  1.00  0.00     0.400 C 
HETATM   13  F1  UNL     1      18.878  17.395  15.173  1.00  0.00    -0.208 F 
HETATM   14  F2  UNL     1      20.066  18.728  13.756  1.00  0.00    -0.208 F 
ENDBRANCH   9  12
ENDBRANCH   7   8
ENDBRANCH   1   7
BRANCH   6  15
HETATM   15  C9  UNL     1      25.816  15.079  12.520  1.00  0.00    -0.012 C 
HETATM   16  C10 UNL     1      26.904  14.469  12.009  1.00  0.00     0.052 C 
HETATM   17 BR1  UNL     1      28.532  15.395  11.683  1.00  0.00    -0.064 Br
ENDBRANCH   6  15
TORSDOF 4
ENDMDL
