MODEL 1
REMARK VINA RESULT: -7.891774515      0.000      0.000
REMARK  7 active torsions:
REMARK  status: ('A' for Active; 'I' for Inactive)
REMARK    1  A    between atoms: C3_4  and  N1_5 
REMARK       I    between atoms: N1_5  and  C4_7 
REMARK    2  A    between atoms: C4_7  and  C5_9 
REMARK    3  A    between atoms: C5_9  and  O3_10 
REMARK    4  A    between atoms: O3_10  and  C6_11 
REMARK    5  A    between atoms: C6_11  and  C7_13 
REMARK    6  A    between atoms: C7_13  and  N2_14 
REMARK       I    between atoms: N2_14  and  C8_16 
REMARK    7  A    between atoms: C8_16  and  C9_18 
ROOT
HETATM    1  C7  UNL     1      41.907  35.151  85.177  1.00  0.00     0.233 C 
ENDROOT
BRANCH   1   2
HETATM    2  C6  UNL     1      42.758  33.955  85.546  1.00  0.00     0.277 C 
HETATM    3  O4  UNL     1      42.262  33.066  86.217  1.00  0.00    -0.263 OA
BRANCH   2   4
HETATM    4  O3  UNL     1      44.030  33.942  85.102  1.00  0.00    -0.311 OA
BRANCH   4   5
HETATM    5  C5  UNL     1      44.756  33.005  84.356  1.00  0.00     0.281 C 
BRANCH   5   6
HETATM    6  C4  UNL     1      45.958  32.730  85.235  1.00  0.00     0.243 C 
HETATM    7  N1  UNL     1      47.182  32.342  84.629  1.00  0.00    -0.339 N 
ATOM      8  H1  UNL     1      47.245  32.191  83.622  1.00  0.00     0.164 HD
HETATM    9  O2  UNL     1      45.870  32.872  86.494  1.00  0.00    -0.271 OA
BRANCH   7  10
HETATM   10  C3  UNL     1      48.318  32.167  85.469  1.00  0.00     0.207 C 
HETATM   11  C2  UNL     1      48.688  30.738  85.662  1.00  0.00     0.148 C 
HETATM   12  C1  UNL     1      49.963  30.567  84.865  1.00  0.00     0.236 C 
HETATM   13  O1  UNL     1      50.746  29.616  84.851  1.00  0.00    -0.272 OA
HETATM   14  N4  UNL     1      50.062  31.787  84.100  1.00  0.00    -0.272 N 
HETATM   15  N3  UNL     1      49.488  32.809  84.866  1.00  0.00    -0.113 NA
ATOM     16  H4  UNL     1      50.474  31.887  83.172  1.00  0.00     0.185 HD
ENDBRANCH   7  10
ENDBRANCH   5   6
ENDBRANCH   4   5
ENDBRANCH   2   4
ENDBRANCH   1   2
BRANCH   1  17
HETATM   17  N2  UNL     1      42.127  36.194  86.121  1.00  0.00    -0.351 N 
HETATM   18  C8  UNL     1      41.781  36.355  87.452  1.00  0.00     0.222 C 
HETATM   19  O5  UNL     1      41.193  35.467  88.043  1.00  0.00    -0.273 OA
ATOM     20  H2  UNL     1      42.647  36.984  85.738  1.00  0.00     0.163 HD
BRANCH  18  21
HETATM   21  C9  UNL     1      42.112  37.631  88.231  1.00  0.00     0.078 C 
HETATM   22  C10 UNL     1      43.517  37.938  88.028  1.00  0.00     0.018 C 
HETATM   23  C11 UNL     1      44.622  37.076  88.491  1.00  0.00     0.028 C 
HETATM   24  C12 UNL     1      45.460  37.441  89.650  1.00  0.00    -0.027 C 
HETATM   25  C13 UNL     1      45.915  38.774  89.939  1.00  0.00    -0.008 C 
HETATM   26  C14 UNL     1      45.230  39.768  90.779  1.00  0.00    -0.027 C 
HETATM   27  C15 UNL     1      44.539  39.429  92.012  1.00  0.00     0.027 C 
HETATM   28  C16 UNL     1      43.014  39.749  92.076  1.00  0.00     0.004 C 
HETATM   29  C17 UNL     1      42.510  38.915  91.006  1.00  0.00     0.000 C 
HETATM   30  C18 UNL     1      41.257  38.757  90.357  1.00  0.00     0.001 C 
HETATM   31  C19 UNL     1      41.446  37.480  89.531  1.00  0.00     0.014 C 
ENDBRANCH  18  21
ENDBRANCH   1  17
TORSDOF 7
ENDMDL
MODEL 2
REMARK VINA RESULT: -7.683505552      4.179      5.781
REMARK  7 active torsions:
REMARK  status: ('A' for Active; 'I' for Inactive)
REMARK    1  A    between atoms: C3_4  and  N1_5 
REMARK       I    between atoms: N1_5  and  C4_7 
REMARK    2  A    between atoms: C4_7  and  C5_9 
REMARK    3  A    between atoms: C5_9  and  O3_10 
REMARK    4  A    between atoms: O3_10  and  C6_11 
REMARK    5  A    between atoms: C6_11  and  C7_13 
REMARK    6  A    between atoms: C7_13  and  N2_14 
REMARK       I    between atoms: N2_14  and  C8_16 
REMARK    7  A    between atoms: C8_16  and  C9_18 
ROOT
HETATM    1  C7  UNL     1      40.916  34.888  85.141  1.00  0.00     0.233 C 
ENDROOT
BRANCH   1   2
HETATM    2  C6  UNL     1      42.180  35.029  85.961  1.00  0.00     0.277 C 
HETATM    3  O4  UNL     1      42.272  35.962  86.742  1.00  0.00    -0.263 OA
BRANCH   2   4
HETATM    4  O3  UNL     1      43.141  34.102  85.780  1.00  0.00    -0.311 OA
BRANCH   4   5
HETATM    5  C5  UNL     1      44.323  33.825  86.478  1.00  0.00     0.281 C 
BRANCH   5   6
HETATM    6  C4  UNL     1      45.154  33.080  85.455  1.00  0.00     0.243 C 
HETATM    7  N1  UNL     1      46.292  32.349  85.888  1.00  0.00    -0.339 N 
ATOM      8  H1  UNL     1      46.586  32.367  86.865  1.00  0.00     0.164 HD
HETATM    9  O2  UNL     1      44.815  33.094  84.230  1.00  0.00    -0.271 OA
BRANCH   7  10
HETATM   10  C3  UNL     1      47.009  31.593  84.919  1.00  0.00     0.207 C 
HETATM   11  C2  UNL     1      48.374  32.126  84.655  1.00  0.00     0.148 C 
HETATM   12  C1  UNL     1      49.304  31.119  85.296  1.00  0.00     0.236 C 
HETATM   13  O1  UNL     1      50.528  31.024  85.198  1.00  0.00    -0.272 OA
HETATM   14  N4  UNL     1      48.424  30.275  86.070  1.00  0.00    -0.272 N 
HETATM   15  N3  UNL     1      47.198  30.221  85.397  1.00  0.00    -0.113 NA
ATOM     16  H4  UNL     1      48.654  29.806  86.946  1.00  0.00     0.185 HD
ENDBRANCH   7  10
ENDBRANCH   5   6
ENDBRANCH   4   5
ENDBRANCH   2   4
ENDBRANCH   1   2
BRANCH   1  17
HETATM   17  N2  UNL     1      39.787  34.912  86.008  1.00  0.00    -0.351 N 
HETATM   18  C8  UNL     1      39.072  33.919  86.658  1.00  0.00     0.222 C 
HETATM   19  O5  UNL     1      39.415  32.755  86.562  1.00  0.00    -0.273 OA
ATOM     20  H2  UNL     1      39.433  35.851  86.188  1.00  0.00     0.163 HD
BRANCH  18  21
HETATM   21  C9  UNL     1      37.840  34.230  87.512  1.00  0.00     0.078 C 
HETATM   22  C10 UNL     1      38.291  34.736  88.798  1.00  0.00     0.018 C 
HETATM   23  C11 UNL     1      39.066  33.938  89.768  1.00  0.00     0.028 C 
HETATM   24  C12 UNL     1      38.458  33.416  91.007  1.00  0.00    -0.027 C 
HETATM   25  C13 UNL     1      37.520  34.141  91.822  1.00  0.00    -0.008 C 
HETATM   26  C14 UNL     1      36.054  34.110  91.705  1.00  0.00    -0.027 C 
HETATM   27  C15 UNL     1      35.304  32.899  91.412  1.00  0.00     0.027 C 
HETATM   28  C16 UNL     1      34.441  32.902  90.114  1.00  0.00     0.004 C 
HETATM   29  C17 UNL     1      35.462  33.081  89.103  1.00  0.00     0.000 C 
HETATM   30  C18 UNL     1      35.462  33.320  87.703  1.00  0.00     0.001 C 
HETATM   31  C19 UNL     1      36.927  33.099  87.308  1.00  0.00     0.014 C 
ENDBRANCH  18  21
ENDBRANCH   1  17
TORSDOF 7
ENDMDL
MODEL 3
REMARK VINA RESULT: -7.594389193      4.994      8.092
REMARK  7 active torsions:
REMARK  status: ('A' for Active; 'I' for Inactive)
REMARK    1  A    between atoms: C3_4  and  N1_5 
REMARK       I    between atoms: N1_5  and  C4_7 
REMARK    2  A    between atoms: C4_7  and  C5_9 
REMARK    3  A    between atoms: C5_9  and  O3_10 
REMARK    4  A    between atoms: O3_10  and  C6_11 
REMARK    5  A    between atoms: C6_11  and  C7_13 
REMARK    6  A    between atoms: C7_13  and  N2_14 
REMARK       I    between atoms: N2_14  and  C8_16 
REMARK    7  A    between atoms: C8_16  and  C9_18 
ROOT
HETATM    1  C7  UNL     1      38.657  34.227  89.381  1.00  0.00     0.233 C 
ENDROOT
BRANCH   1   2
HETATM    2  C6  UNL     1      39.176  34.587  90.757  1.00  0.00     0.277 C 
HETATM    3  O4  UNL     1      38.904  33.857  91.696  1.00  0.00    -0.263 OA
BRANCH   2   4
HETATM    4  O3  UNL     1      39.920  35.705  90.863  1.00  0.00    -0.311 OA
BRANCH   4   5
HETATM    5  C5  UNL     1      40.570  36.300  91.951  1.00  0.00     0.281 C 
BRANCH   5   6
HETATM    6  C4  UNL     1      41.917  36.681  91.373  1.00  0.00     0.243 C 
HETATM    7  N1  UNL     1      41.988  37.148  90.034  1.00  0.00    -0.339 N 
ATOM      8  H1  UNL     1      41.157  37.176  89.443  1.00  0.00     0.164 HD
HETATM    9  O2  UNL     1      42.962  36.604  92.092  1.00  0.00    -0.271 OA
BRANCH   7  10
HETATM   10  C3  UNL     1      43.253  37.575  89.540  1.00  0.00     0.207 C 
HETATM   11  C2  UNL     1      43.376  37.450  88.062  1.00  0.00     0.148 C 
HETATM   12  C1  UNL     1      43.336  38.876  87.557  1.00  0.00     0.236 C 
HETATM   13  O1  UNL     1      43.577  39.305  86.427  1.00  0.00    -0.272 OA
HETATM   14  N4  UNL     1      42.941  39.644  88.714  1.00  0.00    -0.272 N 
HETATM   15  N3  UNL     1      43.453  38.994  89.843  1.00  0.00    -0.113 NA
ATOM     16  H4  UNL     1      42.389  40.503  88.709  1.00  0.00     0.185 HD
ENDBRANCH   7  10
ENDBRANCH   5   6
ENDBRANCH   4   5
ENDBRANCH   2   4
ENDBRANCH   1   2
BRANCH   1  17
HETATM   17  N2  UNL     1      39.594  34.652  88.398  1.00  0.00    -0.351 N 
HETATM   18  C8  UNL     1      40.523  33.978  87.622  1.00  0.00     0.222 C 
HETATM   19  O5  UNL     1      40.616  32.767  87.692  1.00  0.00    -0.273 OA
ATOM     20  H2  UNL     1      39.579  35.658  88.231  1.00  0.00     0.163 HD
BRANCH  18  21
HETATM   21  C9  UNL     1      41.459  34.710  86.655  1.00  0.00     0.078 C 
HETATM   22  C10 UNL     1      40.665  35.625  85.855  1.00  0.00     0.018 C 
HETATM   23  C11 UNL     1      39.623  35.193  84.903  1.00  0.00     0.028 C 
HETATM   24  C12 UNL     1      39.831  35.247  83.443  1.00  0.00    -0.027 C 
HETATM   25  C13 UNL     1      40.507  36.315  82.756  1.00  0.00    -0.008 C 
HETATM   26  C14 UNL     1      41.942  36.380  82.441  1.00  0.00    -0.027 C 
HETATM   27  C15 UNL     1      42.717  35.227  82.011  1.00  0.00     0.027 C 
HETATM   28  C16 UNL     1      43.921  34.813  82.911  1.00  0.00     0.004 C 
HETATM   29  C17 UNL     1      43.244  34.492  84.150  1.00  0.00     0.000 C 
HETATM   30  C18 UNL     1      43.657  34.173  85.471  1.00  0.00     0.001 C 
HETATM   31  C19 UNL     1      42.366  33.679  86.135  1.00  0.00     0.014 C 
ENDBRANCH  18  21
ENDBRANCH   1  17
TORSDOF 7
ENDMDL
MODEL 4
REMARK VINA RESULT: -7.576772670      3.871      5.700
REMARK  7 active torsions:
REMARK  status: ('A' for Active; 'I' for Inactive)
REMARK    1  A    between atoms: C3_4  and  N1_5 
REMARK       I    between atoms: N1_5  and  C4_7 
REMARK    2  A    between atoms: C4_7  and  C5_9 
REMARK    3  A    between atoms: C5_9  and  O3_10 
REMARK    4  A    between atoms: O3_10  and  C6_11 
REMARK    5  A    between atoms: C6_11  and  C7_13 
REMARK    6  A    between atoms: C7_13  and  N2_14 
REMARK       I    between atoms: N2_14  and  C8_16 
REMARK    7  A    between atoms: C8_16  and  C9_18 
ROOT
HETATM    1  C7  UNL     1      42.509  35.071  86.342  1.00  0.00     0.233 C 
ENDROOT
BRANCH   1   2
HETATM    2  C6  UNL     1      42.803  34.350  85.045  1.00  0.00     0.277 C 
HETATM    3  O4  UNL     1      42.191  34.675  84.041  1.00  0.00    -0.263 OA
BRANCH   2   4
HETATM    4  O3  UNL     1      43.738  33.381  85.075  1.00  0.00    -0.311 OA
BRANCH   4   5
HETATM    5  C5  UNL     1      44.771  33.044  84.191  1.00  0.00     0.281 C 
BRANCH   5   6
HETATM    6  C4  UNL     1      45.941  32.791  85.119  1.00  0.00     0.243 C 
HETATM    7  N1  UNL     1      47.123  32.204  84.595  1.00  0.00    -0.339 N 
ATOM      8  H1  UNL     1      47.173  31.901  83.622  1.00  0.00     0.164 HD
HETATM    9  O2  UNL     1      45.865  33.126  86.342  1.00  0.00    -0.271 OA
BRANCH   7  10
HETATM   10  C3  UNL     1      48.237  32.051  85.469  1.00  0.00     0.207 C 
HETATM   11  C2  UNL     1      48.669  30.634  85.621  1.00  0.00     0.148 C 
HETATM   12  C1  UNL     1      49.977  30.555  84.864  1.00  0.00     0.236 C 
HETATM   13  O1  UNL     1      50.806  29.643  84.844  1.00  0.00    -0.272 OA
HETATM   14  N4  UNL     1      50.043  31.808  84.150  1.00  0.00    -0.272 N 
HETATM   15  N3  UNL     1      49.394  32.770  84.933  1.00  0.00    -0.113 NA
ATOM     16  H4  UNL     1      50.482  31.964  83.243  1.00  0.00     0.185 HD
ENDBRANCH   7  10
ENDBRANCH   5   6
ENDBRANCH   4   5
ENDBRANCH   2   4
ENDBRANCH   1   2
BRANCH   1  17
HETATM   17  N2  UNL     1      41.467  34.390  87.033  1.00  0.00    -0.351 N 
HETATM   18  C8  UNL     1      40.296  34.817  87.638  1.00  0.00     0.222 C 
HETATM   19  O5  UNL     1      39.980  35.992  87.600  1.00  0.00    -0.273 OA
ATOM     20  H2  UNL     1      41.612  33.383  87.096  1.00  0.00     0.163 HD
BRANCH  18  21
HETATM   21  C9  UNL     1      39.358  33.851  88.369  1.00  0.00     0.078 C 
HETATM   22  C10 UNL     1      38.328  33.422  87.438  1.00  0.00     0.018 C 
HETATM   23  C11 UNL     1      37.328  34.330  86.844  1.00  0.00     0.028 C 
HETATM   24  C12 UNL     1      35.917  34.323  87.277  1.00  0.00    -0.027 C 
HETATM   25  C13 UNL     1      35.167  33.136  87.590  1.00  0.00    -0.008 C 
HETATM   26  C14 UNL     1      35.036  32.509  88.914  1.00  0.00    -0.027 C 
HETATM   27  C15 UNL     1      34.895  33.269  90.145  1.00  0.00     0.027 C 
HETATM   28  C16 UNL     1      35.998  33.066  91.228  1.00  0.00     0.004 C 
HETATM   29  C17 UNL     1      37.172  33.529  90.519  1.00  0.00     0.000 C 
HETATM   30  C18 UNL     1      38.569  33.530  90.776  1.00  0.00     0.001 C 
HETATM   31  C19 UNL     1      39.127  34.454  89.687  1.00  0.00     0.014 C 
ENDBRANCH  18  21
ENDBRANCH   1  17
TORSDOF 7
ENDMDL
MODEL 5
REMARK VINA RESULT: -7.576167864      3.522      7.098
REMARK  7 active torsions:
REMARK  status: ('A' for Active; 'I' for Inactive)
REMARK    1  A    between atoms: C3_4  and  N1_5 
REMARK       I    between atoms: N1_5  and  C4_7 
REMARK    2  A    between atoms: C4_7  and  C5_9 
REMARK    3  A    between atoms: C5_9  and  O3_10 
REMARK    4  A    between atoms: O3_10  and  C6_11 
REMARK    5  A    between atoms: C6_11  and  C7_13 
REMARK    6  A    between atoms: C7_13  and  N2_14 
REMARK       I    between atoms: N2_14  and  C8_16 
REMARK    7  A    between atoms: C8_16  and  C9_18 
ROOT
HETATM    1  C7  UNL     1      42.106  35.515  86.620  1.00  0.00     0.233 C 
ENDROOT
BRANCH   1   2
HETATM    2  C6  UNL     1      42.222  34.017  86.809  1.00  0.00     0.277 C 
HETATM    3  O4  UNL     1      41.279  33.412  87.292  1.00  0.00    -0.263 OA
BRANCH   2   4
HETATM    4  O3  UNL     1      43.373  33.433  86.425  1.00  0.00    -0.311 OA
BRANCH   4   5
HETATM    5  C5  UNL     1      44.714  33.797  86.597  1.00  0.00     0.281 C 
BRANCH   5   6
HETATM    6  C4  UNL     1      45.426  32.980  85.539  1.00  0.00     0.243 C 
HETATM    7  N1  UNL     1      46.625  32.301  85.881  1.00  0.00    -0.339 N 
ATOM      8  H1  UNL     1      47.039  32.401  86.808  1.00  0.00     0.164 HD
HETATM    9  O2  UNL     1      44.936  32.890  84.370  1.00  0.00    -0.271 OA
BRANCH   7  10
HETATM   10  C3  UNL     1      47.231  31.476  84.892  1.00  0.00     0.207 C 
HETATM   11  C2  UNL     1      48.622  31.889  84.559  1.00  0.00     0.148 C 
HETATM   12  C1  UNL     1      49.493  30.814  85.172  1.00  0.00     0.236 C 
HETATM   13  O1  UNL     1      50.699  30.615  85.022  1.00  0.00    -0.272 OA
HETATM   14  N4  UNL     1      48.582  30.056  85.997  1.00  0.00    -0.272 N 
HETATM   15  N3  UNL     1      47.326  30.098  85.381  1.00  0.00    -0.113 NA
ATOM     16  H4  UNL     1      48.811  29.578  86.869  1.00  0.00     0.185 HD
ENDBRANCH   7  10
ENDBRANCH   5   6
ENDBRANCH   4   5
ENDBRANCH   2   4
ENDBRANCH   1   2
BRANCH   1  17
HETATM   17  N2  UNL     1      41.362  35.784  85.437  1.00  0.00    -0.351 N 
HETATM   18  C8  UNL     1      41.665  35.701  84.088  1.00  0.00     0.222 C 
HETATM   19  O5  UNL     1      42.756  35.295  83.730  1.00  0.00    -0.273 OA
ATOM     20  H2  UNL     1      40.410  36.102  85.620  1.00  0.00     0.163 HD
BRANCH  18  21
HETATM   21  C9  UNL     1      40.665  36.108  83.002  1.00  0.00     0.078 C 
HETATM   22  C10 UNL     1      39.326  36.018  83.557  1.00  0.00     0.018 C 
HETATM   23  C11 UNL     1      38.704  34.754  84.001  1.00  0.00     0.028 C 
HETATM   24  C12 UNL     1      37.638  34.096  83.221  1.00  0.00    -0.027 C 
HETATM   25  C13 UNL     1      36.573  34.791  82.549  1.00  0.00    -0.008 C 
HETATM   26  C14 UNL     1      36.582  35.268  81.158  1.00  0.00    -0.027 C 
HETATM   27  C15 UNL     1      37.169  34.515  80.061  1.00  0.00     0.027 C 
HETATM   28  C16 UNL     1      38.336  35.196  79.284  1.00  0.00     0.004 C 
HETATM   29  C17 UNL     1      39.320  35.345  80.335  1.00  0.00     0.000 C 
HETATM   30  C18 UNL     1      40.578  35.993  80.453  1.00  0.00     0.001 C 
HETATM   31  C19 UNL     1      41.132  35.451  81.775  1.00  0.00     0.014 C 
ENDBRANCH  18  21
ENDBRANCH   1  17
TORSDOF 7
ENDMDL
