MODEL 1
REMARK VINA RESULT: -7.263880875      0.000      0.000
REMARK  6 active torsions:
REMARK  status: ('A' for Active; 'I' for Inactive)
REMARK       I    between atoms: C1_2  and  N3_13 
REMARK    1  A    between atoms: N2_3  and  O1_5 
REMARK    2  A    between atoms: O1_5  and  C2_6 
REMARK    3  A    between atoms: C2_6  and  C3_7 
REMARK    4  A    between atoms: N3_13  and  C9_15 
REMARK    5  A    between atoms: C9_15  and  C10_16 
REMARK    6  A    between atoms: C23_30  and  N4_31 
ROOT
HETATM    1  C10 UNL     1     -17.669  -4.032  53.819  1.00  0.00     0.034 C 
HETATM    2  C11 UNL     1     -18.068  -4.062  52.368  1.00  0.00     0.175 C 
HETATM    3  O2  UNL     1     -17.503  -3.025  51.618  1.00  0.00    -0.379 OA
HETATM    4  C12 UNL     1     -18.510  -2.357  50.847  1.00  0.00     0.261 C 
HETATM    5  C13 UNL     1     -19.511  -1.965  51.789  1.00  0.00    -0.081 C 
HETATM    6  C14 UNL     1     -20.240  -1.695  52.584  1.00  0.00    -0.104 C 
HETATM    7  C15 UNL     1     -21.114  -1.400  53.651  1.00  0.00     0.099 C 
HETATM    8  C16 UNL     1     -20.899  -2.326  54.841  1.00  0.00     0.002 C 
HETATM    9  C17 UNL     1     -20.213  -1.705  56.010  1.00  0.00     0.012 C 
HETATM   10  C18 UNL     1     -19.599  -2.859  56.822  1.00  0.00     0.017 C 
HETATM   11  C19 UNL     1     -20.563  -4.055  56.755  1.00  0.00     0.007 C 
HETATM   12  C20 UNL     1     -20.433  -4.648  55.395  1.00  0.00     0.006 C 
HETATM   13  C21 UNL     1     -20.039  -3.514  54.435  1.00  0.00    -0.003 C 
HETATM   14  C22 UNL     1     -18.583  -3.192  54.628  1.00  0.00     0.028 C 
HETATM   15  C23 UNL     1     -18.314  -3.263  56.141  1.00  0.00     0.192 C 
ENDROOT
BRANCH   1  16
HETATM   16  C9  UNL     1     -16.261  -3.396  53.800  1.00  0.00     0.129 C 
BRANCH  16  17
HETATM   17  N3  UNL     1     -16.414  -1.976  54.128  1.00  0.00    -0.363 N 
HETATM   18  C1  UNL     1     -15.765  -0.914  53.473  1.00  0.00     0.208 C 
HETATM   19  N1  UNL     1     -15.256   0.140  54.328  1.00  0.00    -0.062 NA
HETATM   20  N2  UNL     1     -15.577  -0.817  52.224  1.00  0.00    -0.238 N 
ATOM     21  H2  UNL     1     -15.955  -1.583  51.666  1.00  0.00     0.197 HD
ATOM     22  H3  UNL     1     -17.043  -1.739  54.894  1.00  0.00     0.162 HD
BRANCH  20  23
HETATM   23  O1  UNL     1     -14.955   0.147  51.524  1.00  0.00    -0.273 OA
BRANCH  23  24
HETATM   24  C2  UNL     1     -15.338   1.471  51.380  1.00  0.00     0.240 C 
BRANCH  24  25
HETATM   25  C3  UNL     1     -15.644   1.898  49.989  1.00  0.00    -0.032 A 
HETATM   26  C4  UNL     1     -16.793   1.321  49.442  1.00  0.00     0.009 A 
HETATM   27  C5  UNL     1     -17.203   1.626  48.171  1.00  0.00     0.001 A 
HETATM   28  C6  UNL     1     -16.485   2.516  47.397  1.00  0.00     0.000 A 
HETATM   29  C7  UNL     1     -15.354   3.083  47.939  1.00  0.00     0.001 A 
HETATM   30  C8  UNL     1     -14.940   2.770  49.234  1.00  0.00     0.009 A 
ENDBRANCH  24  25
ENDBRANCH  23  24
ENDBRANCH  20  23
ENDBRANCH  16  17
ENDBRANCH   1  16
BRANCH  15  31
HETATM   31  N4  UNL     1     -17.762  -4.501  56.563  1.00  0.00    -0.074 N 
ATOM     32  H43 UNL     1     -17.385  -4.413  57.507  1.00  0.00     0.274 HD
ATOM     33  H42 UNL     1     -18.508  -5.177  56.729  1.00  0.00     0.274 HD
ATOM     34  H41 UNL     1     -17.060  -4.903  55.942  1.00  0.00     0.274 HD
ENDBRANCH  15  31
TORSDOF 6
ENDMDL
MODEL 2
REMARK VINA RESULT: -7.246044594      8.413     13.657
REMARK  6 active torsions:
REMARK  status: ('A' for Active; 'I' for Inactive)
REMARK       I    between atoms: C1_2  and  N3_13 
REMARK    1  A    between atoms: N2_3  and  O1_5 
REMARK    2  A    between atoms: O1_5  and  C2_6 
REMARK    3  A    between atoms: C2_6  and  C3_7 
REMARK    4  A    between atoms: N3_13  and  C9_15 
REMARK    5  A    between atoms: C9_15  and  C10_16 
REMARK    6  A    between atoms: C23_30  and  N4_31 
ROOT
HETATM    1  C10 UNL     1     -14.084  10.812  48.738  1.00  0.00     0.034 C 
HETATM    2  C11 UNL     1     -12.580  10.784  48.655  1.00  0.00     0.175 C 
HETATM    3  O2  UNL     1     -11.997   9.858  49.527  1.00  0.00    -0.379 OA
HETATM    4  C12 UNL     1     -10.946  10.474  50.283  1.00  0.00     0.261 C 
HETATM    5  C13 UNL     1     -11.544  11.614  50.903  1.00  0.00    -0.081 C 
HETATM    6  C14 UNL     1     -12.084  12.480  51.348  1.00  0.00    -0.104 C 
HETATM    7  C15 UNL     1     -12.840  13.552  51.862  1.00  0.00     0.099 C 
HETATM    8  C16 UNL     1     -14.069  13.847  51.011  1.00  0.00     0.002 C 
HETATM    9  C17 UNL     1     -15.367  13.421  51.606  1.00  0.00     0.012 C 
HETATM   10  C18 UNL     1     -16.357  13.273  50.437  1.00  0.00     0.017 C 
HETATM   11  C19 UNL     1     -16.049  14.373  49.408  1.00  0.00     0.007 C 
HETATM   12  C20 UNL     1     -14.804  13.971  48.695  1.00  0.00     0.006 C 
HETATM   13  C21 UNL     1     -13.966  13.130  49.673  1.00  0.00    -0.003 C 
HETATM   14  C22 UNL     1     -14.565  11.754  49.774  1.00  0.00     0.028 C 
HETATM   15  C23 UNL     1     -16.093  11.939  49.781  1.00  0.00     0.192 C 
ENDROOT
BRANCH   1  16
HETATM   16  C9  UNL     1     -14.456   9.366  49.137  1.00  0.00     0.129 C 
BRANCH  16  17
HETATM   17  N3  UNL     1     -14.341   8.534  47.937  1.00  0.00    -0.363 N 
HETATM   18  C1  UNL     1     -13.881   7.205  47.908  1.00  0.00     0.208 C 
HETATM   19  N1  UNL     1     -12.994   6.867  46.811  1.00  0.00    -0.062 NA
HETATM   20  N2  UNL     1     -14.159   6.305  48.755  1.00  0.00    -0.238 N 
ATOM     21  H2  UNL     1     -14.787   6.594  49.505  1.00  0.00     0.197 HD
ATOM     22  H3  UNL     1     -14.617   8.953  47.049  1.00  0.00     0.162 HD
BRANCH  20  23
HETATM   23  O1  UNL     1     -13.749   5.027  48.811  1.00  0.00    -0.273 OA
BRANCH  23  24
HETATM   24  C2  UNL     1     -14.372   3.913  48.271  1.00  0.00     0.240 C 
BRANCH  24  25
HETATM   25  C3  UNL     1     -14.905   2.938  49.258  1.00  0.00    -0.032 A 
HETATM   26  C4  UNL     1     -15.582   1.852  48.696  1.00  0.00     0.009 A 
HETATM   27  C5  UNL     1     -16.123   0.870  49.484  1.00  0.00     0.001 A 
HETATM   28  C6  UNL     1     -16.010   0.931  50.859  1.00  0.00     0.000 A 
HETATM   29  C7  UNL     1     -15.342   2.002  51.408  1.00  0.00     0.001 A 
HETATM   30  C8  UNL     1     -14.794   3.001  50.603  1.00  0.00     0.009 A 
ENDBRANCH  24  25
ENDBRANCH  23  24
ENDBRANCH  20  23
ENDBRANCH  16  17
ENDBRANCH   1  16
BRANCH  15  31
HETATM   31  N4  UNL     1     -16.694  11.755  48.508  1.00  0.00    -0.074 N 
ATOM     32  H43 UNL     1     -17.669  11.477  48.619  1.00  0.00     0.274 HD
ATOM     33  H42 UNL     1     -16.815  12.656  48.045  1.00  0.00     0.274 HD
ATOM     34  H41 UNL     1     -16.214  11.105  47.886  1.00  0.00     0.274 HD
ENDBRANCH  15  31
TORSDOF 6
ENDMDL
MODEL 3
REMARK VINA RESULT: -7.178911674      3.994     10.769
REMARK  6 active torsions:
REMARK  status: ('A' for Active; 'I' for Inactive)
REMARK       I    between atoms: C1_2  and  N3_13 
REMARK    1  A    between atoms: N2_3  and  O1_5 
REMARK    2  A    between atoms: O1_5  and  C2_6 
REMARK    3  A    between atoms: C2_6  and  C3_7 
REMARK    4  A    between atoms: N3_13  and  C9_15 
REMARK    5  A    between atoms: C9_15  and  C10_16 
REMARK    6  A    between atoms: C23_30  and  N4_31 
ROOT
HETATM    1  C10 UNL     1     -15.988   4.785  47.143  1.00  0.00     0.034 C 
HETATM    2  C11 UNL     1     -17.225   4.731  46.285  1.00  0.00     0.175 C 
HETATM    3  O2  UNL     1     -17.222   3.662  45.381  1.00  0.00    -0.379 OA
HETATM    4  C12 UNL     1     -17.541   4.123  44.061  1.00  0.00     0.261 C 
HETATM    5  C13 UNL     1     -16.604   5.166  43.787  1.00  0.00    -0.081 C 
HETATM    6  C14 UNL     1     -15.841   5.964  43.652  1.00  0.00    -0.104 C 
HETATM    7  C15 UNL     1     -14.849   6.962  43.568  1.00  0.00     0.099 C 
HETATM    8  C16 UNL     1     -14.378   7.421  44.942  1.00  0.00     0.002 C 
HETATM    9  C17 UNL     1     -13.024   6.941  45.340  1.00  0.00     0.012 C 
HETATM   10  C18 UNL     1     -12.970   7.006  46.876  1.00  0.00     0.017 C 
HETATM   11  C19 UNL     1     -13.758   8.247  47.329  1.00  0.00     0.007 C 
HETATM   12  C20 UNL     1     -15.204   7.930  47.173  1.00  0.00     0.006 C 
HETATM   13  C21 UNL     1     -15.331   6.922  46.018  1.00  0.00    -0.003 C 
HETATM   14  C22 UNL     1     -14.904   5.564  46.502  1.00  0.00     0.028 C 
HETATM   15  C23 UNL     1     -13.681   5.787  47.411  1.00  0.00     0.192 C 
ENDROOT
BRANCH   1  16
HETATM   16  C9  UNL     1     -15.561   3.305  47.266  1.00  0.00     0.129 C 
BRANCH  16  17
HETATM   17  N3  UNL     1     -16.619   2.601  47.995  1.00  0.00    -0.363 N 
HETATM   18  C1  UNL     1     -16.415   1.577  48.938  1.00  0.00     0.208 C 
HETATM   19  N1  UNL     1     -17.330   0.454  48.858  1.00  0.00    -0.062 NA
HETATM   20  N2  UNL     1     -15.506   1.549  49.819  1.00  0.00    -0.238 N 
ATOM     21  H2  UNL     1     -14.890   2.362  49.833  1.00  0.00     0.197 HD
ATOM     22  H3  UNL     1     -17.582   2.877  47.804  1.00  0.00     0.162 HD
BRANCH  20  23
HETATM   23  O1  UNL     1     -15.232   0.607  50.737  1.00  0.00    -0.273 OA
BRANCH  23  24
HETATM   24  C2  UNL     1     -15.277   0.730  52.116  1.00  0.00     0.240 C 
BRANCH  24  25
HETATM   25  C3  UNL     1     -15.090  -0.534  52.876  1.00  0.00    -0.032 A 
HETATM   26  C4  UNL     1     -16.187  -1.400  52.844  1.00  0.00     0.009 A 
HETATM   27  C5  UNL     1     -16.157  -2.606  53.495  1.00  0.00     0.001 A 
HETATM   28  C6  UNL     1     -15.036  -2.995  54.200  1.00  0.00     0.000 A 
HETATM   29  C7  UNL     1     -13.957  -2.139  54.229  1.00  0.00     0.001 A 
HETATM   30  C8  UNL     1     -13.992  -0.912  53.566  1.00  0.00     0.009 A 
ENDBRANCH  24  25
ENDBRANCH  23  24
ENDBRANCH  20  23
ENDBRANCH  16  17
ENDBRANCH   1  16
BRANCH  15  31
HETATM   31  N4  UNL     1     -14.000   5.823  48.794  1.00  0.00    -0.074 N 
ATOM     32  H43 UNL     1     -13.237   6.252  49.318  1.00  0.00     0.274 HD
ATOM     33  H42 UNL     1     -14.741   6.503  48.964  1.00  0.00     0.274 HD
ATOM     34  H41 UNL     1     -14.248   4.926  49.210  1.00  0.00     0.274 HD
ENDBRANCH  15  31
TORSDOF 6
ENDMDL
MODEL 4
REMARK VINA RESULT: -7.141991872      3.572      9.476
REMARK  6 active torsions:
REMARK  status: ('A' for Active; 'I' for Inactive)
REMARK       I    between atoms: C1_2  and  N3_13 
REMARK    1  A    between atoms: N2_3  and  O1_5 
REMARK    2  A    between atoms: O1_5  and  C2_6 
REMARK    3  A    between atoms: C2_6  and  C3_7 
REMARK    4  A    between atoms: N3_13  and  C9_15 
REMARK    5  A    between atoms: C9_15  and  C10_16 
REMARK    6  A    between atoms: C23_30  and  N4_31 
ROOT
HETATM    1  C10 UNL     1     -17.643   2.449  47.132  1.00  0.00     0.034 C 
HETATM    2  C11 UNL     1     -16.391   1.776  47.629  1.00  0.00     0.175 C 
HETATM    3  O2  UNL     1     -16.212   1.896  49.012  1.00  0.00    -0.379 OA
HETATM    4  C12 UNL     1     -14.886   2.352  49.308  1.00  0.00     0.261 C 
HETATM    5  C13 UNL     1     -14.723   3.556  48.557  1.00  0.00    -0.081 C 
HETATM    6  C14 UNL     1     -14.677   4.484  47.944  1.00  0.00    -0.104 C 
HETATM    7  C15 UNL     1     -14.701   5.637  47.134  1.00  0.00     0.099 C 
HETATM    8  C16 UNL     1     -15.740   5.537  46.024  1.00  0.00     0.002 C 
HETATM    9  C17 UNL     1     -16.959   6.372  46.223  1.00  0.00     0.012 C 
HETATM   10  C18 UNL     1     -18.069   5.738  45.366  1.00  0.00     0.017 C 
HETATM   11  C19 UNL     1     -17.428   5.205  44.074  1.00  0.00     0.007 C 
HETATM   12  C20 UNL     1     -16.687   3.963  44.430  1.00  0.00     0.006 C 
HETATM   13  C21 UNL     1     -16.232   4.104  45.893  1.00  0.00    -0.003 C 
HETATM   14  C22 UNL     1     -17.411   3.873  46.797  1.00  0.00     0.028 C 
HETATM   15  C23 UNL     1     -18.617   4.558  46.130  1.00  0.00     0.192 C 
ENDROOT
BRANCH   1  16
HETATM   16  C9  UNL     1     -18.614   2.349  48.330  1.00  0.00     0.129 C 
BRANCH  16  17
HETATM   17  N3  UNL     1     -19.319   1.069  48.219  1.00  0.00    -0.363 N 
HETATM   18  C1  UNL     1     -18.871  -0.156  48.746  1.00  0.00     0.208 C 
HETATM   19  N1  UNL     1     -19.045  -1.314  47.891  1.00  0.00    -0.062 NA
HETATM   20  N2  UNL     1     -18.323  -0.321  49.876  1.00  0.00    -0.238 N 
ATOM     21  H2  UNL     1     -18.225   0.524  50.439  1.00  0.00     0.197 HD
ATOM     22  H3  UNL     1     -20.207   1.066  47.718  1.00  0.00     0.162 HD
BRANCH  20  23
HETATM   23  O1  UNL     1     -17.852  -1.445  50.443  1.00  0.00    -0.273 OA
BRANCH  23  24
HETATM   24  C2  UNL     1     -17.800  -1.756  51.791  1.00  0.00     0.240 C 
BRANCH  24  25
HETATM   25  C3  UNL     1     -16.507  -1.466  52.465  1.00  0.00    -0.032 A 
HETATM   26  C4  UNL     1     -15.963  -2.543  53.170  1.00  0.00     0.009 A 
HETATM   27  C5  UNL     1     -14.771  -2.424  53.836  1.00  0.00     0.001 A 
HETATM   28  C6  UNL     1     -14.076  -1.231  53.824  1.00  0.00     0.000 A 
HETATM   29  C7  UNL     1     -14.615  -0.173  53.128  1.00  0.00     0.001 A 
HETATM   30  C8  UNL     1     -15.829  -0.297  52.452  1.00  0.00     0.009 A 
ENDBRANCH  24  25
ENDBRANCH  23  24
ENDBRANCH  20  23
ENDBRANCH  16  17
ENDBRANCH   1  16
BRANCH  15  31
HETATM   31  N4  UNL     1     -19.431   3.669  45.380  1.00  0.00    -0.074 N 
ATOM     32  H43 UNL     1     -19.728   4.115  44.511  1.00  0.00     0.274 HD
ATOM     33  H42 UNL     1     -18.865   2.907  45.007  1.00  0.00     0.274 HD
ATOM     34  H41 UNL     1     -20.241   3.292  45.873  1.00  0.00     0.274 HD
ENDBRANCH  15  31
TORSDOF 6
ENDMDL
MODEL 5
REMARK VINA RESULT: -6.915108958      2.445      4.085
REMARK  6 active torsions:
REMARK  status: ('A' for Active; 'I' for Inactive)
REMARK       I    between atoms: C1_2  and  N3_13 
REMARK    1  A    between atoms: N2_3  and  O1_5 
REMARK    2  A    between atoms: O1_5  and  C2_6 
REMARK    3  A    between atoms: C2_6  and  C3_7 
REMARK    4  A    between atoms: N3_13  and  C9_15 
REMARK    5  A    between atoms: C9_15  and  C10_16 
REMARK    6  A    between atoms: C23_30  and  N4_31 
ROOT
HETATM    1  C10 UNL     1     -17.812  -3.158  53.094  1.00  0.00     0.034 C 
HETATM    2  C11 UNL     1     -17.272  -1.753  53.153  1.00  0.00     0.175 C 
HETATM    3  O2  UNL     1     -16.379  -1.462  52.115  1.00  0.00    -0.379 OA
HETATM    4  C12 UNL     1     -15.179  -0.876  52.636  1.00  0.00     0.261 C 
HETATM    5  C13 UNL     1     -14.704  -1.798  53.619  1.00  0.00    -0.081 C 
HETATM    6  C14 UNL     1     -14.402  -2.566  54.365  1.00  0.00    -0.104 C 
HETATM    7  C15 UNL     1     -14.097  -3.582  55.293  1.00  0.00     0.099 C 
HETATM    8  C16 UNL     1     -15.326  -4.397  55.676  1.00  0.00     0.002 C 
HETATM    9  C17 UNL     1     -15.384  -5.766  55.090  1.00  0.00     0.012 C 
HETATM   10  C18 UNL     1     -16.864  -6.187  55.105  1.00  0.00     0.017 C 
HETATM   11  C19 UNL     1     -17.507  -5.624  56.384  1.00  0.00     0.007 C 
HETATM   12  C20 UNL     1     -17.695  -4.161  56.174  1.00  0.00     0.006 C 
HETATM   13  C21 UNL     1     -16.591  -3.690  55.213  1.00  0.00    -0.003 C 
HETATM   14  C22 UNL     1     -16.942  -4.116  53.814  1.00  0.00     0.028 C 
HETATM   15  C23 UNL     1     -17.537  -5.532  53.923  1.00  0.00     0.192 C 
ENDROOT
BRANCH   1  16
HETATM   16  C9  UNL     1     -17.811  -3.489  51.585  1.00  0.00     0.129 C 
BRANCH  16  17
HETATM   17  N3  UNL     1     -19.124  -3.115  51.051  1.00  0.00    -0.363 N 
HETATM   18  C1  UNL     1     -19.461  -1.855  50.525  1.00  0.00     0.208 C 
HETATM   19  N1  UNL     1     -20.763  -1.340  50.903  1.00  0.00    -0.062 NA
HETATM   20  N2  UNL     1     -18.726  -1.142  49.779  1.00  0.00    -0.238 N 
ATOM     21  H2  UNL     1     -17.822  -1.550  49.542  1.00  0.00     0.197 HD
ATOM     22  H3  UNL     1     -19.853  -3.828  51.063  1.00  0.00     0.162 HD
BRANCH  20  23
HETATM   23  O1  UNL     1     -18.963   0.072  49.253  1.00  0.00    -0.273 OA
BRANCH  23  24
HETATM   24  C2  UNL     1     -18.274   0.700  48.229  1.00  0.00     0.240 C 
BRANCH  24  25
HETATM   25  C3  UNL     1     -17.037   1.416  48.638  1.00  0.00    -0.032 A 
HETATM   26  C4  UNL     1     -16.588   2.371  47.722  1.00  0.00     0.009 A 
HETATM   27  C5  UNL     1     -15.462   3.114  47.966  1.00  0.00     0.001 A 
HETATM   28  C6  UNL     1     -14.743   2.935  49.131  1.00  0.00     0.000 A 
HETATM   29  C7  UNL     1     -15.188   1.994  50.031  1.00  0.00     0.001 A 
HETATM   30  C8  UNL     1     -16.334   1.239  49.778  1.00  0.00     0.009 A 
ENDBRANCH  24  25
ENDBRANCH  23  24
ENDBRANCH  20  23
ENDBRANCH  16  17
ENDBRANCH   1  16
BRANCH  15  31
HETATM   31  N4  UNL     1     -18.956  -5.552  53.939  1.00  0.00    -0.074 N 
ATOM     32  H43 UNL     1     -19.306  -4.951  54.686  1.00  0.00     0.274 HD
ATOM     33  H42 UNL     1     -19.322  -5.058  53.125  1.00  0.00     0.274 HD
ATOM     34  H41 UNL     1     -19.382  -6.476  54.006  1.00  0.00     0.274 HD
ENDBRANCH  15  31
TORSDOF 6
ENDMDL
