MODEL 1
REMARK VINA RESULT: -6.190395191      0.000      0.000
REMARK  4 active torsions:
REMARK  status: ('A' for Active; 'I' for Inactive)
REMARK    1  A    between atoms: C2_2  and  C3_3 
REMARK    2  A    between atoms: C3_3  and  C4_4 
REMARK    3  A    between atoms: C4_4  and  C5_5 
REMARK    4  A    between atoms: C6_6  and  C7_7 
ROOT
HETATM    1  C7  UNL     1      45.856  34.533  84.963  1.00  0.00     0.041 C 
HETATM    2  C8  UNL     1      45.772  33.230  85.027  1.00  0.00     0.096 C 
HETATM    3  C9  UNL     1      46.984  32.488  85.408  1.00  0.00     0.088 C 
HETATM    4  N1  UNL     1      47.922  31.890  85.709  1.00  0.00    -0.192 NA
ENDROOT
BRANCH   1   5
HETATM    5  C6  UNL     1      44.724  35.361  84.599  1.00  0.00     0.043 A 
HETATM    6  C5  UNL     1      44.004  36.028  85.592  1.00  0.00    -0.017 A 
HETATM    7  C14 UNL     1      42.873  36.731  85.132  1.00  0.00     0.030 A 
HETATM    8  C11 UNL     1      42.533  36.740  83.800  1.00  0.00     0.115 A 
HETATM    9  C13 UNL     1      41.934  37.487  85.779  1.00  0.00     0.088 A 
HETATM   10  C10 UNL     1      43.268  36.073  82.847  1.00  0.00     0.273 A 
HETATM   11  N3  UNL     1      41.406  37.487  83.626  1.00  0.00    -0.338 N 
HETATM   12  N2  UNL     1      44.343  35.403  83.284  1.00  0.00    -0.321 N 
HETATM   13  O1  UNL     1      42.953  36.084  81.619  1.00  0.00    -0.266 OA
ATOM     14  H2  UNL     1      44.908  34.897  82.601  1.00  0.00     0.169 HD
HETATM   15  C12 UNL     1      41.023  37.952  84.816  1.00  0.00     0.139 A 
ATOM     16  H3  UNL     1      40.936  37.661  82.737  1.00  0.00     0.167 HD
HETATM   17  N4  UNL     1      39.894  38.774  85.074  1.00  0.00    -0.081 NA
HETATM   18 CL1  UNL     1      41.787  37.868  87.462  1.00  0.00    -0.080 Cl
BRANCH   6  19
HETATM   19  C4  UNL     1      44.384  36.101  87.010  1.00  0.00     0.042 C 
BRANCH  19  20
HETATM   20  C3  UNL     1      45.299  37.190  87.416  1.00  0.00     0.004 C 
BRANCH  20  21
HETATM   21  C2  UNL     1      45.091  37.840  88.751  1.00  0.00    -0.004 C 
HETATM   22  C1  UNL     1      45.723  39.237  88.772  1.00  0.00     0.005 C 
ENDBRANCH  20  21
ENDBRANCH  19  20
ENDBRANCH   6  19
ENDBRANCH   1   5
TORSDOF 4
ENDMDL
MODEL 2
REMARK VINA RESULT: -5.887196732      1.589      1.892
REMARK  4 active torsions:
REMARK  status: ('A' for Active; 'I' for Inactive)
REMARK    1  A    between atoms: C2_2  and  C3_3 
REMARK    2  A    between atoms: C3_3  and  C4_4 
REMARK    3  A    between atoms: C4_4  and  C5_5 
REMARK    4  A    between atoms: C6_6  and  C7_7 
ROOT
HETATM    1  C7  UNL     1      45.004  34.522  84.868  1.00  0.00     0.041 C 
HETATM    2  C8  UNL     1      45.340  33.279  84.647  1.00  0.00     0.096 C 
HETATM    3  C9  UNL     1      46.489  32.743  85.394  1.00  0.00     0.088 C 
HETATM    4  N1  UNL     1      47.383  32.304  85.973  1.00  0.00    -0.192 NA
ENDROOT
BRANCH   1   5
HETATM    5  C6  UNL     1      43.888  35.151  84.187  1.00  0.00     0.043 A 
HETATM    6  C5  UNL     1      42.692  35.371  84.872  1.00  0.00    -0.017 A 
HETATM    7  C14 UNL     1      41.651  35.906  84.088  1.00  0.00     0.030 A 
HETATM    8  C11 UNL     1      41.833  36.180  82.754  1.00  0.00     0.115 A 
HETATM    9  C13 UNL     1      40.361  36.250  84.384  1.00  0.00     0.088 A 
HETATM   10  C10 UNL     1      43.028  35.953  82.110  1.00  0.00     0.273 A 
HETATM   11  N3  UNL     1      40.678  36.685  82.234  1.00  0.00    -0.338 N 
HETATM   12  N2  UNL     1      44.019  35.442  82.855  1.00  0.00    -0.321 N 
HETATM   13  O1  UNL     1      43.194  36.208  80.880  1.00  0.00    -0.266 OA
ATOM     14  H2  UNL     1      44.917  35.262  82.407  1.00  0.00     0.169 HD
HETATM   15  C12 UNL     1      39.768  36.737  83.208  1.00  0.00     0.139 A 
ATOM     16  H3  UNL     1      40.535  36.973  81.266  1.00  0.00     0.167 HD
HETATM   17  N4  UNL     1      38.431  37.202  83.085  1.00  0.00    -0.081 NA
HETATM   18 CL1  UNL     1      39.504  36.149  85.886  1.00  0.00    -0.080 Cl
BRANCH   6  19
HETATM   19  C4  UNL     1      42.490  35.160  86.312  1.00  0.00     0.042 C 
BRANCH  19  20
HETATM   20  C3  UNL     1      42.613  36.339  87.199  1.00  0.00     0.004 C 
BRANCH  20  21
HETATM   21  C2  UNL     1      43.611  37.401  86.845  1.00  0.00    -0.004 C 
HETATM   22  C1  UNL     1      44.951  37.131  87.539  1.00  0.00     0.005 C 
ENDBRANCH  20  21
ENDBRANCH  19  20
ENDBRANCH   6  19
ENDBRANCH   1   5
TORSDOF 4
ENDMDL
MODEL 3
REMARK VINA RESULT: -5.554724144      2.750      4.091
REMARK  4 active torsions:
REMARK  status: ('A' for Active; 'I' for Inactive)
REMARK    1  A    between atoms: C2_2  and  C3_3 
REMARK    2  A    between atoms: C3_3  and  C4_4 
REMARK    3  A    between atoms: C4_4  and  C5_5 
REMARK    4  A    between atoms: C6_6  and  C7_7 
ROOT
HETATM    1  C7  UNL     1      44.832  34.932  86.564  1.00  0.00     0.041 C 
HETATM    2  C8  UNL     1      45.539  34.724  85.485  1.00  0.00     0.096 C 
HETATM    3  C9  UNL     1      45.972  33.345  85.211  1.00  0.00     0.088 C 
HETATM    4  N1  UNL     1      46.317  32.270  84.978  1.00  0.00    -0.192 NA
ENDROOT
BRANCH   1   5
HETATM    5  C6  UNL     1      44.353  36.251  86.929  1.00  0.00     0.043 A 
HETATM    6  C5  UNL     1      43.052  36.633  86.597  1.00  0.00    -0.017 A 
HETATM    7  C14 UNL     1      42.725  37.965  86.922  1.00  0.00     0.030 A 
HETATM    8  C11 UNL     1      43.640  38.797  87.521  1.00  0.00     0.115 A 
HETATM    9  C13 UNL     1      41.582  38.697  86.757  1.00  0.00     0.088 A 
HETATM   10  C10 UNL     1      44.915  38.385  87.837  1.00  0.00     0.273 A 
HETATM   11  N3  UNL     1      43.074  40.021  87.724  1.00  0.00    -0.338 N 
HETATM   12  N2  UNL     1      45.227  37.119  87.527  1.00  0.00    -0.321 N 
HETATM   13  O1  UNL     1      45.756  39.154  88.391  1.00  0.00    -0.266 OA
ATOM     14  H2  UNL     1      46.165  36.784  87.749  1.00  0.00     0.169 HD
HETATM   15  C12 UNL     1      41.821  39.984  87.267  1.00  0.00     0.139 A 
ATOM     16  H3  UNL     1      43.531  40.826  88.152  1.00  0.00     0.167 HD
HETATM   17  N4  UNL     1      40.887  41.053  87.289  1.00  0.00    -0.081 NA
HETATM   18 CL1  UNL     1      40.063  38.239  86.062  1.00  0.00    -0.080 Cl
BRANCH   6  19
HETATM   19  C4  UNL     1      42.028  35.747  86.026  1.00  0.00     0.042 C 
BRANCH  19  20
HETATM   20  C3  UNL     1      41.995  35.600  84.554  1.00  0.00     0.004 C 
BRANCH  20  21
HETATM   21  C2  UNL     1      42.703  36.621  83.716  1.00  0.00    -0.004 C 
HETATM   22  C1  UNL     1      43.283  35.971  82.454  1.00  0.00     0.005 C 
ENDBRANCH  20  21
ENDBRANCH  19  20
ENDBRANCH   6  19
ENDBRANCH   1   5
TORSDOF 4
ENDMDL
MODEL 4
REMARK VINA RESULT: -5.396719372      1.580      1.751
REMARK  4 active torsions:
REMARK  status: ('A' for Active; 'I' for Inactive)
REMARK    1  A    between atoms: C2_2  and  C3_3 
REMARK    2  A    between atoms: C3_3  and  C4_4 
REMARK    3  A    between atoms: C4_4  and  C5_5 
REMARK    4  A    between atoms: C6_6  and  C7_7 
ROOT
HETATM    1  C7  UNL     1      44.274  34.555  85.414  1.00  0.00     0.041 C 
HETATM    2  C8  UNL     1      45.201  34.102  84.611  1.00  0.00     0.096 C 
HETATM    3  C9  UNL     1      46.021  32.977  85.087  1.00  0.00     0.088 C 
HETATM    4  N1  UNL     1      46.671  32.093  85.440  1.00  0.00    -0.192 NA
ENDROOT
BRANCH   1   5
HETATM    5  C6  UNL     1      43.408  35.659  85.046  1.00  0.00     0.043 A 
HETATM    6  C5  UNL     1      43.622  36.921  85.601  1.00  0.00    -0.017 A 
HETATM    7  C14 UNL     1      42.668  37.895  85.241  1.00  0.00     0.030 A 
HETATM    8  C11 UNL     1      41.621  37.591  84.404  1.00  0.00     0.115 A 
HETATM    9  C13 UNL     1      42.532  39.215  85.572  1.00  0.00     0.088 A 
HETATM   10  C10 UNL     1      41.443  36.333  83.873  1.00  0.00     0.273 A 
HETATM   11  N3  UNL     1      40.852  38.701  84.220  1.00  0.00    -0.338 N 
HETATM   12  N2  UNL     1      42.349  35.407  84.216  1.00  0.00    -0.321 N 
HETATM   13  O1  UNL     1      40.477  36.056  83.101  1.00  0.00    -0.266 OA
ATOM     14  H2  UNL     1      42.244  34.465  83.839  1.00  0.00     0.169 HD
HETATM   15  C12 UNL     1      41.386  39.702  84.920  1.00  0.00     0.139 A 
ATOM     16  H3  UNL     1      40.011  38.756  83.645  1.00  0.00     0.167 HD
HETATM   17  N4  UNL     1      40.891  41.031  85.000  1.00  0.00    -0.081 NA
HETATM   18 CL1  UNL     1      43.517  40.208  86.592  1.00  0.00    -0.080 Cl
BRANCH   6  19
HETATM   19  C4  UNL     1      44.771  37.298  86.436  1.00  0.00     0.042 C 
BRANCH  19  20
HETATM   20  C3  UNL     1      44.604  37.217  87.904  1.00  0.00     0.004 C 
BRANCH  20  21
HETATM   21  C2  UNL     1      45.362  38.182  88.765  1.00  0.00    -0.004 C 
HETATM   22  C1  UNL     1      44.630  38.405  90.094  1.00  0.00     0.005 C 
ENDBRANCH  20  21
ENDBRANCH  19  20
ENDBRANCH   6  19
ENDBRANCH   1   5
TORSDOF 4
ENDMDL
MODEL 5
REMARK VINA RESULT: -5.356405585      2.879      3.953
REMARK  4 active torsions:
REMARK  status: ('A' for Active; 'I' for Inactive)
REMARK    1  A    between atoms: C2_2  and  C3_3 
REMARK    2  A    between atoms: C3_3  and  C4_4 
REMARK    3  A    between atoms: C4_4  and  C5_5 
REMARK    4  A    between atoms: C6_6  and  C7_7 
ROOT
HETATM    1  C7  UNL     1      45.086  34.686  86.477  1.00  0.00     0.041 C 
HETATM    2  C8  UNL     1      45.798  34.356  85.431  1.00  0.00     0.096 C 
HETATM    3  C9  UNL     1      46.283  32.969  85.350  1.00  0.00     0.088 C 
HETATM    4  N1  UNL     1      46.669  31.886  85.267  1.00  0.00    -0.192 NA
ENDROOT
BRANCH   1   5
HETATM    5  C6  UNL     1      44.557  36.024  86.657  1.00  0.00     0.043 A 
HETATM    6  C5  UNL     1      43.429  36.426  85.941  1.00  0.00    -0.017 A 
HETATM    7  C14 UNL     1      43.057  37.772  86.129  1.00  0.00     0.030 A 
HETATM    8  C11 UNL     1      43.772  38.598  86.962  1.00  0.00     0.115 A 
HETATM    9  C13 UNL     1      42.038  38.525  85.614  1.00  0.00     0.088 A 
HETATM   10  C10 UNL     1      44.880  38.167  87.656  1.00  0.00     0.273 A 
HETATM   11  N3  UNL     1      43.206  39.839  86.964  1.00  0.00    -0.338 N 
HETATM   12  N2  UNL     1      45.234  36.887  87.477  1.00  0.00    -0.321 N 
HETATM   13  O1  UNL     1      45.536  38.931  88.425  1.00  0.00    -0.266 OA
ATOM     14  H2  UNL     1      46.052  36.537  87.977  1.00  0.00     0.169 HD
HETATM   15  C12 UNL     1      42.149  39.818  86.151  1.00  0.00     0.139 A 
ATOM     16  H3  UNL     1      43.535  40.645  87.496  1.00  0.00     0.167 HD
HETATM   17  N4  UNL     1      41.282  40.908  85.870  1.00  0.00    -0.081 NA
HETATM   18 CL1  UNL     1      40.787  38.083  84.500  1.00  0.00    -0.080 Cl
BRANCH   6  19
HETATM   19  C4  UNL     1      42.600  35.549  85.103  1.00  0.00     0.042 C 
BRANCH  19  20
HETATM   20  C3  UNL     1      41.683  34.613  85.791  1.00  0.00     0.004 C 
BRANCH  20  21
HETATM   21  C2  UNL     1      40.722  35.164  86.802  1.00  0.00    -0.004 C 
HETATM   22  C1  UNL     1      39.317  34.594  86.572  1.00  0.00     0.005 C 
ENDBRANCH  20  21
ENDBRANCH  19  20
ENDBRANCH   6  19
ENDBRANCH   1   5
TORSDOF 4
ENDMDL
