MODEL 1
REMARK VINA RESULT: -8.259292491      0.000      0.000
REMARK  9 active torsions:
REMARK  status: ('A' for Active; 'I' for Inactive)
REMARK    1  A    between atoms: C3_3  and  O1_6 
REMARK    2  A    between atoms: O1_6  and  C6_7 
REMARK    3  A    between atoms: C6_7  and  C7_9 
REMARK    4  A    between atoms: C12_15  and  N1_16 
REMARK       I    between atoms: N1_16  and  C13_18 
REMARK    5  A    between atoms: C13_18  and  C14_20 
REMARK    6  A    between atoms: C14_20  and  N2_21 
REMARK    7  A    between atoms: N2_21  and  N3_22 
REMARK       I    between atoms: N2_21  and  C19_28 
REMARK    8  A    between atoms: N3_22  and  C15_24 
REMARK    9  A    between atoms: C19_28  and  C20_30 
ROOT
HETATM    1  C1  UNL     1      28.563 164.531 154.846  1.00  0.00     0.015 C 
HETATM    2  C2  UNL     1      28.856 164.747 153.706  1.00  0.00    -0.079 C 
HETATM    3  C3  UNL     1      29.228 164.993 152.312  1.00  0.00     0.125 C 
HETATM    4  C4  UNL     1      30.422 164.161 151.892  1.00  0.00     0.061 C 
HETATM    5  C5  UNL     1      29.678 166.453 152.213  1.00  0.00     0.061 C 
ENDROOT
BRANCH   3   6
HETATM    6  O1  UNL     1      28.174 164.724 151.442  1.00  0.00    -0.294 OA
BRANCH   6   7
HETATM    7  C6  UNL     1      26.936 165.268 151.394  1.00  0.00     0.297 C 
HETATM    8  O2  UNL     1      26.031 164.572 151.996  1.00  0.00    -0.259 OA
BRANCH   7   9
HETATM    9  C7  UNL     1      26.502 166.503 150.774  1.00  0.00     0.068 A 
HETATM   10  C8  UNL     1      26.893 167.698 151.391  1.00  0.00     0.044 A 
HETATM   11  C9  UNL     1      26.607 168.918 150.828  1.00  0.00     0.035 A 
HETATM   12 CL1  UNL     1      27.106 170.401 151.622  1.00  0.00    -0.084 Cl
HETATM   13  C10 UNL     1      25.928 169.009 149.638  1.00  0.00     0.026 A 
HETATM   14  C11 UNL     1      25.532 167.846 149.016  1.00  0.00     0.032 A 
HETATM   15  C12 UNL     1      25.810 166.588 149.570  1.00  0.00     0.051 A 
BRANCH  15  16
HETATM   16  N1  UNL     1      25.312 165.412 148.994  1.00  0.00    -0.325 N 
HETATM   17  C13 UNL     1      25.162 165.070 147.640  1.00  0.00     0.242 C 
HETATM   18  O3  UNL     1      25.503 165.840 146.734  1.00  0.00    -0.271 OA
ATOM     19  H1  UNL     1      25.014 164.697 149.657  1.00  0.00     0.169 HD
BRANCH  17  20
HETATM   20  C14 UNL     1      24.586 163.756 147.261  1.00  0.00     0.254 C 
BRANCH  20  21
HETATM   21  N2  UNL     1      25.645 162.835 146.775  1.00  0.00    -0.256 N 
HETATM   22  C19 UNL     1      25.191 161.567 146.405  1.00  0.00     0.237 C 
HETATM   23  O4  UNL     1      25.970 160.697 145.967  1.00  0.00    -0.272 OA
BRANCH  21  24
HETATM   24  N3  UNL     1      26.887 163.386 146.781  1.00  0.00    -0.322 N 
ATOM     25  H3  UNL     1      27.092 164.108 146.091  1.00  0.00     0.181 HD
BRANCH  24  26
HETATM   26  C15 UNL     1      27.897 163.029 147.664  1.00  0.00     0.035 C 
HETATM   27  C16 UNL     1      28.854 162.018 147.062  1.00  0.00     0.039 C 
HETATM   28  C17 UNL     1      27.395 162.524 149.017  1.00  0.00     0.039 C 
HETATM   29  C18 UNL     1      28.708 164.294 147.992  1.00  0.00     0.039 C 
ENDBRANCH  24  26
ENDBRANCH  21  24
BRANCH  22  30
HETATM   30  C20 UNL     1      23.765 161.181 146.513  1.00  0.00     0.100 C 
HETATM   31  C21 UNL     1      23.316 160.470 145.254  1.00  0.00     0.014 C 
ENDBRANCH  22  30
ENDBRANCH  20  21
ENDBRANCH  17  20
ENDBRANCH  15  16
ENDBRANCH   7   9
ENDBRANCH   6   7
ENDBRANCH   3   6
TORSDOF 9
ENDMDL
MODEL 2
REMARK VINA RESULT: -7.983390400      0.983      2.807
REMARK  9 active torsions:
REMARK  status: ('A' for Active; 'I' for Inactive)
REMARK    1  A    between atoms: C3_3  and  O1_6 
REMARK    2  A    between atoms: O1_6  and  C6_7 
REMARK    3  A    between atoms: C6_7  and  C7_9 
REMARK    4  A    between atoms: C12_15  and  N1_16 
REMARK       I    between atoms: N1_16  and  C13_18 
REMARK    5  A    between atoms: C13_18  and  C14_20 
REMARK    6  A    between atoms: C14_20  and  N2_21 
REMARK    7  A    between atoms: N2_21  and  N3_22 
REMARK       I    between atoms: N2_21  and  C19_28 
REMARK    8  A    between atoms: N3_22  and  C15_24 
REMARK    9  A    between atoms: C19_28  and  C20_30 
ROOT
HETATM    1  C1  UNL     1      27.679 163.892 155.291  1.00  0.00     0.015 C 
HETATM    2  C2  UNL     1      28.266 164.515 154.455  1.00  0.00    -0.079 C 
HETATM    3  C3  UNL     1      29.000 165.263 153.434  1.00  0.00     0.125 C 
HETATM    4  C4  UNL     1      30.458 164.852 153.373  1.00  0.00     0.061 C 
HETATM    5  C5  UNL     1      28.997 166.734 153.858  1.00  0.00     0.061 C 
ENDROOT
BRANCH   3   6
HETATM    6  O1  UNL     1      28.442 165.096 152.170  1.00  0.00    -0.294 OA
BRANCH   6   7
HETATM    7  C6  UNL     1      27.192 165.380 151.735  1.00  0.00     0.297 C 
HETATM    8  O2  UNL     1      26.322 164.464 151.996  1.00  0.00    -0.259 OA
BRANCH   7   9
HETATM    9  C7  UNL     1      26.710 166.553 151.036  1.00  0.00     0.068 A 
HETATM   10  C8  UNL     1      27.093 167.801 151.545  1.00  0.00     0.044 A 
HETATM   11  C9  UNL     1      26.762 168.967 150.897  1.00  0.00     0.035 A 
HETATM   12 CL1  UNL     1      27.251 170.518 151.557  1.00  0.00    -0.084 Cl
HETATM   13  C10 UNL     1      26.044 168.950 149.727  1.00  0.00     0.026 A 
HETATM   14  C11 UNL     1      25.657 167.734 149.211  1.00  0.00     0.032 A 
HETATM   15  C12 UNL     1      25.980 166.529 149.852  1.00  0.00     0.051 A 
BRANCH  15  16
HETATM   16  N1  UNL     1      25.492 165.302 149.386  1.00  0.00    -0.325 N 
HETATM   17  C13 UNL     1      25.277 164.864 148.068  1.00  0.00     0.242 C 
HETATM   18  O3  UNL     1      25.538 165.580 147.094  1.00  0.00    -0.271 OA
ATOM     19  H1  UNL     1      25.257 164.625 150.111  1.00  0.00     0.169 HD
BRANCH  17  20
HETATM   20  C14 UNL     1      24.727 163.509 147.812  1.00  0.00     0.254 C 
BRANCH  20  21
HETATM   21  N2  UNL     1      25.564 162.777 146.828  1.00  0.00    -0.256 N 
HETATM   22  C19 UNL     1      26.854 162.474 147.271  1.00  0.00     0.237 C 
HETATM   23  O4  UNL     1      27.661 161.849 146.553  1.00  0.00    -0.272 OA
BRANCH  21  24
HETATM   24  N3  UNL     1      24.929 162.530 145.652  1.00  0.00    -0.322 N 
ATOM     25  H3  UNL     1      25.044 163.207 144.897  1.00  0.00     0.181 HD
BRANCH  24  26
HETATM   26  C15 UNL     1      24.135 161.418 145.411  1.00  0.00     0.035 C 
HETATM   27  C16 UNL     1      22.949 161.346 146.355  1.00  0.00     0.039 C 
HETATM   28  C17 UNL     1      24.893 160.091 145.430  1.00  0.00     0.039 C 
HETATM   29  C18 UNL     1      23.579 161.534 143.981  1.00  0.00     0.039 C 
ENDBRANCH  24  26
ENDBRANCH  21  24
BRANCH  22  30
HETATM   30  C20 UNL     1      27.338 162.876 148.611  1.00  0.00     0.100 C 
HETATM   31  C21 UNL     1      28.658 163.610 148.496  1.00  0.00     0.014 C 
ENDBRANCH  22  30
ENDBRANCH  20  21
ENDBRANCH  17  20
ENDBRANCH  15  16
ENDBRANCH   7   9
ENDBRANCH   6   7
ENDBRANCH   3   6
TORSDOF 9
ENDMDL
MODEL 3
REMARK VINA RESULT: -7.853427748      1.706      2.595
REMARK  9 active torsions:
REMARK  status: ('A' for Active; 'I' for Inactive)
REMARK    1  A    between atoms: C3_3  and  O1_6 
REMARK    2  A    between atoms: O1_6  and  C6_7 
REMARK    3  A    between atoms: C6_7  and  C7_9 
REMARK    4  A    between atoms: C12_15  and  N1_16 
REMARK       I    between atoms: N1_16  and  C13_18 
REMARK    5  A    between atoms: C13_18  and  C14_20 
REMARK    6  A    between atoms: C14_20  and  N2_21 
REMARK    7  A    between atoms: N2_21  and  N3_22 
REMARK       I    between atoms: N2_21  and  C19_28 
REMARK    8  A    between atoms: N3_22  and  C15_24 
REMARK    9  A    between atoms: C19_28  and  C20_30 
ROOT
HETATM    1  C1  UNL     1      30.417 164.731 151.973  1.00  0.00     0.015 C 
HETATM    2  C2  UNL     1      29.739 164.198 151.143  1.00  0.00    -0.079 C 
HETATM    3  C3  UNL     1      28.919 163.526 150.134  1.00  0.00     0.125 C 
HETATM    4  C4  UNL     1      29.304 162.069 149.972  1.00  0.00     0.061 C 
HETATM    5  C5  UNL     1      29.218 164.191 148.788  1.00  0.00     0.061 C 
ENDROOT
BRANCH   3   6
HETATM    6  O1  UNL     1      27.563 163.592 150.445  1.00  0.00    -0.294 OA
BRANCH   6   7
HETATM    7  C6  UNL     1      26.843 164.620 150.953  1.00  0.00     0.297 C 
HETATM    8  O2  UNL     1      26.438 164.433 152.163  1.00  0.00    -0.259 OA
BRANCH   7   9
HETATM    9  C7  UNL     1      26.482 165.878 150.333  1.00  0.00     0.068 A 
HETATM   10  C8  UNL     1      27.202 167.013 150.726  1.00  0.00     0.044 A 
HETATM   11  C9  UNL     1      26.993 168.232 150.128  1.00  0.00     0.035 A 
HETATM   12 CL1  UNL     1      27.907 169.640 150.639  1.00  0.00    -0.084 Cl
HETATM   13  C10 UNL     1      26.070 168.381 149.122  1.00  0.00     0.026 A 
HETATM   14  C11 UNL     1      25.350 167.278 148.722  1.00  0.00     0.032 A 
HETATM   15  C12 UNL     1      25.542 166.022 149.317  1.00  0.00     0.051 A 
BRANCH  15  16
HETATM   16  N1  UNL     1      24.733 164.928 148.986  1.00  0.00    -0.325 N 
HETATM   17  C13 UNL     1      24.516 164.316 147.740  1.00  0.00     0.242 C 
HETATM   18  O3  UNL     1      25.085 164.710 146.715  1.00  0.00    -0.271 OA
ATOM     19  H1  UNL     1      24.226 164.513 149.767  1.00  0.00     0.169 HD
BRANCH  17  20
HETATM   20  C14 UNL     1      23.587 163.164 147.626  1.00  0.00     0.254 C 
BRANCH  20  21
HETATM   21  N2  UNL     1      23.755 162.479 146.319  1.00  0.00    -0.256 N 
HETATM   22  C19 UNL     1      22.568 162.273 145.612  1.00  0.00     0.237 C 
HETATM   23  O4  UNL     1      22.562 161.721 144.493  1.00  0.00    -0.272 OA
BRANCH  21  24
HETATM   24  N3  UNL     1      25.045 162.160 146.034  1.00  0.00    -0.322 N 
ATOM     25  H3  UNL     1      25.582 162.811 145.461  1.00  0.00     0.181 HD
BRANCH  24  26
HETATM   26  C15 UNL     1      25.680 161.007 146.474  1.00  0.00     0.035 C 
HETATM   27  C16 UNL     1      25.068 160.469 147.753  1.00  0.00     0.039 C 
HETATM   28  C17 UNL     1      27.192 161.150 146.643  1.00  0.00     0.039 C 
HETATM   29  C18 UNL     1      25.506 159.929 145.390  1.00  0.00     0.039 C 
ENDBRANCH  24  26
ENDBRANCH  21  24
BRANCH  22  30
HETATM   30  C20 UNL     1      21.252 162.693 146.146  1.00  0.00     0.100 C 
HETATM   31  C21 UNL     1      20.322 163.075 145.014  1.00  0.00     0.014 C 
ENDBRANCH  22  30
ENDBRANCH  20  21
ENDBRANCH  17  20
ENDBRANCH  15  16
ENDBRANCH   7   9
ENDBRANCH   6   7
ENDBRANCH   3   6
TORSDOF 9
ENDMDL
MODEL 4
REMARK VINA RESULT: -7.850668742      1.118      2.998
REMARK  9 active torsions:
REMARK  status: ('A' for Active; 'I' for Inactive)
REMARK    1  A    between atoms: C3_3  and  O1_6 
REMARK    2  A    between atoms: O1_6  and  C6_7 
REMARK    3  A    between atoms: C6_7  and  C7_9 
REMARK    4  A    between atoms: C12_15  and  N1_16 
REMARK       I    between atoms: N1_16  and  C13_18 
REMARK    5  A    between atoms: C13_18  and  C14_20 
REMARK    6  A    between atoms: C14_20  and  N2_21 
REMARK    7  A    between atoms: N2_21  and  N3_22 
REMARK       I    between atoms: N2_21  and  C19_28 
REMARK    8  A    between atoms: N3_22  and  C15_24 
REMARK    9  A    between atoms: C19_28  and  C20_30 
ROOT
HETATM    1  C1  UNL     1      29.939 165.591 153.383  1.00  0.00     0.015 C 
HETATM    2  C2  UNL     1      29.697 164.988 152.379  1.00  0.00    -0.079 C 
HETATM    3  C3  UNL     1      29.410 164.232 151.159  1.00  0.00     0.125 C 
HETATM    4  C4  UNL     1      30.130 162.898 151.140  1.00  0.00     0.061 C 
HETATM    5  C5  UNL     1      29.979 165.031 149.984  1.00  0.00     0.061 C 
ENDROOT
BRANCH   3   6
HETATM    6  O1  UNL     1      28.046 163.999 151.004  1.00  0.00    -0.294 OA
BRANCH   6   7
HETATM    7  C6  UNL     1      26.997 164.814 151.267  1.00  0.00     0.297 C 
HETATM    8  O2  UNL     1      26.263 164.426 152.254  1.00  0.00    -0.259 OA
BRANCH   7   9
HETATM    9  C7  UNL     1      26.603 166.040 150.605  1.00  0.00     0.068 A 
HETATM   10  C8  UNL     1      27.136 167.236 151.106  1.00  0.00     0.044 A 
HETATM   11  C9  UNL     1      26.893 168.438 150.488  1.00  0.00     0.035 A 
HETATM   12 CL1  UNL     1      27.569 169.922 151.136  1.00  0.00    -0.084 Cl
HETATM   13  C10 UNL     1      26.118 168.512 149.356  1.00  0.00     0.026 A 
HETATM   14  C11 UNL     1      25.584 167.349 148.849  1.00  0.00     0.032 A 
HETATM   15  C12 UNL     1      25.815 166.108 149.461  1.00  0.00     0.051 A 
BRANCH  15  16
HETATM   16  N1  UNL     1      25.182 164.943 149.009  1.00  0.00    -0.325 N 
HETATM   17  C13 UNL     1      25.078 164.426 147.706  1.00  0.00     0.242 C 
HETATM   18  O3  UNL     1      25.600 164.992 146.739  1.00  0.00    -0.271 OA
ATOM     19  H1  UNL     1      24.728 164.387 149.733  1.00  0.00     0.169 HD
BRANCH  17  20
HETATM   20  C14 UNL     1      24.332 163.167 147.460  1.00  0.00     0.254 C 
BRANCH  20  21
HETATM   21  N2  UNL     1      24.975 162.374 146.382  1.00  0.00    -0.256 N 
HETATM   22  C19 UNL     1      26.153 161.724 146.760  1.00  0.00     0.237 C 
HETATM   23  O4  UNL     1      26.791 161.012 145.959  1.00  0.00    -0.272 OA
BRANCH  21  24
HETATM   24  N3  UNL     1      24.307 162.422 145.200  1.00  0.00    -0.322 N 
ATOM     25  H3  UNL     1      24.564 163.153 144.536  1.00  0.00     0.181 HD
BRANCH  24  26
HETATM   26  C15 UNL     1      23.298 161.541 144.836  1.00  0.00     0.035 C 
HETATM   27  C16 UNL     1      21.950 161.954 145.397  1.00  0.00     0.039 C 
HETATM   28  C17 UNL     1      23.582 160.082 145.192  1.00  0.00     0.039 C 
HETATM   29  C18 UNL     1      23.185 161.558 143.302  1.00  0.00     0.039 C 
ENDBRANCH  24  26
ENDBRANCH  21  24
BRANCH  22  30
HETATM   30  C20 UNL     1      26.711 161.843 148.127  1.00  0.00     0.100 C 
HETATM   31  C21 UNL     1      28.113 162.414 148.074  1.00  0.00     0.014 C 
ENDBRANCH  22  30
ENDBRANCH  20  21
ENDBRANCH  17  20
ENDBRANCH  15  16
ENDBRANCH   7   9
ENDBRANCH   6   7
ENDBRANCH   3   6
TORSDOF 9
ENDMDL
MODEL 5
REMARK VINA RESULT: -7.796825900      0.528      1.113
REMARK  9 active torsions:
REMARK  status: ('A' for Active; 'I' for Inactive)
REMARK    1  A    between atoms: C3_3  and  O1_6 
REMARK    2  A    between atoms: O1_6  and  C6_7 
REMARK    3  A    between atoms: C6_7  and  C7_9 
REMARK    4  A    between atoms: C12_15  and  N1_16 
REMARK       I    between atoms: N1_16  and  C13_18 
REMARK    5  A    between atoms: C13_18  and  C14_20 
REMARK    6  A    between atoms: C14_20  and  N2_21 
REMARK    7  A    between atoms: N2_21  and  N3_22 
REMARK       I    between atoms: N2_21  and  C19_28 
REMARK    8  A    between atoms: N3_22  and  C15_24 
REMARK    9  A    between atoms: C19_28  and  C20_30 
ROOT
HETATM    1  C1  UNL     1      29.658 167.869 153.293  1.00  0.00     0.015 C 
HETATM    2  C2  UNL     1      29.426 166.705 153.140  1.00  0.00    -0.079 C 
HETATM    3  C3  UNL     1      29.129 165.282 152.971  1.00  0.00     0.125 C 
HETATM    4  C4  UNL     1      28.383 164.715 154.162  1.00  0.00     0.061 C 
HETATM    5  C5  UNL     1      30.467 164.540 152.922  1.00  0.00     0.061 C 
ENDROOT
BRANCH   3   6
HETATM    6  O1  UNL     1      28.374 165.045 151.825  1.00  0.00    -0.294 OA
BRANCH   6   7
HETATM    7  C6  UNL     1      27.101 165.407 151.541  1.00  0.00     0.297 C 
HETATM    8  O2  UNL     1      26.212 164.556 151.929  1.00  0.00    -0.259 OA
BRANCH   7   9
HETATM    9  C7  UNL     1      26.614 166.600 150.880  1.00  0.00     0.068 A 
HETATM   10  C8  UNL     1      26.954 167.832 151.454  1.00  0.00     0.044 A 
HETATM   11  C9  UNL     1      26.616 169.018 150.849  1.00  0.00     0.035 A 
HETATM   12 CL1  UNL     1      27.050 170.548 151.591  1.00  0.00    -0.084 Cl
HETATM   13  C10 UNL     1      25.933 169.038 149.658  1.00  0.00     0.026 A 
HETATM   14  C11 UNL     1      25.588 167.839 149.077  1.00  0.00     0.032 A 
HETATM   15  C12 UNL     1      25.919 166.613 149.675  1.00  0.00     0.051 A 
BRANCH  15  16
HETATM   16  N1  UNL     1      25.473 165.398 149.140  1.00  0.00    -0.325 N 
HETATM   17  C13 UNL     1      25.267 165.028 147.801  1.00  0.00     0.242 C 
HETATM   18  O3  UNL     1      25.498 165.808 146.869  1.00  0.00    -0.271 OA
ATOM     19  H1  UNL     1      25.265 164.673 149.827  1.00  0.00     0.169 HD
BRANCH  17  20
HETATM   20  C14 UNL     1      24.763 163.672 147.469  1.00  0.00     0.254 C 
BRANCH  20  21
HETATM   21  N2  UNL     1      25.866 162.805 146.981  1.00  0.00    -0.256 N 
HETATM   22  C19 UNL     1      25.471 161.521 146.596  1.00  0.00     0.237 C 
HETATM   23  O4  UNL     1      26.290 160.691 146.153  1.00  0.00    -0.272 OA
BRANCH  21  24
HETATM   24  N3  UNL     1      27.081 163.411 146.998  1.00  0.00    -0.322 N 
ATOM     25  H3  UNL     1      27.251 164.159 146.326  1.00  0.00     0.181 HD
BRANCH  24  26
HETATM   26  C15 UNL     1      28.108 163.077 147.870  1.00  0.00     0.035 C 
HETATM   27  C16 UNL     1      29.052 162.048 147.277  1.00  0.00     0.039 C 
HETATM   28  C17 UNL     1      27.634 162.612 149.247  1.00  0.00     0.039 C 
HETATM   29  C18 UNL     1      28.928 164.350 148.145  1.00  0.00     0.039 C 
ENDBRANCH  24  26
ENDBRANCH  21  24
BRANCH  22  30
HETATM   30  C20 UNL     1      24.063 161.070 146.693  1.00  0.00     0.100 C 
HETATM   31  C21 UNL     1      23.615 160.460 145.381  1.00  0.00     0.014 C 
ENDBRANCH  22  30
ENDBRANCH  20  21
ENDBRANCH  17  20
ENDBRANCH  15  16
ENDBRANCH   7   9
ENDBRANCH   6   7
ENDBRANCH   3   6
TORSDOF 9
ENDMDL
