MODEL 1
REMARK VINA RESULT: -8.618508249      0.000      0.000
REMARK  8 active torsions:
REMARK  status: ('A' for Active; 'I' for Inactive)
REMARK    1  A    between atoms: C2_2  and  C3_3 
REMARK    2  A    between atoms: C6_7  and  C7_8 
REMARK    3  A    between atoms: C10_11  and  C11_12 
REMARK    4  A    between atoms: C11_12  and  N1_13 
REMARK    5  A    between atoms: C11_12  and  C15_21 
REMARK    6  A    between atoms: N1_13  and  C12_15 
REMARK    7  A    between atoms: C12_15  and  O1_16 
REMARK    8  A    between atoms: C12_15  and  C13_18 
REMARK       I    between atoms: C15_21  and  N3_23 
ROOT
HETATM    1  C13 UNL     1      25.967 168.061 149.792  1.00  0.00     0.207 C 
HETATM    2  C14 UNL     1      26.569 168.117 151.145  1.00  0.00     0.067 C 
HETATM    3  N2  UNL     1      27.043 168.137 152.220  1.00  0.00    -0.197 NA
ENDROOT
BRANCH   1   4
HETATM    4  C12 UNL     1      25.866 166.689 149.323  1.00  0.00     0.125 C 
BRANCH   4   5
HETATM    5  N1  UNL     1      26.131 165.515 150.032  1.00  0.00    -0.356 N 
ATOM      6  H1  UNL     1      25.430 165.089 150.637  1.00  0.00     0.162 HD
BRANCH   5   7
HETATM    7  C11 UNL     1      27.477 164.914 149.868  1.00  0.00     0.210 C 
BRANCH   7   8
HETATM    8  C10 UNL     1      27.907 164.805 151.285  1.00  0.00    -0.014 A 
HETATM    9  C3  UNL     1      29.157 165.101 151.735  1.00  0.00    -0.006 A 
HETATM   10  C4  UNL     1      29.449 164.850 153.101  1.00  0.00     0.045 A 
HETATM   11 CL1  UNL     1      31.060 165.086 153.726  1.00  0.00    -0.083 Cl
HETATM   12  C5  UNL     1      28.511 164.325 153.952  1.00  0.00     0.031 A 
HETATM   13  C6  UNL     1      27.255 164.023 153.504  1.00  0.00    -0.056 A 
HETATM   14  C9  UNL     1      26.965 164.270 152.169  1.00  0.00     0.017 A 
BRANCH   9  15
HETATM   15  C2  UNL     1      30.185 165.662 150.927  1.00  0.00     0.003 C 
HETATM   16  C1  UNL     1      30.864 165.047 149.984  1.00  0.00     0.012 C 
ENDBRANCH   9  15
BRANCH  13  17
HETATM   17  C7  UNL     1      26.256 163.419 154.415  1.00  0.00     0.034 C 
HETATM   18  C8  UNL     1      26.698 163.435 155.855  1.00  0.00     0.010 C 
ENDBRANCH  13  17
ENDBRANCH   7   8
BRANCH   7  19
HETATM   19  C15 UNL     1      27.495 163.707 149.056  1.00  0.00     0.250 C 
HETATM   20  O2  UNL     1      28.263 162.752 149.239  1.00  0.00    -0.270 OA
HETATM   21  N3  UNL     1      26.584 163.618 148.018  1.00  0.00    -0.313 N 
HETATM   22  C16 UNL     1      25.780 162.902 147.451  1.00  0.00     0.103 C 
ATOM     23  H3  UNL     1      26.588 164.515 147.532  1.00  0.00     0.170 HD
HETATM   24  C17 UNL     1      25.072 163.524 146.262  1.00  0.00     0.245 C 
HETATM   25  N4  UNL     1      25.469 161.560 147.807  1.00  0.00    -0.375 N 
HETATM   26  O3  UNL     1      24.512 162.643 145.426  1.00  0.00    -0.372 OA
HETATM   27  C18 UNL     1      24.087 161.430 145.874  1.00  0.00     0.070 C 
HETATM   28  C19 UNL     1      22.766 161.404 146.567  1.00  0.00     0.047 C 
HETATM   29  C20 UNL     1      23.932 160.555 144.607  1.00  0.00     0.047 C 
HETATM   30  C21 UNL     1      25.077 160.667 146.735  1.00  0.00     0.158 C 
ATOM     31  H4  UNL     1      25.520 161.241 148.774  1.00  0.00     0.160 HD
ENDBRANCH   7  19
ENDBRANCH   5   7
ENDBRANCH   4   5
BRANCH   4  32
HETATM   32  O1  UNL     1      25.493 166.561 148.074  1.00  0.00    -0.349 OA
ATOM     33  H1  UNL     1      24.904 167.221 147.729  1.00  0.00     0.219 HD
ENDBRANCH   4  32
ENDBRANCH   1   4
TORSDOF 8
ENDMDL
MODEL 2
REMARK VINA RESULT: -8.060316946      1.033      1.434
REMARK  8 active torsions:
REMARK  status: ('A' for Active; 'I' for Inactive)
REMARK    1  A    between atoms: C2_2  and  C3_3 
REMARK    2  A    between atoms: C6_7  and  C7_8 
REMARK    3  A    between atoms: C10_11  and  C11_12 
REMARK    4  A    between atoms: C11_12  and  N1_13 
REMARK    5  A    between atoms: C11_12  and  C15_21 
REMARK    6  A    between atoms: N1_13  and  C12_15 
REMARK    7  A    between atoms: C12_15  and  O1_16 
REMARK    8  A    between atoms: C12_15  and  C13_18 
REMARK       I    between atoms: C15_21  and  N3_23 
ROOT
HETATM    1  C13 UNL     1      25.920 167.649 149.340  1.00  0.00     0.207 C 
HETATM    2  C14 UNL     1      25.481 167.188 148.002  1.00  0.00     0.067 C 
HETATM    3  N2  UNL     1      25.130 166.799 146.949  1.00  0.00    -0.197 NA
ENDROOT
BRANCH   1   4
HETATM    4  C12 UNL     1      25.591 166.670 150.361  1.00  0.00     0.125 C 
BRANCH   4   5
HETATM    5  N1  UNL     1      25.847 165.296 150.352  1.00  0.00    -0.356 N 
ATOM      6  H1  UNL     1      25.104 164.615 150.510  1.00  0.00     0.162 HD
BRANCH   5   7
HETATM    7  C11 UNL     1      27.245 164.869 150.103  1.00  0.00     0.210 C 
BRANCH   7   8
HETATM    8  C10 UNL     1      27.758 164.774 151.494  1.00  0.00    -0.014 A 
HETATM    9  C3  UNL     1      29.028 165.087 151.869  1.00  0.00    -0.006 A 
HETATM   10  C4  UNL     1      29.402 164.847 153.217  1.00  0.00     0.045 A 
HETATM   11 CL1  UNL     1      31.043 165.105 153.746  1.00  0.00    -0.083 Cl
HETATM   12  C5  UNL     1      28.521 164.318 154.124  1.00  0.00     0.031 A 
HETATM   13  C6  UNL     1      27.245 163.999 153.752  1.00  0.00    -0.056 A 
HETATM   14  C9  UNL     1      26.875 164.234 152.435  1.00  0.00     0.017 A 
BRANCH   9  15
HETATM   15  C2  UNL     1      30.002 165.654 150.999  1.00  0.00     0.003 C 
HETATM   16  C1  UNL     1      30.763 165.005 150.146  1.00  0.00     0.012 C 
ENDBRANCH   9  15
BRANCH  13  17
HETATM   17  C7  UNL     1      26.306 163.390 154.722  1.00  0.00     0.034 C 
HETATM   18  C8  UNL     1      26.843 163.395 156.130  1.00  0.00     0.010 C 
ENDBRANCH  13  17
ENDBRANCH   7   8
BRANCH   7  19
HETATM   19  C15 UNL     1      27.368 163.696 149.251  1.00  0.00     0.250 C 
HETATM   20  O2  UNL     1      28.180 162.780 149.434  1.00  0.00    -0.270 OA
HETATM   21  N3  UNL     1      26.508 163.597 148.170  1.00  0.00    -0.313 N 
HETATM   22  C16 UNL     1      25.771 162.859 147.543  1.00  0.00     0.103 C 
ATOM     23  H3  UNL     1      26.481 164.510 147.718  1.00  0.00     0.170 HD
HETATM   24  C17 UNL     1      25.080 163.486 146.347  1.00  0.00     0.245 C 
HETATM   25  N4  UNL     1      25.523 161.489 147.837  1.00  0.00    -0.375 N 
HETATM   26  O3  UNL     1      24.608 162.607 145.456  1.00  0.00    -0.372 OA
HETATM   27  C18 UNL     1      24.235 161.356 145.841  1.00  0.00     0.070 C 
HETATM   28  C19 UNL     1      22.889 161.230 146.473  1.00  0.00     0.047 C 
HETATM   29  C20 UNL     1      24.185 160.523 144.537  1.00  0.00     0.047 C 
HETATM   30  C21 UNL     1      25.229 160.618 146.717  1.00  0.00     0.158 C 
ATOM     31  H4  UNL     1      25.551 161.137 148.793  1.00  0.00     0.160 HD
ENDBRANCH   7  19
ENDBRANCH   5   7
ENDBRANCH   4   5
BRANCH   4  32
HETATM   32  O1  UNL     1      24.963 167.153 151.404  1.00  0.00    -0.349 OA
ATOM     33  H1  UNL     1      24.974 166.629 152.197  1.00  0.00     0.219 HD
ENDBRANCH   4  32
ENDBRANCH   1   4
TORSDOF 8
ENDMDL
MODEL 3
REMARK VINA RESULT: -7.772261786      2.017      2.569
REMARK  8 active torsions:
REMARK  status: ('A' for Active; 'I' for Inactive)
REMARK    1  A    between atoms: C2_2  and  C3_3 
REMARK    2  A    between atoms: C6_7  and  C7_8 
REMARK    3  A    between atoms: C10_11  and  C11_12 
REMARK    4  A    between atoms: C11_12  and  N1_13 
REMARK    5  A    between atoms: C11_12  and  C15_21 
REMARK    6  A    between atoms: N1_13  and  C12_15 
REMARK    7  A    between atoms: C12_15  and  O1_16 
REMARK    8  A    between atoms: C12_15  and  C13_18 
REMARK       I    between atoms: C15_21  and  N3_23 
ROOT
HETATM    1  C13 UNL     1      27.160 169.331 150.744  1.00  0.00     0.207 C 
HETATM    2  C14 UNL     1      27.739 168.550 151.863  1.00  0.00     0.067 C 
HETATM    3  N2  UNL     1      28.184 167.911 152.743  1.00  0.00    -0.197 NA
ENDROOT
BRANCH   1   4
HETATM    4  C12 UNL     1      26.507 168.458 149.783  1.00  0.00     0.125 C 
BRANCH   4   5
HETATM    5  N1  UNL     1      26.099 167.134 149.961  1.00  0.00    -0.356 N 
ATOM      6  H1  UNL     1      25.502 166.861 150.741  1.00  0.00     0.162 HD
BRANCH   5   7
HETATM    7  C11 UNL     1      26.571 166.140 148.966  1.00  0.00     0.210 C 
BRANCH   7   8
HETATM    8  C10 UNL     1      27.201 165.133 149.857  1.00  0.00    -0.014 A 
HETATM    9  C3  UNL     1      28.120 164.215 149.452  1.00  0.00    -0.006 A 
HETATM   10  C4  UNL     1      28.556 163.250 150.397  1.00  0.00     0.045 A 
HETATM   11 CL1  UNL     1      29.638 161.966 149.924  1.00  0.00    -0.083 Cl
HETATM   12  C5  UNL     1      28.075 163.230 151.680  1.00  0.00     0.031 A 
HETATM   13  C6  UNL     1      27.149 164.148 152.090  1.00  0.00    -0.056 A 
HETATM   14  C9  UNL     1      26.722 165.096 151.171  1.00  0.00     0.017 A 
BRANCH   9  15
HETATM   15  C2  UNL     1      28.685 164.171 148.146  1.00  0.00     0.003 C 
HETATM   16  C1  UNL     1      28.463 163.257 147.227  1.00  0.00     0.012 C 
ENDBRANCH   9  15
BRANCH  13  17
HETATM   17  C7  UNL     1      26.600 164.102 153.465  1.00  0.00     0.034 C 
HETATM   18  C8  UNL     1      27.618 164.478 154.510  1.00  0.00     0.010 C 
ENDBRANCH  13  17
ENDBRANCH   7   8
BRANCH   7  19
HETATM   19  C15 UNL     1      25.542 165.685 148.044  1.00  0.00     0.250 C 
HETATM   20  O2  UNL     1      24.931 166.421 147.257  1.00  0.00    -0.270 OA
HETATM   21  N3  UNL     1      25.235 164.334 148.042  1.00  0.00    -0.313 N 
HETATM   22  C16 UNL     1      25.016 163.360 147.348  1.00  0.00     0.103 C 
ATOM     23  H3  UNL     1      25.164 164.037 149.015  1.00  0.00     0.170 HD
HETATM   24  C17 UNL     1      24.719 162.075 148.097  1.00  0.00     0.245 C 
HETATM   25  N4  UNL     1      25.011 163.339 145.925  1.00  0.00    -0.375 N 
HETATM   26  O3  UNL     1      24.104 161.137 147.368  1.00  0.00    -0.372 OA
HETATM   27  C18 UNL     1      24.276 161.078 146.019  1.00  0.00     0.070 C 
HETATM   28  C19 UNL     1      25.532 160.433 145.538  1.00  0.00     0.047 C 
HETATM   29  C20 UNL     1      23.109 160.208 145.494  1.00  0.00     0.047 C 
HETATM   30  C21 UNL     1      24.119 162.395 145.282  1.00  0.00     0.158 C 
ATOM     31  H4  UNL     1      25.609 163.962 145.382  1.00  0.00     0.160 HD
ENDBRANCH   7  19
ENDBRANCH   5   7
ENDBRANCH   4   5
BRANCH   4  32
HETATM   32  O1  UNL     1      26.298 168.994 148.607  1.00  0.00    -0.349 OA
ATOM     33  H1  UNL     1      25.442 168.862 148.217  1.00  0.00     0.219 HD
ENDBRANCH   4  32
ENDBRANCH   1   4
TORSDOF 8
ENDMDL
MODEL 4
REMARK VINA RESULT: -7.698386344      1.809      2.807
REMARK  8 active torsions:
REMARK  status: ('A' for Active; 'I' for Inactive)
REMARK    1  A    between atoms: C2_2  and  C3_3 
REMARK    2  A    between atoms: C6_7  and  C7_8 
REMARK    3  A    between atoms: C10_11  and  C11_12 
REMARK    4  A    between atoms: C11_12  and  N1_13 
REMARK    5  A    between atoms: C11_12  and  C15_21 
REMARK    6  A    between atoms: N1_13  and  C12_15 
REMARK    7  A    between atoms: C12_15  and  O1_16 
REMARK    8  A    between atoms: C12_15  and  C13_18 
REMARK       I    between atoms: C15_21  and  N3_23 
ROOT
HETATM    1  C13 UNL     1      26.328 168.503 150.104  1.00  0.00     0.207 C 
HETATM    2  C14 UNL     1      26.955 169.451 151.054  1.00  0.00     0.067 C 
HETATM    3  N2  UNL     1      27.443 170.191 151.827  1.00  0.00    -0.197 NA
ENDROOT
BRANCH   1   4
HETATM    4  C12 UNL     1      25.809 167.337 150.798  1.00  0.00     0.125 C 
BRANCH   4   5
HETATM    5  N1  UNL     1      26.297 166.028 150.765  1.00  0.00    -0.356 N 
ATOM      6  H1  UNL     1      25.710 165.235 151.026  1.00  0.00     0.162 HD
BRANCH   5   7
HETATM    7  C11 UNL     1      27.703 165.839 150.334  1.00  0.00     0.210 C 
BRANCH   7   8
HETATM    8  C10 UNL     1      28.398 165.841 151.647  1.00  0.00    -0.014 A 
HETATM    9  C3  UNL     1      28.146 164.962 152.653  1.00  0.00    -0.006 A 
HETATM   10  C4  UNL     1      28.819 165.153 153.888  1.00  0.00     0.045 A 
HETATM   11 CL1  UNL     1      28.459 164.145 155.265  1.00  0.00    -0.083 Cl
HETATM   12  C5  UNL     1      29.698 166.188 154.076  1.00  0.00     0.031 A 
HETATM   13  C6  UNL     1      29.953 167.076 153.068  1.00  0.00    -0.056 A 
HETATM   14  C9  UNL     1      29.299 166.891 151.858  1.00  0.00     0.017 A 
BRANCH   9  15
HETATM   15  C2  UNL     1      27.262 163.852 152.542  1.00  0.00     0.003 C 
HETATM   16  C1  UNL     1      26.334 163.500 153.404  1.00  0.00     0.012 C 
ENDBRANCH   9  15
BRANCH  13  17
HETATM   17  C7  UNL     1      30.873 168.217 153.284  1.00  0.00     0.034 C 
HETATM   18  C8  UNL     1      30.513 169.030 154.501  1.00  0.00     0.010 C 
ENDBRANCH  13  17
ENDBRANCH   7   8
BRANCH   7  19
HETATM   19  C15 UNL     1      27.910 164.697 149.457  1.00  0.00     0.250 C 
HETATM   20  O2  UNL     1      28.867 163.915 149.539  1.00  0.00    -0.270 OA
HETATM   21  N3  UNL     1      26.964 164.465 148.473  1.00  0.00    -0.313 N 
HETATM   22  C16 UNL     1      26.285 163.623 147.917  1.00  0.00     0.103 C 
ATOM     23  H3  UNL     1      26.751 165.363 148.039  1.00  0.00     0.170 HD
HETATM   24  C17 UNL     1      25.382 164.134 146.810  1.00  0.00     0.245 C 
HETATM   25  N4  UNL     1      26.280 162.232 148.216  1.00  0.00    -0.375 N 
HETATM   26  O3  UNL     1      24.956 163.192 145.962  1.00  0.00    -0.372 OA
HETATM   27  C18 UNL     1      24.820 161.900 146.366  1.00  0.00     0.070 C 
HETATM   28  C19 UNL     1      23.585 161.572 147.136  1.00  0.00     0.047 C 
HETATM   29  C20 UNL     1      24.757 161.066 145.064  1.00  0.00     0.047 C 
HETATM   30  C21 UNL     1      26.003 161.323 147.121  1.00  0.00     0.158 C 
ATOM     31  H4  UNL     1      26.463 161.889 149.158  1.00  0.00     0.160 HD
ENDBRANCH   7  19
ENDBRANCH   5   7
ENDBRANCH   4   5
BRANCH   4  32
HETATM   32  O1  UNL     1      24.743 167.558 151.526  1.00  0.00    -0.349 OA
ATOM     33  H1  UNL     1      24.562 166.942 152.226  1.00  0.00     0.219 HD
ENDBRANCH   4  32
ENDBRANCH   1   4
TORSDOF 8
ENDMDL
MODEL 5
REMARK VINA RESULT: -7.461145350      3.824      7.469
REMARK  8 active torsions:
REMARK  status: ('A' for Active; 'I' for Inactive)
REMARK    1  A    between atoms: C2_2  and  C3_3 
REMARK    2  A    between atoms: C6_7  and  C7_8 
REMARK    3  A    between atoms: C10_11  and  C11_12 
REMARK    4  A    between atoms: C11_12  and  N1_13 
REMARK    5  A    between atoms: C11_12  and  C15_21 
REMARK    6  A    between atoms: N1_13  and  C12_15 
REMARK    7  A    between atoms: C12_15  and  O1_16 
REMARK    8  A    between atoms: C12_15  and  C13_18 
REMARK       I    between atoms: C15_21  and  N3_23 
ROOT
HETATM    1  C13 UNL     1      29.418 167.835 153.914  1.00  0.00     0.207 C 
HETATM    2  C14 UNL     1      30.758 168.466 153.963  1.00  0.00     0.067 C 
HETATM    3  N2  UNL     1      31.821 168.968 153.978  1.00  0.00    -0.197 NA
ENDROOT
BRANCH   1   4
HETATM    4  C12 UNL     1      28.833 167.958 152.589  1.00  0.00     0.125 C 
BRANCH   4   5
HETATM    5  N1  UNL     1      28.754 166.986 151.589  1.00  0.00    -0.356 N 
ATOM      6  H1  UNL     1      29.295 167.065 150.727  1.00  0.00     0.162 HD
BRANCH   5   7
HETATM    7  C11 UNL     1      27.850 165.836 151.831  1.00  0.00     0.210 C 
BRANCH   7   8
HETATM    8  C10 UNL     1      27.545 165.424 150.437  1.00  0.00    -0.014 A 
HETATM    9  C3  UNL     1      26.582 165.990 149.661  1.00  0.00    -0.006 A 
HETATM   10  C4  UNL     1      26.337 165.420 148.384  1.00  0.00     0.045 A 
HETATM   11 CL1  UNL     1      25.038 166.008 147.380  1.00  0.00    -0.083 Cl
HETATM   12  C5  UNL     1      27.042 164.334 147.933  1.00  0.00     0.031 A 
HETATM   13  C6  UNL     1      28.010 163.761 148.711  1.00  0.00    -0.056 A 
HETATM   14  C9  UNL     1      28.254 164.316 149.959  1.00  0.00     0.017 A 
BRANCH   9  15
HETATM   15  C2  UNL     1      25.813 167.126 150.041  1.00  0.00     0.003 C 
HETATM   16  C1  UNL     1      26.057 168.378 149.723  1.00  0.00     0.012 C 
ENDBRANCH   9  15
BRANCH  13  17
HETATM   17  C7  UNL     1      28.743 162.563 148.240  1.00  0.00     0.034 C 
HETATM   18  C8  UNL     1      28.150 161.977 146.985  1.00  0.00     0.010 C 
ENDBRANCH  13  17
ENDBRANCH   7   8
BRANCH   7  19
HETATM   19  C15 UNL     1      28.392 164.832 152.734  1.00  0.00     0.250 C 
HETATM   20  O2  UNL     1      29.508 164.308 152.610  1.00  0.00    -0.270 OA
HETATM   21  N3  UNL     1      27.609 164.447 153.809  1.00  0.00    -0.313 N 
HETATM   22  C16 UNL     1      27.595 164.208 155.002  1.00  0.00     0.103 C 
ATOM     23  H3  UNL     1      26.661 164.307 153.460  1.00  0.00     0.170 HD
HETATM   24  C17 UNL     1      26.251 163.797 155.573  1.00  0.00     0.245 C 
HETATM   25  N4  UNL     1      28.717 164.278 155.874  1.00  0.00    -0.375 N 
HETATM   26  O3  UNL     1      26.318 163.168 156.751  1.00  0.00    -0.372 OA
HETATM   27  C18 UNL     1      27.344 163.407 157.612  1.00  0.00     0.070 C 
HETATM   28  C19 UNL     1      27.245 164.647 158.435  1.00  0.00     0.047 C 
HETATM   29  C20 UNL     1      27.332 162.220 158.606  1.00  0.00     0.047 C 
HETATM   30  C21 UNL     1      28.733 163.367 157.001  1.00  0.00     0.158 C 
ATOM     31  H4  UNL     1      29.476 164.939 155.713  1.00  0.00     0.160 HD
ENDBRANCH   7  19
ENDBRANCH   5   7
ENDBRANCH   4   5
BRANCH   4  32
HETATM   32  O1  UNL     1      28.338 169.139 152.314  1.00  0.00    -0.349 OA
ATOM     33  H1  UNL     1      28.022 169.280 151.430  1.00  0.00     0.219 HD
ENDBRANCH   4  32
ENDBRANCH   1   4
TORSDOF 8
ENDMDL
