MODEL 1
REMARK VINA RESULT: -8.144046947      0.000      0.000
REMARK  6 active torsions:
REMARK  status: ('A' for Active; 'I' for Inactive)
REMARK    1  A    between atoms: N1_1  and  C1_4 
REMARK    2  A    between atoms: C4_9  and  N3_10 
REMARK    3  A    between atoms: N3_10  and  C5_12 
REMARK    4  A    between atoms: C5_12  and  C6_13 
REMARK    5  A    between atoms: C12_23  and  C13_24 
REMARK    6  A    between atoms: C14_25  and  C15_26 
ROOT
HETATM    1  C1  UNL     1      14.949  28.745  34.625  1.00  0.00     0.676 A 
HETATM    2  N2  UNL     1      13.623  28.896  34.667  1.00  0.00    -0.201 N 
ATOM      3  H2  UNL     1      13.202  29.646  34.118  1.00  0.00     0.183 HD
HETATM    4  C2  UNL     1      12.807  28.101  35.407  1.00  0.00     0.123 A 
HETATM    5  C3  UNL     1      13.409  27.102  36.134  1.00  0.00     0.052 A 
HETATM    6  C4  UNL     1      12.657  26.241  36.919  1.00  0.00     0.115 A 
HETATM    7  N5  UNL     1      13.249  25.274  37.622  1.00  0.00    -0.350 N 
ATOM      8  H5  UNL     1      12.674  24.653  38.191  1.00  0.00     0.166 HD
HETATM    9  C11 UNL     1      14.597  25.093  37.601  1.00  0.00     0.112 A 
HETATM   10  C12 UNL     1      15.376  25.927  36.835  1.00  0.00     0.061 A 
HETATM   11  C20 UNL     1      14.772  26.928  36.105  1.00  0.00     0.084 A 
HETATM   12  N7  UNL     1      15.517  27.753  35.351  1.00  0.00    -0.190 N 
ATOM     13  H7  UNL     1      16.528  27.630  35.325  1.00  0.00     0.184 HD
ENDROOT
BRANCH   6  14
HETATM   14  N3  UNL     1      11.400  26.415  36.938  1.00  0.00    -0.371 N 
ATOM     15  H3  UNL     1      11.024  27.309  37.256  1.00  0.00     0.161 HD
BRANCH  14  16
HETATM   16  C5  UNL     1      10.494  25.379  36.519  1.00  0.00     0.160 C 
BRANCH  16  17
HETATM   17  C6  UNL     1      10.010  25.722  35.148  1.00  0.00    -0.038 A 
HETATM   18  C7  UNL     1      10.493  24.955  34.110  1.00  0.00     0.025 A 
HETATM   19  C8  UNL     1      10.084  25.228  32.830  1.00  0.00     0.088 A 
HETATM   20  N4  UNL     1       9.214  26.242  32.579  1.00  0.00    -0.375 N 
HETATM   21  C9  UNL     1       8.737  26.995  33.583  1.00  0.00     0.088 A 
ATOM     22  H4  UNL     1       8.921  26.432  31.620  1.00  0.00     0.164 HD
HETATM   23  C10 UNL     1       9.131  26.742  34.880  1.00  0.00     0.025 A 
ENDBRANCH  16  17
ENDBRANCH  14  16
ENDBRANCH   6  14
BRANCH  10  24
HETATM   24  C13 UNL     1      16.823  25.755  36.795  1.00  0.00    -0.058 C 
HETATM   25  C14 UNL     1      18.018  25.608  36.743  1.00  0.00    -0.061 C 
BRANCH  25  26
HETATM   26  C15 UNL     1      19.444  25.419  36.662  1.00  0.00     0.020 A 
HETATM   27  C16 UNL     1      20.254  26.344  36.036  1.00  0.00     0.037 A 
HETATM   28  C17 UNL     1      21.636  26.151  35.963  1.00  0.00     0.089 A 
HETATM   29  N6  UNL     1      22.176  25.044  36.515  1.00  0.00    -0.375 N 
HETATM   30  C18 UNL     1      21.416  24.122  37.133  1.00  0.00     0.089 A 
ATOM     31  H6  UNL     1      23.185  24.903  36.462  1.00  0.00     0.164 HD
HETATM   32  C19 UNL     1      20.055  24.295  37.214  1.00  0.00     0.037 A 
ENDBRANCH  25  26
ENDBRANCH  10  24
BRANCH   1  33
HETATM   33  N1  UNL     1      15.739  29.489  33.930  1.00  0.00    -0.234 N 
ATOM     34  H12 UNL     1      15.592  30.497  33.979  1.00  0.00     0.174 HD
ATOM     35  H11 UNL     1      16.492  29.131  33.343  1.00  0.00     0.174 HD
ENDBRANCH   1  33
TORSDOF 6
ENDMDL
MODEL 2
REMARK VINA RESULT: -7.532593805      3.397      8.781
REMARK  6 active torsions:
REMARK  status: ('A' for Active; 'I' for Inactive)
REMARK    1  A    between atoms: N1_1  and  C1_4 
REMARK    2  A    between atoms: C4_9  and  N3_10 
REMARK    3  A    between atoms: N3_10  and  C5_12 
REMARK    4  A    between atoms: C5_12  and  C6_13 
REMARK    5  A    between atoms: C12_23  and  C13_24 
REMARK    6  A    between atoms: C14_25  and  C15_26 
ROOT
HETATM    1  C1  UNL     1       9.509  24.504  36.142  1.00  0.00     0.676 A 
HETATM    2  N2  UNL     1       9.970  25.639  36.674  1.00  0.00    -0.201 N 
ATOM      3  H2  UNL     1       9.697  25.875  37.628  1.00  0.00     0.183 HD
HETATM    4  C2  UNL     1      10.786  26.496  36.005  1.00  0.00     0.123 A 
HETATM    5  C3  UNL     1      11.132  26.147  34.722  1.00  0.00     0.052 A 
HETATM    6  C4  UNL     1      11.960  26.961  33.962  1.00  0.00     0.115 A 
HETATM    7  N5  UNL     1      12.292  26.614  32.718  1.00  0.00    -0.350 N 
ATOM      8  H5  UNL     1      12.902  27.229  32.179  1.00  0.00     0.166 HD
HETATM    9  C11 UNL     1      11.840  25.466  32.146  1.00  0.00     0.112 A 
HETATM   10  C12 UNL     1      11.017  24.634  32.868  1.00  0.00     0.061 A 
HETATM   11  C20 UNL     1      10.669  24.983  34.155  1.00  0.00     0.084 A 
HETATM   12  N7  UNL     1       9.867  24.184  34.875  1.00  0.00    -0.190 N 
ATOM     13  H7  UNL     1       9.520  23.320  34.461  1.00  0.00     0.184 HD
ENDROOT
BRANCH   6  14
HETATM   14  N3  UNL     1      12.377  28.033  34.499  1.00  0.00    -0.371 N 
ATOM     15  H3  UNL     1      11.713  28.646  34.973  1.00  0.00     0.161 HD
BRANCH  14  16
HETATM   16  C5  UNL     1      13.767  28.402  34.451  1.00  0.00     0.160 C 
BRANCH  16  17
HETATM   17  C6  UNL     1      14.382  28.035  35.762  1.00  0.00    -0.038 A 
HETATM   18  C7  UNL     1      13.723  28.457  36.896  1.00  0.00     0.025 A 
HETATM   19  C8  UNL     1      14.246  28.150  38.126  1.00  0.00     0.088 A 
HETATM   20  N4  UNL     1      15.400  27.441  38.234  1.00  0.00    -0.375 N 
HETATM   21  C9  UNL     1      16.050  27.025  37.135  1.00  0.00     0.088 A 
ATOM     22  H4  UNL     1      15.775  27.223  39.158  1.00  0.00     0.164 HD
HETATM   23  C10 UNL     1      15.547  27.319  35.886  1.00  0.00     0.025 A 
ENDBRANCH  16  17
ENDBRANCH  14  16
ENDBRANCH   6  14
BRANCH  10  24
HETATM   24  C13 UNL     1      10.518  23.397  32.280  1.00  0.00    -0.058 C 
HETATM   25  C14 UNL     1      10.116  22.377  31.778  1.00  0.00    -0.061 C 
BRANCH  25  26
HETATM   26  C15 UNL     1       9.641  21.167  31.157  1.00  0.00     0.020 A 
HETATM   27  C16 UNL     1       9.803  19.940  31.766  1.00  0.00     0.037 A 
HETATM   28  C17 UNL     1       9.339  18.772  31.155  1.00  0.00     0.089 A 
HETATM   29  N6  UNL     1       8.725  18.856  29.955  1.00  0.00    -0.375 N 
HETATM   30  C18 UNL     1       8.551  20.036  29.333  1.00  0.00     0.089 A 
ATOM     31  H6  UNL     1       8.387  18.003  29.509  1.00  0.00     0.164 HD
HETATM   32  C19 UNL     1       9.002  21.195  29.919  1.00  0.00     0.037 A 
ENDBRANCH  25  26
ENDBRANCH  10  24
BRANCH   1  33
HETATM   33  N1  UNL     1       8.736  23.679  36.759  1.00  0.00    -0.234 N 
ATOM     34  H12 UNL     1       8.064  24.075  37.417  1.00  0.00     0.174 HD
ATOM     35  H11 UNL     1       8.759  22.668  36.630  1.00  0.00     0.174 HD
ENDBRANCH   1  33
TORSDOF 6
ENDMDL
MODEL 3
REMARK VINA RESULT: -7.524531705      4.133      7.496
REMARK  6 active torsions:
REMARK  status: ('A' for Active; 'I' for Inactive)
REMARK    1  A    between atoms: N1_1  and  C1_4 
REMARK    2  A    between atoms: C4_9  and  N3_10 
REMARK    3  A    between atoms: N3_10  and  C5_12 
REMARK    4  A    between atoms: C5_12  and  C6_13 
REMARK    5  A    between atoms: C12_23  and  C13_24 
REMARK    6  A    between atoms: C14_25  and  C15_26 
ROOT
HETATM    1  C1  UNL     1      11.229  22.640  32.061  1.00  0.00     0.676 A 
HETATM    2  N2  UNL     1      10.199  21.991  31.512  1.00  0.00    -0.201 N 
ATOM      3  H2  UNL     1      10.370  21.080  31.087  1.00  0.00     0.183 HD
HETATM    4  C2  UNL     1       8.934  22.486  31.491  1.00  0.00     0.123 A 
HETATM    5  C3  UNL     1       8.740  23.716  32.072  1.00  0.00     0.052 A 
HETATM    6  C4  UNL     1       7.483  24.301  32.098  1.00  0.00     0.115 A 
HETATM    7  N5  UNL     1       7.304  25.495  32.664  1.00  0.00    -0.350 N 
ATOM      8  H5  UNL     1       6.369  25.904  32.671  1.00  0.00     0.166 HD
HETATM    9  C11 UNL     1       8.331  26.184  33.232  1.00  0.00     0.112 A 
HETATM   10  C12 UNL     1       9.592  25.636  33.225  1.00  0.00     0.061 A 
HETATM   11  C20 UNL     1       9.786  24.401  32.643  1.00  0.00     0.084 A 
HETATM   12  N7  UNL     1      11.010  23.851  32.627  1.00  0.00    -0.190 N 
ATOM     13  H7  UNL     1      11.790  24.354  33.049  1.00  0.00     0.184 HD
ENDROOT
BRANCH   6  14
HETATM   14  N3  UNL     1       6.528  23.657  31.564  1.00  0.00    -0.371 N 
ATOM     15  H3  UNL     1       6.637  22.658  31.385  1.00  0.00     0.161 HD
BRANCH  14  16
HETATM   16  C5  UNL     1       5.296  24.307  31.206  1.00  0.00     0.160 C 
BRANCH  16  17
HETATM   17  C6  UNL     1       5.297  24.505  29.726  1.00  0.00    -0.038 A 
HETATM   18  C7  UNL     1       4.069  24.526  29.102  1.00  0.00     0.025 A 
HETATM   19  C8  UNL     1       4.013  24.701  27.743  1.00  0.00     0.088 A 
HETATM   20  N4  UNL     1       5.149  24.852  27.012  1.00  0.00    -0.375 N 
HETATM   21  C9  UNL     1       6.351  24.833  27.611  1.00  0.00     0.088 A 
ATOM     22  H4  UNL     1       5.088  24.980  26.002  1.00  0.00     0.164 HD
HETATM   23  C10 UNL     1       6.437  24.659  28.975  1.00  0.00     0.025 A 
ENDBRANCH  16  17
ENDBRANCH  14  16
ENDBRANCH   6  14
BRANCH  10  24
HETATM   24  C13 UNL     1      10.710  26.351  33.827  1.00  0.00    -0.058 C 
HETATM   25  C14 UNL     1      11.632  26.934  34.341  1.00  0.00    -0.061 C 
BRANCH  25  26
HETATM   26  C15 UNL     1      12.725  27.625  34.976  1.00  0.00     0.020 A 
HETATM   27  C16 UNL     1      13.781  28.120  34.241  1.00  0.00     0.037 A 
HETATM   28  C17 UNL     1      14.837  28.788  34.866  1.00  0.00     0.089 A 
HETATM   29  N6  UNL     1      14.814  28.947  36.207  1.00  0.00    -0.375 N 
HETATM   30  C18 UNL     1      13.799  28.477  36.955  1.00  0.00     0.089 A 
ATOM     31  H6  UNL     1      15.584  29.435  36.664  1.00  0.00     0.164 HD
HETATM   32  C19 UNL     1      12.752  27.816  36.356  1.00  0.00     0.037 A 
ENDBRANCH  25  26
ENDBRANCH  10  24
BRANCH   1  33
HETATM   33  N1  UNL     1      12.435  22.188  32.091  1.00  0.00    -0.234 N 
ATOM     34  H12 UNL     1      12.735  21.721  32.947  1.00  0.00     0.174 HD
ATOM     35  H11 UNL     1      13.096  22.269  31.318  1.00  0.00     0.174 HD
ENDBRANCH   1  33
TORSDOF 6
ENDMDL
MODEL 4
REMARK VINA RESULT: -7.493276467      3.081      9.240
REMARK  6 active torsions:
REMARK  status: ('A' for Active; 'I' for Inactive)
REMARK    1  A    between atoms: N1_1  and  C1_4 
REMARK    2  A    between atoms: C4_9  and  N3_10 
REMARK    3  A    between atoms: N3_10  and  C5_12 
REMARK    4  A    between atoms: C5_12  and  C6_13 
REMARK    5  A    between atoms: C12_23  and  C13_24 
REMARK    6  A    between atoms: C14_25  and  C15_26 
ROOT
HETATM    1  C1  UNL     1      10.982  25.502  33.076  1.00  0.00     0.676 A 
HETATM    2  N2  UNL     1      12.162  26.111  32.925  1.00  0.00    -0.201 N 
ATOM      3  H2  UNL     1      12.682  25.953  32.062  1.00  0.00     0.183 HD
HETATM    4  C2  UNL     1      12.702  26.929  33.865  1.00  0.00     0.123 A 
HETATM    5  C3  UNL     1      11.974  27.117  35.015  1.00  0.00     0.052 A 
HETATM    6  C4  UNL     1      12.446  27.935  36.031  1.00  0.00     0.115 A 
HETATM    7  N5  UNL     1      11.733  28.111  37.144  1.00  0.00    -0.350 N 
ATOM      8  H5  UNL     1      12.101  28.718  37.876  1.00  0.00     0.166 HD
HETATM    9  C11 UNL     1      10.528  27.507  37.330  1.00  0.00     0.112 A 
HETATM   10  C12 UNL     1      10.027  26.689  36.345  1.00  0.00     0.061 A 
HETATM   11  C20 UNL     1      10.758  26.501  35.191  1.00  0.00     0.084 A 
HETATM   12  N7  UNL     1      10.285  25.705  34.219  1.00  0.00    -0.190 N 
ATOM     13  H7  UNL     1       9.384  25.245  34.343  1.00  0.00     0.184 HD
ENDROOT
BRANCH   6  14
HETATM   14  N3  UNL     1      13.572  28.494  35.854  1.00  0.00    -0.371 N 
ATOM     15  H3  UNL     1      13.832  28.809  34.920  1.00  0.00     0.161 HD
BRANCH  14  16
HETATM   16  C5  UNL     1      14.487  28.693  36.946  1.00  0.00     0.160 C 
BRANCH  16  17
HETATM   17  C6  UNL     1      15.428  27.534  36.971  1.00  0.00    -0.038 A 
HETATM   18  C7  UNL     1      15.423  26.756  38.108  1.00  0.00     0.025 A 
HETATM   19  C8  UNL     1      16.270  25.680  38.185  1.00  0.00     0.088 A 
HETATM   20  N4  UNL     1      17.107  25.378  37.158  1.00  0.00    -0.375 N 
HETATM   21  C9  UNL     1      17.120  26.129  36.046  1.00  0.00     0.088 A 
ATOM     22  H4  UNL     1      17.731  24.574  37.234  1.00  0.00     0.164 HD
HETATM   23  C10 UNL     1      16.279  27.217  35.941  1.00  0.00     0.025 A 
ENDBRANCH  16  17
ENDBRANCH  14  16
ENDBRANCH   6  14
BRANCH  10  24
HETATM   24  C13 UNL     1       8.740  26.029  36.518  1.00  0.00    -0.058 C 
HETATM   25  C14 UNL     1       7.665  25.499  36.657  1.00  0.00    -0.061 C 
BRANCH  25  26
HETATM   26  C15 UNL     1       6.372  24.886  36.824  1.00  0.00     0.020 A 
HETATM   27  C16 UNL     1       5.671  24.390  35.745  1.00  0.00     0.037 A 
HETATM   28  C17 UNL     1       4.417  23.798  35.919  1.00  0.00     0.089 A 
HETATM   29  N6  UNL     1       3.894  23.715  37.161  1.00  0.00    -0.375 N 
HETATM   30  C18 UNL     1       4.550  24.190  38.235  1.00  0.00     0.089 A 
ATOM     31  H6  UNL     1       2.978  23.283  37.288  1.00  0.00     0.164 HD
HETATM   32  C19 UNL     1       5.785  24.776  38.083  1.00  0.00     0.037 A 
ENDBRANCH  25  26
ENDBRANCH  10  24
BRANCH   1  33
HETATM   33  N1  UNL     1      10.453  24.724  32.196  1.00  0.00    -0.234 N 
ATOM     34  H12 UNL     1      10.880  24.711  31.270  1.00  0.00     0.174 HD
ATOM     35  H11 UNL     1       9.644  24.129  32.372  1.00  0.00     0.174 HD
ENDBRANCH   1  33
TORSDOF 6
ENDMDL
MODEL 5
REMARK VINA RESULT: -7.490104379      2.999      9.744
REMARK  6 active torsions:
REMARK  status: ('A' for Active; 'I' for Inactive)
REMARK    1  A    between atoms: N1_1  and  C1_4 
REMARK    2  A    between atoms: C4_9  and  N3_10 
REMARK    3  A    between atoms: N3_10  and  C5_12 
REMARK    4  A    between atoms: C5_12  and  C6_13 
REMARK    5  A    between atoms: C12_23  and  C13_24 
REMARK    6  A    between atoms: C14_25  and  C15_26 
ROOT
HETATM    1  C1  UNL     1       9.210  24.781  36.558  1.00  0.00     0.676 A 
HETATM    2  N2  UNL     1      10.120  25.462  37.259  1.00  0.00    -0.201 N 
ATOM      3  H2  UNL     1      10.211  25.267  38.256  1.00  0.00     0.183 HD
HETATM    4  C2  UNL     1      10.932  26.402  36.708  1.00  0.00     0.123 A 
HETATM    5  C3  UNL     1      10.781  26.639  35.363  1.00  0.00     0.052 A 
HETATM    6  C4  UNL     1      11.565  27.582  34.714  1.00  0.00     0.115 A 
HETATM    7  N5  UNL     1      11.412  27.805  33.408  1.00  0.00    -0.350 N 
ATOM      8  H5  UNL     1      12.001  28.503  32.953  1.00  0.00     0.166 HD
HETATM    9  C11 UNL     1      10.495  27.130  32.665  1.00  0.00     0.112 A 
HETATM   10  C12 UNL     1       9.699  26.188  33.273  1.00  0.00     0.061 A 
HETATM   11  C20 UNL     1       9.850  25.950  34.622  1.00  0.00     0.084 A 
HETATM   12  N7  UNL     1       9.082  25.034  35.233  1.00  0.00    -0.190 N 
ATOM     13  H7  UNL     1       8.390  24.519  34.690  1.00  0.00     0.184 HD
ENDROOT
BRANCH   6  14
HETATM   14  N3  UNL     1      12.418  28.212  35.412  1.00  0.00    -0.371 N 
ATOM     15  H3  UNL     1      12.135  28.609  36.308  1.00  0.00     0.161 HD
BRANCH  14  16
HETATM   16  C5  UNL     1      13.775  28.378  34.963  1.00  0.00     0.160 C 
BRANCH  16  17
HETATM   17  C6  UNL     1      14.674  27.791  36.001  1.00  0.00    -0.038 A 
HETATM   18  C7  UNL     1      14.271  27.915  37.313  1.00  0.00     0.025 A 
HETATM   19  C8  UNL     1      15.061  27.397  38.307  1.00  0.00     0.088 A 
HETATM   20  N4  UNL     1      16.229  26.767  38.011  1.00  0.00    -0.375 N 
HETATM   21  C9  UNL     1      16.630  26.640  36.735  1.00  0.00     0.088 A 
ATOM     22  H4  UNL     1      16.805  26.388  38.763  1.00  0.00     0.164 HD
HETATM   23  C10 UNL     1      15.855  27.151  35.717  1.00  0.00     0.025 A 
ENDBRANCH  16  17
ENDBRANCH  14  16
ENDBRANCH   6  14
BRANCH  10  24
HETATM   24  C13 UNL     1       8.708  25.450  32.501  1.00  0.00    -0.058 C 
HETATM   25  C14 UNL     1       7.896  24.822  31.867  1.00  0.00    -0.061 C 
BRANCH  25  26
HETATM   26  C15 UNL     1       6.940  24.055  31.111  1.00  0.00     0.020 A 
HETATM   27  C16 UNL     1       6.353  22.924  31.638  1.00  0.00     0.037 A 
HETATM   28  C17 UNL     1       5.427  22.187  30.895  1.00  0.00     0.089 A 
HETATM   29  N6  UNL     1       5.110  22.594  29.647  1.00  0.00    -0.375 N 
HETATM   30  C18 UNL     1       5.664  23.692  29.102  1.00  0.00     0.089 A 
ATOM     31  H6  UNL     1       4.434  22.056  29.105  1.00  0.00     0.164 HD
HETATM   32  C19 UNL     1       6.577  24.429  29.818  1.00  0.00     0.037 A 
ENDBRANCH  25  26
ENDBRANCH  10  24
BRANCH   1  33
HETATM   33  N1  UNL     1       8.432  23.886  37.061  1.00  0.00    -0.234 N 
ATOM     34  H12 UNL     1       7.752  24.198  37.755  1.00  0.00     0.174 HD
ATOM     35  H11 UNL     1       8.458  22.898  36.809  1.00  0.00     0.174 HD
ENDBRANCH   1  33
TORSDOF 6
ENDMDL
