MODEL 1
REMARK VINA RESULT: -6.899324070      0.000      0.000
REMARK  11 active torsions:
REMARK  status: ('A' for Active; 'I' for Inactive)
REMARK    1  A    between atoms: C2_2  and  C3_3 
REMARK    2  A    between atoms: C3_3  and  C4_4 
REMARK    3  A    between atoms: C4_4  and  O1_5 
REMARK    4  A    between atoms: C4_4  and  C12_18 
REMARK    5  A    between atoms: O1_5  and  C5_6 
REMARK    6  A    between atoms: C5_6  and  C6_7 
REMARK    7  A    between atoms: C6_7  and  O2_8 
REMARK    8  A    between atoms: C6_7  and  C7_10 
REMARK    9  A    between atoms: C7_10  and  N1_11 
REMARK   10  A    between atoms: N1_11  and  C8_14 
REMARK   11  A    between atoms: C8_14  and  C9_15 
ROOT
HETATM    1  C6  UNL     1     -11.572  -5.266  33.899  1.00  0.00     0.167 C 
ENDROOT
BRANCH   1   2
HETATM    2  C5  UNL     1     -12.999  -4.942  33.504  1.00  0.00     0.201 C 
BRANCH   2   3
HETATM    3  O1  UNL     1     -13.625  -4.445  34.618  1.00  0.00    -0.383 OA
BRANCH   3   4
HETATM    4  C4  UNL     1     -13.689  -3.042  34.660  1.00  0.00     0.129 C 
BRANCH   4   5
HETATM    5  C3  UNL     1     -14.486  -2.620  33.484  1.00  0.00     0.058 C 
BRANCH   5   6
HETATM    6  C2  UNL     1     -14.044  -1.400  32.789  1.00  0.00    -0.034 C 
HETATM    7  C1  UNL     1     -14.625  -0.245  33.063  1.00  0.00     0.007 C 
ENDBRANCH   5   6
ENDBRANCH   4   5
BRANCH   4   8
HETATM    8  C12 UNL     1     -14.013  -2.532  35.997  1.00  0.00     0.015 C 
HETATM    9  C13 UNL     1     -15.311  -1.937  36.345  1.00  0.00     0.007 C 
HETATM   10  C14 UNL     1     -15.359  -2.796  37.615  1.00  0.00     0.001 C 
HETATM   11  C15 UNL     1     -14.171  -3.570  37.095  1.00  0.00     0.007 C 
ENDBRANCH   4   8
ENDBRANCH   3   4
ENDBRANCH   2   3
ENDBRANCH   1   2
BRANCH   1  12
HETATM   12  O2  UNL     1     -10.681  -4.276  33.550  1.00  0.00    -0.392 OA
ATOM     13  H2  UNL     1     -10.283  -4.418  32.699  1.00  0.00     0.210 HD
ENDBRANCH   1  12
BRANCH   1  14
HETATM   14  C7  UNL     1     -11.229  -6.606  33.280  1.00  0.00     0.265 C 
BRANCH  14  15
HETATM   15  N1  UNL     1     -11.602  -6.636  31.879  1.00  0.00    -0.072 N 
ATOM     16  H12 UNL     1     -12.598  -6.464  31.742  1.00  0.00     0.277 HD
ATOM     17  H11 UNL     1     -11.243  -5.831  31.366  1.00  0.00     0.277 HD
BRANCH  15  18
HETATM   18  C8  UNL     1     -11.182  -7.879  31.301  1.00  0.00     0.236 C 
BRANCH  18  19
HETATM   19  C9  UNL     1     -11.888  -8.033  29.955  1.00  0.00     0.003 C 
HETATM   20  C10 UNL     1     -12.049  -9.503  29.629  1.00  0.00     0.011 C 
HETATM   21  C11 UNL     1     -11.056  -7.358  28.913  1.00  0.00     0.011 C 
ENDBRANCH  18  19
ENDBRANCH  15  18
ENDBRANCH  14  15
ENDBRANCH   1  14
TORSDOF 11
ENDMDL
MODEL 2
REMARK VINA RESULT: -6.892202123      0.779      2.656
REMARK  11 active torsions:
REMARK  status: ('A' for Active; 'I' for Inactive)
REMARK    1  A    between atoms: C2_2  and  C3_3 
REMARK    2  A    between atoms: C3_3  and  C4_4 
REMARK    3  A    between atoms: C4_4  and  O1_5 
REMARK    4  A    between atoms: C4_4  and  C12_18 
REMARK    5  A    between atoms: O1_5  and  C5_6 
REMARK    6  A    between atoms: C5_6  and  C6_7 
REMARK    7  A    between atoms: C6_7  and  O2_8 
REMARK    8  A    between atoms: C6_7  and  C7_10 
REMARK    9  A    between atoms: C7_10  and  N1_11 
REMARK   10  A    between atoms: N1_11  and  C8_14 
REMARK   11  A    between atoms: C8_14  and  C9_15 
ROOT
HETATM    1  C6  UNL     1     -11.091  -5.410  33.605  1.00  0.00     0.167 C 
ENDROOT
BRANCH   1   2
HETATM    2  C5  UNL     1     -12.520  -4.909  33.649  1.00  0.00     0.201 C 
BRANCH   2   3
HETATM    3  O1  UNL     1     -12.491  -3.645  34.181  1.00  0.00    -0.383 OA
BRANCH   3   4
HETATM    4  C4  UNL     1     -13.670  -3.280  34.851  1.00  0.00     0.129 C 
BRANCH   4   5
HETATM    5  C3  UNL     1     -13.344  -3.256  36.296  1.00  0.00     0.058 C 
BRANCH   5   6
HETATM    6  C2  UNL     1     -14.381  -3.753  37.216  1.00  0.00    -0.034 C 
HETATM    7  C1  UNL     1     -15.196  -2.897  37.806  1.00  0.00     0.007 C 
ENDBRANCH   5   6
ENDBRANCH   4   5
BRANCH   4   8
HETATM    8  C12 UNL     1     -14.344  -2.136  34.225  1.00  0.00     0.015 C 
HETATM    9  C13 UNL     1     -14.228  -0.756  34.718  1.00  0.00     0.007 C 
HETATM   10  C14 UNL     1     -13.966  -0.271  33.287  1.00  0.00     0.001 C 
HETATM   11  C15 UNL     1     -13.826  -1.713  32.860  1.00  0.00     0.007 C 
ENDBRANCH   4   8
ENDBRANCH   3   4
ENDBRANCH   2   3
ENDBRANCH   1   2
BRANCH   1  12
HETATM   12  O2  UNL     1     -10.270  -4.624  32.828  1.00  0.00    -0.392 OA
ATOM     13  H2  UNL     1     -10.057  -5.023  31.992  1.00  0.00     0.210 HD
ENDBRANCH   1  12
BRANCH   1  14
HETATM   14  C7  UNL     1     -11.135  -6.850  33.137  1.00  0.00     0.265 C 
BRANCH  14  15
HETATM   15  N1  UNL     1     -10.734  -6.953  31.748  1.00  0.00    -0.072 N 
ATOM     16  H12 UNL     1     -11.114  -6.196  31.180  1.00  0.00     0.277 HD
ATOM     17  H11 UNL     1      -9.743  -6.749  31.616  1.00  0.00     0.277 HD
BRANCH  15  18
HETATM   18  C8  UNL     1     -11.095  -8.245  31.241  1.00  0.00     0.236 C 
BRANCH  18  19
HETATM   19  C9  UNL     1     -11.832  -8.041  29.918  1.00  0.00     0.003 C 
HETATM   20  C10 UNL     1     -11.925  -9.358  29.179  1.00  0.00     0.011 C 
HETATM   21  C11 UNL     1     -11.067  -7.043  29.109  1.00  0.00     0.011 C 
ENDBRANCH  18  19
ENDBRANCH  15  18
ENDBRANCH  14  15
ENDBRANCH   1  14
TORSDOF 11
ENDMDL
MODEL 3
REMARK VINA RESULT: -6.721780527      1.588      3.549
REMARK  11 active torsions:
REMARK  status: ('A' for Active; 'I' for Inactive)
REMARK    1  A    between atoms: C2_2  and  C3_3 
REMARK    2  A    between atoms: C3_3  and  C4_4 
REMARK    3  A    between atoms: C4_4  and  O1_5 
REMARK    4  A    between atoms: C4_4  and  C12_18 
REMARK    5  A    between atoms: O1_5  and  C5_6 
REMARK    6  A    between atoms: C5_6  and  C6_7 
REMARK    7  A    between atoms: C6_7  and  O2_8 
REMARK    8  A    between atoms: C6_7  and  C7_10 
REMARK    9  A    between atoms: C7_10  and  N1_11 
REMARK   10  A    between atoms: N1_11  and  C8_14 
REMARK   11  A    between atoms: C8_14  and  C9_15 
ROOT
HETATM    1  C6  UNL     1     -13.601  -4.720  33.678  1.00  0.00     0.167 C 
ENDROOT
BRANCH   1   2
HETATM    2  C5  UNL     1     -13.598  -3.675  34.775  1.00  0.00     0.201 C 
BRANCH   2   3
HETATM    3  O1  UNL     1     -13.127  -2.511  34.225  1.00  0.00    -0.383 OA
BRANCH   3   4
HETATM    4  C4  UNL     1     -14.114  -1.531  34.027  1.00  0.00     0.129 C 
BRANCH   4   5
HETATM    5  C3  UNL     1     -14.160  -0.722  35.267  1.00  0.00     0.058 C 
BRANCH   5   6
HETATM    6  C2  UNL     1     -15.496  -0.372  35.779  1.00  0.00    -0.034 C 
HETATM    7  C1  UNL     1     -16.116  -1.196  36.604  1.00  0.00     0.007 C 
ENDBRANCH   5   6
ENDBRANCH   4   5
BRANCH   4   8
HETATM    8  C12 UNL     1     -14.004  -0.876  32.719  1.00  0.00     0.015 C 
HETATM    9  C13 UNL     1     -13.194   0.327  32.479  1.00  0.00     0.007 C 
HETATM   10  C14 UNL     1     -12.600  -0.329  31.226  1.00  0.00     0.001 C 
HETATM   11  C15 UNL     1     -13.235  -1.632  31.648  1.00  0.00     0.007 C 
ENDBRANCH   4   8
ENDBRANCH   3   4
ENDBRANCH   2   3
ENDBRANCH   1   2
BRANCH   1  12
HETATM   12  O2  UNL     1     -14.387  -5.811  33.978  1.00  0.00    -0.392 OA
ATOM     13  H2  UNL     1     -15.279  -5.574  34.201  1.00  0.00     0.210 HD
ENDBRANCH   1  12
BRANCH   1  14
HETATM   14  C7  UNL     1     -12.157  -5.096  33.413  1.00  0.00     0.265 C 
BRANCH  14  15
HETATM   15  N1  UNL     1     -12.076  -6.199  32.476  1.00  0.00    -0.072 N 
ATOM     16  H12 UNL     1     -12.996  -6.556  32.220  1.00  0.00     0.277 HD
ATOM     17  H11 UNL     1     -11.774  -5.898  31.550  1.00  0.00     0.277 HD
BRANCH  15  18
HETATM   18  C8  UNL     1     -11.229  -7.223  33.016  1.00  0.00     0.236 C 
BRANCH  18  19
HETATM   19  C9  UNL     1     -11.630  -8.550  32.375  1.00  0.00     0.003 C 
HETATM   20  C10 UNL     1     -10.948  -8.694  31.032  1.00  0.00     0.011 C 
HETATM   21  C11 UNL     1     -13.115  -8.556  32.207  1.00  0.00     0.011 C 
ENDBRANCH  18  19
ENDBRANCH  15  18
ENDBRANCH  14  15
ENDBRANCH   1  14
TORSDOF 11
ENDMDL
MODEL 4
REMARK VINA RESULT: -6.678924340      1.082      1.474
REMARK  11 active torsions:
REMARK  status: ('A' for Active; 'I' for Inactive)
REMARK    1  A    between atoms: C2_2  and  C3_3 
REMARK    2  A    between atoms: C3_3  and  C4_4 
REMARK    3  A    between atoms: C4_4  and  O1_5 
REMARK    4  A    between atoms: C4_4  and  C12_18 
REMARK    5  A    between atoms: O1_5  and  C5_6 
REMARK    6  A    between atoms: C5_6  and  C6_7 
REMARK    7  A    between atoms: C6_7  and  O2_8 
REMARK    8  A    between atoms: C6_7  and  C7_10 
REMARK    9  A    between atoms: C7_10  and  N1_11 
REMARK   10  A    between atoms: N1_11  and  C8_14 
REMARK   11  A    between atoms: C8_14  and  C9_15 
ROOT
HETATM    1  C6  UNL     1     -14.125  -6.317  33.133  1.00  0.00     0.167 C 
ENDROOT
BRANCH   1   2
HETATM    2  C5  UNL     1     -13.313  -5.105  33.543  1.00  0.00     0.201 C 
BRANCH   2   3
HETATM    3  O1  UNL     1     -13.958  -4.523  34.603  1.00  0.00    -0.383 OA
BRANCH   3   4
HETATM    4  C4  UNL     1     -13.821  -3.126  34.659  1.00  0.00     0.129 C 
BRANCH   4   5
HETATM    5  C3  UNL     1     -14.557  -2.582  33.494  1.00  0.00     0.058 C 
BRANCH   5   6
HETATM    6  C2  UNL     1     -13.886  -1.522  32.724  1.00  0.00    -0.034 C 
HETATM    7  C1  UNL     1     -13.957  -0.269  33.138  1.00  0.00     0.007 C 
ENDBRANCH   5   6
ENDBRANCH   4   5
BRANCH   4   8
HETATM    8  C12 UNL     1     -14.061  -2.589  36.003  1.00  0.00     0.015 C 
HETATM    9  C13 UNL     1     -15.310  -1.922  36.399  1.00  0.00     0.007 C 
HETATM   10  C14 UNL     1     -15.351  -2.768  37.678  1.00  0.00     0.001 C 
HETATM   11  C15 UNL     1     -14.229  -3.609  37.117  1.00  0.00     0.007 C 
ENDBRANCH   4   8
ENDBRANCH   3   4
ENDBRANCH   2   3
ENDBRANCH   1   2
BRANCH   1  12
HETATM   12  O2  UNL     1     -14.987  -6.743  34.119  1.00  0.00    -0.392 OA
ATOM     13  H2  UNL     1     -15.271  -6.040  34.692  1.00  0.00     0.210 HD
ENDBRANCH   1  12
BRANCH   1  14
HETATM   14  C7  UNL     1     -13.145  -7.392  32.711  1.00  0.00     0.265 C 
BRANCH  14  15
HETATM   15  N1  UNL     1     -12.036  -6.817  31.975  1.00  0.00    -0.072 N 
ATOM     16  H12 UNL     1     -12.343  -6.116  31.300  1.00  0.00     0.277 HD
ATOM     17  H11 UNL     1     -11.457  -6.214  32.558  1.00  0.00     0.277 HD
BRANCH  15  18
HETATM   18  C8  UNL     1     -11.277  -7.866  31.359  1.00  0.00     0.236 C 
BRANCH  18  19
HETATM   19  C9  UNL     1     -11.966  -8.237  30.047  1.00  0.00     0.003 C 
HETATM   20  C10 UNL     1     -12.076  -9.742  29.936  1.00  0.00     0.011 C 
HETATM   21  C11 UNL     1     -11.148  -7.691  28.921  1.00  0.00     0.011 C 
ENDBRANCH  18  19
ENDBRANCH  15  18
ENDBRANCH  14  15
ENDBRANCH   1  14
TORSDOF 11
ENDMDL
MODEL 5
REMARK VINA RESULT: -6.668363009      2.064      2.537
REMARK  11 active torsions:
REMARK  status: ('A' for Active; 'I' for Inactive)
REMARK    1  A    between atoms: C2_2  and  C3_3 
REMARK    2  A    between atoms: C3_3  and  C4_4 
REMARK    3  A    between atoms: C4_4  and  O1_5 
REMARK    4  A    between atoms: C4_4  and  C12_18 
REMARK    5  A    between atoms: O1_5  and  C5_6 
REMARK    6  A    between atoms: C5_6  and  C6_7 
REMARK    7  A    between atoms: C6_7  and  O2_8 
REMARK    8  A    between atoms: C6_7  and  C7_10 
REMARK    9  A    between atoms: C7_10  and  N1_11 
REMARK   10  A    between atoms: N1_11  and  C8_14 
REMARK   11  A    between atoms: C8_14  and  C9_15 
ROOT
HETATM    1  C6  UNL     1     -14.078  -5.897  33.191  1.00  0.00     0.167 C 
ENDROOT
BRANCH   1   2
HETATM    2  C5  UNL     1     -14.210  -4.405  33.418  1.00  0.00     0.201 C 
BRANCH   2   3
HETATM    3  O1  UNL     1     -13.951  -4.171  34.744  1.00  0.00    -0.383 OA
BRANCH   3   4
HETATM    4  C4  UNL     1     -13.801  -2.812  35.067  1.00  0.00     0.129 C 
BRANCH   4   5
HETATM    5  C3  UNL     1     -14.437  -2.045  33.970  1.00  0.00     0.058 C 
BRANCH   5   6
HETATM    6  C2  UNL     1     -14.126  -0.607  33.902  1.00  0.00    -0.034 C 
HETATM    7  C1  UNL     1     -13.548  -0.115  32.820  1.00  0.00     0.007 C 
ENDBRANCH   5   6
ENDBRANCH   4   5
BRANCH   4   8
HETATM    8  C12 UNL     1     -14.140  -2.524  36.465  1.00  0.00     0.015 C 
HETATM    9  C13 UNL     1     -15.499  -2.194  36.919  1.00  0.00     0.007 C 
HETATM   10  C14 UNL     1     -15.351  -3.194  38.073  1.00  0.00     0.001 C 
HETATM   11  C15 UNL     1     -14.081  -3.698  37.429  1.00  0.00     0.007 C 
ENDBRANCH   4   8
ENDBRANCH   3   4
ENDBRANCH   2   3
ENDBRANCH   1   2
BRANCH   1  12
HETATM   12  O2  UNL     1     -14.751  -6.644  34.131  1.00  0.00    -0.392 OA
ATOM     13  H2  UNL     1     -15.687  -6.476  34.137  1.00  0.00     0.210 HD
ENDBRANCH   1  12
BRANCH   1  14
HETATM   14  C7  UNL     1     -12.597  -6.214  33.143  1.00  0.00     0.265 C 
BRANCH  14  15
HETATM   15  N1  UNL     1     -11.831  -5.041  32.772  1.00  0.00    -0.072 N 
ATOM     16  H12 UNL     1     -12.406  -4.333  32.317  1.00  0.00     0.277 HD
ATOM     17  H11 UNL     1     -11.544  -4.495  33.584  1.00  0.00     0.277 HD
BRANCH  15  18
HETATM   18  C8  UNL     1     -10.715  -5.436  31.963  1.00  0.00     0.236 C 
BRANCH  18  19
HETATM   19  C9  UNL     1     -10.387  -4.281  31.019  1.00  0.00     0.003 C 
HETATM   20  C10 UNL     1     -11.459  -3.217  31.125  1.00  0.00     0.011 C 
HETATM   21  C11 UNL     1     -10.327  -4.822  29.627  1.00  0.00     0.011 C 
ENDBRANCH  18  19
ENDBRANCH  15  18
ENDBRANCH  14  15
ENDBRANCH   1  14
TORSDOF 11
ENDMDL
