MODEL 1
REMARK VINA RESULT: -8.371868622      0.000      0.000
REMARK  14 active torsions:
REMARK  status: ('A' for Active; 'I' for Inactive)
REMARK    1  A    between atoms: C2_2  and  C3_3 
REMARK    2  A    between atoms: C2_2  and  C4_9 
REMARK       I    between atoms: C3_3  and  N1_5 
REMARK    3  A    between atoms: N1_5  and  O2_7 
REMARK    4  A    between atoms: C7_12  and  C8_13 
REMARK    5  A    between atoms: N2_15  and  C10_16 
REMARK    6  A    between atoms: C10_16  and  C11_17 
REMARK    7  A    between atoms: C12_20  and  C13_21 
REMARK    8  A    between atoms: C13_21  and  N4_22 
REMARK    9  A    between atoms: N4_22  and  N5_23 
REMARK       I    between atoms: N5_23  and  C14_24 
REMARK       I    between atoms: C14_24  and  N7_26 
REMARK   10  A    between atoms: N7_26  and  S1_28 
REMARK   11  A    between atoms: S1_28  and  N8_29 
REMARK   12  A    between atoms: C15_34  and  C16_35 
REMARK   13  A    between atoms: C16_35  and  O5_36 
REMARK   14  A    between atoms: C18_44  and  O7_45 
ROOT
HETATM    1  C8  UNL     1       2.192   7.017  48.466  1.00  0.00     0.076 A 
HETATM    2  C9  UNL     1       2.204   7.268  49.797  1.00  0.00     0.144 A 
HETATM    3  N2  UNL     1       1.484   6.277  50.426  1.00  0.00    -0.279 N 
HETATM    4  N9  UNL     1       1.085   5.478  49.441  1.00  0.00    -0.240 N 
ATOM      5  H9  UNL     1       0.528   4.635  49.578  1.00  0.00     0.208 HD
HETATM    6  N10 UNL     1       1.492   5.902  48.280  1.00  0.00    -0.284 N 
ATOM      7  H10 UNL     1       1.306   5.455  47.382  1.00  0.00     0.188 HD
ENDROOT
BRANCH   3   8
HETATM    8  C10 UNL     1       1.197   6.241  51.824  1.00  0.00     0.234 C 
BRANCH   8   9
HETATM    9  C11 UNL     1       2.254   5.679  52.666  1.00  0.00     0.144 A 
HETATM   10  N3  UNL     1       3.214   4.841  52.226  1.00  0.00    -0.335 N 
HETATM   11  C12 UNL     1       4.045   4.520  53.268  1.00  0.00     0.098 A 
ATOM     12  H3  UNL     1       3.307   4.499  51.270  1.00  0.00     0.168 HD
HETATM   13  C15 UNL     1       3.547   5.192  54.344  1.00  0.00     0.107 A 
HETATM   14  O6  UNL     1       2.494   5.857  53.944  1.00  0.00    -0.296 OA
BRANCH  11  15
HETATM   15  C13 UNL     1       5.255   3.712  53.124  1.00  0.00     0.257 C 
BRANCH  15  16
HETATM   16  N4  UNL     1       5.965   3.442  52.170  1.00  0.00    -0.256 NA
BRANCH  16  17
HETATM   17  N5  UNL     1       6.407   3.338  51.013  1.00  0.00    -0.213 NA
HETATM   18  C14 UNL     1       6.836   3.220  49.902  1.00  0.00     0.315 C 
HETATM   19  N6  UNL     1       6.885   4.286  48.974  1.00  0.00    -0.045 NA
HETATM   20  N7  UNL     1       7.328   1.937  49.435  1.00  0.00    -0.227 N 
ATOM     21  H7  UNL     1       7.438   1.173  50.102  1.00  0.00     0.184 HD
BRANCH  20  22
HETATM   22  S1  UNL     1       7.729   1.675  47.789  1.00  0.00     0.320 S 
HETATM   23  O3  UNL     1       7.885   0.173  47.558  1.00  0.00    -0.183 OA
HETATM   24  O4  UNL     1       9.023   2.375  47.425  1.00  0.00    -0.183 OA
BRANCH  22  25
HETATM   25  N8  UNL     1       6.450   2.260  46.796  1.00  0.00    -0.311 N 
ATOM     26  H82 UNL     1       5.622   1.722  46.541  1.00  0.00     0.170 HD
ATOM     27  H81 UNL     1       6.657   3.217  46.513  1.00  0.00     0.170 HD
ENDBRANCH  22  25
ENDBRANCH  20  22
ENDBRANCH  16  17
ENDBRANCH  15  16
ENDBRANCH  11  15
BRANCH  13  28
HETATM   28  C16 UNL     1       4.057   5.213  55.750  1.00  0.00     0.231 C 
BRANCH  28  29
HETATM   29  O5  UNL     1       3.667   6.410  56.341  1.00  0.00    -0.394 OA
ATOM     30  H5  UNL     1       4.325   6.657  56.980  1.00  0.00     0.209 HD
ENDBRANCH  28  29
ENDBRANCH  13  28
ENDBRANCH   8   9
ENDBRANCH   3   8
BRANCH   1  31
HETATM   31  C7  UNL     1       2.722   7.914  47.475  1.00  0.00    -0.004 A 
HETATM   32  C6  UNL     1       2.258   7.820  46.191  1.00  0.00     0.014 A 
HETATM   33  C5  UNL     1       2.706   8.703  45.203  1.00  0.00     0.012 A 
HETATM   34  C4  UNL     1       3.618   9.691  45.461  1.00  0.00    -0.012 A 
HETATM   35  C18 UNL     1       4.088   9.769  46.781  1.00  0.00     0.073 A 
HETATM   36  C17 UNL     1       3.639   8.899  47.735  1.00  0.00     0.051 A 
BRANCH  34  37
HETATM   37  C2  UNL     1       4.135  10.548  44.423  1.00  0.00     0.111 C 
HETATM   38  C1  UNL     1       3.110  11.541  43.883  1.00  0.00     0.025 C 
BRANCH  37  39
HETATM   39  C3  UNL     1       4.270   9.638  43.163  1.00  0.00     0.249 C 
HETATM   40  O1  UNL     1       5.070   8.715  43.150  1.00  0.00    -0.271 OA
HETATM   41  N1  UNL     1       3.416   9.976  42.092  1.00  0.00    -0.237 N 
ATOM     42  H1  UNL     1       2.782  10.767  42.207  1.00  0.00     0.197 HD
BRANCH  41  43
HETATM   43  O2  UNL     1       3.396   9.293  40.905  1.00  0.00    -0.287 OA
ATOM     44  H2  UNL     1       3.720   9.658  40.090  1.00  0.00     0.244 HD
ENDBRANCH  41  43
ENDBRANCH  37  39
ENDBRANCH  34  37
BRANCH  35  45
HETATM   45  O7  UNL     1       5.004  10.754  47.030  1.00  0.00    -0.360 OA
ATOM     46  H7  UNL     1       5.089  11.021  47.938  1.00  0.00     0.217 HD
ENDBRANCH  35  45
ENDBRANCH   1  31
TORSDOF 14
ENDMDL
MODEL 2
REMARK VINA RESULT: -8.207184789      1.021      1.315
REMARK  14 active torsions:
REMARK  status: ('A' for Active; 'I' for Inactive)
REMARK    1  A    between atoms: C2_2  and  C3_3 
REMARK    2  A    between atoms: C2_2  and  C4_9 
REMARK       I    between atoms: C3_3  and  N1_5 
REMARK    3  A    between atoms: N1_5  and  O2_7 
REMARK    4  A    between atoms: C7_12  and  C8_13 
REMARK    5  A    between atoms: N2_15  and  C10_16 
REMARK    6  A    between atoms: C10_16  and  C11_17 
REMARK    7  A    between atoms: C12_20  and  C13_21 
REMARK    8  A    between atoms: C13_21  and  N4_22 
REMARK    9  A    between atoms: N4_22  and  N5_23 
REMARK       I    between atoms: N5_23  and  C14_24 
REMARK       I    between atoms: C14_24  and  N7_26 
REMARK   10  A    between atoms: N7_26  and  S1_28 
REMARK   11  A    between atoms: S1_28  and  N8_29 
REMARK   12  A    between atoms: C15_34  and  C16_35 
REMARK   13  A    between atoms: C16_35  and  O5_36 
REMARK   14  A    between atoms: C18_44  and  O7_45 
ROOT
HETATM    1  C8  UNL     1       2.186   6.978  48.476  1.00  0.00     0.076 A 
HETATM    2  C9  UNL     1       2.190   7.226  49.808  1.00  0.00     0.144 A 
HETATM    3  N2  UNL     1       1.471   6.231  50.432  1.00  0.00    -0.279 N 
HETATM    4  N9  UNL     1       1.080   5.433  49.442  1.00  0.00    -0.240 N 
ATOM      5  H9  UNL     1       0.525   4.587  49.574  1.00  0.00     0.208 HD
HETATM    6  N10 UNL     1       1.492   5.861  48.285  1.00  0.00    -0.284 N 
ATOM      7  H10 UNL     1       1.312   5.416  47.385  1.00  0.00     0.188 HD
ENDROOT
BRANCH   3   8
HETATM    8  C10 UNL     1       1.176   6.191  51.828  1.00  0.00     0.234 C 
BRANCH   8   9
HETATM    9  C11 UNL     1       2.219   5.603  52.671  1.00  0.00     0.144 A 
HETATM   10  N3  UNL     1       3.102   4.674  52.253  1.00  0.00    -0.335 N 
HETATM   11  C12 UNL     1       3.943   4.354  53.288  1.00  0.00     0.098 A 
ATOM     12  H3  UNL     1       3.139   4.272  51.317  1.00  0.00     0.168 HD
HETATM   13  C15 UNL     1       3.530   5.121  54.336  1.00  0.00     0.107 A 
HETATM   14  O6  UNL     1       2.514   5.837  53.928  1.00  0.00    -0.296 OA
BRANCH  11  15
HETATM   15  C13 UNL     1       5.088   3.453  53.157  1.00  0.00     0.257 C 
BRANCH  15  16
HETATM   16  N4  UNL     1       5.938   3.311  52.295  1.00  0.00    -0.256 NA
BRANCH  16  17
HETATM   17  N5  UNL     1       6.981   3.424  51.628  1.00  0.00    -0.213 NA
HETATM   18  C14 UNL     1       7.975   3.527  50.971  1.00  0.00     0.315 C 
HETATM   19  N6  UNL     1       9.203   3.997  51.493  1.00  0.00    -0.045 NA
HETATM   20  N7  UNL     1       7.968   3.176  49.562  1.00  0.00    -0.227 N 
ATOM     21  H7  UNL     1       7.150   2.709  49.170  1.00  0.00     0.184 HD
BRANCH  20  22
HETATM   22  S1  UNL     1       9.301   3.528  48.543  1.00  0.00     0.320 S 
HETATM   23  O3  UNL     1       8.875   3.307  47.092  1.00  0.00    -0.183 OA
HETATM   24  O4  UNL     1      10.481   2.634  48.861  1.00  0.00    -0.183 OA
BRANCH  22  25
HETATM   25  N8  UNL     1       9.745   5.179  48.745  1.00  0.00    -0.311 N 
ATOM     26  H82 UNL     1       9.089   5.937  48.930  1.00  0.00     0.170 HD
ATOM     27  H81 UNL     1      10.757   5.267  48.651  1.00  0.00     0.170 HD
ENDBRANCH  22  25
ENDBRANCH  20  22
ENDBRANCH  16  17
ENDBRANCH  15  16
ENDBRANCH  11  15
BRANCH  13  28
HETATM   28  C16 UNL     1       4.087   5.186  55.723  1.00  0.00     0.231 C 
BRANCH  28  29
HETATM   29  O5  UNL     1       3.707   6.396  56.292  1.00  0.00    -0.394 OA
ATOM     30  H5  UNL     1       4.492   6.895  56.489  1.00  0.00     0.209 HD
ENDBRANCH  28  29
ENDBRANCH  13  28
ENDBRANCH   8   9
ENDBRANCH   3   8
BRANCH   1  31
HETATM   31  C7  UNL     1       2.718   7.879  47.491  1.00  0.00    -0.004 A 
HETATM   32  C6  UNL     1       2.263   7.784  46.203  1.00  0.00     0.014 A 
HETATM   33  C5  UNL     1       2.713   8.670  45.219  1.00  0.00     0.012 A 
HETATM   34  C4  UNL     1       3.618   9.663  45.485  1.00  0.00    -0.012 A 
HETATM   35  C18 UNL     1       4.078   9.743  46.808  1.00  0.00     0.073 A 
HETATM   36  C17 UNL     1       3.627   8.869  47.757  1.00  0.00     0.051 A 
BRANCH  34  37
HETATM   37  C2  UNL     1       4.137  10.525  44.451  1.00  0.00     0.111 C 
HETATM   38  C1  UNL     1       3.125  11.545  43.940  1.00  0.00     0.025 C 
BRANCH  37  39
HETATM   39  C3  UNL     1       4.236   9.630  43.177  1.00  0.00     0.249 C 
HETATM   40  O1  UNL     1       5.021   8.695  43.137  1.00  0.00    -0.271 OA
HETATM   41  N1  UNL     1       3.368   9.996  42.125  1.00  0.00    -0.237 N 
ATOM     42  H1  UNL     1       2.750  10.795  42.262  1.00  0.00     0.197 HD
BRANCH  41  43
HETATM   43  O2  UNL     1       3.317   9.330  40.931  1.00  0.00    -0.287 OA
ATOM     44  H2  UNL     1       4.005   9.380  40.278  1.00  0.00     0.244 HD
ENDBRANCH  41  43
ENDBRANCH  37  39
ENDBRANCH  34  37
BRANCH  35  45
HETATM   45  O7  UNL     1       4.987  10.733  47.064  1.00  0.00    -0.360 OA
ATOM     46  H7  UNL     1       5.172  11.322  46.341  1.00  0.00     0.217 HD
ENDBRANCH  35  45
ENDBRANCH   1  31
TORSDOF 14
ENDMDL
MODEL 3
REMARK VINA RESULT: -8.199090534      1.182      1.458
REMARK  14 active torsions:
REMARK  status: ('A' for Active; 'I' for Inactive)
REMARK    1  A    between atoms: C2_2  and  C3_3 
REMARK    2  A    between atoms: C2_2  and  C4_9 
REMARK       I    between atoms: C3_3  and  N1_5 
REMARK    3  A    between atoms: N1_5  and  O2_7 
REMARK    4  A    between atoms: C7_12  and  C8_13 
REMARK    5  A    between atoms: N2_15  and  C10_16 
REMARK    6  A    between atoms: C10_16  and  C11_17 
REMARK    7  A    between atoms: C12_20  and  C13_21 
REMARK    8  A    between atoms: C13_21  and  N4_22 
REMARK    9  A    between atoms: N4_22  and  N5_23 
REMARK       I    between atoms: N5_23  and  C14_24 
REMARK       I    between atoms: C14_24  and  N7_26 
REMARK   10  A    between atoms: N7_26  and  S1_28 
REMARK   11  A    between atoms: S1_28  and  N8_29 
REMARK   12  A    between atoms: C15_34  and  C16_35 
REMARK   13  A    between atoms: C16_35  and  O5_36 
REMARK   14  A    between atoms: C18_44  and  O7_45 
ROOT
HETATM    1  C8  UNL     1       2.094   6.857  48.394  1.00  0.00     0.076 A 
HETATM    2  C9  UNL     1       1.844   7.172  49.688  1.00  0.00     0.144 A 
HETATM    3  N2  UNL     1       1.180   6.113  50.265  1.00  0.00    -0.279 N 
HETATM    4  N9  UNL     1       1.074   5.215  49.290  1.00  0.00    -0.240 N 
ATOM      5  H9  UNL     1       0.630   4.302  49.397  1.00  0.00     0.208 HD
HETATM    6  N10 UNL     1       1.606   5.640  48.181  1.00  0.00    -0.284 N 
ATOM      7  H10 UNL     1       1.641   5.127  47.300  1.00  0.00     0.188 HD
ENDROOT
BRANCH   3   8
HETATM    8  C10 UNL     1       0.668   6.100  51.598  1.00  0.00     0.234 C 
BRANCH   8   9
HETATM    9  C11 UNL     1       1.671   5.929  52.651  1.00  0.00     0.144 A 
HETATM   10  N3  UNL     1       2.576   4.932  52.687  1.00  0.00    -0.335 N 
HETATM   11  C12 UNL     1       3.366   5.079  53.797  1.00  0.00     0.098 A 
ATOM     12  H3  UNL     1       2.660   4.185  51.997  1.00  0.00     0.168 HD
HETATM   13  C15 UNL     1       2.900   6.196  54.423  1.00  0.00     0.107 A 
HETATM   14  O6  UNL     1       1.903   6.661  53.716  1.00  0.00    -0.296 OA
BRANCH  11  15
HETATM   15  C13 UNL     1       4.520   4.230  54.094  1.00  0.00     0.257 C 
BRANCH  15  16
HETATM   16  N4  UNL     1       5.362   3.698  53.391  1.00  0.00    -0.256 NA
BRANCH  16  17
HETATM   17  N5  UNL     1       6.215   3.496  52.510  1.00  0.00    -0.213 NA
HETATM   18  C14 UNL     1       7.023   3.300  51.648  1.00  0.00     0.315 C 
HETATM   19  N6  UNL     1       8.411   3.195  51.899  1.00  0.00    -0.045 NA
HETATM   20  N7  UNL     1       6.607   3.172  50.264  1.00  0.00    -0.227 N 
ATOM     21  H7  UNL     1       5.613   3.107  50.046  1.00  0.00     0.184 HD
BRANCH  20  22
HETATM   22  S1  UNL     1       7.749   3.126  48.985  1.00  0.00     0.320 S 
HETATM   23  O3  UNL     1       8.537   4.435  48.988  1.00  0.00    -0.183 OA
HETATM   24  O4  UNL     1       7.061   2.958  47.646  1.00  0.00    -0.183 OA
BRANCH  22  25
HETATM   25  N8  UNL     1       8.840   1.821  49.249  1.00  0.00    -0.311 N 
ATOM     26  H82 UNL     1       9.838   1.848  49.039  1.00  0.00     0.170 HD
ATOM     27  H81 UNL     1       8.329   1.032  49.644  1.00  0.00     0.170 HD
ENDBRANCH  22  25
ENDBRANCH  20  22
ENDBRANCH  16  17
ENDBRANCH  15  16
ENDBRANCH  11  15
BRANCH  13  28
HETATM   28  C16 UNL     1       3.388   6.832  55.686  1.00  0.00     0.231 C 
BRANCH  28  29
HETATM   29  O5  UNL     1       2.619   7.963  55.935  1.00  0.00    -0.394 OA
ATOM     30  H5  UNL     1       3.201   8.678  56.161  1.00  0.00     0.209 HD
ENDBRANCH  28  29
ENDBRANCH  13  28
ENDBRANCH   8   9
ENDBRANCH   3   8
BRANCH   1  31
HETATM   31  C7  UNL     1       2.648   7.777  47.438  1.00  0.00    -0.004 A 
HETATM   32  C6  UNL     1       2.223   7.707  46.139  1.00  0.00     0.014 A 
HETATM   33  C5  UNL     1       2.696   8.612  45.182  1.00  0.00     0.012 A 
HETATM   34  C4  UNL     1       3.594   9.599  45.487  1.00  0.00    -0.012 A 
HETATM   35  C18 UNL     1       4.024   9.653  46.822  1.00  0.00     0.073 A 
HETATM   36  C17 UNL     1       3.552   8.761  47.744  1.00  0.00     0.051 A 
BRANCH  34  37
HETATM   37  C2  UNL     1       4.137  10.480  44.482  1.00  0.00     0.111 C 
HETATM   38  C1  UNL     1       3.138  11.514  43.972  1.00  0.00     0.025 C 
BRANCH  37  39
HETATM   39  C3  UNL     1       4.258   9.611  43.193  1.00  0.00     0.249 C 
HETATM   40  O1  UNL     1       5.060   8.691  43.140  1.00  0.00    -0.271 OA
HETATM   41  N1  UNL     1       3.390   9.981  42.143  1.00  0.00    -0.237 N 
ATOM     42  H1  UNL     1       2.757  10.767  42.291  1.00  0.00     0.197 HD
BRANCH  41  43
HETATM   43  O2  UNL     1       3.357   9.338  40.936  1.00  0.00    -0.287 OA
ATOM     44  H2  UNL     1       2.558   9.202  40.440  1.00  0.00     0.244 HD
ENDBRANCH  41  43
ENDBRANCH  37  39
ENDBRANCH  34  37
BRANCH  35  45
HETATM   45  O7  UNL     1       4.927  10.637  47.118  1.00  0.00    -0.360 OA
ATOM     46  H7  UNL     1       5.144  10.737  48.037  1.00  0.00     0.217 HD
ENDBRANCH  35  45
ENDBRANCH   1  31
TORSDOF 14
ENDMDL
MODEL 4
REMARK VINA RESULT: -8.127327392      3.970      8.033
REMARK  14 active torsions:
REMARK  status: ('A' for Active; 'I' for Inactive)
REMARK    1  A    between atoms: C2_2  and  C3_3 
REMARK    2  A    between atoms: C2_2  and  C4_9 
REMARK       I    between atoms: C3_3  and  N1_5 
REMARK    3  A    between atoms: N1_5  and  O2_7 
REMARK    4  A    between atoms: C7_12  and  C8_13 
REMARK    5  A    between atoms: N2_15  and  C10_16 
REMARK    6  A    between atoms: C10_16  and  C11_17 
REMARK    7  A    between atoms: C12_20  and  C13_21 
REMARK    8  A    between atoms: C13_21  and  N4_22 
REMARK    9  A    between atoms: N4_22  and  N5_23 
REMARK       I    between atoms: N5_23  and  C14_24 
REMARK       I    between atoms: C14_24  and  N7_26 
REMARK   10  A    between atoms: N7_26  and  S1_28 
REMARK   11  A    between atoms: S1_28  and  N8_29 
REMARK   12  A    between atoms: C15_34  and  C16_35 
REMARK   13  A    between atoms: C16_35  and  O5_36 
REMARK   14  A    between atoms: C18_44  and  O7_45 
ROOT
HETATM    1  C8  UNL     1       7.201   1.117  48.888  1.00  0.00     0.076 A 
HETATM    2  C9  UNL     1       6.482   1.981  49.643  1.00  0.00     0.144 A 
HETATM    3  N2  UNL     1       5.572   1.252  50.377  1.00  0.00    -0.279 N 
HETATM    4  N9  UNL     1       5.799  -0.011  50.029  1.00  0.00    -0.240 N 
ATOM      5  H9  UNL     1       5.287  -0.809  50.406  1.00  0.00     0.208 HD
HETATM    6  N10 UNL     1       6.754  -0.107  49.151  1.00  0.00    -0.284 N 
ATOM      7  H10 UNL     1       7.101  -0.972  48.737  1.00  0.00     0.188 HD
ENDROOT
BRANCH   3   8
HETATM    8  C10 UNL     1       4.575   1.816  51.229  1.00  0.00     0.234 C 
BRANCH   8   9
HETATM    9  C11 UNL     1       4.036   3.106  50.794  1.00  0.00     0.144 A 
HETATM   10  N3  UNL     1       3.050   3.253  49.888  1.00  0.00    -0.335 N 
HETATM   11  C12 UNL     1       2.783   4.588  49.726  1.00  0.00     0.098 A 
ATOM     12  H3  UNL     1       2.577   2.493  49.400  1.00  0.00     0.168 HD
HETATM   13  C15 UNL     1       3.644   5.231  50.563  1.00  0.00     0.107 A 
HETATM   14  O6  UNL     1       4.363   4.321  51.168  1.00  0.00    -0.296 OA
BRANCH  11  15
HETATM   15  C13 UNL     1       1.697   5.105  48.892  1.00  0.00     0.257 C 
BRANCH  15  16
HETATM   16  N4  UNL     1       1.584   6.105  48.204  1.00  0.00    -0.256 NA
BRANCH  16  17
HETATM   17  N5  UNL     1       1.835   7.157  47.591  1.00  0.00    -0.213 NA
HETATM   18  C14 UNL     1       2.091   8.173  47.013  1.00  0.00     0.315 C 
HETATM   19  N6  UNL     1       1.321   8.664  45.933  1.00  0.00    -0.045 NA
HETATM   20  N7  UNL     1       3.245   8.967  47.394  1.00  0.00    -0.227 N 
ATOM     21  H7  UNL     1       3.753   8.730  48.246  1.00  0.00     0.184 HD
BRANCH  20  22
HETATM   22  S1  UNL     1       3.774  10.295  46.445  1.00  0.00     0.320 S 
HETATM   23  O3  UNL     1       5.122  10.772  46.984  1.00  0.00    -0.183 OA
HETATM   24  O4  UNL     1       2.779  11.435  46.502  1.00  0.00    -0.183 OA
BRANCH  22  25
HETATM   25  N8  UNL     1       3.978   9.778  44.816  1.00  0.00    -0.311 N 
ATOM     26  H82 UNL     1       3.222   9.461  44.209  1.00  0.00     0.170 HD
ATOM     27  H81 UNL     1       4.965   9.842  44.566  1.00  0.00     0.170 HD
ENDBRANCH  22  25
ENDBRANCH  20  22
ENDBRANCH  16  17
ENDBRANCH  15  16
ENDBRANCH  11  15
BRANCH  13  28
HETATM   28  C16 UNL     1       3.797   6.700  50.799  1.00  0.00     0.231 C 
BRANCH  28  29
HETATM   29  O5  UNL     1       4.344   7.274  49.657  1.00  0.00    -0.394 OA
ATOM     30  H5  UNL     1       5.278   7.104  49.654  1.00  0.00     0.209 HD
ENDBRANCH  28  29
ENDBRANCH  13  28
ENDBRANCH   8   9
ENDBRANCH   3   8
BRANCH   1  31
HETATM   31  C7  UNL     1       8.151   1.524  47.888  1.00  0.00    -0.004 A 
HETATM   32  C6  UNL     1       8.035   2.775  47.345  1.00  0.00     0.014 A 
HETATM   33  C5  UNL     1       8.963   3.237  46.406  1.00  0.00     0.012 A 
HETATM   34  C4  UNL     1      10.020   2.475  45.986  1.00  0.00    -0.012 A 
HETATM   35  C18 UNL     1      10.121   1.192  46.547  1.00  0.00     0.073 A 
HETATM   36  C17 UNL     1       9.206   0.758  47.464  1.00  0.00     0.051 A 
BRANCH  34  37
HETATM   37  C2  UNL     1      10.930   2.925  44.960  1.00  0.00     0.111 C 
HETATM   38  C1  UNL     1      10.909   4.434  44.743  1.00  0.00     0.025 C 
BRANCH  37  39
HETATM   39  C3  UNL     1      10.285   2.482  43.611  1.00  0.00     0.249 C 
HETATM   40  O1  UNL     1      10.392   1.327  43.224  1.00  0.00    -0.271 OA
HETATM   41  N1  UNL     1       9.602   3.502  42.916  1.00  0.00    -0.237 N 
ATOM     42  H1  UNL     1       9.572   4.435  43.329  1.00  0.00     0.197 HD
BRANCH  41  43
HETATM   43  O2  UNL     1       8.978   3.302  41.715  1.00  0.00    -0.287 OA
ATOM     44  H2  UNL     1       9.439   3.042  40.926  1.00  0.00     0.244 HD
ENDBRANCH  41  43
ENDBRANCH  37  39
ENDBRANCH  34  37
BRANCH  35  45
HETATM   45  O7  UNL     1      11.176   0.435  46.116  1.00  0.00    -0.360 OA
ATOM     46  H7  UNL     1      11.993   0.557  46.586  1.00  0.00     0.217 HD
ENDBRANCH  35  45
ENDBRANCH   1  31
TORSDOF 14
ENDMDL
MODEL 5
REMARK VINA RESULT: -8.088114785      4.685     10.177
REMARK  14 active torsions:
REMARK  status: ('A' for Active; 'I' for Inactive)
REMARK    1  A    between atoms: C2_2  and  C3_3 
REMARK    2  A    between atoms: C2_2  and  C4_9 
REMARK       I    between atoms: C3_3  and  N1_5 
REMARK    3  A    between atoms: N1_5  and  O2_7 
REMARK    4  A    between atoms: C7_12  and  C8_13 
REMARK    5  A    between atoms: N2_15  and  C10_16 
REMARK    6  A    between atoms: C10_16  and  C11_17 
REMARK    7  A    between atoms: C12_20  and  C13_21 
REMARK    8  A    between atoms: C13_21  and  N4_22 
REMARK    9  A    between atoms: N4_22  and  N5_23 
REMARK       I    between atoms: N5_23  and  C14_24 
REMARK       I    between atoms: C14_24  and  N7_26 
REMARK   10  A    between atoms: N7_26  and  S1_28 
REMARK   11  A    between atoms: S1_28  and  N8_29 
REMARK   12  A    between atoms: C15_34  and  C16_35 
REMARK   13  A    between atoms: C16_35  and  O5_36 
REMARK   14  A    between atoms: C18_44  and  O7_45 
ROOT
HETATM    1  C8  UNL     1       0.808   2.038  54.146  1.00  0.00     0.076 A 
HETATM    2  C9  UNL     1       1.402   2.472  53.009  1.00  0.00     0.144 A 
HETATM    3  N2  UNL     1       2.570   1.761  52.838  1.00  0.00    -0.279 N 
HETATM    4  N9  UNL     1       2.610   0.933  53.878  1.00  0.00    -0.240 N 
ATOM      5  H9  UNL     1       3.358   0.258  54.044  1.00  0.00     0.208 HD
HETATM    6  N10 UNL     1       1.581   1.086  54.658  1.00  0.00    -0.284 N 
ATOM      7  H10 UNL     1       1.398   0.565  55.516  1.00  0.00     0.188 HD
ENDROOT
BRANCH   3   8
HETATM    8  C10 UNL     1       3.520   1.991  51.797  1.00  0.00     0.234 C 
BRANCH   8   9
HETATM    9  C11 UNL     1       3.304   3.207  51.012  1.00  0.00     0.144 A 
HETATM   10  N3  UNL     1       2.302   3.375  50.126  1.00  0.00    -0.335 N 
HETATM   11  C12 UNL     1       2.388   4.629  49.580  1.00  0.00     0.098 A 
ATOM     12  H3  UNL     1       1.593   2.678  49.897  1.00  0.00     0.168 HD
HETATM   13  C15 UNL     1       3.475   5.203  50.168  1.00  0.00     0.107 A 
HETATM   14  O6  UNL     1       3.983   4.331  51.000  1.00  0.00    -0.296 OA
BRANCH  11  15
HETATM   15  C13 UNL     1       1.399   5.184  48.656  1.00  0.00     0.257 C 
BRANCH  15  16
HETATM   16  N4  UNL     1       1.415   6.139  47.898  1.00  0.00    -0.256 NA
BRANCH  16  17
HETATM   17  N5  UNL     1       1.725   7.208  47.345  1.00  0.00    -0.213 NA
HETATM   18  C14 UNL     1       2.037   8.239  46.824  1.00  0.00     0.315 C 
HETATM   19  N6  UNL     1       1.329   8.803  45.737  1.00  0.00    -0.045 NA
HETATM   20  N7  UNL     1       3.198   8.977  47.288  1.00  0.00    -0.227 N 
ATOM     21  H7  UNL     1       3.662   8.685  48.148  1.00  0.00     0.184 HD
BRANCH  20  22
HETATM   22  S1  UNL     1       3.808  10.326  46.422  1.00  0.00     0.320 S 
HETATM   23  O3  UNL     1       5.154  10.724  47.026  1.00  0.00    -0.183 OA
HETATM   24  O4  UNL     1       2.856  11.501  46.503  1.00  0.00    -0.183 OA
BRANCH  22  25
HETATM   25  N8  UNL     1       4.048   9.880  44.777  1.00  0.00    -0.311 N 
ATOM     26  H82 UNL     1       4.958   9.703  44.351  1.00  0.00     0.170 HD
ATOM     27  H81 UNL     1       3.143   9.824  44.310  1.00  0.00     0.170 HD
ENDBRANCH  22  25
ENDBRANCH  20  22
ENDBRANCH  16  17
ENDBRANCH  15  16
ENDBRANCH  11  15
BRANCH  13  28
HETATM   28  C16 UNL     1       4.041   6.571  49.953  1.00  0.00     0.231 C 
BRANCH  28  29
HETATM   29  O5  UNL     1       4.483   6.662  48.639  1.00  0.00    -0.394 OA
ATOM     30  H5  UNL     1       3.757   6.949  48.097  1.00  0.00     0.209 HD
ENDBRANCH  28  29
ENDBRANCH  13  28
ENDBRANCH   8   9
ENDBRANCH   3   8
BRANCH   1  31
HETATM   31  C7  UNL     1      -0.360   2.647  54.722  1.00  0.00    -0.004 A 
HETATM   32  C6  UNL     1      -1.204   3.349  53.904  1.00  0.00     0.014 A 
HETATM   33  C5  UNL     1      -2.379   3.916  54.408  1.00  0.00     0.012 A 
HETATM   34  C4  UNL     1      -2.743   3.803  55.723  1.00  0.00    -0.012 A 
HETATM   35  C18 UNL     1      -1.864   3.086  56.549  1.00  0.00     0.073 A 
HETATM   36  C17 UNL     1      -0.720   2.537  56.040  1.00  0.00     0.051 A 
BRANCH  34  37
HETATM   37  C2  UNL     1      -3.916   4.456  56.253  1.00  0.00     0.111 C 
HETATM   38  C1  UNL     1      -4.810   5.071  55.182  1.00  0.00     0.025 C 
BRANCH  37  39
HETATM   39  C3  UNL     1      -3.396   5.770  56.912  1.00  0.00     0.249 C 
HETATM   40  O1  UNL     1      -3.256   5.842  58.124  1.00  0.00    -0.271 OA
HETATM   41  N1  UNL     1      -3.119   6.818  56.008  1.00  0.00    -0.237 N 
ATOM     42  H1  UNL     1      -3.269   6.653  55.013  1.00  0.00     0.197 HD
BRANCH  41  43
HETATM   43  O2  UNL     1      -2.658   8.046  56.402  1.00  0.00    -0.287 OA
ATOM     44  H2  UNL     1      -3.208   8.697  56.822  1.00  0.00     0.244 HD
ENDBRANCH  41  43
ENDBRANCH  37  39
ENDBRANCH  34  37
BRANCH  35  45
HETATM   45  O7  UNL     1      -2.231   2.984  57.863  1.00  0.00    -0.360 OA
ATOM     46  H7  UNL     1      -3.057   2.544  58.029  1.00  0.00     0.217 HD
ENDBRANCH  35  45
ENDBRANCH   1  31
TORSDOF 14
ENDMDL
