MODEL 1
REMARK VINA RESULT: -8.514628104      0.000      0.000
REMARK  11 active torsions:
REMARK  status: ('A' for Active; 'I' for Inactive)
REMARK    1  A    between atoms: C3_5  and  C4_6 
REMARK    2  A    between atoms: C4_6  and  S1_7 
REMARK    3  A    between atoms: S1_7  and  C5_8 
REMARK    4  A    between atoms: N5_15  and  C6_16 
REMARK    5  A    between atoms: N7_22  and  C9_23 
REMARK    6  A    between atoms: C9_23  and  C10_24 
REMARK       I    between atoms: C10_24  and  N8_26 
REMARK    7  A    between atoms: N8_26  and  C11_28 
REMARK    8  A    between atoms: C11_28  and  C12_29 
REMARK    9  A    between atoms: C12_29  and  O3_32 
REMARK   10  A    between atoms: C15_34  and  N9_35 
REMARK   11  A    between atoms: C17_41  and  N11_42 
ROOT
HETATM    1  C6  UNL     1       4.384   3.800  50.188  1.00  0.00     0.709 A 
HETATM    2  N6  UNL     1       4.515   5.113  49.935  1.00  0.00    -0.182 N 
ATOM      3  H6  UNL     1       5.343   5.613  50.260  1.00  0.00     0.184 HD
HETATM    4  C7  UNL     1       3.543   5.782  49.244  1.00  0.00     0.148 A 
HETATM    5  C8  UNL     1       3.688   7.126  48.992  1.00  0.00     0.292 A 
HETATM    6  O1  UNL     1       4.726   7.721  49.406  1.00  0.00    -0.265 OA
HETATM    7  N7  UNL     1       2.760   7.827  48.319  1.00  0.00    -0.137 N 
HETATM    8  C15 UNL     1       1.685   7.149  47.903  1.00  0.00     0.682 A 
HETATM    9  N10 UNL     1       1.499   5.817  48.131  1.00  0.00    -0.186 N 
ATOM     10  H10 UNL     1       0.656   5.354  47.791  1.00  0.00     0.184 HD
HETATM   11  C16 UNL     1       2.412   5.129  48.794  1.00  0.00     0.126 A 
HETATM   12  C17 UNL     1       2.280   3.769  49.058  1.00  0.00     0.144 A 
HETATM   13  N12 UNL     1       3.283   3.175  49.748  1.00  0.00    -0.173 N 
ATOM     14  H12 UNL     1       3.193   2.178  49.946  1.00  0.00     0.186 HD
ENDROOT
BRANCH   1  15
HETATM   15  N5  UNL     1       5.391   3.104  50.906  1.00  0.00    -0.046 N 
HETATM   16  C5  UNL     1       5.261   2.685  52.194  1.00  0.00     0.201 A 
HETATM   17  N2  UNL     1       6.398   2.066  52.557  1.00  0.00    -0.262 N 
HETATM   18  N3  UNL     1       7.207   2.102  51.520  1.00  0.00    -0.225 N 
ATOM     19  H2  UNL     1       6.597   1.646  53.466  1.00  0.00     0.190 HD
HETATM   20  N4  UNL     1       6.590   2.731  50.530  1.00  0.00    -0.205 N 
ATOM     21  H3  UNL     1       8.150   1.713  51.484  1.00  0.00     0.210 HD
ATOM     22  H4  UNL     1       6.991   2.899  49.608  1.00  0.00     0.211 HD
BRANCH  16  23
HETATM   23  S1  UNL     1       3.806   2.944  53.180  1.00  0.00    -0.084 SA
BRANCH  23  24
HETATM   24  C4  UNL     1       4.099   3.628  54.801  1.00  0.00     0.139 C 
BRANCH  24  25
HETATM   25  C3  UNL     1       3.787   5.078  54.855  1.00  0.00     0.023 A 
HETATM   26  N1  UNL     1       3.494   5.758  53.702  1.00  0.00    -0.349 N 
HETATM   27  C2  UNL     1       3.184   7.059  53.700  1.00  0.00     0.078 A 
ATOM     28  H1  UNL     1       3.513   5.255  52.815  1.00  0.00     0.167 HD
HETATM   29  C1  UNL     1       2.872   7.763  52.428  1.00  0.00     0.089 C 
HETATM   30  N14 UNL     1       3.152   7.737  54.858  1.00  0.00    -0.333 N 
HETATM   31  C19 UNL     1       3.428   7.131  56.026  1.00  0.00     0.101 A 
ATOM     32  H14 UNL     1       2.915   8.730  54.851  1.00  0.00     0.168 HD
HETATM   33  C18 UNL     1       3.751   5.777  56.034  1.00  0.00     0.073 A 
HETATM   34  N13 UNL     1       3.400   7.781  57.144  1.00  0.00    -0.385 N 
ATOM     35 2H13 UNL     1       3.609   7.322  58.030  1.00  0.00     0.157 HD
ATOM     36 1H13 UNL     1       3.163   8.774  57.138  1.00  0.00     0.157 HD
ENDBRANCH  24  25
ENDBRANCH  23  24
ENDBRANCH  16  23
ENDBRANCH   1  15
BRANCH  12  37
HETATM   37  N11 UNL     1       1.259   3.116  48.669  1.00  0.00    -0.383 N 
ATOM     38 2H11 UNL     1       1.078   2.947  47.679  1.00  0.00     0.157 HD
ATOM     39 1H11 UNL     1       0.586   2.739  49.335  1.00  0.00     0.157 HD
ENDBRANCH  12  37
BRANCH   7  40
HETATM   40  C9  UNL     1       2.961   9.261  48.073  1.00  0.00     0.253 C 
BRANCH  40  41
HETATM   41  C10 UNL     1       3.735   9.528  46.854  1.00  0.00     0.236 C 
HETATM   42  O2  UNL     1       4.699  10.366  46.946  1.00  0.00    -0.272 OA
HETATM   43  N8  UNL     1       3.513   8.946  45.585  1.00  0.00    -0.357 N 
ATOM     44  H8  UNL     1       2.756   8.273  45.465  1.00  0.00     0.162 HD
BRANCH  43  45
HETATM   45  C11 UNL     1       4.361   9.299  44.437  1.00  0.00     0.159 C 
BRANCH  45  46
HETATM   46  C12 UNL     1       3.491   9.910  43.354  1.00  0.00     0.066 C 
HETATM   47  C13 UNL     1       3.767   9.281  42.008  1.00  0.00     0.047 C 
HETATM   48  C14 UNL     1       3.727  11.392  43.311  1.00  0.00     0.047 C 
BRANCH  46  49
HETATM   49  O3  UNL     1       2.134   9.700  43.625  1.00  0.00    -0.389 OA
ATOM     50  H3  UNL     1       1.692   9.324  42.872  1.00  0.00     0.210 HD
ENDBRANCH  46  49
ENDBRANCH  45  46
ENDBRANCH  43  45
ENDBRANCH  40  41
ENDBRANCH   7  40
BRANCH   8  51
HETATM   51  N9  UNL     1       0.743   7.731  47.237  1.00  0.00    -0.234 N 
ATOM     52  H92 UNL     1      -0.167   7.749  47.697  1.00  0.00     0.174 HD
ATOM     53  H91 UNL     1       0.918   8.132  46.316  1.00  0.00     0.174 HD
ENDBRANCH   8  51
TORSDOF 11
ENDMDL
MODEL 2
REMARK VINA RESULT: -8.435327587      2.084      4.736
REMARK  11 active torsions:
REMARK  status: ('A' for Active; 'I' for Inactive)
REMARK    1  A    between atoms: C3_5  and  C4_6 
REMARK    2  A    between atoms: C4_6  and  S1_7 
REMARK    3  A    between atoms: S1_7  and  C5_8 
REMARK    4  A    between atoms: N5_15  and  C6_16 
REMARK    5  A    between atoms: N7_22  and  C9_23 
REMARK    6  A    between atoms: C9_23  and  C10_24 
REMARK       I    between atoms: C10_24  and  N8_26 
REMARK    7  A    between atoms: N8_26  and  C11_28 
REMARK    8  A    between atoms: C11_28  and  C12_29 
REMARK    9  A    between atoms: C12_29  and  O3_32 
REMARK   10  A    between atoms: C15_34  and  N9_35 
REMARK   11  A    between atoms: C17_41  and  N11_42 
ROOT
HETATM    1  C6  UNL     1       2.190   6.504  53.981  1.00  0.00     0.709 A 
HETATM    2  N6  UNL     1       2.757   6.703  52.779  1.00  0.00    -0.182 N 
ATOM      3  H6  UNL     1       3.575   7.309  52.698  1.00  0.00     0.184 HD
HETATM    4  C7  UNL     1       2.244   6.098  51.666  1.00  0.00     0.148 A 
HETATM    5  C8  UNL     1       2.834   6.311  50.442  1.00  0.00     0.292 A 
HETATM    6  O1  UNL     1       3.847   7.066  50.370  1.00  0.00    -0.265 OA
HETATM    7  N7  UNL     1       2.366   5.739  49.319  1.00  0.00    -0.137 N 
HETATM    8  C15 UNL     1       1.295   4.950  49.453  1.00  0.00     0.682 A 
HETATM    9  N10 UNL     1       0.678   4.712  50.645  1.00  0.00    -0.186 N 
ATOM     10  H10 UNL     1      -0.138   4.100  50.685  1.00  0.00     0.184 HD
HETATM   11  C16 UNL     1       1.139   5.274  51.749  1.00  0.00     0.126 A 
HETATM   12  C17 UNL     1       0.553   5.071  52.995  1.00  0.00     0.144 A 
HETATM   13  N12 UNL     1       1.116   5.703  54.051  1.00  0.00    -0.173 N 
ATOM     14  H12 UNL     1       0.693   5.560  54.968  1.00  0.00     0.186 HD
ENDROOT
BRANCH   1  15
HETATM   15  N5  UNL     1       2.720   7.132  55.138  1.00  0.00    -0.046 N 
HETATM   16  C5  UNL     1       3.472   6.495  56.076  1.00  0.00     0.201 A 
HETATM   17  N2  UNL     1       3.804   7.383  57.030  1.00  0.00    -0.262 N 
HETATM   18  N3  UNL     1       3.271   8.537  56.688  1.00  0.00    -0.225 N 
ATOM     19  H2  UNL     1       4.363   7.199  57.863  1.00  0.00     0.190 HD
HETATM   20  N4  UNL     1       2.620   8.374  55.545  1.00  0.00    -0.205 N 
ATOM     21  H3  UNL     1       3.346   9.408  57.212  1.00  0.00     0.210 HD
ATOM     22  H4  UNL     1       2.113   9.109  55.054  1.00  0.00     0.211 HD
BRANCH  16  23
HETATM   23  S1  UNL     1       3.907   4.775  55.999  1.00  0.00    -0.084 SA
BRANCH  23  24
HETATM   24  C4  UNL     1       4.969   4.320  54.640  1.00  0.00     0.139 C 
BRANCH  24  25
HETATM   25  C3  UNL     1       4.253   3.508  53.625  1.00  0.00     0.023 A 
HETATM   26  N1  UNL     1       3.185   2.733  53.999  1.00  0.00    -0.349 N 
HETATM   27  C2  UNL     1       2.493   2.001  53.120  1.00  0.00     0.078 A 
ATOM     28  H1  UNL     1       2.910   2.714  54.981  1.00  0.00     0.167 HD
HETATM   29  C1  UNL     1       1.341   1.172  53.562  1.00  0.00     0.089 C 
HETATM   30  N14 UNL     1       2.839   2.014  51.823  1.00  0.00    -0.333 N 
HETATM   31  C19 UNL     1       3.875   2.753  51.388  1.00  0.00     0.101 A 
ATOM     32  H14 UNL     1       2.308   1.454  51.156  1.00  0.00     0.168 HD
HETATM   33  C18 UNL     1       4.600   3.518  52.299  1.00  0.00     0.073 A 
HETATM   34  N13 UNL     1       4.214   2.768  50.140  1.00  0.00    -0.385 N 
ATOM     35 2H13 UNL     1       5.000   3.329  49.810  1.00  0.00     0.157 HD
ATOM     36 1H13 UNL     1       3.683   2.208  49.473  1.00  0.00     0.157 HD
ENDBRANCH  24  25
ENDBRANCH  23  24
ENDBRANCH  16  23
ENDBRANCH   1  15
BRANCH  12  37
HETATM   37  N11 UNL     1      -0.467   4.323  53.131  1.00  0.00    -0.383 N 
ATOM     38 2H11 UNL     1      -1.295   4.436  52.546  1.00  0.00     0.157 HD
ATOM     39 1H11 UNL     1      -0.491   3.582  53.832  1.00  0.00     0.157 HD
ENDBRANCH  12  37
BRANCH   7  40
HETATM   40  C9  UNL     1       3.031   5.995  48.035  1.00  0.00     0.253 C 
BRANCH  40  41
HETATM   41  C10 UNL     1       2.501   7.176  47.343  1.00  0.00     0.236 C 
HETATM   42  O2  UNL     1       1.648   6.972  46.409  1.00  0.00    -0.272 OA
HETATM   43  N8  UNL     1       2.846   8.520  47.611  1.00  0.00    -0.357 N 
ATOM     44  H8  UNL     1       3.520   8.730  48.346  1.00  0.00     0.162 HD
BRANCH  43  45
HETATM   45  C11 UNL     1       2.242   9.619  46.842  1.00  0.00     0.159 C 
BRANCH  45  46
HETATM   46  C12 UNL     1       3.343  10.384  46.131  1.00  0.00     0.066 C 
HETATM   47  C13 UNL     1       3.658   9.770  44.787  1.00  0.00     0.047 C 
HETATM   48  C14 UNL     1       4.564  10.415  47.005  1.00  0.00     0.047 C 
BRANCH  46  49
HETATM   49  O3  UNL     1       2.956  11.707  45.888  1.00  0.00    -0.389 OA
ATOM     50  H3  UNL     1       2.737  11.834  44.972  1.00  0.00     0.210 HD
ENDBRANCH  46  49
ENDBRANCH  45  46
ENDBRANCH  43  45
ENDBRANCH  40  41
ENDBRANCH   7  40
BRANCH   8  51
HETATM   51  N9  UNL     1       0.778   4.346  48.434  1.00  0.00    -0.234 N 
ATOM     52  H92 UNL     1       1.004   4.752  47.527  1.00  0.00     0.174 HD
ATOM     53  H91 UNL     1       0.182   3.527  48.553  1.00  0.00     0.174 HD
ENDBRANCH   8  51
TORSDOF 11
ENDMDL
MODEL 3
REMARK VINA RESULT: -8.410062269      2.004      4.585
REMARK  11 active torsions:
REMARK  status: ('A' for Active; 'I' for Inactive)
REMARK    1  A    between atoms: C3_5  and  C4_6 
REMARK    2  A    between atoms: C4_6  and  S1_7 
REMARK    3  A    between atoms: S1_7  and  C5_8 
REMARK    4  A    between atoms: N5_15  and  C6_16 
REMARK    5  A    between atoms: N7_22  and  C9_23 
REMARK    6  A    between atoms: C9_23  and  C10_24 
REMARK       I    between atoms: C10_24  and  N8_26 
REMARK    7  A    between atoms: N8_26  and  C11_28 
REMARK    8  A    between atoms: C11_28  and  C12_29 
REMARK    9  A    between atoms: C12_29  and  O3_32 
REMARK   10  A    between atoms: C15_34  and  N9_35 
REMARK   11  A    between atoms: C17_41  and  N11_42 
ROOT
HETATM    1  C6  UNL     1       2.303   6.702  53.967  1.00  0.00     0.709 A 
HETATM    2  N6  UNL     1       2.847   6.873  52.750  1.00  0.00    -0.182 N 
ATOM      3  H6  UNL     1       3.651   7.491  52.635  1.00  0.00     0.184 HD
HETATM    4  C7  UNL     1       2.327   6.223  51.666  1.00  0.00     0.148 A 
HETATM    5  C8  UNL     1       2.892   6.408  50.425  1.00  0.00     0.292 A 
HETATM    6  O1  UNL     1       3.889   7.180  50.312  1.00  0.00    -0.265 OA
HETATM    7  N7  UNL     1       2.417   5.792  49.329  1.00  0.00    -0.137 N 
HETATM    8  C15 UNL     1       1.364   4.987  49.507  1.00  0.00     0.682 A 
HETATM    9  N10 UNL     1       0.771   4.776  50.716  1.00  0.00    -0.186 N 
ATOM     10  H10 UNL     1      -0.032   4.150  50.790  1.00  0.00     0.184 HD
HETATM   11  C16 UNL     1       1.239   5.382  51.794  1.00  0.00     0.126 A 
HETATM   12  C17 UNL     1       0.679   5.207  53.055  1.00  0.00     0.144 A 
HETATM   13  N12 UNL     1       1.247   5.884  54.081  1.00  0.00    -0.173 N 
ATOM     14  H12 UNL     1       0.842   5.762  55.010  1.00  0.00     0.186 HD
ENDROOT
BRANCH   1  15
HETATM   15  N5  UNL     1       2.841   7.376  55.094  1.00  0.00    -0.046 N 
HETATM   16  C5  UNL     1       3.472   6.754  56.127  1.00  0.00     0.201 A 
HETATM   17  N2  UNL     1       3.850   7.689  57.018  1.00  0.00    -0.262 N 
HETATM   18  N3  UNL     1       3.462   8.854  56.546  1.00  0.00    -0.225 N 
ATOM     19  H2  UNL     1       4.345   7.525  57.895  1.00  0.00     0.190 HD
HETATM   20  N4  UNL     1       2.855   8.654  55.386  1.00  0.00    -0.205 N 
ATOM     21  H3  UNL     1       3.605   9.758  56.996  1.00  0.00     0.210 HD
ATOM     22  H4  UNL     1       2.455   9.389  54.803  1.00  0.00     0.211 HD
BRANCH  16  23
HETATM   23  S1  UNL     1       3.723   4.999  56.226  1.00  0.00    -0.084 SA
BRANCH  23  24
HETATM   24  C4  UNL     1       4.991   4.352  55.151  1.00  0.00     0.139 C 
BRANCH  24  25
HETATM   25  C3  UNL     1       4.417   3.698  53.949  1.00  0.00     0.023 A 
HETATM   26  N1  UNL     1       4.991   3.901  52.720  1.00  0.00    -0.349 N 
HETATM   27  C2  UNL     1       4.527   3.317  51.611  1.00  0.00     0.078 A 
ATOM     28  H1  UNL     1       5.800   4.519  52.651  1.00  0.00     0.167 HD
HETATM   29  C1  UNL     1       5.174   3.562  50.295  1.00  0.00     0.089 C 
HETATM   30  N14 UNL     1       3.464   2.500  51.683  1.00  0.00    -0.333 N 
HETATM   31  C19 UNL     1       2.854   2.256  52.857  1.00  0.00     0.101 A 
ATOM     32  H14 UNL     1       3.113   2.057  50.834  1.00  0.00     0.168 HD
HETATM   33  C18 UNL     1       3.333   2.861  54.016  1.00  0.00     0.073 A 
HETATM   34  N13 UNL     1       1.829   1.470  52.932  1.00  0.00    -0.385 N 
ATOM     35 2H13 UNL     1       1.366   1.284  53.822  1.00  0.00     0.157 HD
ATOM     36 1H13 UNL     1       1.478   1.027  52.082  1.00  0.00     0.157 HD
ENDBRANCH  24  25
ENDBRANCH  23  24
ENDBRANCH  16  23
ENDBRANCH   1  15
BRANCH  12  37
HETATM   37  N11 UNL     1      -0.324   4.444  53.233  1.00  0.00    -0.383 N 
ATOM     38 2H11 UNL     1      -1.121   4.451  52.596  1.00  0.00     0.157 HD
ATOM     39 1H11 UNL     1      -0.365   3.798  54.020  1.00  0.00     0.157 HD
ENDBRANCH  12  37
BRANCH   7  40
HETATM   40  C9  UNL     1       3.055   6.020  48.027  1.00  0.00     0.253 C 
BRANCH  40  41
HETATM   41  C10 UNL     1       2.517   7.191  47.324  1.00  0.00     0.236 C 
HETATM   42  O2  UNL     1       1.639   6.975  46.417  1.00  0.00    -0.272 OA
HETATM   43  N8  UNL     1       2.880   8.537  47.555  1.00  0.00    -0.357 N 
ATOM     44  H8  UNL     1       3.576   8.756  48.268  1.00  0.00     0.162 HD
BRANCH  43  45
HETATM   45  C11 UNL     1       2.266   9.625  46.779  1.00  0.00     0.159 C 
BRANCH  45  46
HETATM   46  C12 UNL     1       3.363  10.425  46.101  1.00  0.00     0.066 C 
HETATM   47  C13 UNL     1       3.707   9.849  44.748  1.00  0.00     0.047 C 
HETATM   48  C14 UNL     1       4.571  10.457  46.993  1.00  0.00     0.047 C 
BRANCH  46  49
HETATM   49  O3  UNL     1       2.956  11.747  45.884  1.00  0.00    -0.389 OA
ATOM     50  H3  UNL     1       3.706  12.327  45.818  1.00  0.00     0.210 HD
ENDBRANCH  46  49
ENDBRANCH  45  46
ENDBRANCH  43  45
ENDBRANCH  40  41
ENDBRANCH   7  40
BRANCH   8  51
HETATM   51  N9  UNL     1       0.841   4.341  48.516  1.00  0.00    -0.234 N 
ATOM     52  H92 UNL     1       0.611   4.908  47.701  1.00  0.00     0.174 HD
ATOM     53  H91 UNL     1       0.674   3.337  48.571  1.00  0.00     0.174 HD
ENDBRANCH   8  51
TORSDOF 11
ENDMDL
MODEL 4
REMARK VINA RESULT: -8.132844657      2.401      4.625
REMARK  11 active torsions:
REMARK  status: ('A' for Active; 'I' for Inactive)
REMARK    1  A    between atoms: C3_5  and  C4_6 
REMARK    2  A    between atoms: C4_6  and  S1_7 
REMARK    3  A    between atoms: S1_7  and  C5_8 
REMARK    4  A    between atoms: N5_15  and  C6_16 
REMARK    5  A    between atoms: N7_22  and  C9_23 
REMARK    6  A    between atoms: C9_23  and  C10_24 
REMARK       I    between atoms: C10_24  and  N8_26 
REMARK    7  A    between atoms: N8_26  and  C11_28 
REMARK    8  A    between atoms: C11_28  and  C12_29 
REMARK    9  A    between atoms: C12_29  and  O3_32 
REMARK   10  A    between atoms: C15_34  and  N9_35 
REMARK   11  A    between atoms: C17_41  and  N11_42 
ROOT
HETATM    1  C6  UNL     1       4.206   2.003  53.895  1.00  0.00     0.709 A 
HETATM    2  N6  UNL     1       3.509   2.665  52.956  1.00  0.00    -0.182 N 
ATOM      3  H6  UNL     1       2.608   3.081  53.192  1.00  0.00     0.184 HD
HETATM    4  C7  UNL     1       4.002   2.784  51.686  1.00  0.00     0.148 A 
HETATM    5  C8  UNL     1       3.277   3.463  50.735  1.00  0.00     0.292 A 
HETATM    6  O1  UNL     1       2.163   3.970  51.057  1.00  0.00    -0.265 OA
HETATM    7  N7  UNL     1       3.718   3.606  49.474  1.00  0.00    -0.137 N 
HETATM    8  C15 UNL     1       4.902   3.052  49.190  1.00  0.00     0.682 A 
HETATM    9  N10 UNL     1       5.653   2.369  50.100  1.00  0.00    -0.186 N 
ATOM     10  H10 UNL     1       6.550   1.967  49.824  1.00  0.00     0.184 HD
HETATM   11  C16 UNL     1       5.218   2.229  51.340  1.00  0.00     0.126 A 
HETATM   12  C17 UNL     1       5.938   1.544  52.314  1.00  0.00     0.144 A 
HETATM   13  N12 UNL     1       5.387   1.468  53.549  1.00  0.00    -0.173 N 
ATOM     14  H12 UNL     1       5.907   0.967  54.269  1.00  0.00     0.186 HD
ENDROOT
BRANCH   1  15
HETATM   15  N5  UNL     1       3.697   1.878  55.213  1.00  0.00    -0.046 N 
HETATM   16  C5  UNL     1       3.777   2.854  56.159  1.00  0.00     0.201 A 
HETATM   17  N2  UNL     1       3.198   2.402  57.285  1.00  0.00    -0.262 N 
HETATM   18  N3  UNL     1       2.772   1.181  57.040  1.00  0.00    -0.225 N 
ATOM     19  H2  UNL     1       3.105   2.910  58.165  1.00  0.00     0.190 HD
HETATM   20  N4  UNL     1       3.078   0.876  55.787  1.00  0.00    -0.205 N 
ATOM     21  H3  UNL     1       2.289   0.573  57.701  1.00  0.00     0.210 HD
ATOM     22  H4  UNL     1       2.863  -0.012  55.336  1.00  0.00     0.211 HD
BRANCH  16  23
HETATM   23  S1  UNL     1       4.533   4.438  55.889  1.00  0.00    -0.084 SA
BRANCH  23  24
HETATM   24  C4  UNL     1       3.509   5.845  56.280  1.00  0.00     0.139 C 
BRANCH  24  25
HETATM   25  C3  UNL     1       3.344   6.750  55.116  1.00  0.00     0.023 A 
HETATM   26  N1  UNL     1       3.542   8.099  55.264  1.00  0.00    -0.349 N 
HETATM   27  C2  UNL     1       3.428   8.953  54.242  1.00  0.00     0.078 A 
ATOM     28  H1  UNL     1       3.785   8.462  56.186  1.00  0.00     0.167 HD
HETATM   29  C1  UNL     1       3.649  10.410  54.442  1.00  0.00     0.089 C 
HETATM   30  N14 UNL     1       3.109   8.493  53.022  1.00  0.00    -0.333 N 
HETATM   31  C19 UNL     1       2.902   7.182  52.806  1.00  0.00     0.101 A 
ATOM     32  H14 UNL     1       3.023   9.149  52.245  1.00  0.00     0.168 HD
HETATM   33  C18 UNL     1       3.020   6.287  53.867  1.00  0.00     0.073 A 
HETATM   34  N13 UNL     1       2.595   6.734  51.632  1.00  0.00    -0.385 N 
ATOM     35 2H13 UNL     1       2.438   5.739  51.468  1.00  0.00     0.157 HD
ATOM     36 1H13 UNL     1       2.508   7.389  50.855  1.00  0.00     0.157 HD
ENDBRANCH  24  25
ENDBRANCH  23  24
ENDBRANCH  16  23
ENDBRANCH   1  15
BRANCH  12  37
HETATM   37  N11 UNL     1       7.064   1.013  52.052  1.00  0.00    -0.383 N 
ATOM     38 2H11 UNL     1       7.895   1.220  52.606  1.00  0.00     0.157 HD
ATOM     39 1H11 UNL     1       7.173   0.360  51.276  1.00  0.00     0.157 HD
ENDBRANCH  12  37
BRANCH   7  40
HETATM   40  C9  UNL     1       2.910   4.342  48.494  1.00  0.00     0.253 C 
BRANCH  40  41
HETATM   41  C10 UNL     1       3.360   5.727  48.306  1.00  0.00     0.236 C 
HETATM   42  O2  UNL     1       4.316   6.137  49.053  1.00  0.00    -0.272 OA
HETATM   43  N8  UNL     1       2.834   6.651  47.375  1.00  0.00    -0.357 N 
ATOM     44  H8  UNL     1       2.071   6.368  46.760  1.00  0.00     0.162 HD
BRANCH  43  45
HETATM   45  C11 UNL     1       3.373   8.017  47.285  1.00  0.00     0.159 C 
BRANCH  45  46
HETATM   46  C12 UNL     1       2.234   9.006  47.452  1.00  0.00     0.066 C 
HETATM   47  C13 UNL     1       1.581   8.870  48.807  1.00  0.00     0.047 C 
HETATM   48  C14 UNL     1       1.235   8.796  46.352  1.00  0.00     0.047 C 
BRANCH  46  49
HETATM   49  O3  UNL     1       2.700  10.324  47.361  1.00  0.00    -0.389 OA
ATOM     50  H3  UNL     1       2.915  10.547  46.463  1.00  0.00     0.210 HD
ENDBRANCH  46  49
ENDBRANCH  45  46
ENDBRANCH  43  45
ENDBRANCH  40  41
ENDBRANCH   7  40
BRANCH   8  51
HETATM   51  N9  UNL     1       5.417   3.144  48.008  1.00  0.00    -0.234 N 
ATOM     52  H92 UNL     1       6.293   3.664  47.955  1.00  0.00     0.174 HD
ATOM     53  H91 UNL     1       4.960   2.726  47.199  1.00  0.00     0.174 HD
ENDBRANCH   8  51
TORSDOF 11
ENDMDL
MODEL 5
REMARK VINA RESULT: -8.103606877      3.502      7.152
REMARK  11 active torsions:
REMARK  status: ('A' for Active; 'I' for Inactive)
REMARK    1  A    between atoms: C3_5  and  C4_6 
REMARK    2  A    between atoms: C4_6  and  S1_7 
REMARK    3  A    between atoms: S1_7  and  C5_8 
REMARK    4  A    between atoms: N5_15  and  C6_16 
REMARK    5  A    between atoms: N7_22  and  C9_23 
REMARK    6  A    between atoms: C9_23  and  C10_24 
REMARK       I    between atoms: C10_24  and  N8_26 
REMARK    7  A    between atoms: N8_26  and  C11_28 
REMARK    8  A    between atoms: C11_28  and  C12_29 
REMARK    9  A    between atoms: C12_29  and  O3_32 
REMARK   10  A    between atoms: C15_34  and  N9_35 
REMARK   11  A    between atoms: C17_41  and  N11_42 
ROOT
HETATM    1  C6  UNL     1       3.745   4.474  53.939  1.00  0.00     0.709 A 
HETATM    2  N6  UNL     1       4.940   4.170  53.404  1.00  0.00    -0.182 N 
ATOM      3  H6  UNL     1       5.755   4.744  53.622  1.00  0.00     0.184 HD
HETATM    4  C7  UNL     1       5.068   3.095  52.568  1.00  0.00     0.148 A 
HETATM    5  C8  UNL     1       6.296   2.796  52.027  1.00  0.00     0.292 A 
HETATM    6  O1  UNL     1       7.290   3.524  52.315  1.00  0.00    -0.265 OA
HETATM    7  N7  UNL     1       6.472   1.751  51.200  1.00  0.00    -0.137 N 
HETATM    8  C15 UNL     1       5.389   1.014  50.931  1.00  0.00     0.682 A 
HETATM    9  N10 UNL     1       4.152   1.275  51.443  1.00  0.00    -0.186 N 
ATOM     10  H10 UNL     1       3.362   0.677  51.200  1.00  0.00     0.184 HD
HETATM   11  C16 UNL     1       3.980   2.303  52.256  1.00  0.00     0.126 A 
HETATM   12  C17 UNL     1       2.745   2.620  52.812  1.00  0.00     0.144 A 
HETATM   13  N12 UNL     1       2.696   3.699  53.630  1.00  0.00    -0.173 N 
ATOM     14  H12 UNL     1       1.793   3.939  54.041  1.00  0.00     0.186 HD
ENDROOT
BRANCH   1  15
HETATM   15  N5  UNL     1       3.610   5.589  54.805  1.00  0.00    -0.046 N 
HETATM   16  C5  UNL     1       3.320   6.852  54.386  1.00  0.00     0.201 A 
HETATM   17  N2  UNL     1       3.269   7.655  55.464  1.00  0.00    -0.262 N 
HETATM   18  N3  UNL     1       3.520   6.908  56.517  1.00  0.00    -0.225 N 
ATOM     19  H2  UNL     1       3.072   8.656  55.464  1.00  0.00     0.190 HD
HETATM   20  N4  UNL     1       3.725   5.664  56.109  1.00  0.00    -0.205 N 
ATOM     21  H3  UNL     1       3.553   7.231  57.484  1.00  0.00     0.210 HD
ATOM     22  H4  UNL     1       3.940   4.878  56.721  1.00  0.00     0.211 HD
BRANCH  16  23
HETATM   23  S1  UNL     1       3.064   7.299  52.687  1.00  0.00    -0.084 SA
BRANCH  23  24
HETATM   24  C4  UNL     1       1.811   6.359  51.835  1.00  0.00     0.139 C 
BRANCH  24  25
HETATM   25  C3  UNL     1       2.192   6.075  50.429  1.00  0.00     0.023 A 
HETATM   26  N1  UNL     1       3.083   5.071  50.151  1.00  0.00    -0.349 N 
HETATM   27  C2  UNL     1       3.441   4.761  48.901  1.00  0.00     0.078 A 
ATOM     28  H1  UNL     1       3.486   4.542  50.925  1.00  0.00     0.167 HD
HETATM   29  C1  UNL     1       4.411   3.665  48.638  1.00  0.00     0.089 C 
HETATM   30  N14 UNL     1       2.920   5.445  47.869  1.00  0.00    -0.333 N 
HETATM   31  C19 UNL     1       2.041   6.442  48.071  1.00  0.00     0.101 A 
ATOM     32  H14 UNL     1       3.197   5.205  46.917  1.00  0.00     0.168 HD
HETATM   33  C18 UNL     1       1.663   6.769  49.371  1.00  0.00     0.073 A 
HETATM   34  N13 UNL     1       1.537   7.105  47.080  1.00  0.00    -0.385 N 
ATOM     35 2H13 UNL     1       0.869   7.860  47.233  1.00  0.00     0.157 HD
ATOM     36 1H13 UNL     1       1.813   6.865  46.128  1.00  0.00     0.157 HD
ENDBRANCH  24  25
ENDBRANCH  23  24
ENDBRANCH  16  23
ENDBRANCH   1  15
BRANCH  12  37
HETATM   37  N11 UNL     1       1.709   1.926  52.560  1.00  0.00    -0.383 N 
ATOM     38 2H11 UNL     1       1.311   1.289  53.249  1.00  0.00     0.157 HD
ATOM     39 1H11 UNL     1       1.240   1.984  51.656  1.00  0.00     0.157 HD
ENDBRANCH  12  37
BRANCH   7  40
HETATM   40  C9  UNL     1       7.803   1.470  50.648  1.00  0.00     0.253 C 
BRANCH  40  41
HETATM   41  C10 UNL     1       8.140   2.328  49.505  1.00  0.00     0.236 C 
HETATM   42  O2  UNL     1       7.726   1.956  48.353  1.00  0.00    -0.272 OA
HETATM   43  N8  UNL     1       8.883   3.529  49.561  1.00  0.00    -0.357 N 
ATOM     44  H8  UNL     1       9.233   3.865  50.458  1.00  0.00     0.162 HD
BRANCH  43  45
HETATM   45  C11 UNL     1       9.157   4.301  48.339  1.00  0.00     0.159 C 
BRANCH  45  46
HETATM   46  C12 UNL     1      10.428   5.106  48.541  1.00  0.00     0.066 C 
HETATM   47  C13 UNL     1      11.215   5.219  47.257  1.00  0.00     0.047 C 
HETATM   48  C14 UNL     1      11.250   4.464  49.620  1.00  0.00     0.047 C 
BRANCH  46  49
HETATM   49  O3  UNL     1      10.132   6.413  48.947  1.00  0.00    -0.389 OA
ATOM     50  H3  UNL     1       9.260   6.667  48.668  1.00  0.00     0.210 HD
ENDBRANCH  46  49
ENDBRANCH  45  46
ENDBRANCH  43  45
ENDBRANCH  40  41
ENDBRANCH   7  40
BRANCH   8  51
HETATM   51  N9  UNL     1       5.458  -0.018  50.156  1.00  0.00    -0.234 N 
ATOM     52  H92 UNL     1       5.995  -0.803  50.523  1.00  0.00     0.174 HD
ATOM     53  H91 UNL     1       5.005  -0.024  49.242  1.00  0.00     0.174 HD
ENDBRANCH   8  51
TORSDOF 11
ENDMDL
