MODEL 1
REMARK VINA RESULT: -8.687651145      0.000      0.000
REMARK  11 active torsions:
REMARK  status: ('A' for Active; 'I' for Inactive)
REMARK    1  A    between atoms: N1_1  and  C1_4 
REMARK    2  A    between atoms: C2_9  and  S1_10 
REMARK    3  A    between atoms: S1_10  and  C3_11 
REMARK    4  A    between atoms: C3_11  and  C4_12 
REMARK       I    between atoms: C4_12  and  N4_14 
REMARK    5  A    between atoms: N4_14  and  N5_16 
REMARK       I    between atoms: N5_16  and  C5_18 
REMARK    6  A    between atoms: C5_18  and  C6_20 
REMARK       I    between atoms: C6_20  and  N6_22 
REMARK    7  A    between atoms: N6_22  and  N7_24 
REMARK    8  A    between atoms: C7_26  and  C8_27 
REMARK    9  A    between atoms: N8_31  and  N9_32 
REMARK       I    between atoms: N9_32  and  C10_34 
REMARK   10  A    between atoms: C10_34  and  C11_36 
REMARK   11  A    between atoms: C16_43  and  O7_44 
ROOT
HETATM    1  C6  UNL     1       3.432   9.586  44.805  1.00  0.00     0.329 C 
HETATM    2  O3  UNL     1       4.159  10.148  45.663  1.00  0.00    -0.261 OA
HETATM    3  N6  UNL     1       2.491   8.622  45.233  1.00  0.00    -0.262 N 
ATOM      4  H6  UNL     1       1.904   8.167  44.534  1.00  0.00     0.190 HD
ENDROOT
BRANCH   3   5
HETATM    5  N7  UNL     1       2.333   8.264  46.580  1.00  0.00    -0.306 N 
HETATM    6  C7  UNL     1       2.007   7.083  46.911  1.00  0.00     0.149 C 
ATOM      7  H7  UNL     1       2.483   8.965  47.306  1.00  0.00     0.186 HD
BRANCH   6   8
HETATM    8  C8  UNL     1       1.846   6.727  48.314  1.00  0.00     0.150 A 
HETATM    9  O4  UNL     1       1.181   5.731  48.815  1.00  0.00    -0.254 OA
HETATM   10  C9  UNL     1       1.258   5.723  50.114  1.00  0.00     0.394 A 
HETATM   11  O5  UNL     1       0.723   4.888  50.900  1.00  0.00    -0.236 OA
HETATM   12  N8  UNL     1       2.015   6.770  50.534  1.00  0.00    -0.170 N 
HETATM   13  C16 UNL     1       2.379   7.391  49.419  1.00  0.00     0.203 A 
BRANCH  12  14
HETATM   14  N9  UNL     1       2.299   7.054  51.861  1.00  0.00    -0.252 N 
HETATM   15  C10 UNL     1       3.085   6.374  52.779  1.00  0.00     0.272 C 
HETATM   16  O6  UNL     1       3.705   5.335  52.543  1.00  0.00    -0.266 OA
ATOM     17  H9  UNL     1       1.858   7.901  52.220  1.00  0.00     0.191 HD
BRANCH  15  18
HETATM   18  C11 UNL     1       3.217   6.904  54.156  1.00  0.00     0.049 A 
HETATM   19  C12 UNL     1       3.067   8.234  54.464  1.00  0.00     0.020 A 
HETATM   20  C13 UNL     1       3.212   8.676  55.785  1.00  0.00     0.018 A 
HETATM   21  C14 UNL     1       3.506   7.764  56.773  1.00  0.00     0.087 A 
HETATM   22  N10 UNL     1       3.650   6.464  56.458  1.00  0.00    -0.374 N 
HETATM   23  C15 UNL     1       3.514   6.028  55.197  1.00  0.00     0.104 A 
ATOM     24  H10 UNL     1       3.869   5.794  57.195  1.00  0.00     0.164 HD
ENDBRANCH  15  18
ENDBRANCH  12  14
BRANCH  13  25
HETATM   25  O7  UNL     1       3.163   8.528  49.252  1.00  0.00    -0.343 OA
ATOM     26  H7  UNL     1       4.012   8.596  49.675  1.00  0.00     0.219 HD
ENDBRANCH  13  25
ENDBRANCH   6   8
ENDBRANCH   3   5
BRANCH   1  27
HETATM   27  C5  UNL     1       3.550   9.915  43.405  1.00  0.00     0.329 C 
HETATM   28  N5  UNL     1       3.424   8.926  42.403  1.00  0.00    -0.259 N 
ATOM     29  H5  UNL     1       3.245   7.964  42.688  1.00  0.00     0.190 HD
HETATM   30  O2  UNL     1       3.768  11.098  43.061  1.00  0.00    -0.261 OA
BRANCH  28  31
HETATM   31  N4  UNL     1       3.534   9.206  41.042  1.00  0.00    -0.266 N 
HETATM   32  C4  UNL     1       4.404   8.524  40.165  1.00  0.00     0.245 C 
HETATM   33  O1  UNL     1       5.130   7.605  40.611  1.00  0.00    -0.271 OA
ATOM     34  H4  UNL     1       2.951   9.949  40.657  1.00  0.00     0.190 HD
BRANCH  32  35
HETATM   35  C3  UNL     1       4.471   8.875  38.731  1.00  0.00     0.186 C 
BRANCH  35  36
HETATM   36  S1  UNL     1       3.498   7.809  37.672  1.00  0.00    -0.094 SA
BRANCH  36  37
HETATM   37  C2  UNL     1       3.949   6.074  37.903  1.00  0.00     0.130 A 
HETATM   38  N3  UNL     1       4.844   5.553  38.728  1.00  0.00    -0.286 N 
HETATM   39  N2  UNL     1       5.032   4.299  38.758  1.00  0.00    -0.279 N 
ATOM     40  H3  UNL     1       5.385   6.163  39.341  1.00  0.00     0.188 HD
HETATM   41  C1  UNL     1       4.309   3.522  37.944  1.00  0.00     0.159 A 
ATOM     42  H2  UNL     1       5.720   3.891  39.391  1.00  0.00     0.189 HD
HETATM   43  S2  UNL     1       3.345   4.676  37.129  1.00  0.00    -0.027 SA
BRANCH  41  44
HETATM   44  N1  UNL     1       4.357   2.214  37.829  1.00  0.00    -0.379 N 
ATOM     45  H12 UNL     1       5.005   1.535  38.230  1.00  0.00     0.158 HD
ATOM     46  H11 UNL     1       3.730   1.611  37.297  1.00  0.00     0.158 HD
ENDBRANCH  41  44
ENDBRANCH  36  37
ENDBRANCH  35  36
ENDBRANCH  32  35
ENDBRANCH  28  31
ENDBRANCH   1  27
TORSDOF 11
ENDMDL
MODEL 2
REMARK VINA RESULT: -8.213384414      2.232      2.767
REMARK  11 active torsions:
REMARK  status: ('A' for Active; 'I' for Inactive)
REMARK    1  A    between atoms: N1_1  and  C1_4 
REMARK    2  A    between atoms: C2_9  and  S1_10 
REMARK    3  A    between atoms: S1_10  and  C3_11 
REMARK    4  A    between atoms: C3_11  and  C4_12 
REMARK       I    between atoms: C4_12  and  N4_14 
REMARK    5  A    between atoms: N4_14  and  N5_16 
REMARK       I    between atoms: N5_16  and  C5_18 
REMARK    6  A    between atoms: C5_18  and  C6_20 
REMARK       I    between atoms: C6_20  and  N6_22 
REMARK    7  A    between atoms: N6_22  and  N7_24 
REMARK    8  A    between atoms: C7_26  and  C8_27 
REMARK    9  A    between atoms: N8_31  and  N9_32 
REMARK       I    between atoms: N9_32  and  C10_34 
REMARK   10  A    between atoms: C10_34  and  C11_36 
REMARK   11  A    between atoms: C16_43  and  O7_44 
ROOT
HETATM    1  C6  UNL     1       3.809   9.777  45.036  1.00  0.00     0.329 C 
HETATM    2  O3  UNL     1       4.553  10.449  45.793  1.00  0.00    -0.261 OA
HETATM    3  N6  UNL     1       3.003   8.759  45.597  1.00  0.00    -0.262 N 
ATOM      4  H6  UNL     1       2.401   8.215  44.979  1.00  0.00     0.190 HD
ENDROOT
BRANCH   3   5
HETATM    5  N7  UNL     1       2.999   8.468  46.970  1.00  0.00    -0.306 N 
HETATM    6  C7  UNL     1       3.045   7.269  47.385  1.00  0.00     0.149 C 
ATOM      7  H7  UNL     1       2.959   9.232  47.645  1.00  0.00     0.186 HD
BRANCH   6   8
HETATM    8  C8  UNL     1       3.040   6.983  48.813  1.00  0.00     0.150 A 
HETATM    9  O4  UNL     1       2.808   7.804  49.792  1.00  0.00    -0.254 OA
HETATM   10  C9  UNL     1       2.887   7.196  50.941  1.00  0.00     0.394 A 
HETATM   11  O5  UNL     1       2.716   7.711  52.083  1.00  0.00    -0.236 OA
HETATM   12  N8  UNL     1       3.191   5.887  50.745  1.00  0.00    -0.170 N 
HETATM   13  C16 UNL     1       3.285   5.755  49.428  1.00  0.00     0.203 A 
BRANCH  12  14
HETATM   14  N9  UNL     1       3.347   4.955  51.760  1.00  0.00    -0.252 N 
HETATM   15  C10 UNL     1       4.387   4.075  52.023  1.00  0.00     0.272 C 
HETATM   16  O6  UNL     1       5.413   3.975  51.347  1.00  0.00    -0.266 OA
ATOM     17  H9  UNL     1       2.573   4.911  52.422  1.00  0.00     0.191 HD
BRANCH  15  18
HETATM   18  C11 UNL     1       4.295   3.171  53.193  1.00  0.00     0.049 A 
HETATM   19  C12 UNL     1       4.105   3.624  54.475  1.00  0.00     0.020 A 
HETATM   20  C13 UNL     1       4.035   2.720  55.542  1.00  0.00     0.018 A 
HETATM   21  C14 UNL     1       4.159   1.372  55.294  1.00  0.00     0.087 A 
HETATM   22  N10 UNL     1       4.346   0.942  54.033  1.00  0.00    -0.374 N 
HETATM   23  C15 UNL     1       4.414   1.797  53.003  1.00  0.00     0.104 A 
ATOM     24  H10 UNL     1       4.438  -0.058  53.856  1.00  0.00     0.164 HD
ENDBRANCH  15  18
ENDBRANCH  12  14
BRANCH  13  25
HETATM   25  O7  UNL     1       3.574   4.627  48.667  1.00  0.00    -0.343 OA
ATOM     26  H7  UNL     1       4.433   4.223  48.709  1.00  0.00     0.219 HD
ENDBRANCH  13  25
ENDBRANCH   6   8
ENDBRANCH   3   5
BRANCH   1  27
HETATM   27  C5  UNL     1       3.771  10.033  43.616  1.00  0.00     0.329 C 
HETATM   28  N5  UNL     1       3.531   8.996  42.687  1.00  0.00    -0.259 N 
ATOM     29  H5  UNL     1       3.380   8.051  43.039  1.00  0.00     0.190 HD
HETATM   30  O2  UNL     1       3.955  11.194  43.190  1.00  0.00    -0.261 OA
BRANCH  28  31
HETATM   31  N4  UNL     1       3.489   9.205  41.309  1.00  0.00    -0.266 N 
HETATM   32  C4  UNL     1       4.381   8.607  40.394  1.00  0.00     0.245 C 
HETATM   33  O1  UNL     1       5.272   7.835  40.819  1.00  0.00    -0.271 OA
ATOM     34  H4  UNL     1       2.771   9.829  40.941  1.00  0.00     0.190 HD
BRANCH  32  35
HETATM   35  C3  UNL     1       4.281   8.876  38.945  1.00  0.00     0.186 C 
BRANCH  35  36
HETATM   36  S1  UNL     1       3.674   7.492  37.986  1.00  0.00    -0.094 SA
BRANCH  36  37
HETATM   37  C2  UNL     1       4.594   5.983  38.364  1.00  0.00     0.130 A 
HETATM   38  N3  UNL     1       4.734   5.368  39.529  1.00  0.00    -0.286 N 
HETATM   39  N2  UNL     1       5.423   4.306  39.612  1.00  0.00    -0.279 N 
ATOM     40  H3  UNL     1       4.286   5.750  40.362  1.00  0.00     0.188 HD
HETATM   41  C1  UNL     1       6.000   3.827  38.504  1.00  0.00     0.159 A 
ATOM     42  H2  UNL     1       5.535   3.828  40.505  1.00  0.00     0.189 HD
HETATM   43  S2  UNL     1       5.507   4.973  37.334  1.00  0.00    -0.027 SA
BRANCH  41  44
HETATM   44  N1  UNL     1       6.745   2.751  38.387  1.00  0.00    -0.379 N 
ATOM     45  H12 UNL     1       7.649   2.521  38.800  1.00  0.00     0.158 HD
ATOM     46  H11 UNL     1       6.549   1.913  37.841  1.00  0.00     0.158 HD
ENDBRANCH  41  44
ENDBRANCH  36  37
ENDBRANCH  35  36
ENDBRANCH  32  35
ENDBRANCH  28  31
ENDBRANCH   1  27
TORSDOF 11
ENDMDL
MODEL 3
REMARK VINA RESULT: -7.928965447      2.212      2.814
REMARK  11 active torsions:
REMARK  status: ('A' for Active; 'I' for Inactive)
REMARK    1  A    between atoms: N1_1  and  C1_4 
REMARK    2  A    between atoms: C2_9  and  S1_10 
REMARK    3  A    between atoms: S1_10  and  C3_11 
REMARK    4  A    between atoms: C3_11  and  C4_12 
REMARK       I    between atoms: C4_12  and  N4_14 
REMARK    5  A    between atoms: N4_14  and  N5_16 
REMARK       I    between atoms: N5_16  and  C5_18 
REMARK    6  A    between atoms: C5_18  and  C6_20 
REMARK       I    between atoms: C6_20  and  N6_22 
REMARK    7  A    between atoms: N6_22  and  N7_24 
REMARK    8  A    between atoms: C7_26  and  C8_27 
REMARK    9  A    between atoms: N8_31  and  N9_32 
REMARK       I    between atoms: N9_32  and  C10_34 
REMARK   10  A    between atoms: C10_34  and  C11_36 
REMARK   11  A    between atoms: C16_43  and  O7_44 
ROOT
HETATM    1  C6  UNL     1       3.750   9.732  44.991  1.00  0.00     0.329 C 
HETATM    2  O3  UNL     1       4.473  10.389  45.782  1.00  0.00    -0.261 OA
HETATM    3  N6  UNL     1       2.905   8.726  45.513  1.00  0.00    -0.262 N 
ATOM      4  H6  UNL     1       2.321   8.194  44.868  1.00  0.00     0.190 HD
ENDROOT
BRANCH   3   5
HETATM    5  N7  UNL     1       2.838   8.430  46.883  1.00  0.00    -0.306 N 
HETATM    6  C7  UNL     1       2.713   7.234  47.289  1.00  0.00     0.149 C 
ATOM      7  H7  UNL     1       2.890   9.188  47.563  1.00  0.00     0.186 HD
BRANCH   6   8
HETATM    8  C8  UNL     1       2.644   6.943  48.714  1.00  0.00     0.150 A 
HETATM    9  O4  UNL     1       2.923   7.733  49.706  1.00  0.00    -0.254 OA
HETATM   10  C9  UNL     1       2.746   7.132  50.848  1.00  0.00     0.394 A 
HETATM   11  O5  UNL     1       2.930   7.623  51.999  1.00  0.00    -0.236 OA
HETATM   12  N8  UNL     1       2.323   5.859  50.633  1.00  0.00    -0.170 N 
HETATM   13  C16 UNL     1       2.259   5.742  49.313  1.00  0.00     0.203 A 
BRANCH  12  14
HETATM   14  N9  UNL     1       2.038   4.945  51.636  1.00  0.00    -0.252 N 
HETATM   15  C10 UNL     1       0.922   4.820  52.450  1.00  0.00     0.272 C 
HETATM   16  O6  UNL     1      -0.069   5.552  52.405  1.00  0.00    -0.266 OA
ATOM     17  H9  UNL     1       2.768   4.252  51.802  1.00  0.00     0.191 HD
BRANCH  15  18
HETATM   18  C11 UNL     1       0.877   3.737  53.460  1.00  0.00     0.049 A 
HETATM   19  C12 UNL     1      -0.106   3.642  54.414  1.00  0.00     0.020 A 
HETATM   20  C13 UNL     1      -0.088   2.599  55.348  1.00  0.00     0.018 A 
HETATM   21  C14 UNL     1       0.925   1.667  55.301  1.00  0.00     0.087 A 
HETATM   22  N10 UNL     1       1.882   1.773  54.361  1.00  0.00    -0.374 N 
HETATM   23  C15 UNL     1       1.876   2.766  53.461  1.00  0.00     0.104 A 
ATOM     24  H10 UNL     1       2.630   1.080  54.332  1.00  0.00     0.164 HD
ENDBRANCH  15  18
ENDBRANCH  12  14
BRANCH  13  25
HETATM   25  O7  UNL     1       1.884   4.652  48.535  1.00  0.00    -0.343 OA
ATOM     26  H7  UNL     1       2.466   3.908  48.433  1.00  0.00     0.219 HD
ENDBRANCH  13  25
ENDBRANCH   6   8
ENDBRANCH   3   5
BRANCH   1  27
HETATM   27  C5  UNL     1       3.778   9.994  43.572  1.00  0.00     0.329 C 
HETATM   28  N5  UNL     1       3.397   9.008  42.633  1.00  0.00    -0.259 N 
ATOM     29  H5  UNL     1       3.097   8.097  42.979  1.00  0.00     0.190 HD
HETATM   30  O2  UNL     1       4.145  11.114  43.154  1.00  0.00    -0.261 OA
BRANCH  28  31
HETATM   31  N4  UNL     1       3.412   9.224  41.257  1.00  0.00    -0.266 N 
HETATM   32  C4  UNL     1       4.360   8.655  40.380  1.00  0.00     0.245 C 
HETATM   33  O1  UNL     1       5.251   7.905  40.842  1.00  0.00    -0.271 OA
ATOM     34  H4  UNL     1       2.695   9.830  40.859  1.00  0.00     0.190 HD
BRANCH  32  35
HETATM   35  C3  UNL     1       4.318   8.929  38.929  1.00  0.00     0.186 C 
BRANCH  35  36
HETATM   36  S1  UNL     1       3.691   7.571  37.947  1.00  0.00    -0.094 SA
BRANCH  36  37
HETATM   37  C2  UNL     1       4.545   6.029  38.346  1.00  0.00     0.130 A 
HETATM   38  N3  UNL     1       4.746   5.477  39.533  1.00  0.00    -0.286 N 
HETATM   39  N2  UNL     1       5.373   4.378  39.628  1.00  0.00    -0.279 N 
ATOM     40  H3  UNL     1       4.396   5.937  40.373  1.00  0.00     0.188 HD
HETATM   41  C1  UNL     1       5.821   3.795  38.510  1.00  0.00     0.159 A 
ATOM     42  H2  UNL     1       5.532   3.947  40.538  1.00  0.00     0.189 HD
HETATM   43  S2  UNL     1       5.301   4.900  37.312  1.00  0.00    -0.027 SA
BRANCH  41  44
HETATM   44  N1  UNL     1       6.485   2.667  38.403  1.00  0.00    -0.379 N 
ATOM     45  H12 UNL     1       6.195   1.705  38.584  1.00  0.00     0.158 HD
ATOM     46  H11 UNL     1       7.452   2.538  38.106  1.00  0.00     0.158 HD
ENDBRANCH  41  44
ENDBRANCH  36  37
ENDBRANCH  35  36
ENDBRANCH  32  35
ENDBRANCH  28  31
ENDBRANCH   1  27
TORSDOF 11
ENDMDL
MODEL 4
REMARK VINA RESULT: -7.698589301      3.607      4.748
REMARK  11 active torsions:
REMARK  status: ('A' for Active; 'I' for Inactive)
REMARK    1  A    between atoms: N1_1  and  C1_4 
REMARK    2  A    between atoms: C2_9  and  S1_10 
REMARK    3  A    between atoms: S1_10  and  C3_11 
REMARK    4  A    between atoms: C3_11  and  C4_12 
REMARK       I    between atoms: C4_12  and  N4_14 
REMARK    5  A    between atoms: N4_14  and  N5_16 
REMARK       I    between atoms: N5_16  and  C5_18 
REMARK    6  A    between atoms: C5_18  and  C6_20 
REMARK       I    between atoms: C6_20  and  N6_22 
REMARK    7  A    between atoms: N6_22  and  N7_24 
REMARK    8  A    between atoms: C7_26  and  C8_27 
REMARK    9  A    between atoms: N8_31  and  N9_32 
REMARK       I    between atoms: N9_32  and  C10_34 
REMARK   10  A    between atoms: C10_34  and  C11_36 
REMARK   11  A    between atoms: C16_43  and  O7_44 
ROOT
HETATM    1  C6  UNL     1       2.416   9.037  48.315  1.00  0.00     0.329 C 
HETATM    2  O3  UNL     1       1.491   9.646  48.910  1.00  0.00    -0.261 OA
HETATM    3  N6  UNL     1       2.935   7.854  48.891  1.00  0.00    -0.262 N 
ATOM      4  H6  UNL     1       3.686   7.363  48.406  1.00  0.00     0.190 HD
ENDROOT
BRANCH   3   5
HETATM    5  N7  UNL     1       2.458   7.330  50.102  1.00  0.00    -0.306 N 
HETATM    6  C7  UNL     1       3.189   6.585  50.825  1.00  0.00     0.149 C 
ATOM      7  H7  UNL     1       1.510   7.550  50.406  1.00  0.00     0.186 HD
BRANCH   6   8
HETATM    8  C8  UNL     1       2.680   6.047  52.079  1.00  0.00     0.150 A 
HETATM    9  O4  UNL     1       3.360   5.633  53.105  1.00  0.00    -0.254 OA
HETATM   10  C9  UNL     1       2.569   5.218  54.053  1.00  0.00     0.394 A 
HETATM   11  O5  UNL     1       2.915   4.754  55.178  1.00  0.00    -0.236 OA
HETATM   12  N8  UNL     1       1.276   5.352  53.661  1.00  0.00    -0.170 N 
HETATM   13  C16 UNL     1       1.344   5.866  52.440  1.00  0.00     0.203 A 
BRANCH  12  14
HETATM   14  N9  UNL     1       0.179   5.005  54.435  1.00  0.00    -0.252 N 
HETATM   15  C10 UNL     1      -1.052   4.480  54.070  1.00  0.00     0.272 C 
HETATM   16  O6  UNL     1      -1.390   4.216  52.914  1.00  0.00    -0.266 OA
ATOM     17  H9  UNL     1       0.297   5.160  55.437  1.00  0.00     0.191 HD
BRANCH  15  18
HETATM   18  C11 UNL     1      -2.061   4.200  55.117  1.00  0.00     0.049 A 
HETATM   19  C12 UNL     1      -2.615   5.180  55.904  1.00  0.00     0.020 A 
HETATM   20  C13 UNL     1      -3.560   4.851  56.885  1.00  0.00     0.018 A 
HETATM   21  C14 UNL     1      -3.929   3.536  57.052  1.00  0.00     0.087 A 
HETATM   22  N10 UNL     1      -3.379   2.586  56.274  1.00  0.00    -0.374 N 
HETATM   23  C15 UNL     1      -2.474   2.887  55.332  1.00  0.00     0.104 A 
ATOM     24  H10 UNL     1      -3.656   1.613  56.404  1.00  0.00     0.164 HD
ENDBRANCH  15  18
ENDBRANCH  12  14
BRANCH  13  25
HETATM   25  O7  UNL     1       0.322   6.211  51.563  1.00  0.00    -0.343 OA
ATOM     26  H7  UNL     1       0.075   5.628  50.854  1.00  0.00     0.219 HD
ENDBRANCH  13  25
ENDBRANCH   6   8
ENDBRANCH   3   5
BRANCH   1  27
HETATM   27  C5  UNL     1       2.944   9.530  47.066  1.00  0.00     0.329 C 
HETATM   28  N5  UNL     1       3.388   8.648  46.055  1.00  0.00    -0.259 N 
ATOM     29  H5  UNL     1       3.326   7.644  46.223  1.00  0.00     0.190 HD
HETATM   30  O2  UNL     1       3.015  10.762  46.865  1.00  0.00    -0.261 OA
BRANCH  28  31
HETATM   31  N4  UNL     1       3.905   9.087  44.837  1.00  0.00    -0.266 N 
HETATM   32  C4  UNL     1       3.114   9.397  43.711  1.00  0.00     0.245 C 
HETATM   33  O1  UNL     1       1.868   9.281  43.784  1.00  0.00    -0.271 OA
ATOM     34  H4  UNL     1       4.916   9.191  44.756  1.00  0.00     0.190 HD
BRANCH  32  35
HETATM   35  C3  UNL     1       3.730   9.856  42.449  1.00  0.00     0.186 C 
BRANCH  35  36
HETATM   36  S1  UNL     1       4.999   8.764  41.816  1.00  0.00    -0.094 SA
BRANCH  36  37
HETATM   37  C2  UNL     1       4.483   8.000  40.261  1.00  0.00     0.130 A 
HETATM   38  N3  UNL     1       3.786   8.531  39.268  1.00  0.00    -0.286 N 
HETATM   39  N2  UNL     1       3.513   7.841  38.239  1.00  0.00    -0.279 N 
ATOM     40  H3  UNL     1       3.467   9.497  39.332  1.00  0.00     0.188 HD
HETATM   41  C1  UNL     1       3.944   6.576  38.181  1.00  0.00     0.159 A 
ATOM     42  H2  UNL     1       2.976   8.244  37.471  1.00  0.00     0.189 HD
HETATM   43  S2  UNL     1       4.761   6.420  39.675  1.00  0.00    -0.027 SA
BRANCH  41  44
HETATM   44  N1  UNL     1       3.764   5.710  37.209  1.00  0.00    -0.379 N 
ATOM     45  H12 UNL     1       2.977   5.578  36.574  1.00  0.00     0.158 HD
ATOM     46  H11 UNL     1       4.405   4.981  36.897  1.00  0.00     0.158 HD
ENDBRANCH  41  44
ENDBRANCH  36  37
ENDBRANCH  35  36
ENDBRANCH  32  35
ENDBRANCH  28  31
ENDBRANCH   1  27
TORSDOF 11
ENDMDL
MODEL 5
REMARK VINA RESULT: -7.625468244      3.107      4.467
REMARK  11 active torsions:
REMARK  status: ('A' for Active; 'I' for Inactive)
REMARK    1  A    between atoms: N1_1  and  C1_4 
REMARK    2  A    between atoms: C2_9  and  S1_10 
REMARK    3  A    between atoms: S1_10  and  C3_11 
REMARK    4  A    between atoms: C3_11  and  C4_12 
REMARK       I    between atoms: C4_12  and  N4_14 
REMARK    5  A    between atoms: N4_14  and  N5_16 
REMARK       I    between atoms: N5_16  and  C5_18 
REMARK    6  A    between atoms: C5_18  and  C6_20 
REMARK       I    between atoms: C6_20  and  N6_22 
REMARK    7  A    between atoms: N6_22  and  N7_24 
REMARK    8  A    between atoms: C7_26  and  C8_27 
REMARK    9  A    between atoms: N8_31  and  N9_32 
REMARK       I    between atoms: N9_32  and  C10_34 
REMARK   10  A    between atoms: C10_34  and  C11_36 
REMARK   11  A    between atoms: C16_43  and  O7_44 
ROOT
HETATM    1  C6  UNL     1       2.175   8.913  48.334  1.00  0.00     0.329 C 
HETATM    2  O3  UNL     1       1.616   9.684  49.153  1.00  0.00    -0.261 OA
HETATM    3  N6  UNL     1       2.234   7.531  48.627  1.00  0.00    -0.262 N 
ATOM      4  H6  UNL     1       2.690   6.908  47.961  1.00  0.00     0.190 HD
ENDROOT
BRANCH   3   5
HETATM    5  N7  UNL     1       1.690   6.983  49.799  1.00  0.00    -0.306 N 
HETATM    6  C7  UNL     1       2.435   6.453  50.680  1.00  0.00     0.149 C 
ATOM      7  H7  UNL     1       0.681   7.009  49.944  1.00  0.00     0.186 HD
BRANCH   6   8
HETATM    8  C8  UNL     1       1.856   5.888  51.891  1.00  0.00     0.150 A 
HETATM    9  O4  UNL     1       0.622   5.948  52.291  1.00  0.00    -0.254 OA
HETATM   10  C9  UNL     1       0.466   5.326  53.425  1.00  0.00     0.394 A 
HETATM   11  O5  UNL     1      -0.609   5.203  54.079  1.00  0.00    -0.236 OA
HETATM   12  N8  UNL     1       1.656   4.809  53.829  1.00  0.00    -0.170 N 
HETATM   13  C16 UNL     1       2.515   5.156  52.879  1.00  0.00     0.203 A 
BRANCH  12  14
HETATM   14  N9  UNL     1       1.842   4.083  54.996  1.00  0.00    -0.252 N 
HETATM   15  C10 UNL     1       1.571   2.753  55.283  1.00  0.00     0.272 C 
HETATM   16  O6  UNL     1       1.090   1.945  54.486  1.00  0.00    -0.266 OA
ATOM     17  H9  UNL     1       2.243   4.614  55.769  1.00  0.00     0.191 HD
BRANCH  15  18
HETATM   18  C11 UNL     1       1.869   2.227  56.634  1.00  0.00     0.049 A 
HETATM   19  C12 UNL     1       0.894   1.815  57.509  1.00  0.00     0.020 A 
HETATM   20  C13 UNL     1       1.239   1.334  58.779  1.00  0.00     0.018 A 
HETATM   21  C14 UNL     1       2.565   1.279  59.142  1.00  0.00     0.087 A 
HETATM   22  N10 UNL     1       3.510   1.686  58.275  1.00  0.00    -0.374 N 
HETATM   23  C15 UNL     1       3.193   2.148  57.058  1.00  0.00     0.104 A 
ATOM     24  H10 UNL     1       4.491   1.643  58.551  1.00  0.00     0.164 HD
ENDBRANCH  15  18
ENDBRANCH  12  14
BRANCH  13  25
HETATM   25  O7  UNL     1       3.876   4.891  52.775  1.00  0.00    -0.343 OA
ATOM     26  H7  UNL     1       4.462   5.076  53.500  1.00  0.00     0.219 HD
ENDBRANCH  13  25
ENDBRANCH   6   8
ENDBRANCH   3   5
BRANCH   1  27
HETATM   27  C5  UNL     1       2.750   9.421  47.112  1.00  0.00     0.329 C 
HETATM   28  N5  UNL     1       3.299   8.555  46.139  1.00  0.00    -0.259 N 
ATOM     29  H5  UNL     1       3.280   7.551  46.316  1.00  0.00     0.190 HD
HETATM   30  O2  UNL     1       2.769  10.654  46.900  1.00  0.00    -0.261 OA
BRANCH  28  31
HETATM   31  N4  UNL     1       3.864   9.010  44.949  1.00  0.00    -0.266 N 
HETATM   32  C4  UNL     1       3.115   9.372  43.810  1.00  0.00     0.245 C 
HETATM   33  O1  UNL     1       1.865   9.291  43.844  1.00  0.00    -0.271 OA
ATOM     34  H4  UNL     1       4.880   9.085  44.900  1.00  0.00     0.190 HD
BRANCH  32  35
HETATM   35  C3  UNL     1       3.781   9.845  42.578  1.00  0.00     0.186 C 
BRANCH  35  36
HETATM   36  S1  UNL     1       5.021   8.722  41.941  1.00  0.00    -0.094 SA
BRANCH  36  37
HETATM   37  C2  UNL     1       4.510   8.017  40.357  1.00  0.00     0.130 A 
HETATM   38  N3  UNL     1       3.814   8.585  39.384  1.00  0.00    -0.286 N 
HETATM   39  N2  UNL     1       3.544   7.935  38.329  1.00  0.00    -0.279 N 
ATOM     40  H3  UNL     1       3.494   9.548  39.484  1.00  0.00     0.188 HD
HETATM   41  C1  UNL     1       3.975   6.673  38.224  1.00  0.00     0.159 A 
ATOM     42  H2  UNL     1       3.008   8.366  37.576  1.00  0.00     0.189 HD
HETATM   43  S2  UNL     1       4.789   6.461  39.713  1.00  0.00    -0.027 SA
BRANCH  41  44
HETATM   44  N1  UNL     1       3.798   5.844  37.220  1.00  0.00    -0.379 N 
ATOM     45  H12 UNL     1       2.970   5.329  36.922  1.00  0.00     0.158 HD
ATOM     46  H11 UNL     1       4.484   5.552  36.524  1.00  0.00     0.158 HD
ENDBRANCH  41  44
ENDBRANCH  36  37
ENDBRANCH  35  36
ENDBRANCH  32  35
ENDBRANCH  28  31
ENDBRANCH   1  27
TORSDOF 11
ENDMDL
