MODEL 1
REMARK VINA RESULT: -8.749652897      0.000      0.000
REMARK  2 active torsions:
REMARK  status: ('A' for Active; 'I' for Inactive)
REMARK    1  A    between atoms: C6_7  and  N1_8 
REMARK    2  A    between atoms: N1_8  and  C7_10 
ROOT
HETATM    1  C1  UNL     1      22.671  11.530 -13.658  1.00  0.00     0.017 C 
HETATM    2  C2  UNL     1      22.354  11.269 -12.195  1.00  0.00     0.044 C 
HETATM    3  C3  UNL     1      21.748   9.904 -12.048  1.00  0.00     0.021 C 
HETATM    4  C4  UNL     1      21.310   9.745 -10.668  1.00  0.00     0.055 C 
HETATM    5  C5  UNL     1      19.997  10.407 -10.536  1.00  0.00     0.201 C 
HETATM    6  O1  UNL     1      19.995  10.569  -9.223  1.00  0.00    -0.350 OA
HETATM    7  C6  UNL     1      19.156   9.949  -8.385  1.00  0.00     0.277 C 
HETATM    8  C13 UNL     1      18.676   8.841  -9.337  1.00  0.00     0.315 C 
HETATM    9  O2  UNL     1      17.589   9.437  -9.941  1.00  0.00    -0.296 OA
HETATM   10  C14 UNL     1      17.585  10.564 -10.627  1.00  0.00     0.312 C 
HETATM   11  C15 UNL     1      16.103  11.037 -10.612  1.00  0.00     0.118 C 
HETATM   12  O3  UNL     1      17.832  10.466 -12.019  1.00  0.00    -0.168 OA
HETATM   13  O4  UNL     1      18.677  11.445 -12.335  1.00  0.00    -0.188 OA
HETATM   14  C16 UNL     1      19.431  11.589 -11.143  1.00  0.00     0.250 C 
HETATM   15  C17 UNL     1      20.392  12.640 -11.187  1.00  0.00     0.084 C 
HETATM   16  C18 UNL     1      21.638  12.402 -11.662  1.00  0.00     0.099 C 
HETATM   17  F1  UNL     1      22.402  13.546 -11.617  1.00  0.00    -0.211 F 
HETATM   18  O5  UNL     1      18.273  11.721 -10.326  1.00  0.00    -0.285 OA
HETATM   19  O6  UNL     1      19.590   8.135  -9.931  1.00  0.00    -0.346 OA
HETATM   20  C19 UNL     1      20.911   8.322 -10.189  1.00  0.00     0.063 C 
HETATM   21  C20 UNL     1      21.885   7.762  -9.211  1.00  0.00     0.046 C 
HETATM   22  C21 UNL     1      21.150   7.486 -11.477  1.00  0.00     0.046 C 
ENDROOT
BRANCH   7  23
HETATM   23  N1  UNL     1      19.679   9.489  -7.152  1.00  0.00    -0.360 N 
ATOM     24  H1  UNL     1      20.443  10.020  -6.734  1.00  0.00     0.162 HD
BRANCH  23  25
HETATM   25  C7  UNL     1      19.215   8.347  -6.461  1.00  0.00     0.029 A 
HETATM   26  C8  UNL     1      17.878   8.066  -6.272  1.00  0.00     0.029 A 
HETATM   27  C9  UNL     1      17.421   6.948  -5.605  1.00  0.00     0.002 A 
HETATM   28  C10 UNL     1      18.322   6.043  -5.085  1.00  0.00     0.000 A 
HETATM   29  C11 UNL     1      19.664   6.293  -5.255  1.00  0.00     0.002 A 
HETATM   30  C12 UNL     1      20.103   7.414  -5.924  1.00  0.00     0.029 A 
ENDBRANCH  23  25
ENDBRANCH   7  23
TORSDOF 2
ENDMDL
MODEL 2
REMARK VINA RESULT: -8.670070153      2.059      3.378
REMARK  2 active torsions:
REMARK  status: ('A' for Active; 'I' for Inactive)
REMARK    1  A    between atoms: C6_7  and  N1_8 
REMARK    2  A    between atoms: N1_8  and  C7_10 
ROOT
HETATM    1  C1  UNL     1      23.658  15.389 -14.137  1.00  0.00     0.017 C 
HETATM    2  C2  UNL     1      23.547  14.212 -13.180  1.00  0.00     0.044 C 
HETATM    3  C3  UNL     1      22.868  13.066 -13.872  1.00  0.00     0.021 C 
HETATM    4  C4  UNL     1      22.633  12.016 -12.890  1.00  0.00     0.055 C 
HETATM    5  C5  UNL     1      21.410  12.368 -12.142  1.00  0.00     0.201 C 
HETATM    6  O1  UNL     1      21.619  11.621 -11.071  1.00  0.00    -0.350 OA
HETATM    7  C6  UNL     1      20.871  10.565 -10.725  1.00  0.00     0.277 C 
HETATM    8  C13 UNL     1      20.169  10.344 -12.076  1.00  0.00     0.315 C 
HETATM    9  O2  UNL     1      19.053  11.143 -11.948  1.00  0.00    -0.296 OA
HETATM   10  C14 UNL     1      19.030  12.440 -11.711  1.00  0.00     0.312 C 
HETATM   11  C15 UNL     1      17.609  12.720 -11.145  1.00  0.00     0.118 C 
HETATM   12  O3  UNL     1      19.056  13.297 -12.838  1.00  0.00    -0.168 OA
HETATM   13  O4  UNL     1      19.916  14.276 -12.565  1.00  0.00    -0.188 OA
HETATM   14  C16 UNL     1      20.850  13.630 -11.718  1.00  0.00     0.250 C 
HETATM   15  C17 UNL     1      21.871  14.487 -11.216  1.00  0.00     0.084 C 
HETATM   16  C18 UNL     1      23.010  14.677 -11.926  1.00  0.00     0.099 C 
HETATM   17  F1  UNL     1      23.857  15.538 -11.266  1.00  0.00    -0.211 F 
HETATM   18  O5  UNL     1      19.843  13.139 -10.841  1.00  0.00    -0.285 OA
HETATM   19  O6  UNL     1      20.926  10.248 -13.126  1.00  0.00    -0.346 OA
HETATM   20  C19 UNL     1      22.204  10.616 -13.409  1.00  0.00     0.063 C 
HETATM   21  C20 UNL     1      23.269   9.592 -13.219  1.00  0.00     0.046 C 
HETATM   22  C21 UNL     1      22.180  10.852 -14.945  1.00  0.00     0.046 C 
ENDROOT
BRANCH   7  23
HETATM   23  N1  UNL     1      21.538   9.429 -10.207  1.00  0.00    -0.360 N 
ATOM     24  H1  UNL     1      22.300   9.034 -10.759  1.00  0.00     0.162 HD
BRANCH  23  25
HETATM   25  C7  UNL     1      21.221   8.805  -8.980  1.00  0.00     0.029 A 
HETATM   26  C8  UNL     1      21.730   7.581  -8.598  1.00  0.00     0.029 A 
HETATM   27  C9  UNL     1      21.430   6.972  -7.397  1.00  0.00     0.002 A 
HETATM   28  C10 UNL     1      20.578   7.592  -6.507  1.00  0.00     0.000 A 
HETATM   29  C11 UNL     1      20.052   8.814  -6.857  1.00  0.00     0.002 A 
HETATM   30  C12 UNL     1      20.363   9.408  -8.059  1.00  0.00     0.029 A 
ENDBRANCH  23  25
ENDBRANCH   7  23
TORSDOF 2
ENDMDL
MODEL 3
REMARK VINA RESULT: -8.556465259      2.101      3.627
REMARK  2 active torsions:
REMARK  status: ('A' for Active; 'I' for Inactive)
REMARK    1  A    between atoms: C6_7  and  N1_8 
REMARK    2  A    between atoms: N1_8  and  C7_10 
ROOT
HETATM    1  C1  UNL     1      21.173  17.071 -12.310  1.00  0.00     0.017 C 
HETATM    2  C2  UNL     1      21.407  15.746 -11.603  1.00  0.00     0.044 C 
HETATM    3  C3  UNL     1      21.402  14.632 -12.610  1.00  0.00     0.021 C 
HETATM    4  C4  UNL     1      21.468  13.367 -11.891  1.00  0.00     0.055 C 
HETATM    5  C5  UNL     1      20.103  13.041 -11.433  1.00  0.00     0.201 C 
HETATM    6  O1  UNL     1      20.422  12.192 -10.470  1.00  0.00    -0.350 OA
HETATM    7  C6  UNL     1      20.142  10.884 -10.489  1.00  0.00     0.277 C 
HETATM    8  C13 UNL     1      19.838  10.748 -11.990  1.00  0.00     0.315 C 
HETATM    9  O2  UNL     1      18.485  11.011 -12.031  1.00  0.00    -0.296 OA
HETATM   10  C14 UNL     1      17.879  12.106 -11.613  1.00  0.00     0.312 C 
HETATM   11  C15 UNL     1      16.399  11.685 -11.390  1.00  0.00     0.118 C 
HETATM   12  O3  UNL     1      17.732  13.155 -12.554  1.00  0.00    -0.168 OA
HETATM   13  O4  UNL     1      18.040  14.288 -11.926  1.00  0.00    -0.188 OA
HETATM   14  C16 UNL     1      19.001  13.856 -10.978  1.00  0.00     0.250 C 
HETATM   15  C17 UNL     1      19.465  14.886 -10.109  1.00  0.00     0.084 C 
HETATM   16  C18 UNL     1      20.520  15.656 -10.470  1.00  0.00     0.099 C 
HETATM   17  F1  UNL     1      20.801  16.585  -9.494  1.00  0.00    -0.211 F 
HETATM   18  O5  UNL     1      18.161  12.826 -10.470  1.00  0.00    -0.285 OA
HETATM   19  O6  UNL     1      20.731  11.201 -12.817  1.00  0.00    -0.346 OA
HETATM   20  C19 UNL     1      21.763  12.079 -12.708  1.00  0.00     0.063 C 
HETATM   21  C20 UNL     1      23.110  11.519 -12.412  1.00  0.00     0.046 C 
HETATM   22  C21 UNL     1      21.903  12.653 -14.145  1.00  0.00     0.046 C 
ENDROOT
BRANCH   7  23
HETATM   23  N1  UNL     1      21.126   9.993  -9.997  1.00  0.00    -0.360 N 
ATOM     24  H1  UNL     1      22.022   9.963 -10.483  1.00  0.00     0.162 HD
BRANCH  23  25
HETATM   25  C7  UNL     1      20.953   9.144  -8.881  1.00  0.00     0.029 A 
HETATM   26  C8  UNL     1      21.579   7.922  -8.753  1.00  0.00     0.029 A 
HETATM   27  C9  UNL     1      21.419   7.094  -7.661  1.00  0.00     0.002 A 
HETATM   28  C10 UNL     1      20.595   7.477  -6.625  1.00  0.00     0.000 A 
HETATM   29  C11 UNL     1      19.953   8.691  -6.720  1.00  0.00     0.002 A 
HETATM   30  C12 UNL     1      20.125   9.506  -7.816  1.00  0.00     0.029 A 
ENDBRANCH  23  25
ENDBRANCH   7  23
TORSDOF 2
ENDMDL
MODEL 4
REMARK VINA RESULT: -8.114816114      3.372      7.539
REMARK  2 active torsions:
REMARK  status: ('A' for Active; 'I' for Inactive)
REMARK    1  A    between atoms: C6_7  and  N1_8 
REMARK    2  A    between atoms: N1_8  and  C7_10 
ROOT
HETATM    1  C1  UNL     1      18.071   8.879  -9.346  1.00  0.00     0.017 C 
HETATM    2  C2  UNL     1      18.951  10.119  -9.372  1.00  0.00     0.044 C 
HETATM    3  C3  UNL     1      18.448  11.068 -10.420  1.00  0.00     0.021 C 
HETATM    4  C4  UNL     1      19.397  12.167 -10.532  1.00  0.00     0.055 C 
HETATM    5  C5  UNL     1      20.508  11.714 -11.390  1.00  0.00     0.201 C 
HETATM    6  O1  UNL     1      21.418  12.593 -11.006  1.00  0.00    -0.350 OA
HETATM    7  C6  UNL     1      21.925  13.552 -11.790  1.00  0.00     0.277 C 
HETATM    8  C13 UNL     1      20.854  13.520 -12.893  1.00  0.00     0.315 C 
HETATM    9  O2  UNL     1      21.368  12.578 -13.759  1.00  0.00    -0.296 OA
HETATM   10  C14 UNL     1      21.668  11.325 -13.478  1.00  0.00     0.312 C 
HETATM   11  C15 UNL     1      22.666  10.892 -14.589  1.00  0.00     0.118 C 
HETATM   12  O3  UNL     1      20.637  10.367 -13.640  1.00  0.00    -0.168 OA
HETATM   13  O4  UNL     1      20.677   9.565 -12.578  1.00  0.00    -0.188 OA
HETATM   14  C16 UNL     1      21.153  10.433 -11.563  1.00  0.00     0.250 C 
HETATM   15  C17 UNL     1      21.354   9.799 -10.303  1.00  0.00     0.084 C 
HETATM   16  C18 UNL     1      20.333   9.711  -9.415  1.00  0.00     0.099 C 
HETATM   17  F1  UNL     1      20.739   9.065  -8.270  1.00  0.00    -0.211 F 
HETATM   18  O5  UNL     1      22.275  10.854 -12.331  1.00  0.00    -0.285 OA
HETATM   19  O6  UNL     1      19.615  13.619 -12.516  1.00  0.00    -0.346 OA
HETATM   20  C19 UNL     1      18.965  13.423 -11.339  1.00  0.00     0.063 C 
HETATM   21  C20 UNL     1      18.757  14.611 -10.466  1.00  0.00     0.046 C 
HETATM   22  C21 UNL     1      17.530  13.026 -11.780  1.00  0.00     0.046 C 
ENDROOT
BRANCH   7  23
HETATM   23  N1  UNL     1      22.147  14.825 -11.212  1.00  0.00    -0.360 N 
ATOM     24  H1  UNL     1      21.844  14.967 -10.248  1.00  0.00     0.162 HD
BRANCH  23  25
HETATM   25  C7  UNL     1      22.759  15.911 -11.877  1.00  0.00     0.029 A 
HETATM   26  C8  UNL     1      24.063  15.888 -12.325  1.00  0.00     0.029 A 
HETATM   27  C9  UNL     1      24.662  16.943 -12.982  1.00  0.00     0.002 A 
HETATM   28  C10 UNL     1      23.948  18.099 -13.218  1.00  0.00     0.000 A 
HETATM   29  C11 UNL     1      22.644  18.156 -12.783  1.00  0.00     0.002 A 
HETATM   30  C12 UNL     1      22.061  17.093 -12.130  1.00  0.00     0.029 A 
ENDBRANCH  23  25
ENDBRANCH   7  23
TORSDOF 2
ENDMDL
MODEL 5
REMARK VINA RESULT: -7.917839489      2.846      4.720
REMARK  2 active torsions:
REMARK  status: ('A' for Active; 'I' for Inactive)
REMARK    1  A    between atoms: C6_7  and  N1_8 
REMARK    2  A    between atoms: N1_8  and  C7_10 
ROOT
HETATM    1  C1  UNL     1      17.750  14.311 -15.619  1.00  0.00     0.017 C 
HETATM    2  C2  UNL     1      18.026  13.011 -14.879  1.00  0.00     0.044 C 
HETATM    3  C3  UNL     1      18.192  13.293 -13.414  1.00  0.00     0.021 C 
HETATM    4  C4  UNL     1      18.611  12.062 -12.758  1.00  0.00     0.055 C 
HETATM    5  C5  UNL     1      20.066  11.921 -12.958  1.00  0.00     0.201 C 
HETATM    6  O1  UNL     1      20.165  10.621 -12.737  1.00  0.00    -0.350 OA
HETATM    7  C6  UNL     1      20.805  10.075 -11.695  1.00  0.00     0.277 C 
HETATM    8  C13 UNL     1      20.890  11.330 -10.810  1.00  0.00     0.315 C 
HETATM    9  O2  UNL     1      22.084  11.885 -11.220  1.00  0.00    -0.296 OA
HETATM   10  C14 UNL     1      22.407  12.255 -12.444  1.00  0.00     0.312 C 
HETATM   11  C15 UNL     1      23.961  12.294 -12.455  1.00  0.00     0.118 C 
HETATM   12  O3  UNL     1      22.091  13.585 -12.814  1.00  0.00    -0.168 OA
HETATM   13  O4  UNL     1      21.573  13.537 -14.040  1.00  0.00    -0.188 OA
HETATM   14  C16 UNL     1      20.943  12.268 -14.051  1.00  0.00     0.250 C 
HETATM   15  C17 UNL     1      20.347  11.925 -15.299  1.00  0.00     0.084 C 
HETATM   16  C18 UNL     1      19.071  12.294 -15.567  1.00  0.00     0.099 C 
HETATM   17  F1  UNL     1      18.694  11.867 -16.820  1.00  0.00    -0.211 F 
HETATM   18  O5  UNL     1      22.115  11.588 -13.616  1.00  0.00    -0.285 OA
HETATM   19  O6  UNL     1      19.784  11.972 -10.588  1.00  0.00    -0.346 OA
HETATM   20  C19 UNL     1      18.574  12.015 -11.206  1.00  0.00     0.063 C 
HETATM   21  C20 UNL     1      17.512  11.105 -10.693  1.00  0.00     0.046 C 
HETATM   22  C21 UNL     1      18.045  13.436 -10.868  1.00  0.00     0.046 C 
ENDROOT
BRANCH   7  23
HETATM   23  N1  UNL     1      20.213   8.949 -11.076  1.00  0.00    -0.360 N 
ATOM     24  H1  UNL     1      19.592   8.369 -11.641  1.00  0.00     0.162 HD
BRANCH  23  25
HETATM   25  C7  UNL     1      20.422   8.571  -9.731  1.00  0.00     0.029 A 
HETATM   26  C8  UNL     1      19.594   8.956  -8.697  1.00  0.00     0.029 A 
HETATM   27  C9  UNL     1      19.790   8.583  -7.384  1.00  0.00     0.002 A 
HETATM   28  C10 UNL     1      20.863   7.784  -7.051  1.00  0.00     0.000 A 
HETATM   29  C11 UNL     1      21.711   7.382  -8.058  1.00  0.00     0.002 A 
HETATM   30  C12 UNL     1      21.499   7.762  -9.364  1.00  0.00     0.029 A 
ENDBRANCH  23  25
ENDBRANCH   7  23
TORSDOF 2
ENDMDL
