MODEL 1
REMARK VINA RESULT: -7.868388386      0.000      0.000
REMARK  15 active torsions:
REMARK  status: ('A' for Active; 'I' for Inactive)
REMARK    1  A    between atoms: C5_13  and  S1_14 
REMARK    2  A    between atoms: S1_14  and  S2_15 
REMARK    3  A    between atoms: S2_15  and  C6_16 
REMARK    4  A    between atoms: C6_16  and  C7_17 
REMARK    5  A    between atoms: C8_18  and  C9_19 
REMARK    6  A    between atoms: C9_19  and  N4_20 
REMARK    7  A    between atoms: N5_23  and  C12_24 
REMARK    8  A    between atoms: C13_25  and  S3_26 
REMARK    9  A    between atoms: C14_30  and  O5_31 
REMARK   10  A    between atoms: C18_37  and  C19_38 
REMARK   11  A    between atoms: C19_38  and  O7_39 
REMARK   12  A    between atoms: C19_38  and  O8_41 
REMARK   13  A    between atoms: N8_47  and  C20_48 
REMARK   14  A    between atoms: C20_48  and  C21_49 
REMARK   15  A    between atoms: C21_49  and  O9_50 
ROOT
HETATM    1  C7  UNL     1     -64.921  27.666 -29.102  1.00  0.00     0.069 A 
HETATM    2  C8  UNL     1     -66.238  27.431 -29.596  1.00  0.00     0.089 A 
HETATM    3  N6  UNL     1     -66.786  26.501 -28.862  1.00  0.00    -0.283 N 
ATOM      4  H6  UNL     1     -67.733  26.137 -28.963  1.00  0.00     0.188 HD
HETATM    5  N7  UNL     1     -65.917  26.124 -27.983  1.00  0.00    -0.240 N 
ATOM      6  H7  UNL     1     -66.080  25.397 -27.287  1.00  0.00     0.208 HD
HETATM    7  N8  UNL     1     -64.754  26.822 -28.105  1.00  0.00    -0.277 N 
ENDROOT
BRANCH   2   8
HETATM    8  C9  UNL     1     -66.539  28.026 -30.933  1.00  0.00     0.119 C 
BRANCH   8   9
HETATM    9  N4  UNL     1     -66.320  27.279 -32.084  1.00  0.00    -0.377 N 
HETATM   10  C10 UNL     1     -65.393  27.938 -32.993  1.00  0.00     0.143 C 
HETATM   11  C11 UNL     1     -65.145  27.216 -34.255  1.00  0.00     0.143 C 
HETATM   12  N5  UNL     1     -65.369  25.796 -34.245  1.00  0.00    -0.375 N 
HETATM   13  C16 UNL     1     -65.652  24.901 -33.102  1.00  0.00     0.125 C 
HETATM   14  C17 UNL     1     -67.018  25.105 -32.651  1.00  0.00     0.050 C 
HETATM   15  C18 UNL     1     -67.416  26.658 -32.714  1.00  0.00     0.140 C 
BRANCH  12  16
HETATM   16  C12 UNL     1     -65.216  25.109 -35.468  1.00  0.00     0.111 A 
HETATM   17  C13 UNL     1     -65.996  24.635 -36.497  1.00  0.00     0.148 A 
HETATM   18  C14 UNL     1     -64.885  24.116 -37.122  1.00  0.00     0.145 A 
HETATM   19  C15 UNL     1     -64.097  24.573 -36.112  1.00  0.00     0.234 A 
HETATM   20  O6  UNL     1     -62.823  24.502 -35.891  1.00  0.00    -0.283 OA
BRANCH  17  21
HETATM   21  S3  UNL     1     -67.724  24.698 -36.795  1.00  0.00     0.143 S 
HETATM   22  O2  UNL     1     -68.544  25.450 -35.841  1.00  0.00    -0.591 OA
HETATM   23  O3  UNL     1     -68.194  23.209 -36.905  1.00  0.00    -0.591 OA
HETATM   24  O4  UNL     1     -67.984  25.257 -38.381  1.00  0.00    -0.591 OA
ENDBRANCH  17  21
BRANCH  18  25
HETATM   25  O5  UNL     1     -64.714  23.452 -38.229  1.00  0.00    -0.356 OA
ATOM     26  H5  UNL     1     -64.435  22.564 -38.418  1.00  0.00     0.218 HD
ENDBRANCH  18  25
ENDBRANCH  12  16
BRANCH  15  27
HETATM   27  C19 UNL     1     -68.770  26.566 -32.148  1.00  0.00     0.276 C 
BRANCH  27  28
HETATM   28  O7  UNL     1     -68.891  25.543 -31.164  1.00  0.00    -0.369 OA
ATOM     29  H7  UNL     1     -69.793  25.296 -30.997  1.00  0.00     0.212 HD
ENDBRANCH  27  28
BRANCH  27  30
HETATM   30  O8  UNL     1     -69.704  26.264 -33.181  1.00  0.00    -0.369 OA
ATOM     31  H8  UNL     1     -70.253  25.537 -32.914  1.00  0.00     0.212 HD
ENDBRANCH  27  30
ENDBRANCH  15  27
ENDBRANCH   8   9
ENDBRANCH   2   8
BRANCH   1  32
HETATM   32  C6  UNL     1     -64.121  28.831 -29.562  1.00  0.00     0.147 C 
BRANCH  32  33
HETATM   33  S2  UNL     1     -62.477  28.436 -30.047  1.00  0.00    -0.086 SA
BRANCH  33  34
HETATM   34  S1  UNL     1     -62.345  26.733 -31.328  1.00  0.00    -0.051 SA
BRANCH  34  35
HETATM   35  C5  UNL     1     -61.020  25.648 -30.983  1.00  0.00     0.099 C 
HETATM   36  C3  UNL     1     -60.882  24.734 -29.881  1.00  0.00     0.100 A 
HETATM   37  C2  UNL     1     -59.478  24.636 -29.593  1.00  0.00     0.141 A 
HETATM   38  C4  UNL     1     -61.644  23.913 -29.096  1.00  0.00     0.275 A 
HETATM   39  N2  UNL     1     -59.063  23.801 -28.652  1.00  0.00    -0.176 N 
HETATM   40  N9  UNL     1     -58.775  25.578 -30.443  1.00  0.00    -0.307 N 
HETATM   41  C1  UNL     1     -59.840  23.027 -27.920  1.00  0.00     0.680 A 
ATOM     42  H2  UNL     1     -58.060  23.754 -28.479  1.00  0.00     0.186 HD
HETATM   43  N1  UNL     1     -59.423  22.220 -27.033  1.00  0.00    -0.234 N 
HETATM   44  N3  UNL     1     -61.183  23.086 -28.152  1.00  0.00    -0.155 N 
ATOM     45  H12 UNL     1     -58.418  22.175 -26.860  1.00  0.00     0.174 HD
ATOM     46  H11 UNL     1     -60.023  21.620 -26.467  1.00  0.00     0.174 HD
ATOM     47  H3  UNL     1     -61.826  22.507 -27.611  1.00  0.00     0.187 HD
HETATM   48  C22 UNL     1     -59.688  26.264 -31.235  1.00  0.00     0.265 C 
ATOM     49  H9  UNL     1     -57.764  25.716 -30.457  1.00  0.00     0.170 HD
HETATM   50  O10 UNL     1     -59.521  27.215 -32.008  1.00  0.00    -0.267 OA
HETATM   51  O1  UNL     1     -62.918  23.883 -29.226  1.00  0.00    -0.267 OA
ENDBRANCH  34  35
ENDBRANCH  33  34
ENDBRANCH  32  33
ENDBRANCH   1  32
BRANCH   7  52
HETATM   52  C20 UNL     1     -63.706  26.596 -27.143  1.00  0.00     0.176 C 
BRANCH  52  53
HETATM   53  C21 UNL     1     -63.829  27.454 -25.932  1.00  0.00     0.185 C 
BRANCH  53  54
HETATM   54  O9  UNL     1     -65.048  27.103 -25.300  1.00  0.00    -0.399 OA
ATOM     55  H9  UNL     1     -65.733  27.609 -25.722  1.00  0.00     0.209 HD
ENDBRANCH  53  54
ENDBRANCH  52  53
ENDBRANCH   7  52
TORSDOF 15
ENDMDL
MODEL 2
REMARK VINA RESULT: -7.732425480      2.892      7.422
REMARK  15 active torsions:
REMARK  status: ('A' for Active; 'I' for Inactive)
REMARK    1  A    between atoms: C5_13  and  S1_14 
REMARK    2  A    between atoms: S1_14  and  S2_15 
REMARK    3  A    between atoms: S2_15  and  C6_16 
REMARK    4  A    between atoms: C6_16  and  C7_17 
REMARK    5  A    between atoms: C8_18  and  C9_19 
REMARK    6  A    between atoms: C9_19  and  N4_20 
REMARK    7  A    between atoms: N5_23  and  C12_24 
REMARK    8  A    between atoms: C13_25  and  S3_26 
REMARK    9  A    between atoms: C14_30  and  O5_31 
REMARK   10  A    between atoms: C18_37  and  C19_38 
REMARK   11  A    between atoms: C19_38  and  O7_39 
REMARK   12  A    between atoms: C19_38  and  O8_41 
REMARK   13  A    between atoms: N8_47  and  C20_48 
REMARK   14  A    between atoms: C20_48  and  C21_49 
REMARK   15  A    between atoms: C21_49  and  O9_50 
ROOT
HETATM    1  C7  UNL     1     -67.255  25.330 -37.114  1.00  0.00     0.069 A 
HETATM    2  C8  UNL     1     -67.650  25.708 -35.797  1.00  0.00     0.089 A 
HETATM    3  N6  UNL     1     -68.802  25.148 -35.543  1.00  0.00    -0.283 N 
ATOM      4  H6  UNL     1     -69.324  25.220 -34.671  1.00  0.00     0.188 HD
HETATM    5  N7  UNL     1     -69.163  24.487 -36.594  1.00  0.00    -0.240 N 
ATOM      6  H7  UNL     1     -70.035  23.964 -36.673  1.00  0.00     0.208 HD
HETATM    7  N8  UNL     1     -68.232  24.580 -37.582  1.00  0.00    -0.277 N 
ENDROOT
BRANCH   2   8
HETATM    8  C9  UNL     1     -66.870  26.827 -35.188  1.00  0.00     0.119 C 
BRANCH   8   9
HETATM    9  N4  UNL     1     -66.437  26.727 -33.871  1.00  0.00    -0.377 N 
HETATM   10  C10 UNL     1     -65.705  25.492 -33.631  1.00  0.00     0.143 C 
HETATM   11  C11 UNL     1     -65.249  25.303 -32.241  1.00  0.00     0.143 C 
HETATM   12  N5  UNL     1     -65.083  26.488 -31.446  1.00  0.00    -0.375 N 
HETATM   13  C16 UNL     1     -65.136  27.908 -31.859  1.00  0.00     0.125 C 
HETATM   14  C17 UNL     1     -66.515  28.289 -32.114  1.00  0.00     0.050 C 
HETATM   15  C18 UNL     1     -67.314  27.099 -32.833  1.00  0.00     0.140 C 
BRANCH  12  16
HETATM   16  C12 UNL     1     -64.729  26.314 -30.091  1.00  0.00     0.111 A 
HETATM   17  C13 UNL     1     -63.674  25.842 -29.347  1.00  0.00     0.148 A 
HETATM   18  C14 UNL     1     -64.366  26.082 -28.182  1.00  0.00     0.145 A 
HETATM   19  C15 UNL     1     -65.422  26.549 -28.899  1.00  0.00     0.234 A 
HETATM   20  O6  UNL     1     -66.583  27.010 -28.557  1.00  0.00    -0.283 OA
BRANCH  17  21
HETATM   21  S3  UNL     1     -62.109  25.189 -29.798  1.00  0.00     0.143 S 
HETATM   22  O2  UNL     1     -61.906  24.840 -31.206  1.00  0.00    -0.591 OA
HETATM   23  O3  UNL     1     -61.874  23.955 -28.863  1.00  0.00    -0.591 OA
HETATM   24  O4  UNL     1     -60.898  26.258 -29.263  1.00  0.00    -0.591 OA
ENDBRANCH  17  21
BRANCH  18  25
HETATM   25  O5  UNL     1     -64.082  25.904 -26.923  1.00  0.00    -0.356 OA
ATOM     26  H5  UNL     1     -64.402  25.300 -26.264  1.00  0.00     0.218 HD
ENDBRANCH  18  25
ENDBRANCH  12  16
BRANCH  15  27
HETATM   27  C19 UNL     1     -68.604  27.779 -33.026  1.00  0.00     0.276 C 
BRANCH  27  28
HETATM   28  O7  UNL     1     -68.845  28.794 -32.056  1.00  0.00    -0.369 OA
ATOM     29  H7  UNL     1     -68.771  28.477 -31.164  1.00  0.00     0.212 HD
ENDBRANCH  27  28
BRANCH  27  30
HETATM   30  O8  UNL     1     -69.666  26.835 -32.917  1.00  0.00    -0.369 OA
ATOM     31  H8  UNL     1     -70.423  27.148 -33.397  1.00  0.00     0.212 HD
ENDBRANCH  27  30
ENDBRANCH  15  27
ENDBRANCH   8   9
ENDBRANCH   2   8
BRANCH   1  32
HETATM   32  C6  UNL     1     -65.881  25.599 -37.615  1.00  0.00     0.147 C 
BRANCH  32  33
HETATM   33  S2  UNL     1     -64.689  24.393 -37.145  1.00  0.00    -0.086 SA
BRANCH  33  34
HETATM   34  S1  UNL     1     -62.678  25.105 -37.205  1.00  0.00    -0.051 SA
BRANCH  34  35
HETATM   35  C5  UNL     1     -61.738  24.790 -35.767  1.00  0.00     0.099 C 
HETATM   36  C3  UNL     1     -61.331  25.720 -34.748  1.00  0.00     0.100 A 
HETATM   37  C2  UNL     1     -60.071  25.255 -34.238  1.00  0.00     0.141 A 
HETATM   38  C4  UNL     1     -61.789  26.834 -34.098  1.00  0.00     0.275 A 
HETATM   39  N2  UNL     1     -59.498  25.901 -33.234  1.00  0.00    -0.176 N 
HETATM   40  N9  UNL     1     -59.658  24.109 -35.025  1.00  0.00    -0.307 N 
HETATM   41  C1  UNL     1     -59.981  26.974 -32.638  1.00  0.00     0.680 A 
ATOM     42  H2  UNL     1     -58.607  25.539 -32.893  1.00  0.00     0.186 HD
HETATM   43  N1  UNL     1     -59.425  27.571 -31.665  1.00  0.00    -0.234 N 
HETATM   44  N3  UNL     1     -61.173  27.458 -33.089  1.00  0.00    -0.155 N 
ATOM     45  H12 UNL     1     -58.533  27.208 -31.327  1.00  0.00     0.174 HD
ATOM     46  H11 UNL     1     -59.799  28.400 -31.203  1.00  0.00     0.174 HD
ATOM     47  H3  UNL     1     -61.589  28.286 -32.662  1.00  0.00     0.187 HD
HETATM   48  C22 UNL     1     -60.605  23.856 -36.010  1.00  0.00     0.265 C 
ATOM     49  H9  UNL     1     -58.804  23.572 -34.878  1.00  0.00     0.170 HD
HETATM   50  O10 UNL     1     -60.587  23.049 -36.949  1.00  0.00    -0.267 OA
HETATM   51  O1  UNL     1     -62.899  27.375 -34.436  1.00  0.00    -0.267 OA
ENDBRANCH  34  35
ENDBRANCH  33  34
ENDBRANCH  32  33
ENDBRANCH   1  32
BRANCH   7  52
HETATM   52  C20 UNL     1     -68.428  23.825 -38.793  1.00  0.00     0.176 C 
BRANCH  52  53
HETATM   53  C21 UNL     1     -67.896  22.436 -38.709  1.00  0.00     0.185 C 
BRANCH  53  54
HETATM   54  O9  UNL     1     -68.726  21.732 -37.801  1.00  0.00    -0.399 OA
ATOM     55  H9  UNL     1     -68.918  20.890 -38.198  1.00  0.00     0.209 HD
ENDBRANCH  53  54
ENDBRANCH  52  53
ENDBRANCH   7  52
TORSDOF 15
ENDMDL
MODEL 3
REMARK VINA RESULT: -7.695799551      0.936      2.050
REMARK  15 active torsions:
REMARK  status: ('A' for Active; 'I' for Inactive)
REMARK    1  A    between atoms: C5_13  and  S1_14 
REMARK    2  A    between atoms: S1_14  and  S2_15 
REMARK    3  A    between atoms: S2_15  and  C6_16 
REMARK    4  A    between atoms: C6_16  and  C7_17 
REMARK    5  A    between atoms: C8_18  and  C9_19 
REMARK    6  A    between atoms: C9_19  and  N4_20 
REMARK    7  A    between atoms: N5_23  and  C12_24 
REMARK    8  A    between atoms: C13_25  and  S3_26 
REMARK    9  A    between atoms: C14_30  and  O5_31 
REMARK   10  A    between atoms: C18_37  and  C19_38 
REMARK   11  A    between atoms: C19_38  and  O7_39 
REMARK   12  A    between atoms: C19_38  and  O8_41 
REMARK   13  A    between atoms: N8_47  and  C20_48 
REMARK   14  A    between atoms: C20_48  and  C21_49 
REMARK   15  A    between atoms: C21_49  and  O9_50 
ROOT
HETATM    1  C7  UNL     1     -64.887  27.668 -29.183  1.00  0.00     0.069 A 
HETATM    2  C8  UNL     1     -66.210  27.432 -29.659  1.00  0.00     0.089 A 
HETATM    3  N6  UNL     1     -66.744  26.495 -28.923  1.00  0.00    -0.283 N 
ATOM      4  H6  UNL     1     -67.691  26.128 -29.014  1.00  0.00     0.188 HD
HETATM    5  N7  UNL     1     -65.860  26.114 -28.061  1.00  0.00    -0.240 N 
ATOM      6  H7  UNL     1     -66.011  25.381 -27.368  1.00  0.00     0.208 HD
HETATM    7  N8  UNL     1     -64.702  26.817 -28.195  1.00  0.00    -0.277 N 
ENDROOT
BRANCH   2   8
HETATM    8  C9  UNL     1     -66.533  28.037 -30.986  1.00  0.00     0.119 C 
BRANCH   8   9
HETATM    9  N4  UNL     1     -66.359  27.288 -32.144  1.00  0.00    -0.377 N 
HETATM   10  C10 UNL     1     -65.464  27.942 -33.087  1.00  0.00     0.143 C 
HETATM   11  C11 UNL     1     -65.266  27.219 -34.357  1.00  0.00     0.143 C 
HETATM   12  N5  UNL     1     -65.494  25.800 -34.338  1.00  0.00    -0.375 N 
HETATM   13  C16 UNL     1     -65.738  24.907 -33.184  1.00  0.00     0.125 C 
HETATM   14  C17 UNL     1     -67.086  25.116 -32.684  1.00  0.00     0.050 C 
HETATM   15  C18 UNL     1     -67.480  26.670 -32.733  1.00  0.00     0.140 C 
BRANCH  12  16
HETATM   16  C12 UNL     1     -65.389  25.111 -35.565  1.00  0.00     0.111 A 
HETATM   17  C13 UNL     1     -64.415  24.691 -36.439  1.00  0.00     0.148 A 
HETATM   18  C14 UNL     1     -65.372  24.183 -37.288  1.00  0.00     0.145 A 
HETATM   19  C15 UNL     1     -66.351  24.594 -36.439  1.00  0.00     0.234 A 
HETATM   20  O6  UNL     1     -67.642  24.514 -36.482  1.00  0.00    -0.283 OA
BRANCH  17  21
HETATM   21  S3  UNL     1     -62.665  24.818 -36.407  1.00  0.00     0.143 S 
HETATM   22  O2  UNL     1     -61.901  23.724 -37.011  1.00  0.00    -0.591 OA
HETATM   23  O3  UNL     1     -62.278  25.028 -34.905  1.00  0.00    -0.591 OA
HETATM   24  O4  UNL     1     -62.215  26.312 -37.087  1.00  0.00    -0.591 OA
ENDBRANCH  17  21
BRANCH  18  25
HETATM   25  O5  UNL     1     -65.311  23.573 -38.437  1.00  0.00    -0.356 OA
ATOM     26  H5  UNL     1     -65.933  23.457 -39.145  1.00  0.00     0.218 HD
ENDBRANCH  18  25
ENDBRANCH  12  16
BRANCH  15  27
HETATM   27  C19 UNL     1     -68.813  26.584 -32.117  1.00  0.00     0.276 C 
BRANCH  27  28
HETATM   28  O7  UNL     1     -68.909  25.545 -31.147  1.00  0.00    -0.369 OA
ATOM     29  H7  UNL     1     -69.787  25.446 -30.798  1.00  0.00     0.212 HD
ENDBRANCH  27  28
BRANCH  27  30
HETATM   30  O8  UNL     1     -69.789  26.312 -33.119  1.00  0.00    -0.369 OA
ATOM     31  H8  UNL     1     -69.671  25.430 -33.450  1.00  0.00     0.212 HD
ENDBRANCH  27  30
ENDBRANCH  15  27
ENDBRANCH   8   9
ENDBRANCH   2   8
BRANCH   1  32
HETATM   32  C6  UNL     1     -64.098  28.840 -29.646  1.00  0.00     0.147 C 
BRANCH  32  33
HETATM   33  S2  UNL     1     -62.468  28.450 -30.182  1.00  0.00    -0.086 SA
BRANCH  33  34
HETATM   34  S1  UNL     1     -62.362  26.711 -31.415  1.00  0.00    -0.051 SA
BRANCH  34  35
HETATM   35  C5  UNL     1     -61.040  25.628 -31.055  1.00  0.00     0.099 C 
HETATM   36  C3  UNL     1     -60.901  24.734 -29.936  1.00  0.00     0.100 A 
HETATM   37  C2  UNL     1     -59.496  24.637 -29.652  1.00  0.00     0.141 A 
HETATM   38  C4  UNL     1     -61.662  23.932 -29.132  1.00  0.00     0.275 A 
HETATM   39  N2  UNL     1     -59.080  23.819 -28.697  1.00  0.00    -0.176 N 
HETATM   40  N9  UNL     1     -58.793  25.559 -30.523  1.00  0.00    -0.307 N 
HETATM   41  C1  UNL     1     -59.857  23.062 -27.947  1.00  0.00     0.680 A 
ATOM     42  H2  UNL     1     -58.076  23.771 -28.527  1.00  0.00     0.186 HD
HETATM   43  N1  UNL     1     -59.439  22.271 -27.045  1.00  0.00    -0.234 N 
HETATM   44  N3  UNL     1     -61.200  23.122 -28.173  1.00  0.00    -0.155 N 
ATOM     45  H12 UNL     1     -58.434  22.226 -26.876  1.00  0.00     0.174 HD
ATOM     46  H11 UNL     1     -60.039  21.685 -26.465  1.00  0.00     0.174 HD
ATOM     47  H3  UNL     1     -61.843  22.557 -27.619  1.00  0.00     0.187 HD
HETATM   48  C22 UNL     1     -59.707  26.233 -31.324  1.00  0.00     0.265 C 
ATOM     49  H9  UNL     1     -57.782  25.693 -30.545  1.00  0.00     0.170 HD
HETATM   50  O10 UNL     1     -59.540  27.169 -32.117  1.00  0.00    -0.267 OA
HETATM   51  O1  UNL     1     -62.937  23.904 -29.256  1.00  0.00    -0.267 OA
ENDBRANCH  34  35
ENDBRANCH  33  34
ENDBRANCH  32  33
ENDBRANCH   1  32
BRANCH   7  52
HETATM   52  C20 UNL     1     -63.639  26.588 -27.251  1.00  0.00     0.176 C 
BRANCH  52  53
HETATM   53  C21 UNL     1     -63.760  27.418 -26.020  1.00  0.00     0.185 C 
BRANCH  53  54
HETATM   54  O9  UNL     1     -64.998  27.083 -25.417  1.00  0.00    -0.399 OA
ATOM     55  H9  UNL     1     -65.103  27.656 -24.666  1.00  0.00     0.209 HD
ENDBRANCH  53  54
ENDBRANCH  52  53
ENDBRANCH   7  52
TORSDOF 15
ENDMDL
MODEL 4
REMARK VINA RESULT: -7.695620817      3.396      6.397
REMARK  15 active torsions:
REMARK  status: ('A' for Active; 'I' for Inactive)
REMARK    1  A    between atoms: C5_13  and  S1_14 
REMARK    2  A    between atoms: S1_14  and  S2_15 
REMARK    3  A    between atoms: S2_15  and  C6_16 
REMARK    4  A    between atoms: C6_16  and  C7_17 
REMARK    5  A    between atoms: C8_18  and  C9_19 
REMARK    6  A    between atoms: C9_19  and  N4_20 
REMARK    7  A    between atoms: N5_23  and  C12_24 
REMARK    8  A    between atoms: C13_25  and  S3_26 
REMARK    9  A    between atoms: C14_30  and  O5_31 
REMARK   10  A    between atoms: C18_37  and  C19_38 
REMARK   11  A    between atoms: C19_38  and  O7_39 
REMARK   12  A    between atoms: C19_38  and  O8_41 
REMARK   13  A    between atoms: N8_47  and  C20_48 
REMARK   14  A    between atoms: C20_48  and  C21_49 
REMARK   15  A    between atoms: C21_49  and  O9_50 
ROOT
HETATM    1  C7  UNL     1     -65.198  26.963 -34.086  1.00  0.00     0.069 A 
HETATM    2  C8  UNL     1     -66.182  25.993 -34.438  1.00  0.00     0.089 A 
HETATM    3  N6  UNL     1     -66.061  24.980 -33.624  1.00  0.00    -0.283 N 
ATOM      4  H6  UNL     1     -66.641  24.142 -33.619  1.00  0.00     0.188 HD
HETATM    5  N7  UNL     1     -65.075  25.227 -32.825  1.00  0.00    -0.240 N 
ATOM      6  H7  UNL     1     -64.754  24.592 -32.094  1.00  0.00     0.208 HD
HETATM    7  N8  UNL     1     -64.519  26.441 -33.084  1.00  0.00    -0.277 N 
ENDROOT
BRANCH   2   8
HETATM    8  C9  UNL     1     -66.852  26.206 -35.756  1.00  0.00     0.119 C 
BRANCH   8   9
HETATM    9  N4  UNL     1     -66.913  25.165 -36.674  1.00  0.00    -0.377 N 
HETATM   10  C10 UNL     1     -68.035  24.274 -36.413  1.00  0.00     0.143 C 
HETATM   11  C11 UNL     1     -68.136  23.122 -37.328  1.00  0.00     0.143 C 
HETATM   12  N5  UNL     1     -67.521  23.262 -38.619  1.00  0.00    -0.375 N 
HETATM   13  C16 UNL     1     -66.937  24.465 -39.252  1.00  0.00     0.125 C 
HETATM   14  C17 UNL     1     -65.661  24.772 -38.627  1.00  0.00     0.050 C 
HETATM   15  C18 UNL     1     -65.722  24.511 -37.045  1.00  0.00     0.140 C 
BRANCH  12  16
HETATM   16  C12 UNL     1     -67.539  22.137 -39.471  1.00  0.00     0.111 A 
HETATM   17  C13 UNL     1     -68.452  21.353 -40.134  1.00  0.00     0.148 A 
HETATM   18  C14 UNL     1     -67.441  20.548 -40.609  1.00  0.00     0.145 A 
HETATM   19  C15 UNL     1     -66.522  21.310 -39.957  1.00  0.00     0.234 A 
HETATM   20  O6  UNL     1     -65.233  21.240 -39.861  1.00  0.00    -0.283 OA
BRANCH  17  21
HETATM   21  S3  UNL     1     -70.202  21.417 -40.250  1.00  0.00     0.143 S 
HETATM   22  O2  UNL     1     -70.970  20.647 -39.269  1.00  0.00    -0.591 OA
HETATM   23  O3  UNL     1     -70.550  20.988 -41.715  1.00  0.00    -0.591 OA
HETATM   24  O4  UNL     1     -70.688  23.048 -40.247  1.00  0.00    -0.591 OA
ENDBRANCH  17  21
BRANCH  18  25
HETATM   25  O5  UNL     1     -67.426  19.489 -41.367  1.00  0.00    -0.356 OA
ATOM     26  H5  UNL     1     -66.957  19.265 -42.161  1.00  0.00     0.218 HD
ENDBRANCH  18  25
ENDBRANCH  12  16
BRANCH  15  27
HETATM   27  C19 UNL     1     -64.368  24.965 -36.691  1.00  0.00     0.276 C 
BRANCH  27  28
HETATM   28  O7  UNL     1     -63.460  24.908 -37.788  1.00  0.00    -0.369 OA
ATOM     29  H7  UNL     1     -62.565  24.742 -37.518  1.00  0.00     0.212 HD
ENDBRANCH  27  28
BRANCH  27  30
HETATM   30  O8  UNL     1     -63.835  24.132 -35.665  1.00  0.00    -0.369 OA
ATOM     31  H8  UNL     1     -63.601  24.662 -34.912  1.00  0.00     0.212 HD
ENDBRANCH  27  30
ENDBRANCH  15  27
ENDBRANCH   8   9
ENDBRANCH   2   8
BRANCH   1  32
HETATM   32  C6  UNL     1     -65.226  28.334 -34.660  1.00  0.00     0.147 C 
BRANCH  32  33
HETATM   33  S2  UNL     1     -65.937  29.548 -33.603  1.00  0.00    -0.086 SA
BRANCH  33  34
HETATM   34  S1  UNL     1     -67.926  29.086 -32.981  1.00  0.00    -0.051 SA
BRANCH  34  35
HETATM   35  C5  UNL     1     -68.044  27.952 -31.658  1.00  0.00     0.099 C 
HETATM   36  C3  UNL     1     -67.032  27.594 -30.700  1.00  0.00     0.100 A 
HETATM   37  C2  UNL     1     -67.270  26.225 -30.333  1.00  0.00     0.141 A 
HETATM   38  C4  UNL     1     -65.991  28.155 -30.011  1.00  0.00     0.275 A 
HETATM   39  N2  UNL     1     -66.511  25.659 -29.407  1.00  0.00    -0.176 N 
HETATM   40  N9  UNL     1     -68.354  25.719 -31.153  1.00  0.00    -0.307 N 
HETATM   41  C1  UNL     1     -65.517  26.244 -28.769  1.00  0.00     0.680 A 
ATOM     42  H2  UNL     1     -66.713  24.688 -29.168  1.00  0.00     0.186 HD
HETATM   43  N1  UNL     1     -64.810  25.689 -27.871  1.00  0.00    -0.234 N 
HETATM   44  N3  UNL     1     -65.247  27.543 -29.085  1.00  0.00    -0.155 N 
ATOM     45  H12 UNL     1     -65.013  24.717 -27.635  1.00  0.00     0.174 HD
ATOM     46  H11 UNL     1     -64.041  26.142 -27.377  1.00  0.00     0.174 HD
ATOM     47  H3  UNL     1     -64.487  28.040 -28.620  1.00  0.00     0.187 HD
HETATM   48  C22 UNL     1     -68.786  26.714 -32.021  1.00  0.00     0.265 C 
ATOM     49  H9  UNL     1     -68.740  24.776 -31.101  1.00  0.00     0.170 HD
HETATM   50  O10 UNL     1     -69.604  26.668 -32.948  1.00  0.00    -0.267 OA
HETATM   51  O1  UNL     1     -65.648  29.370 -30.224  1.00  0.00    -0.267 OA
ENDBRANCH  34  35
ENDBRANCH  33  34
ENDBRANCH  32  33
ENDBRANCH   1  32
BRANCH   7  52
HETATM   52  C20 UNL     1     -63.467  26.920 -32.226  1.00  0.00     0.176 C 
BRANCH  52  53
HETATM   53  C21 UNL     1     -62.113  26.798 -32.835  1.00  0.00     0.185 C 
BRANCH  53  54
HETATM   54  O9  UNL     1     -62.119  25.616 -33.617  1.00  0.00    -0.399 OA
ATOM     55  H9  UNL     1     -61.422  25.705 -34.257  1.00  0.00     0.209 HD
ENDBRANCH  53  54
ENDBRANCH  52  53
ENDBRANCH   7  52
TORSDOF 15
ENDMDL
MODEL 5
REMARK VINA RESULT: -7.675986395      2.962      7.204
REMARK  15 active torsions:
REMARK  status: ('A' for Active; 'I' for Inactive)
REMARK    1  A    between atoms: C5_13  and  S1_14 
REMARK    2  A    between atoms: S1_14  and  S2_15 
REMARK    3  A    between atoms: S2_15  and  C6_16 
REMARK    4  A    between atoms: C6_16  and  C7_17 
REMARK    5  A    between atoms: C8_18  and  C9_19 
REMARK    6  A    between atoms: C9_19  and  N4_20 
REMARK    7  A    between atoms: N5_23  and  C12_24 
REMARK    8  A    between atoms: C13_25  and  S3_26 
REMARK    9  A    between atoms: C14_30  and  O5_31 
REMARK   10  A    between atoms: C18_37  and  C19_38 
REMARK   11  A    between atoms: C19_38  and  O7_39 
REMARK   12  A    between atoms: C19_38  and  O8_41 
REMARK   13  A    between atoms: N8_47  and  C20_48 
REMARK   14  A    between atoms: C20_48  and  C21_49 
REMARK   15  A    between atoms: C21_49  and  O9_50 
ROOT
HETATM    1  C7  UNL     1     -66.805  25.249 -34.398  1.00  0.00     0.069 A 
HETATM    2  C8  UNL     1     -67.192  24.958 -33.056  1.00  0.00     0.089 A 
HETATM    3  N6  UNL     1     -67.850  23.830 -33.060  1.00  0.00    -0.283 N 
ATOM      4  H6  UNL     1     -68.234  23.358 -32.243  1.00  0.00     0.188 HD
HETATM    5  N7  UNL     1     -67.928  23.419 -34.283  1.00  0.00    -0.240 N 
ATOM      6  H7  UNL     1     -68.404  22.565 -34.573  1.00  0.00     0.208 HD
HETATM    7  N8  UNL     1     -67.295  24.272 -35.134  1.00  0.00    -0.277 N 
ENDROOT
BRANCH   2   8
HETATM    8  C9  UNL     1     -67.045  26.084 -32.087  1.00  0.00     0.119 C 
BRANCH   8   9
HETATM    9  N4  UNL     1     -65.922  26.147 -31.270  1.00  0.00    -0.377 N 
HETATM   10  C10 UNL     1     -66.064  25.316 -30.084  1.00  0.00     0.143 C 
HETATM   11  C11 UNL     1     -64.922  25.366 -29.152  1.00  0.00     0.143 C 
HETATM   12  N5  UNL     1     -63.651  25.747 -29.703  1.00  0.00    -0.375 N 
HETATM   13  C16 UNL     1     -63.263  25.936 -31.118  1.00  0.00     0.125 C 
HETATM   14  C17 UNL     1     -63.835  27.175 -31.617  1.00  0.00     0.050 C 
HETATM   15  C18 UNL     1     -65.314  27.397 -31.039  1.00  0.00     0.140 C 
BRANCH  12  16
HETATM   16  C12 UNL     1     -62.570  25.880 -28.806  1.00  0.00     0.111 A 
HETATM   17  C13 UNL     1     -61.421  25.210 -28.460  1.00  0.00     0.148 A 
HETATM   18  C14 UNL     1     -61.145  26.148 -27.491  1.00  0.00     0.145 A 
HETATM   19  C15 UNL     1     -62.280  26.824 -27.816  1.00  0.00     0.234 A 
HETATM   20  O6  UNL     1     -62.823  27.904 -27.352  1.00  0.00    -0.283 OA
BRANCH  17  21
HETATM   21  S3  UNL     1     -60.688  23.732 -29.059  1.00  0.00     0.143 S 
HETATM   22  O2  UNL     1     -60.854  23.430 -30.483  1.00  0.00    -0.591 OA
HETATM   23  O3  UNL     1     -61.248  22.580 -28.159  1.00  0.00    -0.591 OA
HETATM   24  O4  UNL     1     -59.041  23.729 -28.633  1.00  0.00    -0.591 OA
ENDBRANCH  17  21
BRANCH  18  25
HETATM   25  O5  UNL     1     -60.178  26.283 -26.630  1.00  0.00    -0.356 OA
ATOM     26  H5  UNL     1     -60.042  26.865 -25.892  1.00  0.00     0.218 HD
ENDBRANCH  18  25
ENDBRANCH  12  16
BRANCH  15  27
HETATM   27  C19 UNL     1     -65.650  28.640 -31.751  1.00  0.00     0.276 C 
BRANCH  27  28
HETATM   28  O7  UNL     1     -64.624  29.059 -32.647  1.00  0.00    -0.369 OA
ATOM     29  H7  UNL     1     -63.909  29.504 -32.207  1.00  0.00     0.212 HD
ENDBRANCH  27  28
BRANCH  27  30
HETATM   30  O8  UNL     1     -65.842  29.694 -30.813  1.00  0.00    -0.369 OA
ATOM     31  H8  UNL     1     -65.106  30.293 -30.849  1.00  0.00     0.212 HD
ENDBRANCH  27  30
ENDBRANCH  15  27
ENDBRANCH   8   9
ENDBRANCH   2   8
BRANCH   1  32
HETATM   32  C6  UNL     1     -65.836  26.333 -34.704  1.00  0.00     0.147 C 
BRANCH  32  33
HETATM   33  S2  UNL     1     -64.189  25.778 -34.977  1.00  0.00    -0.086 SA
BRANCH  33  34
HETATM   34  S1  UNL     1     -62.925  27.247 -35.873  1.00  0.00    -0.051 SA
BRANCH  34  35
HETATM   35  C5  UNL     1     -61.588  27.777 -34.882  1.00  0.00     0.099 C 
HETATM   36  C3  UNL     1     -60.875  27.034 -33.878  1.00  0.00     0.100 A 
HETATM   37  C2  UNL     1     -60.439  27.981 -32.889  1.00  0.00     0.141 A 
HETATM   38  C4  UNL     1     -60.447  25.761 -33.619  1.00  0.00     0.275 A 
HETATM   39  N2  UNL     1     -59.695  27.566 -31.875  1.00  0.00    -0.176 N 
HETATM   40  N9  UNL     1     -60.985  29.279 -33.233  1.00  0.00    -0.307 N 
HETATM   41  C1  UNL     1     -59.307  26.322 -31.669  1.00  0.00     0.680 A 
ATOM     42  H2  UNL     1     -59.399  28.266 -31.196  1.00  0.00     0.186 HD
HETATM   43  N1  UNL     1     -58.580  25.945 -30.698  1.00  0.00    -0.234 N 
HETATM   44  N3  UNL     1     -59.699  25.384 -32.577  1.00  0.00    -0.155 N 
ATOM     45  H12 UNL     1     -58.286  26.648 -30.019  1.00  0.00     0.174 HD
ATOM     46  H11 UNL     1     -58.279  24.984 -30.539  1.00  0.00     0.174 HD
ATOM     47  H3  UNL     1     -59.426  24.408 -32.462  1.00  0.00     0.187 HD
HETATM   48  C22 UNL     1     -61.754  29.171 -34.386  1.00  0.00     0.265 C 
ATOM     49  H9  UNL     1     -60.831  30.140 -32.708  1.00  0.00     0.170 HD
HETATM   50  O10 UNL     1     -62.473  30.005 -34.950  1.00  0.00    -0.267 OA
HETATM   51  O1  UNL     1     -60.754  24.797 -34.406  1.00  0.00    -0.267 OA
ENDBRANCH  34  35
ENDBRANCH  33  34
ENDBRANCH  32  33
ENDBRANCH   1  32
BRANCH   7  52
HETATM   52  C20 UNL     1     -67.202  23.920 -36.527  1.00  0.00     0.176 C 
BRANCH  52  53
HETATM   53  C21 UNL     1     -68.483  23.404 -37.087  1.00  0.00     0.185 C 
BRANCH  53  54
HETATM   54  O9  UNL     1     -69.496  24.319 -36.708  1.00  0.00    -0.399 OA
ATOM     55  H9  UNL     1     -70.297  24.038 -37.135  1.00  0.00     0.209 HD
ENDBRANCH  53  54
ENDBRANCH  52  53
ENDBRANCH   7  52
TORSDOF 15
ENDMDL
