MODEL 1
REMARK VINA RESULT: -7.573811230      0.000      0.000
REMARK  16 active torsions:
REMARK  status: ('A' for Active; 'I' for Inactive)
REMARK    1  A    between atoms: C2_2  and  C4_4 
REMARK    2  A    between atoms: C4_4  and  C5_5 
REMARK    3  A    between atoms: C4_4  and  N4_26 
REMARK    4  A    between atoms: C5_5  and  C6_6 
REMARK    5  A    between atoms: N2_12  and  C9_13 
REMARK    6  A    between atoms: C9_13  and  C11_15 
REMARK    7  A    between atoms: C11_15  and  O2_16 
REMARK    8  A    between atoms: C11_15  and  C12_18 
REMARK    9  A    between atoms: C12_18  and  N3_19 
REMARK   10  A    between atoms: N4_26  and  C19_27 
REMARK   11  A    between atoms: C19_27  and  O3_28 
REMARK   12  A    between atoms: C19_27  and  C20_30 
REMARK   13  A    between atoms: C20_30  and  N5_31 
REMARK   14  A    between atoms: C20_30  and  C26_40 
REMARK       I    between atoms: N5_31  and  C21_33 
REMARK   15  A    between atoms: C21_33  and  O5_35 
REMARK   16  A    between atoms: O5_35  and  C22_36 
ROOT
HETATM    1  C4  UNL     1      -2.435 -39.905  16.230  1.00  0.00     0.071 C 
ENDROOT
BRANCH   1   2
HETATM    2  C2  UNL     1      -2.851 -38.681  15.539  1.00  0.00     0.038 C 
HETATM    3  C1  UNL     1      -4.249 -38.784  14.949  1.00  0.00     0.017 C 
HETATM    4  C3  UNL     1      -2.645 -37.381  16.194  1.00  0.00     0.017 C 
ENDBRANCH   1   2
BRANCH   1   5
HETATM    5  C5  UNL     1      -1.213 -40.659  15.771  1.00  0.00     0.103 C 
BRANCH   5   6
HETATM    6  C6  UNL     1      -1.443 -41.660  14.693  1.00  0.00     0.184 C 
HETATM    7  C7  UNL     1      -2.730 -42.416  14.907  1.00  0.00     0.245 C 
HETATM    8  O1  UNL     1      -3.820 -42.248  14.386  1.00  0.00    -0.271 OA
HETATM    9  N1  UNL     1      -2.375 -43.394  15.871  1.00  0.00    -0.322 N 
HETATM   10  C8  UNL     1      -0.945 -43.648  15.734  1.00  0.00     0.182 C 
ATOM     11  H1  UNL     1      -3.004 -43.838  16.539  1.00  0.00     0.169 HD
HETATM   12  N2  UNL     1      -0.485 -42.730  14.815  1.00  0.00    -0.356 N 
BRANCH  12  13
HETATM   13  C9  UNL     1       0.479 -42.881  13.860  1.00  0.00     0.112 C 
HETATM   14  C10 UNL     1       1.802 -43.288  14.455  1.00  0.00     0.035 C 
BRANCH  13  15
HETATM   15  C11 UNL     1       0.068 -43.657  12.634  1.00  0.00     0.158 C 
BRANCH  15  16
HETATM   16  O2  UNL     1       0.437 -42.913  11.484  1.00  0.00    -0.392 OA
ATOM     17  H2  UNL     1      -0.121 -43.177  10.762  1.00  0.00     0.210 HD
ENDBRANCH  15  16
BRANCH  15  18
HETATM   18  C12 UNL     1       0.715 -44.999  12.472  1.00  0.00     0.155 C 
BRANCH  18  19
HETATM   19  N3  UNL     1      -0.252 -46.002  12.743  1.00  0.00    -0.391 N 
HETATM   20  C13 UNL     1      -1.490 -45.977  12.094  1.00  0.00     0.058 C 
HETATM   21  C14 UNL     1      -2.693 -45.635  12.929  1.00  0.00     0.044 C 
HETATM   22  C15 UNL     1      -2.790 -46.350  14.227  1.00  0.00     0.005 C 
HETATM   23  C16 UNL     1      -2.375 -47.781  14.109  1.00  0.00     0.002 C 
HETATM   24  C17 UNL     1      -0.924 -47.986  13.902  1.00  0.00     0.020 C 
HETATM   25  C18 UNL     1      -0.121 -46.715  13.955  1.00  0.00     0.122 C 
ENDBRANCH  18  19
ENDBRANCH  15  18
ENDBRANCH  13  15
ENDBRANCH  12  13
ENDBRANCH   5   6
ENDBRANCH   1   5
BRANCH   1  26
HETATM   26  N4  UNL     1      -3.088 -40.369  17.141  1.00  0.00    -0.391 NA
BRANCH  26  27
HETATM   27  C19 UNL     1      -3.783 -40.853  18.106  1.00  0.00     0.213 C 
BRANCH  27  28
HETATM   28  O3  UNL     1      -3.479 -42.113  18.538  1.00  0.00    -0.337 OA
ATOM     29  H3  UNL     1      -3.737 -42.353  19.420  1.00  0.00     0.220 HD
ENDBRANCH  27  28
BRANCH  27  30
HETATM   30  C20 UNL     1      -4.925 -40.331  18.921  1.00  0.00     0.179 C 
BRANCH  30  31
HETATM   31  N5  UNL     1      -5.754 -41.344  19.491  1.00  0.00    -0.323 N 
HETATM   32  C21 UNL     1      -5.797 -41.578  20.895  1.00  0.00     0.362 C 
HETATM   33  O4  UNL     1      -5.093 -40.877  21.700  1.00  0.00    -0.238 OA
ATOM     34  H5  UNL     1      -6.331 -41.917  18.875  1.00  0.00     0.165 HD
BRANCH  32  35
HETATM   35  O5  UNL     1      -6.577 -42.541  21.452  1.00  0.00    -0.294 OA
BRANCH  35  36
HETATM   36  C22 UNL     1      -7.779 -42.411  22.136  1.00  0.00     0.061 C 
HETATM   37  C23 UNL     1      -7.569 -42.161  23.623  1.00  0.00     0.046 C 
HETATM   38  C24 UNL     1      -8.743 -41.409  21.609  1.00  0.00     0.046 C 
HETATM   39  C25 UNL     1      -8.475 -43.773  22.048  1.00  0.00     0.046 C 
ENDBRANCH  35  36
ENDBRANCH  32  35
ENDBRANCH  30  31
BRANCH  30  40
HETATM   40  C26 UNL     1      -5.741 -39.261  18.264  1.00  0.00     0.009 C 
HETATM   41  C27 UNL     1      -5.346 -37.860  18.609  1.00  0.00     0.012 C 
HETATM   42  C28 UNL     1      -7.205 -39.533  18.234  1.00  0.00     0.012 C 
ENDBRANCH  30  40
ENDBRANCH  27  30
ENDBRANCH  26  27
ENDBRANCH   1  26
TORSDOF 16
ENDMDL
MODEL 2
REMARK VINA RESULT: -7.382824871      1.766      2.276
REMARK  16 active torsions:
REMARK  status: ('A' for Active; 'I' for Inactive)
REMARK    1  A    between atoms: C2_2  and  C4_4 
REMARK    2  A    between atoms: C4_4  and  C5_5 
REMARK    3  A    between atoms: C4_4  and  N4_26 
REMARK    4  A    between atoms: C5_5  and  C6_6 
REMARK    5  A    between atoms: N2_12  and  C9_13 
REMARK    6  A    between atoms: C9_13  and  C11_15 
REMARK    7  A    between atoms: C11_15  and  O2_16 
REMARK    8  A    between atoms: C11_15  and  C12_18 
REMARK    9  A    between atoms: C12_18  and  N3_19 
REMARK   10  A    between atoms: N4_26  and  C19_27 
REMARK   11  A    between atoms: C19_27  and  O3_28 
REMARK   12  A    between atoms: C19_27  and  C20_30 
REMARK   13  A    between atoms: C20_30  and  N5_31 
REMARK   14  A    between atoms: C20_30  and  C26_40 
REMARK       I    between atoms: N5_31  and  C21_33 
REMARK   15  A    between atoms: C21_33  and  O5_35 
REMARK   16  A    between atoms: O5_35  and  C22_36 
ROOT
HETATM    1  C4  UNL     1      -2.633 -39.711  16.994  1.00  0.00     0.071 C 
ENDROOT
BRANCH   1   2
HETATM    2  C2  UNL     1      -1.856 -38.490  16.755  1.00  0.00     0.038 C 
HETATM    3  C1  UNL     1      -2.729 -37.296  16.403  1.00  0.00     0.017 C 
HETATM    4  C3  UNL     1      -0.798 -38.115  17.704  1.00  0.00     0.017 C 
ENDBRANCH   1   2
BRANCH   1   5
HETATM    5  C5  UNL     1      -3.484 -40.297  15.897  1.00  0.00     0.103 C 
BRANCH   5   6
HETATM    6  C6  UNL     1      -2.773 -40.598  14.624  1.00  0.00     0.184 C 
HETATM    7  C7  UNL     1      -3.708 -40.534  13.441  1.00  0.00     0.245 C 
HETATM    8  O1  UNL     1      -3.870 -39.635  12.633  1.00  0.00    -0.271 OA
HETATM    9  N1  UNL     1      -4.366 -41.790  13.482  1.00  0.00    -0.322 N 
HETATM   10  C8  UNL     1      -3.474 -42.734  14.145  1.00  0.00     0.182 C 
ATOM     11  H1  UNL     1      -5.295 -41.995  13.114  1.00  0.00     0.169 HD
HETATM   12  N2  UNL     1      -2.405 -41.991  14.594  1.00  0.00    -0.356 N 
BRANCH  12  13
HETATM   13  C9  UNL     1      -1.085 -42.338  14.659  1.00  0.00     0.112 C 
HETATM   14  C10 UNL     1      -0.649 -42.631  16.071  1.00  0.00     0.035 C 
BRANCH  13  15
HETATM   15  C11 UNL     1      -0.622 -43.339  13.631  1.00  0.00     0.158 C 
BRANCH  15  16
HETATM   16  O2  UNL     1       0.174 -42.664  12.670  1.00  0.00    -0.392 OA
ATOM     17  H2  UNL     1      -0.396 -42.310  11.999  1.00  0.00     0.210 HD
ENDBRANCH  15  16
BRANCH  15  18
HETATM   18  C12 UNL     1       0.232 -44.453  14.153  1.00  0.00     0.155 C 
BRANCH  18  19
HETATM   19  N3  UNL     1      -0.505 -45.664  14.071  1.00  0.00    -0.391 N 
HETATM   20  C13 UNL     1      -1.188 -45.991  12.895  1.00  0.00     0.058 C 
HETATM   21  C14 UNL     1      -2.690 -45.944  12.941  1.00  0.00     0.044 C 
HETATM   22  C15 UNL     1      -3.311 -46.607  14.116  1.00  0.00     0.005 C 
HETATM   23  C16 UNL     1      -2.617 -47.881  14.471  1.00  0.00     0.002 C 
HETATM   24  C17 UNL     1      -1.270 -47.706  15.058  1.00  0.00     0.020 C 
HETATM   25  C18 UNL     1      -0.893 -46.267  15.287  1.00  0.00     0.122 C 
ENDBRANCH  18  19
ENDBRANCH  15  18
ENDBRANCH  13  15
ENDBRANCH  12  13
ENDBRANCH   5   6
ENDBRANCH   1   5
BRANCH   1  26
HETATM   26  N4  UNL     1      -2.655 -40.241  18.085  1.00  0.00    -0.391 NA
BRANCH  26  27
HETATM   27  C19 UNL     1      -2.681 -40.796  19.242  1.00  0.00     0.213 C 
BRANCH  27  28
HETATM   28  O3  UNL     1      -2.027 -41.987  19.391  1.00  0.00    -0.337 OA
ATOM     29  H3  UNL     1      -1.744 -42.229  20.265  1.00  0.00     0.220 HD
ENDBRANCH  27  28
BRANCH  27  30
HETATM   30  C20 UNL     1      -3.303 -40.425  20.553  1.00  0.00     0.179 C 
BRANCH  30  31
HETATM   31  N5  UNL     1      -4.711 -40.647  20.621  1.00  0.00    -0.323 N 
HETATM   32  C21 UNL     1      -5.258 -41.938  20.876  1.00  0.00     0.362 C 
HETATM   33  O4  UNL     1      -4.497 -42.948  21.060  1.00  0.00    -0.238 OA
ATOM     34  H5  UNL     1      -5.345 -39.859  20.483  1.00  0.00     0.165 HD
BRANCH  32  35
HETATM   35  O5  UNL     1      -6.595 -42.166  20.939  1.00  0.00    -0.294 OA
BRANCH  35  36
HETATM   36  C22 UNL     1      -7.394 -42.403  22.050  1.00  0.00     0.061 C 
HETATM   37  C23 UNL     1      -7.915 -43.833  22.088  1.00  0.00     0.046 C 
HETATM   38  C24 UNL     1      -6.813 -42.064  23.376  1.00  0.00     0.046 C 
HETATM   39  C25 UNL     1      -8.638 -41.523  21.884  1.00  0.00     0.046 C 
ENDBRANCH  35  36
ENDBRANCH  32  35
ENDBRANCH  30  31
BRANCH  30  40
HETATM   40  C26 UNL     1      -2.936 -39.070  21.073  1.00  0.00     0.009 C 
HETATM   41  C27 UNL     1      -3.563 -37.921  20.349  1.00  0.00     0.012 C 
HETATM   42  C28 UNL     1      -1.496 -38.912  21.417  1.00  0.00     0.012 C 
ENDBRANCH  30  40
ENDBRANCH  27  30
ENDBRANCH  26  27
ENDBRANCH   1  26
TORSDOF 16
ENDMDL
MODEL 3
REMARK VINA RESULT: -7.348748581      2.348      4.064
REMARK  16 active torsions:
REMARK  status: ('A' for Active; 'I' for Inactive)
REMARK    1  A    between atoms: C2_2  and  C4_4 
REMARK    2  A    between atoms: C4_4  and  C5_5 
REMARK    3  A    between atoms: C4_4  and  N4_26 
REMARK    4  A    between atoms: C5_5  and  C6_6 
REMARK    5  A    between atoms: N2_12  and  C9_13 
REMARK    6  A    between atoms: C9_13  and  C11_15 
REMARK    7  A    between atoms: C11_15  and  O2_16 
REMARK    8  A    between atoms: C11_15  and  C12_18 
REMARK    9  A    between atoms: C12_18  and  N3_19 
REMARK   10  A    between atoms: N4_26  and  C19_27 
REMARK   11  A    between atoms: C19_27  and  O3_28 
REMARK   12  A    between atoms: C19_27  and  C20_30 
REMARK   13  A    between atoms: C20_30  and  N5_31 
REMARK   14  A    between atoms: C20_30  and  C26_40 
REMARK       I    between atoms: N5_31  and  C21_33 
REMARK   15  A    between atoms: C21_33  and  O5_35 
REMARK   16  A    between atoms: O5_35  and  C22_36 
ROOT
HETATM    1  C4  UNL     1      -1.645 -43.537  17.899  1.00  0.00     0.071 C 
ENDROOT
BRANCH   1   2
HETATM    2  C2  UNL     1      -1.365 -44.952  18.162  1.00  0.00     0.038 C 
HETATM    3  C1  UNL     1      -2.607 -45.825  18.071  1.00  0.00     0.017 C 
HETATM    4  C3  UNL     1      -0.216 -45.591  17.504  1.00  0.00     0.017 C 
ENDBRANCH   1   2
BRANCH   1   5
HETATM    5  C5  UNL     1      -2.038 -43.084  16.517  1.00  0.00     0.103 C 
BRANCH   5   6
HETATM    6  C6  UNL     1      -1.116 -42.108  15.874  1.00  0.00     0.184 C 
HETATM    7  C7  UNL     1      -1.673 -40.707  15.924  1.00  0.00     0.245 C 
HETATM    8  O1  UNL     1      -1.406 -39.796  16.690  1.00  0.00    -0.271 OA
HETATM    9  N1  UNL     1      -2.596 -40.688  14.847  1.00  0.00    -0.322 N 
HETATM   10  C8  UNL     1      -2.153 -41.674  13.869  1.00  0.00     0.182 C 
ATOM     11  H1  UNL     1      -3.421 -40.092  14.772  1.00  0.00     0.169 HD
HETATM   12  N2  UNL     1      -1.091 -42.331  14.451  1.00  0.00    -0.356 N 
BRANCH  12  13
HETATM   13  C9  UNL     1       0.047 -42.809  13.866  1.00  0.00     0.112 C 
HETATM   14  C10 UNL     1       1.014 -43.360  14.881  1.00  0.00     0.035 C 
BRANCH  13  15
HETATM   15  C11 UNL     1      -0.158 -43.674  12.648  1.00  0.00     0.158 C 
BRANCH  15  16
HETATM   16  O2  UNL     1       0.519 -43.079  11.553  1.00  0.00    -0.392 OA
ATOM     17  H2  UNL     1       0.239 -42.175  11.478  1.00  0.00     0.210 HD
ENDBRANCH  15  16
BRANCH  15  18
HETATM   18  C12 UNL     1       0.382 -45.068  12.748  1.00  0.00     0.155 C 
BRANCH  18  19
HETATM   19  N3  UNL     1      -0.698 -45.952  13.010  1.00  0.00    -0.391 N 
HETATM   20  C13 UNL     1      -1.954 -45.712  12.444  1.00  0.00     0.058 C 
HETATM   21  C14 UNL     1      -3.052 -45.279  13.375  1.00  0.00     0.044 C 
HETATM   22  C15 UNL     1      -3.177 -46.074  14.624  1.00  0.00     0.005 C 
HETATM   23  C16 UNL     1      -2.969 -47.534  14.380  1.00  0.00     0.002 C 
HETATM   24  C17 UNL     1      -1.573 -47.912  14.067  1.00  0.00     0.020 C 
HETATM   25  C18 UNL     1      -0.602 -46.767  14.158  1.00  0.00     0.122 C 
ENDBRANCH  18  19
ENDBRANCH  15  18
ENDBRANCH  13  15
ENDBRANCH  12  13
ENDBRANCH   5   6
ENDBRANCH   1   5
BRANCH   1  26
HETATM   26  N4  UNL     1      -1.514 -42.697  18.765  1.00  0.00    -0.391 NA
BRANCH  26  27
HETATM   27  C19 UNL     1      -1.373 -41.813  19.685  1.00  0.00     0.213 C 
BRANCH  27  28
HETATM   28  O3  UNL     1      -0.285 -41.918  20.505  1.00  0.00    -0.337 OA
ATOM     29  H3  UNL     1       0.197 -41.124  20.703  1.00  0.00     0.220 HD
ENDBRANCH  27  28
BRANCH  27  30
HETATM   30  C20 UNL     1      -2.174 -40.619  20.104  1.00  0.00     0.179 C 
BRANCH  30  31
HETATM   31  N5  UNL     1      -3.141 -40.193  19.145  1.00  0.00    -0.323 N 
HETATM   32  C21 UNL     1      -4.514 -40.022  19.487  1.00  0.00     0.362 C 
HETATM   33  O4  UNL     1      -4.926 -40.240  20.677  1.00  0.00    -0.238 OA
ATOM     34  H5  UNL     1      -2.842 -40.006  18.188  1.00  0.00     0.165 HD
BRANCH  32  35
HETATM   35  O5  UNL     1      -5.447 -39.621  18.585  1.00  0.00    -0.294 OA
BRANCH  35  36
HETATM   36  C22 UNL     1      -5.571 -38.402  17.931  1.00  0.00     0.061 C 
HETATM   37  C23 UNL     1      -4.821 -38.383  16.607  1.00  0.00     0.046 C 
HETATM   38  C24 UNL     1      -6.953 -37.898  17.712  1.00  0.00     0.046 C 
HETATM   39  C25 UNL     1      -4.864 -37.366  18.812  1.00  0.00     0.046 C 
ENDBRANCH  35  36
ENDBRANCH  32  35
ENDBRANCH  30  31
BRANCH  30  40
HETATM   40  C26 UNL     1      -1.374 -39.466  20.626  1.00  0.00     0.009 C 
HETATM   41  C27 UNL     1      -1.633 -39.109  22.056  1.00  0.00     0.012 C 
HETATM   42  C28 UNL     1      -1.258 -38.320  19.682  1.00  0.00     0.012 C 
ENDBRANCH  30  40
ENDBRANCH  27  30
ENDBRANCH  26  27
ENDBRANCH   1  26
TORSDOF 16
ENDMDL
MODEL 4
REMARK VINA RESULT: -7.282241507      1.831      2.509
REMARK  16 active torsions:
REMARK  status: ('A' for Active; 'I' for Inactive)
REMARK    1  A    between atoms: C2_2  and  C4_4 
REMARK    2  A    between atoms: C4_4  and  C5_5 
REMARK    3  A    between atoms: C4_4  and  N4_26 
REMARK    4  A    between atoms: C5_5  and  C6_6 
REMARK    5  A    between atoms: N2_12  and  C9_13 
REMARK    6  A    between atoms: C9_13  and  C11_15 
REMARK    7  A    between atoms: C11_15  and  O2_16 
REMARK    8  A    between atoms: C11_15  and  C12_18 
REMARK    9  A    between atoms: C12_18  and  N3_19 
REMARK   10  A    between atoms: N4_26  and  C19_27 
REMARK   11  A    between atoms: C19_27  and  O3_28 
REMARK   12  A    between atoms: C19_27  and  C20_30 
REMARK   13  A    between atoms: C20_30  and  N5_31 
REMARK   14  A    between atoms: C20_30  and  C26_40 
REMARK       I    between atoms: N5_31  and  C21_33 
REMARK   15  A    between atoms: C21_33  and  O5_35 
REMARK   16  A    between atoms: O5_35  and  C22_36 
ROOT
HETATM    1  C4  UNL     1      -2.660 -39.773  16.993  1.00  0.00     0.071 C 
ENDROOT
BRANCH   1   2
HETATM    2  C2  UNL     1      -1.948 -38.515  16.747  1.00  0.00     0.038 C 
HETATM    3  C1  UNL     1      -2.887 -37.350  16.475  1.00  0.00     0.017 C 
HETATM    4  C3  UNL     1      -0.856 -38.119  17.649  1.00  0.00     0.017 C 
ENDBRANCH   1   2
BRANCH   1   5
HETATM    5  C5  UNL     1      -3.463 -40.420  15.893  1.00  0.00     0.103 C 
BRANCH   5   6
HETATM    6  C6  UNL     1      -2.739 -40.635  14.610  1.00  0.00     0.184 C 
HETATM    7  C7  UNL     1      -3.679 -40.589  13.432  1.00  0.00     0.245 C 
HETATM    8  O1  UNL     1      -3.897 -39.675  12.654  1.00  0.00    -0.271 OA
HETATM    9  N1  UNL     1      -4.260 -41.882  13.431  1.00  0.00    -0.322 N 
HETATM   10  C8  UNL     1      -3.310 -42.792  14.061  1.00  0.00     0.182 C 
ATOM     11  H1  UNL     1      -5.175 -42.131  13.057  1.00  0.00     0.169 HD
HETATM   12  N2  UNL     1      -2.287 -42.000  14.534  1.00  0.00    -0.356 N 
BRANCH  12  13
HETATM   13  C9  UNL     1      -0.948 -42.269  14.586  1.00  0.00     0.112 C 
HETATM   14  C10 UNL     1      -0.503 -42.643  15.976  1.00  0.00     0.035 C 
BRANCH  13  15
HETATM   15  C11 UNL     1      -0.417 -43.156  13.489  1.00  0.00     0.158 C 
BRANCH  15  16
HETATM   16  O2  UNL     1       0.606 -42.456  12.799  1.00  0.00    -0.392 OA
ATOM     17  H2  UNL     1       1.229 -42.126  13.434  1.00  0.00     0.210 HD
ENDBRANCH  15  16
BRANCH  15  18
HETATM   18  C12 UNL     1       0.207 -44.440  13.942  1.00  0.00     0.155 C 
BRANCH  18  19
HETATM   19  N3  UNL     1      -0.331 -45.501  13.167  1.00  0.00    -0.391 N 
HETATM   20  C13 UNL     1      -0.133 -46.829  13.560  1.00  0.00     0.058 C 
HETATM   21  C14 UNL     1       0.787 -47.663  12.713  1.00  0.00     0.044 C 
HETATM   22  C15 UNL     1       0.557 -47.574  11.248  1.00  0.00     0.005 C 
HETATM   23  C16 UNL     1      -0.898 -47.534  10.912  1.00  0.00     0.002 C 
HETATM   24  C17 UNL     1      -1.579 -46.271  11.276  1.00  0.00     0.020 C 
HETATM   25  C18 UNL     1      -0.653 -45.220  11.822  1.00  0.00     0.122 C 
ENDBRANCH  18  19
ENDBRANCH  15  18
ENDBRANCH  13  15
ENDBRANCH  12  13
ENDBRANCH   5   6
ENDBRANCH   1   5
BRANCH   1  26
HETATM   26  N4  UNL     1      -2.668 -40.290  18.091  1.00  0.00    -0.391 NA
BRANCH  26  27
HETATM   27  C19 UNL     1      -2.670 -40.840  19.250  1.00  0.00     0.213 C 
BRANCH  27  28
HETATM   28  O3  UNL     1      -1.951 -41.992  19.408  1.00  0.00    -0.337 OA
ATOM     29  H3  UNL     1      -1.045 -41.913  19.684  1.00  0.00     0.220 HD
ENDBRANCH  27  28
BRANCH  27  30
HETATM   30  C20 UNL     1      -3.320 -40.500  20.556  1.00  0.00     0.179 C 
BRANCH  30  31
HETATM   31  N5  UNL     1      -4.708 -40.823  20.624  1.00  0.00    -0.323 N 
HETATM   32  C21 UNL     1      -5.160 -42.150  20.880  1.00  0.00     0.362 C 
HETATM   33  O4  UNL     1      -4.328 -43.102  21.063  1.00  0.00    -0.238 OA
ATOM     34  H5  UNL     1      -5.397 -40.082  20.487  1.00  0.00     0.165 HD
BRANCH  32  35
HETATM   35  O5  UNL     1      -6.478 -42.474  20.944  1.00  0.00    -0.294 OA
BRANCH  35  36
HETATM   36  C22 UNL     1      -7.343 -42.422  22.029  1.00  0.00     0.061 C 
HETATM   37  C23 UNL     1      -6.613 -42.128  23.332  1.00  0.00     0.046 C 
HETATM   38  C24 UNL     1      -8.510 -41.508  21.911  1.00  0.00     0.046 C 
HETATM   39  C25 UNL     1      -7.913 -43.835  22.195  1.00  0.00     0.046 C 
ENDBRANCH  35  36
ENDBRANCH  32  35
ENDBRANCH  30  31
BRANCH  30  40
HETATM   40  C26 UNL     1      -3.053 -39.116  21.060  1.00  0.00     0.009 C 
HETATM   41  C27 UNL     1      -3.676 -38.017  20.257  1.00  0.00     0.012 C 
HETATM   42  C28 UNL     1      -1.651 -38.881  21.503  1.00  0.00     0.012 C 
ENDBRANCH  30  40
ENDBRANCH  27  30
ENDBRANCH  26  27
ENDBRANCH   1  26
TORSDOF 16
ENDMDL
MODEL 5
REMARK VINA RESULT: -7.251987681      3.340      5.089
REMARK  16 active torsions:
REMARK  status: ('A' for Active; 'I' for Inactive)
REMARK    1  A    between atoms: C2_2  and  C4_4 
REMARK    2  A    between atoms: C4_4  and  C5_5 
REMARK    3  A    between atoms: C4_4  and  N4_26 
REMARK    4  A    between atoms: C5_5  and  C6_6 
REMARK    5  A    between atoms: N2_12  and  C9_13 
REMARK    6  A    between atoms: C9_13  and  C11_15 
REMARK    7  A    between atoms: C11_15  and  O2_16 
REMARK    8  A    between atoms: C11_15  and  C12_18 
REMARK    9  A    between atoms: C12_18  and  N3_19 
REMARK   10  A    between atoms: N4_26  and  C19_27 
REMARK   11  A    between atoms: C19_27  and  O3_28 
REMARK   12  A    between atoms: C19_27  and  C20_30 
REMARK   13  A    between atoms: C20_30  and  N5_31 
REMARK   14  A    between atoms: C20_30  and  C26_40 
REMARK       I    between atoms: N5_31  and  C21_33 
REMARK   15  A    between atoms: C21_33  and  O5_35 
REMARK   16  A    between atoms: O5_35  and  C22_36 
ROOT
HETATM    1  C4  UNL     1       0.149 -43.658  16.312  1.00  0.00     0.071 C 
ENDROOT
BRANCH   1   2
HETATM    2  C2  UNL     1      -0.410 -44.290  17.511  1.00  0.00     0.038 C 
HETATM    3  C1  UNL     1       0.627 -44.499  18.604  1.00  0.00     0.017 C 
HETATM    4  C3  UNL     1      -1.674 -43.787  18.065  1.00  0.00     0.017 C 
ENDBRANCH   1   2
BRANCH   1   5
HETATM    5  C5  UNL     1       1.521 -44.041  15.819  1.00  0.00     0.103 C 
BRANCH   5   6
HETATM    6  C6  UNL     1       1.593 -45.308  15.040  1.00  0.00     0.184 C 
HETATM    7  C7  UNL     1       2.297 -46.394  15.816  1.00  0.00     0.245 C 
HETATM    8  O1  UNL     1       1.822 -47.320  16.452  1.00  0.00    -0.271 OA
HETATM    9  N1  UNL     1       3.669 -46.088  15.627  1.00  0.00    -0.322 N 
HETATM   10  C8  UNL     1       3.790 -45.364  14.367  1.00  0.00     0.182 C 
ATOM     11  H1  UNL     1       4.432 -46.330  16.259  1.00  0.00     0.169 HD
HETATM   12  N2  UNL     1       2.501 -45.144  13.934  1.00  0.00    -0.356 N 
BRANCH  12  13
HETATM   13  C9  UNL     1       2.012 -45.145  12.658  1.00  0.00     0.112 C 
HETATM   14  C10 UNL     1       2.519 -46.320  11.862  1.00  0.00     0.035 C 
BRANCH  13  15
HETATM   15  C11 UNL     1       0.535 -44.876  12.523  1.00  0.00     0.158 C 
BRANCH  15  16
HETATM   16  O2  UNL     1       0.361 -43.646  11.837  1.00  0.00    -0.392 OA
ATOM     17  H2  UNL     1      -0.394 -43.723  11.266  1.00  0.00     0.210 HD
ENDBRANCH  15  16
BRANCH  15  18
HETATM   18  C12 UNL     1      -0.237 -45.890  11.737  1.00  0.00     0.155 C 
BRANCH  18  19
HETATM   19  N3  UNL     1      -1.339 -46.324  12.520  1.00  0.00    -0.391 N 
HETATM   20  C13 UNL     1      -2.536 -45.600  12.509  1.00  0.00     0.058 C 
HETATM   21  C14 UNL     1      -2.892 -44.848  13.761  1.00  0.00     0.044 C 
HETATM   22  C15 UNL     1      -2.748 -45.615  15.025  1.00  0.00     0.005 C 
HETATM   23  C16 UNL     1      -3.206 -47.030  14.876  1.00  0.00     0.002 C 
HETATM   24  C17 UNL     1      -2.320 -47.880  14.051  1.00  0.00     0.020 C 
HETATM   25  C18 UNL     1      -1.063 -47.186  13.603  1.00  0.00     0.122 C 
ENDBRANCH  18  19
ENDBRANCH  15  18
ENDBRANCH  13  15
ENDBRANCH  12  13
ENDBRANCH   5   6
ENDBRANCH   1   5
BRANCH   1  26
HETATM   26  N4  UNL     1      -0.448 -42.779  15.725  1.00  0.00    -0.391 NA
BRANCH  26  27
HETATM   27  C19 UNL     1      -1.072 -41.846  15.104  1.00  0.00     0.213 C 
BRANCH  27  28
HETATM   28  O3  UNL     1      -1.055 -41.870  13.738  1.00  0.00    -0.337 OA
ATOM     29  H3  UNL     1      -1.674 -41.315  13.278  1.00  0.00     0.220 HD
ENDBRANCH  27  28
BRANCH  27  30
HETATM   30  C20 UNL     1      -1.863 -40.655  15.551  1.00  0.00     0.179 C 
BRANCH  30  31
HETATM   31  N5  UNL     1      -1.625 -40.264  16.903  1.00  0.00    -0.323 N 
HETATM   32  C21 UNL     1      -1.320 -38.917  17.254  1.00  0.00     0.362 C 
HETATM   33  O4  UNL     1      -1.254 -38.005  16.361  1.00  0.00    -0.238 OA
ATOM     34  H5  UNL     1      -1.675 -40.969  17.639  1.00  0.00     0.165 HD
BRANCH  32  35
HETATM   35  O5  UNL     1      -1.087 -38.530  18.535  1.00  0.00    -0.294 OA
BRANCH  35  36
HETATM   36  C22 UNL     1      -1.839 -38.774  19.677  1.00  0.00     0.061 C 
HETATM   37  C23 UNL     1      -1.294 -38.037  20.892  1.00  0.00     0.046 C 
HETATM   38  C24 UNL     1      -3.302 -38.529  19.579  1.00  0.00     0.046 C 
HETATM   39  C25 UNL     1      -1.668 -40.263  19.997  1.00  0.00     0.046 C 
ENDBRANCH  35  36
ENDBRANCH  32  35
ENDBRANCH  30  31
BRANCH  30  40
HETATM   40  C26 UNL     1      -3.328 -40.711  15.246  1.00  0.00     0.009 C 
HETATM   41  C27 UNL     1      -3.759 -39.914  14.056  1.00  0.00     0.012 C 
HETATM   42  C28 UNL     1      -4.210 -40.619  16.443  1.00  0.00     0.012 C 
ENDBRANCH  30  40
ENDBRANCH  27  30
ENDBRANCH  26  27
ENDBRANCH   1  26
TORSDOF 16
ENDMDL
