MODEL 1
REMARK VINA RESULT: -7.715761767      0.000      0.000
REMARK  10 active torsions:
REMARK  status: ('A' for Active; 'I' for Inactive)
REMARK    1  A    between atoms: O1_2  and  S1_3 
REMARK    2  A    between atoms: S1_3  and  N1_4 
REMARK    3  A    between atoms: S1_3  and  N2_8 
REMARK       I    between atoms: N2_8  and  C2_10 
REMARK    4  A    between atoms: C2_10  and  C3_12 
REMARK    5  A    between atoms: C3_12  and  N3_14 
REMARK       I    between atoms: N3_14  and  C5_15 
REMARK    6  A    between atoms: C5_15  and  C6_17 
REMARK    7  A    between atoms: C6_17  and  N4_18 
REMARK    8  A    between atoms: C8_20  and  O5_21 
REMARK    9  A    between atoms: C10_25  and  C11_26 
REMARK   10  A    between atoms: C13_29  and  O8_30 
ROOT
HETATM    1  N3  UNL     1     -61.492  30.697  -9.029  1.00  0.00    -0.368 NA
HETATM    2  C5  UNL     1     -62.740  31.221  -8.920  1.00  0.00     0.310 C 
HETATM    3  O4  UNL     1     -63.475  31.698  -9.805  1.00  0.00    -0.255 OA
ENDROOT
BRANCH   2   4
HETATM    4  C6  UNL     1     -63.382  31.258  -7.524  1.00  0.00     0.249 C 
BRANCH   4   5
HETATM    5  N4  UNL     1     -63.958  30.003  -7.146  1.00  0.00    -0.324 N 
HETATM    6  C7  UNL     1     -63.236  29.214  -6.295  1.00  0.00     0.134 A 
HETATM    7  C8  UNL     1     -63.687  28.006  -5.813  1.00  0.00     0.133 A 
HETATM    8  C9  UNL     1     -64.933  27.592  -6.224  1.00  0.00     0.224 A 
HETATM    9  O6  UNL     1     -65.389  26.492  -5.804  1.00  0.00    -0.284 OA
HETATM   10  C10 UNL     1     -65.710  28.360  -7.090  1.00  0.00     0.113 A 
HETATM   11  C13 UNL     1     -65.159  29.551  -7.513  1.00  0.00     0.161 A 
BRANCH   7  12
HETATM   12  O5  UNL     1     -62.932  27.222  -4.938  1.00  0.00    -0.356 OA
ATOM     13  H5  UNL     1     -63.288  26.453  -4.508  1.00  0.00     0.218 HD
ENDBRANCH   7  12
BRANCH  10  14
HETATM   14  C11 UNL     1     -67.006  27.890  -7.481  1.00  0.00     0.164 C 
HETATM   15  C12 UNL     1     -68.234  27.889  -6.694  1.00  0.00     0.097 C 
HETATM   16  O7  UNL     1     -67.094  27.406  -8.671  1.00  0.00    -0.292 OA
ENDBRANCH  10  14
BRANCH  11  17
HETATM   17  O8  UNL     1     -65.922  30.320  -8.380  1.00  0.00    -0.345 OA
ATOM     18  H8  UNL     1     -66.287  29.907  -9.153  1.00  0.00     0.219 HD
ENDBRANCH  11  17
ENDBRANCH   4   5
ENDBRANCH   2   4
BRANCH   1  19
HETATM   19  C3  UNL     1     -60.307  30.230  -9.256  1.00  0.00     0.153 C 
HETATM   20  C4  UNL     1     -59.981  30.098  -7.480  1.00  0.00     0.091 C 
BRANCH  19  21
HETATM   21  C2  UNL     1     -59.027  29.727  -9.504  1.00  0.00     0.291 C 
HETATM   22  N2  UNL     1     -57.879  30.662  -9.569  1.00  0.00    -0.243 N 
ATOM     23  H2  UNL     1     -58.029  31.664  -9.443  1.00  0.00     0.182 HD
HETATM   24  O3  UNL     1     -58.695  28.518  -9.683  1.00  0.00    -0.264 OA
BRANCH  22  25
HETATM   25  S1  UNL     1     -56.320  30.065  -9.853  1.00  0.00     0.235 S 
HETATM   26  O2  UNL     1     -55.852  29.140  -8.762  1.00  0.00    -0.199 OA
BRANCH  25  27
HETATM   27  O1  UNL     1     -55.177  31.256 -10.189  1.00  0.00    -0.281 OA
HETATM   28  C1  UNL     1     -55.539  32.499  -9.759  1.00  0.00     0.225 C 
ENDBRANCH  25  27
BRANCH  25  29
HETATM   29  N1  UNL     1     -56.413  29.190 -11.162  1.00  0.00    -0.323 N 
ATOM     30  H12 UNL     1     -57.222  29.100 -11.776  1.00  0.00     0.169 HD
ATOM     31  H11 UNL     1     -55.500  28.743 -11.256  1.00  0.00     0.169 HD
ENDBRANCH  25  29
ENDBRANCH  22  25
ENDBRANCH  19  21
ENDBRANCH   1  19
TORSDOF 10
ENDMDL
MODEL 2
REMARK VINA RESULT: -7.541599957      1.108      1.258
REMARK  10 active torsions:
REMARK  status: ('A' for Active; 'I' for Inactive)
REMARK    1  A    between atoms: O1_2  and  S1_3 
REMARK    2  A    between atoms: S1_3  and  N1_4 
REMARK    3  A    between atoms: S1_3  and  N2_8 
REMARK       I    between atoms: N2_8  and  C2_10 
REMARK    4  A    between atoms: C2_10  and  C3_12 
REMARK    5  A    between atoms: C3_12  and  N3_14 
REMARK       I    between atoms: N3_14  and  C5_15 
REMARK    6  A    between atoms: C5_15  and  C6_17 
REMARK    7  A    between atoms: C6_17  and  N4_18 
REMARK    8  A    between atoms: C8_20  and  O5_21 
REMARK    9  A    between atoms: C10_25  and  C11_26 
REMARK   10  A    between atoms: C13_29  and  O8_30 
ROOT
HETATM    1  N3  UNL     1     -61.338  30.835  -8.932  1.00  0.00    -0.368 NA
HETATM    2  C5  UNL     1     -62.595  31.335  -8.815  1.00  0.00     0.310 C 
HETATM    3  O4  UNL     1     -63.336  31.819  -9.692  1.00  0.00    -0.255 OA
ENDROOT
BRANCH   2   4
HETATM    4  C6  UNL     1     -63.241  31.329  -7.421  1.00  0.00     0.249 C 
BRANCH   4   5
HETATM    5  N4  UNL     1     -63.806  30.059  -7.078  1.00  0.00    -0.324 N 
HETATM    6  C7  UNL     1     -63.110  29.282  -6.194  1.00  0.00     0.134 A 
HETATM    7  C8  UNL     1     -63.556  28.063  -5.740  1.00  0.00     0.133 A 
HETATM    8  C9  UNL     1     -64.770  27.621  -6.215  1.00  0.00     0.224 A 
HETATM    9  O6  UNL     1     -65.221  26.509  -5.823  1.00  0.00    -0.284 OA
HETATM   10  C10 UNL     1     -65.520  28.376  -7.116  1.00  0.00     0.113 A 
HETATM   11  C13 UNL     1     -64.977  29.581  -7.506  1.00  0.00     0.161 A 
BRANCH   7  12
HETATM   12  O5  UNL     1     -62.828  27.291  -4.831  1.00  0.00    -0.356 OA
ATOM     13  H5  UNL     1     -63.237  26.634  -4.280  1.00  0.00     0.218 HD
ENDBRANCH   7  12
BRANCH  10  14
HETATM   14  C11 UNL     1     -66.784  27.878  -7.573  1.00  0.00     0.164 C 
HETATM   15  C12 UNL     1     -68.062  27.898  -6.871  1.00  0.00     0.097 C 
HETATM   16  O7  UNL     1     -66.788  27.345  -8.745  1.00  0.00    -0.292 OA
ENDBRANCH  10  14
BRANCH  11  17
HETATM   17  O8  UNL     1     -65.713  30.338  -8.407  1.00  0.00    -0.345 OA
ATOM     18  H8  UNL     1     -66.647  30.434  -8.262  1.00  0.00     0.219 HD
ENDBRANCH  11  17
ENDBRANCH   4   5
ENDBRANCH   2   4
BRANCH   1  19
HETATM   19  C3  UNL     1     -60.145  30.393  -9.165  1.00  0.00     0.153 C 
HETATM   20  C4  UNL     1     -59.882  30.068  -7.403  1.00  0.00     0.091 C 
BRANCH  19  21
HETATM   21  C2  UNL     1     -58.855  29.917  -9.419  1.00  0.00     0.291 C 
HETATM   22  N2  UNL     1     -57.758  30.885  -9.657  1.00  0.00    -0.243 N 
ATOM     23  H2  UNL     1     -57.949  31.887  -9.644  1.00  0.00     0.182 HD
HETATM   24  O3  UNL     1     -58.475  28.711  -9.471  1.00  0.00    -0.264 OA
BRANCH  22  25
HETATM   25  S1  UNL     1     -56.187  30.323  -9.951  1.00  0.00     0.235 S 
HETATM   26  O2  UNL     1     -55.165  31.425  -9.907  1.00  0.00    -0.199 OA
BRANCH  25  27
HETATM   27  O1  UNL     1     -56.039  29.394 -11.350  1.00  0.00    -0.281 OA
HETATM   28  C1  UNL     1     -55.727  28.088 -11.108  1.00  0.00     0.225 C 
ENDBRANCH  25  27
BRANCH  25  29
HETATM   29  N1  UNL     1     -55.836  29.349  -8.761  1.00  0.00    -0.323 N 
ATOM     30  H12 UNL     1     -55.407  28.426  -8.837  1.00  0.00     0.169 HD
ATOM     31  H11 UNL     1     -56.128  29.838  -7.915  1.00  0.00     0.169 HD
ENDBRANCH  25  29
ENDBRANCH  22  25
ENDBRANCH  19  21
ENDBRANCH   1  19
TORSDOF 10
ENDMDL
MODEL 3
REMARK VINA RESULT: -7.395997665      3.439      7.851
REMARK  10 active torsions:
REMARK  status: ('A' for Active; 'I' for Inactive)
REMARK    1  A    between atoms: O1_2  and  S1_3 
REMARK    2  A    between atoms: S1_3  and  N1_4 
REMARK    3  A    between atoms: S1_3  and  N2_8 
REMARK       I    between atoms: N2_8  and  C2_10 
REMARK    4  A    between atoms: C2_10  and  C3_12 
REMARK    5  A    between atoms: C3_12  and  N3_14 
REMARK       I    between atoms: N3_14  and  C5_15 
REMARK    6  A    between atoms: C5_15  and  C6_17 
REMARK    7  A    between atoms: C6_17  and  N4_18 
REMARK    8  A    between atoms: C8_20  and  O5_21 
REMARK    9  A    between atoms: C10_25  and  C11_26 
REMARK   10  A    between atoms: C13_29  and  O8_30 
ROOT
HETATM    1  N3  UNL     1     -63.815  28.861  -6.727  1.00  0.00    -0.368 NA
HETATM    2  C5  UNL     1     -62.953  28.624  -5.706  1.00  0.00     0.310 C 
HETATM    3  O4  UNL     1     -62.855  27.620  -4.974  1.00  0.00    -0.255 OA
ENDROOT
BRANCH   2   4
HETATM    4  C6  UNL     1     -61.935  29.721  -5.357  1.00  0.00     0.249 C 
BRANCH   4   5
HETATM    5  N4  UNL     1     -61.247  30.223  -6.508  1.00  0.00    -0.324 N 
HETATM    6  C7  UNL     1     -60.114  29.562  -6.897  1.00  0.00     0.134 A 
HETATM    7  C8  UNL     1     -59.381  29.903  -8.010  1.00  0.00     0.133 A 
HETATM    8  C9  UNL     1     -59.829  30.971  -8.755  1.00  0.00     0.224 A 
HETATM    9  O6  UNL     1     -59.189  31.318  -9.786  1.00  0.00    -0.284 OA
HETATM   10  C10 UNL     1     -60.977  31.677  -8.401  1.00  0.00     0.113 A 
HETATM   11  C13 UNL     1     -61.634  31.251  -7.267  1.00  0.00     0.161 A 
BRANCH   7  12
HETATM   12  O5  UNL     1     -58.231  29.207  -8.390  1.00  0.00    -0.356 OA
ATOM     13  H5  UNL     1     -57.463  29.645  -8.738  1.00  0.00     0.218 HD
ENDBRANCH   7  12
BRANCH  10  14
HETATM   14  C11 UNL     1     -61.410  32.775  -9.216  1.00  0.00     0.164 C 
HETATM   15  C12 UNL     1     -62.480  32.789 -10.206  1.00  0.00     0.097 C 
HETATM   16  O7  UNL     1     -60.771  33.881  -9.054  1.00  0.00    -0.292 OA
ENDBRANCH  10  14
BRANCH  11  17
HETATM   17  O8  UNL     1     -62.776  31.950  -6.904  1.00  0.00    -0.345 OA
ATOM     18  H8  UNL     1     -63.623  31.572  -7.107  1.00  0.00     0.219 HD
ENDBRANCH  11  17
ENDBRANCH   4   5
ENDBRANCH   2   4
BRANCH   1  19
HETATM   19  C3  UNL     1     -64.690  28.976  -7.674  1.00  0.00     0.153 C 
HETATM   20  C4  UNL     1     -65.607  27.547  -7.047  1.00  0.00     0.091 C 
BRANCH  19  21
HETATM   21  C2  UNL     1     -65.632  29.100  -8.698  1.00  0.00     0.291 C 
HETATM   22  N2  UNL     1     -66.771  30.033  -8.528  1.00  0.00    -0.243 N 
ATOM     23  H2  UNL     1     -66.867  30.571  -7.666  1.00  0.00     0.182 HD
HETATM   24  O3  UNL     1     -65.644  28.498  -9.812  1.00  0.00    -0.264 OA
BRANCH  22  25
HETATM   25  S1  UNL     1     -67.913  30.205  -9.768  1.00  0.00     0.235 S 
HETATM   26  O2  UNL     1     -68.876  31.331  -9.509  1.00  0.00    -0.199 OA
BRANCH  25  27
HETATM   27  O1  UNL     1     -68.717  28.778 -10.166  1.00  0.00    -0.281 OA
HETATM   28  C1  UNL     1     -68.700  28.495 -11.500  1.00  0.00     0.225 C 
ENDBRANCH  25  27
BRANCH  25  29
HETATM   29  N1  UNL     1     -67.104  30.606 -11.062  1.00  0.00    -0.323 N 
ATOM     30  H12 UNL     1     -66.189  30.252 -11.340  1.00  0.00     0.169 HD
ATOM     31  H11 UNL     1     -67.690  31.285 -11.548  1.00  0.00     0.169 HD
ENDBRANCH  25  29
ENDBRANCH  22  25
ENDBRANCH  19  21
ENDBRANCH   1  19
TORSDOF 10
ENDMDL
MODEL 4
REMARK VINA RESULT: -7.392434982      3.559      8.077
REMARK  10 active torsions:
REMARK  status: ('A' for Active; 'I' for Inactive)
REMARK    1  A    between atoms: O1_2  and  S1_3 
REMARK    2  A    between atoms: S1_3  and  N1_4 
REMARK    3  A    between atoms: S1_3  and  N2_8 
REMARK       I    between atoms: N2_8  and  C2_10 
REMARK    4  A    between atoms: C2_10  and  C3_12 
REMARK    5  A    between atoms: C3_12  and  N3_14 
REMARK       I    between atoms: N3_14  and  C5_15 
REMARK    6  A    between atoms: C5_15  and  C6_17 
REMARK    7  A    between atoms: C6_17  and  N4_18 
REMARK    8  A    between atoms: C8_20  and  O5_21 
REMARK    9  A    between atoms: C10_25  and  C11_26 
REMARK   10  A    between atoms: C13_29  and  O8_30 
ROOT
HETATM    1  N3  UNL     1     -62.853  28.365  -5.330  1.00  0.00    -0.368 NA
HETATM    2  C5  UNL     1     -61.678  28.487  -4.662  1.00  0.00     0.310 C 
HETATM    3  O4  UNL     1     -61.134  27.691  -3.872  1.00  0.00    -0.255 OA
ENDROOT
BRANCH   2   4
HETATM    4  C6  UNL     1     -60.865  29.775  -4.870  1.00  0.00     0.249 C 
BRANCH   4   5
HETATM    5  N4  UNL     1     -60.745  30.136  -6.250  1.00  0.00    -0.324 N 
HETATM    6  C7  UNL     1     -59.694  29.607  -6.946  1.00  0.00     0.134 A 
HETATM    7  C8  UNL     1     -59.482  29.829  -8.288  1.00  0.00     0.133 A 
HETATM    8  C9  UNL     1     -60.390  30.630  -8.942  1.00  0.00     0.224 A 
HETATM    9  O6  UNL     1     -60.238  30.859 -10.175  1.00  0.00    -0.284 OA
HETATM   10  C10 UNL     1     -61.479  31.193  -8.279  1.00  0.00     0.113 A 
HETATM   11  C13 UNL     1     -61.593  30.906  -6.935  1.00  0.00     0.161 A 
BRANCH   7  12
HETATM   12  O5  UNL     1     -58.404  29.271  -8.977  1.00  0.00    -0.356 OA
ATOM     13  H5  UNL     1     -58.495  28.893  -9.844  1.00  0.00     0.218 HD
ENDBRANCH   7  12
BRANCH  10  14
HETATM   14  C11 UNL     1     -62.404  32.012  -9.007  1.00  0.00     0.164 C 
HETATM   15  C12 UNL     1     -63.612  31.594  -9.707  1.00  0.00     0.097 C 
HETATM   16  O7  UNL     1     -62.128  33.269  -9.050  1.00  0.00    -0.292 OA
ENDBRANCH  10  14
BRANCH  11  17
HETATM   17  O8  UNL     1     -62.672  31.465  -6.265  1.00  0.00    -0.345 OA
ATOM     18  H8  UNL     1     -62.561  32.314  -5.854  1.00  0.00     0.219 HD
ENDBRANCH  11  17
ENDBRANCH   4   5
ENDBRANCH   2   4
BRANCH   1  19
HETATM   19  C3  UNL     1     -63.990  28.139  -5.906  1.00  0.00     0.153 C 
HETATM   20  C4  UNL     1     -64.025  26.450  -5.254  1.00  0.00     0.091 C 
BRANCH  19  21
HETATM   21  C2  UNL     1     -65.217  27.897  -6.531  1.00  0.00     0.291 C 
HETATM   22  N2  UNL     1     -66.473  28.211  -5.810  1.00  0.00    -0.243 N 
ATOM     23  H2  UNL     1     -66.438  28.592  -4.865  1.00  0.00     0.182 HD
HETATM   24  O3  UNL     1     -65.411  27.425  -7.690  1.00  0.00    -0.264 OA
BRANCH  22  25
HETATM   25  S1  UNL     1     -67.966  27.936  -6.561  1.00  0.00     0.235 S 
HETATM   26  O2  UNL     1     -69.117  28.509  -5.779  1.00  0.00    -0.199 OA
BRANCH  25  27
HETATM   27  O1  UNL     1     -68.240  26.326  -6.980  1.00  0.00    -0.281 OA
HETATM   28  C1  UNL     1     -68.716  25.567  -5.952  1.00  0.00     0.225 C 
ENDBRANCH  25  27
BRANCH  25  29
HETATM   29  N1  UNL     1     -67.927  28.724  -7.927  1.00  0.00    -0.323 N 
ATOM     30  H12 UNL     1     -68.016  28.325  -8.862  1.00  0.00     0.169 HD
ATOM     31  H11 UNL     1     -67.794  29.703  -7.672  1.00  0.00     0.169 HD
ENDBRANCH  25  29
ENDBRANCH  22  25
ENDBRANCH  19  21
ENDBRANCH   1  19
TORSDOF 10
ENDMDL
MODEL 5
REMARK VINA RESULT: -7.178578299      1.221      2.309
REMARK  10 active torsions:
REMARK  status: ('A' for Active; 'I' for Inactive)
REMARK    1  A    between atoms: O1_2  and  S1_3 
REMARK    2  A    between atoms: S1_3  and  N1_4 
REMARK    3  A    between atoms: S1_3  and  N2_8 
REMARK       I    between atoms: N2_8  and  C2_10 
REMARK    4  A    between atoms: C2_10  and  C3_12 
REMARK    5  A    between atoms: C3_12  and  N3_14 
REMARK       I    between atoms: N3_14  and  C5_15 
REMARK    6  A    between atoms: C5_15  and  C6_17 
REMARK    7  A    between atoms: C6_17  and  N4_18 
REMARK    8  A    between atoms: C8_20  and  O5_21 
REMARK    9  A    between atoms: C10_25  and  C11_26 
REMARK   10  A    between atoms: C13_29  and  O8_30 
ROOT
HETATM    1  N3  UNL     1     -61.481  30.629  -9.143  1.00  0.00    -0.368 NA
HETATM    2  C5  UNL     1     -62.719  31.178  -9.050  1.00  0.00     0.310 C 
HETATM    3  O4  UNL     1     -63.312  31.928  -9.850  1.00  0.00    -0.255 OA
ENDROOT
BRANCH   2   4
HETATM    4  C6  UNL     1     -63.549  30.866  -7.794  1.00  0.00     0.249 C 
BRANCH   4   5
HETATM    5  N4  UNL     1     -64.469  29.787  -7.993  1.00  0.00    -0.324 N 
HETATM    6  C7  UNL     1     -64.975  29.621  -9.253  1.00  0.00     0.134 A 
HETATM    7  C8  UNL     1     -65.830  28.600  -9.599  1.00  0.00     0.133 A 
HETATM    8  C9  UNL     1     -66.181  27.712  -8.607  1.00  0.00     0.224 A 
HETATM    9  O6  UNL     1     -66.961  26.757  -8.880  1.00  0.00    -0.284 OA
HETATM   10  C10 UNL     1     -65.693  27.837  -7.308  1.00  0.00     0.113 A 
HETATM   11  C13 UNL     1     -64.845  28.898  -7.071  1.00  0.00     0.161 A 
BRANCH   7  12
HETATM   12  O5  UNL     1     -66.327  28.448 -10.895  1.00  0.00    -0.356 OA
ATOM     13  H5  UNL     1     -66.081  27.718 -11.452  1.00  0.00     0.218 HD
ENDBRANCH   7  12
BRANCH  10  14
HETATM   14  C11 UNL     1     -66.080  26.880  -6.313  1.00  0.00     0.164 C 
HETATM   15  C12 UNL     1     -65.491  25.572  -6.051  1.00  0.00     0.097 C 
HETATM   16  O7  UNL     1     -67.070  27.218  -5.563  1.00  0.00    -0.292 OA
ENDBRANCH  10  14
BRANCH  11  17
HETATM   17  O8  UNL     1     -64.356  29.034  -5.780  1.00  0.00    -0.345 OA
ATOM     18  H8  UNL     1     -64.716  28.479  -5.098  1.00  0.00     0.219 HD
ENDBRANCH  11  17
ENDBRANCH   4   5
ENDBRANCH   2   4
BRANCH   1  19
HETATM   19  C3  UNL     1     -60.288  30.169  -9.341  1.00  0.00     0.153 C 
HETATM   20  C4  UNL     1     -60.016  30.012  -7.558  1.00  0.00     0.091 C 
BRANCH  19  21
HETATM   21  C2  UNL     1     -58.998  29.675  -9.556  1.00  0.00     0.291 C 
HETATM   22  N2  UNL     1     -57.860  30.621  -9.622  1.00  0.00    -0.243 N 
ATOM     23  H2  UNL     1     -58.022  31.623  -9.520  1.00  0.00     0.182 HD
HETATM   24  O3  UNL     1     -58.651  28.466  -9.704  1.00  0.00    -0.264 OA
BRANCH  22  25
HETATM   25  S1  UNL     1     -56.289  30.034  -9.867  1.00  0.00     0.235 S 
HETATM   26  O2  UNL     1     -55.830  29.138  -8.750  1.00  0.00    -0.199 OA
BRANCH  25  27
HETATM   27  O1  UNL     1     -55.153  31.231 -10.212  1.00  0.00    -0.281 OA
HETATM   28  C1  UNL     1     -55.514  32.470  -9.771  1.00  0.00     0.225 C 
ENDBRANCH  25  27
BRANCH  25  29
HETATM   29  N1  UNL     1     -56.351  29.130 -11.159  1.00  0.00    -0.323 N 
ATOM     30  H12 UNL     1     -56.814  28.224 -11.245  1.00  0.00     0.169 HD
ATOM     31  H11 UNL     1     -55.836  29.643 -11.874  1.00  0.00     0.169 HD
ENDBRANCH  25  29
ENDBRANCH  22  25
ENDBRANCH  19  21
ENDBRANCH   1  19
TORSDOF 10
ENDMDL
