MODEL 1
REMARK VINA RESULT: -6.547411409      0.000      0.000
REMARK  4 active torsions:
REMARK  status: ('A' for Active; 'I' for Inactive)
REMARK    1  A    between atoms: C2_2  and  O1_3 
REMARK    2  A    between atoms: O1_3  and  C3_4 
REMARK       I    between atoms: C3_4  and  N1_6 
REMARK    3  A    between atoms: N1_6  and  N2_8 
REMARK       I    between atoms: N2_8  and  C4_10 
REMARK       I    between atoms: C4_10  and  N3_12 
REMARK    4  A    between atoms: N3_12  and  C5_14 
ROOT
HETATM    1  N2  UNL     1      41.026  12.286  12.064  1.00  0.00    -0.247 N 
ATOM      2  H2  UNL     1      41.375  12.125  13.009  1.00  0.00     0.192 HD
HETATM    3  C4  UNL     1      41.412  13.476  11.364  1.00  0.00     0.339 C 
HETATM    4  O3  UNL     1      41.014  13.716  10.212  1.00  0.00    -0.245 OA
HETATM    5  N3  UNL     1      42.272  14.397  12.007  1.00  0.00    -0.305 N 
ATOM      6  H3  UNL     1      42.607  14.212  12.952  1.00  0.00     0.171 HD
ENDROOT
BRANCH   1   7
HETATM    7  N1  UNL     1      40.179  11.340  11.477  1.00  0.00    -0.241 N 
HETATM    8  C3  UNL     1      40.602   9.991  11.380  1.00  0.00     0.379 C 
HETATM    9  O2  UNL     1      41.728   9.649  11.821  1.00  0.00    -0.237 OA
ATOM     10  H1  UNL     1      39.265  11.620  11.121  1.00  0.00     0.192 HD
BRANCH   8  11
HETATM   11  O1  UNL     1      39.829   8.994  10.816  1.00  0.00    -0.303 OA
BRANCH  11  12
HETATM   12  C2  UNL     1      38.888   8.206  11.502  1.00  0.00     0.176 C 
HETATM   13  C1  UNL     1      38.935   6.756  11.161  1.00  0.00     0.034 C 
ENDBRANCH  11  12
ENDBRANCH   8  11
ENDBRANCH   1   7
BRANCH   5  14
HETATM   14  C5  UNL     1      42.677  15.610  11.311  1.00  0.00     0.078 A 
HETATM   15  C6  UNL     1      41.984  16.757  11.398  1.00  0.00     0.046 A 
HETATM   16 BR1  UNL     1      40.358  16.957  12.455  1.00  0.00    -0.048 Br
HETATM   17  C7  UNL     1      42.465  17.834  10.699  1.00  0.00     0.072 A 
HETATM   18  S1  UNL     1      43.858  17.213   9.945  1.00  0.00    -0.091 SA
HETATM   19  C8  UNL     1      43.805  15.618  10.528  1.00  0.00     0.079 A 
HETATM   20 BR2  UNL     1      45.010  14.148  10.198  1.00  0.00    -0.041 Br
ENDBRANCH   5  14
TORSDOF 4
ENDMDL
MODEL 2
REMARK VINA RESULT: -6.442210927      0.911      2.349
REMARK  4 active torsions:
REMARK  status: ('A' for Active; 'I' for Inactive)
REMARK    1  A    between atoms: C2_2  and  O1_3 
REMARK    2  A    between atoms: O1_3  and  C3_4 
REMARK       I    between atoms: C3_4  and  N1_6 
REMARK    3  A    between atoms: N1_6  and  N2_8 
REMARK       I    between atoms: N2_8  and  C4_10 
REMARK       I    between atoms: C4_10  and  N3_12 
REMARK    4  A    between atoms: N3_12  and  C5_14 
ROOT
HETATM    1  N2  UNL     1      40.966  12.197  12.424  1.00  0.00    -0.247 N 
ATOM      2  H2  UNL     1      41.528  11.982  13.248  1.00  0.00     0.192 HD
HETATM    3  C4  UNL     1      41.217  13.408  11.698  1.00  0.00     0.339 C 
HETATM    4  O3  UNL     1      40.562  13.713  10.688  1.00  0.00    -0.245 OA
HETATM    5  N3  UNL     1      42.241  14.274  12.148  1.00  0.00    -0.305 N 
ATOM      6  H3  UNL     1      42.787  14.035  12.976  1.00  0.00     0.171 HD
ENDROOT
BRANCH   1   7
HETATM    7  N1  UNL     1      39.968  11.304  12.024  1.00  0.00    -0.241 N 
HETATM    8  C3  UNL     1      40.320   9.977  11.670  1.00  0.00     0.379 C 
HETATM    9  O2  UNL     1      41.521   9.608  11.718  1.00  0.00    -0.237 OA
ATOM     10  H1  UNL     1      38.994  11.605  11.986  1.00  0.00     0.192 HD
BRANCH   8  11
HETATM   11  O1  UNL     1      39.398   9.031  11.264  1.00  0.00    -0.303 OA
BRANCH  11  12
HETATM   12  C2  UNL     1      38.002   9.201  11.270  1.00  0.00     0.176 C 
HETATM   13  C1  UNL     1      37.228   7.929  11.203  1.00  0.00     0.034 C 
ENDBRANCH  11  12
ENDBRANCH   8  11
ENDBRANCH   1   7
BRANCH   5  14
HETATM   14  C5  UNL     1      42.512  15.507  11.423  1.00  0.00     0.078 A 
HETATM   15  C6  UNL     1      43.499  15.610  10.517  1.00  0.00     0.046 A 
HETATM   16 BR1  UNL     1      44.694  14.142  10.053  1.00  0.00    -0.048 Br
HETATM   17  C7  UNL     1      43.655  16.822   9.898  1.00  0.00     0.072 A 
HETATM   18  S1  UNL     1      42.430  17.774  10.596  1.00  0.00    -0.091 SA
HETATM   19  C8  UNL     1      41.748  16.626  11.648  1.00  0.00     0.079 A 
HETATM   20 BR2  UNL     1      40.268  16.805  12.871  1.00  0.00    -0.041 Br
ENDBRANCH   5  14
TORSDOF 4
ENDMDL
MODEL 3
REMARK VINA RESULT: -6.336926872      2.630      3.773
REMARK  4 active torsions:
REMARK  status: ('A' for Active; 'I' for Inactive)
REMARK    1  A    between atoms: C2_2  and  O1_3 
REMARK    2  A    between atoms: O1_3  and  C3_4 
REMARK       I    between atoms: C3_4  and  N1_6 
REMARK    3  A    between atoms: N1_6  and  N2_8 
REMARK       I    between atoms: N2_8  and  C4_10 
REMARK       I    between atoms: C4_10  and  N3_12 
REMARK    4  A    between atoms: N3_12  and  C5_14 
ROOT
HETATM    1  N2  UNL     1      39.789   9.709  12.124  1.00  0.00    -0.247 N 
ATOM      2  H2  UNL     1      40.646   9.321  12.518  1.00  0.00     0.192 HD
HETATM    3  C4  UNL     1      39.649  11.132  12.011  1.00  0.00     0.339 C 
HETATM    4  O3  UNL     1      38.626  11.653  11.537  1.00  0.00    -0.245 OA
HETATM    5  N3  UNL     1      40.709  11.959  12.451  1.00  0.00    -0.305 N 
ATOM      6  H3  UNL     1      41.554  11.544  12.843  1.00  0.00     0.171 HD
ENDROOT
BRANCH   1   7
HETATM    7  N1  UNL     1      38.774   8.844  11.703  1.00  0.00    -0.241 N 
HETATM    8  C3  UNL     1      39.116   7.646  11.026  1.00  0.00     0.379 C 
HETATM    9  O2  UNL     1      40.321   7.366  10.807  1.00  0.00    -0.237 OA
ATOM     10  H1  UNL     1      37.796   9.073  11.882  1.00  0.00     0.192 HD
BRANCH   8  11
HETATM   11  O1  UNL     1      38.178   6.737  10.576  1.00  0.00    -0.303 OA
BRANCH  11  12
HETATM   12  C2  UNL     1      37.644   5.677  11.331  1.00  0.00     0.176 C 
HETATM   13  C1  UNL     1      36.235   5.884  11.770  1.00  0.00     0.034 C 
ENDBRANCH  11  12
ENDBRANCH   8  11
ENDBRANCH   1   7
BRANCH   5  14
HETATM   14  C5  UNL     1      40.585  13.406  12.343  1.00  0.00     0.078 A 
HETATM   15  C6  UNL     1      41.022  14.089  11.271  1.00  0.00     0.046 A 
HETATM   16 BR1  UNL     1      41.872  13.250   9.731  1.00  0.00    -0.048 Br
HETATM   17  C7  UNL     1      40.849  15.449  11.284  1.00  0.00     0.072 A 
HETATM   18  S1  UNL     1      40.090  15.728  12.780  1.00  0.00    -0.091 SA
HETATM   19  C8  UNL     1      40.006  14.131  13.355  1.00  0.00     0.079 A 
HETATM   20 BR2  UNL     1      39.283  13.456  15.011  1.00  0.00    -0.041 Br
ENDBRANCH   5  14
TORSDOF 4
ENDMDL
MODEL 4
REMARK VINA RESULT: -6.301321202      2.709      3.299
REMARK  4 active torsions:
REMARK  status: ('A' for Active; 'I' for Inactive)
REMARK    1  A    between atoms: C2_2  and  O1_3 
REMARK    2  A    between atoms: O1_3  and  C3_4 
REMARK       I    between atoms: C3_4  and  N1_6 
REMARK    3  A    between atoms: N1_6  and  N2_8 
REMARK       I    between atoms: N2_8  and  C4_10 
REMARK       I    between atoms: C4_10  and  N3_12 
REMARK    4  A    between atoms: N3_12  and  C5_14 
ROOT
HETATM    1  N2  UNL     1      39.795   9.696  12.156  1.00  0.00    -0.247 N 
ATOM      2  H2  UNL     1      40.648   9.312  12.564  1.00  0.00     0.192 HD
HETATM    3  C4  UNL     1      39.652  11.118  12.036  1.00  0.00     0.339 C 
HETATM    4  O3  UNL     1      38.635  11.634  11.546  1.00  0.00    -0.245 OA
HETATM    5  N3  UNL     1      40.704  11.950  12.488  1.00  0.00    -0.305 N 
ATOM      6  H3  UNL     1      41.545  11.539  12.892  1.00  0.00     0.171 HD
ENDROOT
BRANCH   1   7
HETATM    7  N1  UNL     1      38.789   8.827  11.725  1.00  0.00    -0.241 N 
HETATM    8  C3  UNL     1      39.141   7.643  11.029  1.00  0.00     0.379 C 
HETATM    9  O2  UNL     1      40.349   7.379  10.804  1.00  0.00    -0.237 OA
ATOM     10  H1  UNL     1      37.809   9.042  11.910  1.00  0.00     0.192 HD
BRANCH   8  11
HETATM   11  O1  UNL     1      38.212   6.730  10.568  1.00  0.00    -0.303 OA
BRANCH  11  12
HETATM   12  C2  UNL     1      37.660   5.679  11.322  1.00  0.00     0.176 C 
HETATM   13  C1  UNL     1      36.243   5.893  11.731  1.00  0.00     0.034 C 
ENDBRANCH  11  12
ENDBRANCH   8  11
ENDBRANCH   1   7
BRANCH   5  14
HETATM   14  C5  UNL     1      40.578  13.396  12.372  1.00  0.00     0.078 A 
HETATM   15  C6  UNL     1      40.019  14.150  13.334  1.00  0.00     0.046 A 
HETATM   16 BR1  UNL     1      39.306  13.425  14.996  1.00  0.00    -0.048 Br
HETATM   17  C7  UNL     1      39.958  15.502  13.112  1.00  0.00     0.072 A 
HETATM   18  S1  UNL     1      40.676  15.674  11.579  1.00  0.00    -0.091 SA
HETATM   19  C8  UNL     1      41.037  14.046  11.254  1.00  0.00     0.079 A 
HETATM   20 BR2  UNL     1      41.883  13.259   9.709  1.00  0.00    -0.041 Br
ENDBRANCH   5  14
TORSDOF 4
ENDMDL
MODEL 5
REMARK VINA RESULT: -6.227999615      1.900      2.105
REMARK  4 active torsions:
REMARK  status: ('A' for Active; 'I' for Inactive)
REMARK    1  A    between atoms: C2_2  and  O1_3 
REMARK    2  A    between atoms: O1_3  and  C3_4 
REMARK       I    between atoms: C3_4  and  N1_6 
REMARK    3  A    between atoms: N1_6  and  N2_8 
REMARK       I    between atoms: N2_8  and  C4_10 
REMARK       I    between atoms: C4_10  and  N3_12 
REMARK    4  A    between atoms: N3_12  and  C5_14 
ROOT
HETATM    1  N2  UNL     1      41.090  11.690  10.801  1.00  0.00    -0.247 N 
ATOM      2  H2  UNL     1      41.838  11.079  10.471  1.00  0.00     0.192 HD
HETATM    3  C4  UNL     1      41.257  13.112  10.722  1.00  0.00     0.339 C 
HETATM    4  O3  UNL     1      40.377  13.897  11.110  1.00  0.00    -0.245 OA
HETATM    5  N3  UNL     1      42.460  13.629  10.186  1.00  0.00    -0.305 N 
ATOM      6  H3  UNL     1      43.192  12.995   9.865  1.00  0.00     0.171 HD
ENDROOT
BRANCH   1   7
HETATM    7  N1  UNL     1      39.922  11.124  11.319  1.00  0.00    -0.241 N 
HETATM    8  C3  UNL     1      39.859   9.723  11.530  1.00  0.00     0.379 C 
HETATM    9  O2  UNL     1      40.848   8.999  11.253  1.00  0.00    -0.237 OA
ATOM     10  H1  UNL     1      39.120  11.714  11.545  1.00  0.00     0.192 HD
BRANCH   8  11
HETATM   11  O1  UNL     1      38.745   9.083  12.038  1.00  0.00    -0.303 OA
BRANCH  11  12
HETATM   12  C2  UNL     1      37.700   8.537  11.272  1.00  0.00     0.176 C 
HETATM   13  C1  UNL     1      36.585   9.484  10.989  1.00  0.00     0.034 C 
ENDBRANCH  11  12
ENDBRANCH   8  11
ENDBRANCH   1   7
BRANCH   5  14
HETATM   14  C5  UNL     1      42.648  15.070  10.097  1.00  0.00     0.078 A 
HETATM   15  C6  UNL     1      42.171  15.797   9.073  1.00  0.00     0.046 A 
HETATM   16 BR1  UNL     1      41.175  15.036   7.581  1.00  0.00    -0.048 Br
HETATM   17  C7  UNL     1      42.410  17.147   9.101  1.00  0.00     0.072 A 
HETATM   18  S1  UNL     1      43.287  17.355  10.543  1.00  0.00    -0.091 SA
HETATM   19  C8  UNL     1      43.332  15.743  11.079  1.00  0.00     0.079 A 
HETATM   20 BR2  UNL     1      44.134  14.997  12.667  1.00  0.00    -0.041 Br
ENDBRANCH   5  14
TORSDOF 4
ENDMDL
