MODEL 1
REMARK VINA RESULT: -5.985214359      0.000      0.000
REMARK  15 active torsions:
REMARK  status: ('A' for Active; 'I' for Inactive)
REMARK    1  A    between atoms: C2_2  and  C4_4 
REMARK    2  A    between atoms: C4_4  and  O1_5 
REMARK    3  A    between atoms: C5_7  and  C6_8 
REMARK    4  A    between atoms: C6_8  and  O2_9 
REMARK    5  A    between atoms: C10_15  and  O4_16 
REMARK    6  A    between atoms: O4_16  and  C11_17 
REMARK    7  A    between atoms: C11_17  and  C12_19 
REMARK    8  A    between atoms: C16_23  and  O6_24 
REMARK    9  A    between atoms: C18_26  and  O7_27 
REMARK   10  A    between atoms: C20_29  and  O8_30 
REMARK       I    between atoms: N1_32  and  C21_33 
REMARK   11  A    between atoms: C21_33  and  C22_35 
REMARK   12  A    between atoms: C23_36  and  C24_37 
REMARK   13  A    between atoms: C25_38  and  C26_39 
REMARK   14  A    between atoms: C27_40  and  C28_41 
REMARK   15  A    between atoms: C28_41  and  C30_43 
ROOT
HETATM    1  C4  UNL     1      58.472 -36.456   8.851  1.00  0.00     0.191 C 
HETATM    2  C5  UNL     1      58.320 -37.424   7.748  1.00  0.00     0.208 C 
HETATM    3  O3  UNL     1      56.945 -37.683   7.659  1.00  0.00    -0.345 OA
HETATM    4  C7  UNL     1      56.449 -37.635   8.967  1.00  0.00     0.176 C 
HETATM    5  C8  UNL     1      55.058 -37.075   8.851  1.00  0.00     0.072 C 
HETATM    6  C9  UNL     1      54.771 -36.497   7.484  1.00  0.00     0.017 C 
HETATM    7  C10 UNL     1      54.013 -38.191   9.036  1.00  0.00     0.172 C 
HETATM    8  C16 UNL     1      54.347 -39.359   8.150  1.00  0.00     0.182 C 
HETATM    9  C18 UNL     1      55.714 -39.953   8.384  1.00  0.00     0.185 C 
HETATM   10  C20 UNL     1      56.382 -39.079   9.426  1.00  0.00     0.206 C 
HETATM   11  N1  UNL     1      57.374 -36.916   9.754  1.00  0.00    -0.274 N 
HETATM   12  C21 UNL     1      57.439 -36.624  11.147  1.00  0.00     0.248 C 
HETATM   13  O9  UNL     1      58.472 -36.010  11.606  1.00  0.00    -0.268 OA
ENDROOT
BRANCH  10  14
HETATM   14  O8  UNL     1      57.644 -39.533   9.713  1.00  0.00    -0.388 OA
ATOM     15  H8  UNL     1      57.846 -40.286   9.170  1.00  0.00     0.210 HD
ENDBRANCH  10  14
BRANCH   2  16
HETATM   16  C6  UNL     1      58.844 -37.093   6.401  1.00  0.00     0.201 C 
BRANCH  16  17
HETATM   17  O2  UNL     1      60.196 -36.906   6.294  1.00  0.00    -0.398 OA
ATOM     18  H2  UNL     1      60.502 -36.008   6.246  1.00  0.00     0.209 HD
ENDBRANCH  16  17
ENDBRANCH   2  16
BRANCH   7  19
HETATM   19  O4  UNL     1      52.796 -37.626   8.502  1.00  0.00    -0.312 OA
BRANCH  19  20
HETATM   20  C11 UNL     1      51.594 -37.751   9.181  1.00  0.00     0.267 C 
HETATM   21  O5  UNL     1      51.683 -37.864  10.429  1.00  0.00    -0.264 OA
BRANCH  20  22
HETATM   22  C12 UNL     1      50.308 -37.749   8.434  1.00  0.00     0.037 C 
HETATM   23  C13 UNL     1      49.114 -37.505   9.327  1.00  0.00     0.025 C 
HETATM   24  C14 UNL     1      50.333 -36.854   7.223  1.00  0.00     0.025 C 
HETATM   25  C15 UNL     1      50.124 -39.178   7.902  1.00  0.00     0.025 C 
ENDBRANCH  20  22
ENDBRANCH  19  20
ENDBRANCH   7  19
BRANCH   9  26
HETATM   26  O7  UNL     1      56.469 -39.945   7.237  1.00  0.00    -0.385 OA
HETATM   27  C19 UNL     1      56.620 -41.169   6.620  1.00  0.00     0.202 C 
ENDBRANCH   9  26
BRANCH   1  28
HETATM   28  C2  UNL     1      58.459 -35.040   8.598  1.00  0.00    -0.035 C 
HETATM   29  C1  UNL     1      59.511 -34.262   8.857  1.00  0.00     0.019 C 
HETATM   30  C3  UNL     1      57.275 -34.317   8.056  1.00  0.00     0.048 C 
ENDBRANCH   1  28
BRANCH   1  31
HETATM   31  O1  UNL     1      59.708 -36.762   9.484  1.00  0.00    -0.364 OA
ATOM     32  H1  UNL     1      60.191 -37.333   8.900  1.00  0.00     0.213 HD
ENDBRANCH   1  31
BRANCH  12  33
HETATM   33  C22 UNL     1      56.439 -36.960  12.104  1.00  0.00     0.074 C 
HETATM   34  C23 UNL     1      56.124 -36.364  13.204  1.00  0.00     0.005 C 
BRANCH  34  35
HETATM   35  C24 UNL     1      56.703 -35.172  13.792  1.00  0.00     0.000 C 
HETATM   36  C25 UNL     1      57.083 -35.168  15.091  1.00  0.00    -0.000 C 
BRANCH  36  37
HETATM   37  C26 UNL     1      57.653 -34.027  15.713  1.00  0.00    -0.004 C 
HETATM   38  C27 UNL     1      57.042 -33.111  16.398  1.00  0.00    -0.023 C 
BRANCH  38  39
HETATM   39  C28 UNL     1      55.577 -33.139  16.634  1.00  0.00     0.004 C 
HETATM   40  C29 UNL     1      55.218 -32.303  17.867  1.00  0.00     0.014 C 
BRANCH  39  41
HETATM   41  C30 UNL     1      54.825 -32.513  15.476  1.00  0.00     0.003 C 
HETATM   42  C31 UNL     1      53.335 -32.490  15.746  1.00  0.00     0.006 C 
ENDBRANCH  39  41
ENDBRANCH  38  39
ENDBRANCH  36  37
ENDBRANCH  34  35
ENDBRANCH  12  33
BRANCH   8  43
HETATM   43  O6  UNL     1      53.421 -40.389   8.315  1.00  0.00    -0.385 OA
HETATM   44  C17 UNL     1      53.500 -40.959   9.562  1.00  0.00     0.202 C 
ENDBRANCH   8  43
TORSDOF 15
ENDMDL
MODEL 2
REMARK VINA RESULT: -5.855992250      2.268      5.689
REMARK  15 active torsions:
REMARK  status: ('A' for Active; 'I' for Inactive)
REMARK    1  A    between atoms: C2_2  and  C4_4 
REMARK    2  A    between atoms: C4_4  and  O1_5 
REMARK    3  A    between atoms: C5_7  and  C6_8 
REMARK    4  A    between atoms: C6_8  and  O2_9 
REMARK    5  A    between atoms: C10_15  and  O4_16 
REMARK    6  A    between atoms: O4_16  and  C11_17 
REMARK    7  A    between atoms: C11_17  and  C12_19 
REMARK    8  A    between atoms: C16_23  and  O6_24 
REMARK    9  A    between atoms: C18_26  and  O7_27 
REMARK   10  A    between atoms: C20_29  and  O8_30 
REMARK       I    between atoms: N1_32  and  C21_33 
REMARK   11  A    between atoms: C21_33  and  C22_35 
REMARK   12  A    between atoms: C23_36  and  C24_37 
REMARK   13  A    between atoms: C25_38  and  C26_39 
REMARK   14  A    between atoms: C27_40  and  C28_41 
REMARK   15  A    between atoms: C28_41  and  C30_43 
ROOT
HETATM    1  C4  UNL     1      56.928 -39.375  12.106  1.00  0.00     0.191 C 
HETATM    2  C5  UNL     1      56.258 -39.866  10.887  1.00  0.00     0.208 C 
HETATM    3  O3  UNL     1      56.722 -39.050   9.846  1.00  0.00    -0.345 OA
HETATM    4  C7  UNL     1      56.901 -37.774  10.394  1.00  0.00     0.176 C 
HETATM    5  C8  UNL     1      58.084 -37.187   9.673  1.00  0.00     0.072 C 
HETATM    6  C9  UNL     1      58.839 -38.211   8.856  1.00  0.00     0.017 C 
HETATM    7  C10 UNL     1      57.621 -36.131   8.654  1.00  0.00     0.172 C 
HETATM    8  C16 UNL     1      56.519 -36.692   7.797  1.00  0.00     0.182 C 
HETATM    9  C18 UNL     1      55.309 -37.165   8.564  1.00  0.00     0.185 C 
HETATM   10  C20 UNL     1      55.647 -37.001  10.031  1.00  0.00     0.206 C 
HETATM   11  N1  UNL     1      56.999 -37.915  11.794  1.00  0.00    -0.274 N 
HETATM   12  C21 UNL     1      57.103 -36.973  12.857  1.00  0.00     0.248 C 
HETATM   13  O9  UNL     1      57.085 -37.399  14.071  1.00  0.00    -0.268 OA
ENDROOT
BRANCH  10  14
HETATM   14  O8  UNL     1      54.605 -37.410  10.825  1.00  0.00    -0.388 OA
ATOM     15  H8  UNL     1      53.785 -37.307  10.357  1.00  0.00     0.210 HD
ENDBRANCH  10  14
BRANCH   2  16
HETATM   16  C6  UNL     1      56.397 -41.289  10.493  1.00  0.00     0.201 C 
BRANCH  16  17
HETATM   17  O2  UNL     1      55.848 -42.218  11.335  1.00  0.00    -0.398 OA
ATOM     18  H2  UNL     1      56.209 -43.096  11.298  1.00  0.00     0.209 HD
ENDBRANCH  16  17
ENDBRANCH   2  16
BRANCH   7  19
HETATM   19  O4  UNL     1      58.756 -35.967   7.776  1.00  0.00    -0.312 OA
BRANCH  19  20
HETATM   20  C11 UNL     1      59.347 -34.725   7.601  1.00  0.00     0.267 C 
HETATM   21  O5  UNL     1      58.715 -33.919   6.874  1.00  0.00    -0.264 OA
BRANCH  20  22
HETATM   22  C12 UNL     1      60.649 -34.416   8.251  1.00  0.00     0.037 C 
HETATM   23  C13 UNL     1      61.515 -35.640   8.437  1.00  0.00     0.025 C 
HETATM   24  C14 UNL     1      61.377 -33.271   7.596  1.00  0.00     0.025 C 
HETATM   25  C15 UNL     1      60.312 -33.946   9.674  1.00  0.00     0.025 C 
ENDBRANCH  20  22
ENDBRANCH  19  20
ENDBRANCH   7  19
BRANCH   9  26
HETATM   26  O7  UNL     1      55.037 -38.487   8.308  1.00  0.00    -0.385 OA
HETATM   27  C19 UNL     1      54.008 -38.718   7.419  1.00  0.00     0.202 C 
ENDBRANCH   9  26
BRANCH   1  28
HETATM   28  C2  UNL     1      58.180 -39.937  12.538  1.00  0.00    -0.035 C 
HETATM   29  C1  UNL     1      58.266 -40.764  13.581  1.00  0.00     0.019 C 
HETATM   30  C3  UNL     1      59.483 -39.628  11.886  1.00  0.00     0.048 C 
ENDBRANCH   1  28
BRANCH   1  31
HETATM   31  O1  UNL     1      55.999 -39.544  13.169  1.00  0.00    -0.364 OA
ATOM     32  H1  UNL     1      55.942 -40.475  13.349  1.00  0.00     0.213 HD
ENDBRANCH   1  31
BRANCH  12  33
HETATM   33  C22 UNL     1      57.229 -35.563  12.695  1.00  0.00     0.074 C 
HETATM   34  C23 UNL     1      57.180 -34.628  13.583  1.00  0.00     0.005 C 
BRANCH  34  35
HETATM   35  C24 UNL     1      56.981 -34.742  15.015  1.00  0.00     0.000 C 
HETATM   36  C25 UNL     1      57.197 -33.675  15.819  1.00  0.00    -0.000 C 
BRANCH  36  37
HETATM   37  C26 UNL     1      57.019 -33.734  17.225  1.00  0.00    -0.004 C 
HETATM   38  C27 UNL     1      56.199 -33.038  17.950  1.00  0.00    -0.023 C 
BRANCH  38  39
HETATM   39  C28 UNL     1      55.285 -32.025  17.364  1.00  0.00     0.004 C 
HETATM   40  C29 UNL     1      54.377 -32.670  16.312  1.00  0.00     0.014 C 
BRANCH  39  41
HETATM   41  C30 UNL     1      54.357 -31.452  18.417  1.00  0.00     0.003 C 
HETATM   42  C31 UNL     1      52.915 -31.517  17.961  1.00  0.00     0.006 C 
ENDBRANCH  39  41
ENDBRANCH  38  39
ENDBRANCH  36  37
ENDBRANCH  34  35
ENDBRANCH  12  33
BRANCH   8  43
HETATM   43  O6  UNL     1      56.073 -35.743   6.877  1.00  0.00    -0.385 OA
HETATM   44  C17 UNL     1      56.218 -36.173   5.581  1.00  0.00     0.202 C 
ENDBRANCH   8  43
TORSDOF 15
ENDMDL
MODEL 3
REMARK VINA RESULT: -5.847677582     16.728     18.619
REMARK  15 active torsions:
REMARK  status: ('A' for Active; 'I' for Inactive)
REMARK    1  A    between atoms: C2_2  and  C4_4 
REMARK    2  A    between atoms: C4_4  and  O1_5 
REMARK    3  A    between atoms: C5_7  and  C6_8 
REMARK    4  A    between atoms: C6_8  and  O2_9 
REMARK    5  A    between atoms: C10_15  and  O4_16 
REMARK    6  A    between atoms: O4_16  and  C11_17 
REMARK    7  A    between atoms: C11_17  and  C12_19 
REMARK    8  A    between atoms: C16_23  and  O6_24 
REMARK    9  A    between atoms: C18_26  and  O7_27 
REMARK   10  A    between atoms: C20_29  and  O8_30 
REMARK       I    between atoms: N1_32  and  C21_33 
REMARK   11  A    between atoms: C21_33  and  C22_35 
REMARK   12  A    between atoms: C23_36  and  C24_37 
REMARK   13  A    between atoms: C25_38  and  C26_39 
REMARK   14  A    between atoms: C27_40  and  C28_41 
REMARK   15  A    between atoms: C28_41  and  C30_43 
ROOT
HETATM    1  C4  UNL     1      38.197 -33.472  15.576  1.00  0.00     0.191 C 
HETATM    2  C5  UNL     1      37.643 -34.422  14.591  1.00  0.00     0.208 C 
HETATM    3  O3  UNL     1      37.658 -35.673  15.224  1.00  0.00    -0.345 OA
HETATM    4  C7  UNL     1      38.797 -35.691  16.038  1.00  0.00     0.176 C 
HETATM    5  C8  UNL     1      38.418 -36.506  17.244  1.00  0.00     0.072 C 
HETATM    6  C9  UNL     1      36.932 -36.773  17.329  1.00  0.00     0.017 C 
HETATM    7  C10 UNL     1      39.066 -37.901  17.173  1.00  0.00     0.172 C 
HETATM    8  C16 UNL     1      38.804 -38.522  15.829  1.00  0.00     0.182 C 
HETATM    9  C18 UNL     1      39.303 -37.713  14.657  1.00  0.00     0.185 C 
HETATM   10  C20 UNL     1      39.853 -36.425  15.235  1.00  0.00     0.206 C 
HETATM   11  N1  UNL     1      39.193 -34.354  16.257  1.00  0.00    -0.274 N 
HETATM   12  C21 UNL     1      40.307 -33.772  16.926  1.00  0.00     0.248 C 
HETATM   13  O9  UNL     1      40.459 -32.495  16.886  1.00  0.00    -0.268 OA
ENDROOT
BRANCH  10  14
HETATM   14  O8  UNL     1      40.335 -35.607  14.245  1.00  0.00    -0.388 OA
ATOM     15  H8  UNL     1      39.952 -35.854  13.411  1.00  0.00     0.210 HD
ENDBRANCH  10  14
BRANCH   2  16
HETATM   16  C6  UNL     1      36.300 -34.181  14.012  1.00  0.00     0.201 C 
BRANCH  16  17
HETATM   17  O2  UNL     1      36.088 -34.630  12.736  1.00  0.00    -0.398 OA
ATOM     18  H2  UNL     1      35.328 -35.183  12.598  1.00  0.00     0.209 HD
ENDBRANCH  16  17
ENDBRANCH   2  16
BRANCH   7  19
HETATM   19  O4  UNL     1      38.315 -38.687  18.124  1.00  0.00    -0.312 OA
BRANCH  19  20
HETATM   20  C11 UNL     1      38.945 -39.305  19.193  1.00  0.00     0.267 C 
HETATM   21  O5  UNL     1      39.510 -40.397  18.935  1.00  0.00    -0.264 OA
BRANCH  20  22
HETATM   22  C12 UNL     1      38.922 -38.676  20.541  1.00  0.00     0.037 C 
HETATM   23  C13 UNL     1      37.706 -37.807  20.760  1.00  0.00     0.025 C 
HETATM   24  C14 UNL     1      39.151 -39.665  21.654  1.00  0.00     0.025 C 
HETATM   25  C15 UNL     1      40.116 -37.711  20.579  1.00  0.00     0.025 C 
ENDBRANCH  20  22
ENDBRANCH  19  20
ENDBRANCH   7  19
BRANCH   9  26
HETATM   26  O7  UNL     1      38.287 -37.417  13.781  1.00  0.00    -0.385 OA
HETATM   27  C19 UNL     1      38.383 -38.013  12.541  1.00  0.00     0.202 C 
ENDBRANCH   9  26
BRANCH   1  28
HETATM   28  C2  UNL     1      37.336 -32.761  16.482  1.00  0.00    -0.035 C 
HETATM   29  C1  UNL     1      36.242 -33.317  17.006  1.00  0.00     0.019 C 
HETATM   30  C3  UNL     1      37.567 -31.348  16.891  1.00  0.00     0.048 C 
ENDBRANCH   1  28
BRANCH   1  31
HETATM   31  O1  UNL     1      38.921 -32.500  14.831  1.00  0.00    -0.364 OA
ATOM     32  H1  UNL     1      38.828 -32.722  13.912  1.00  0.00     0.213 HD
ENDBRANCH   1  31
BRANCH  12  33
HETATM   33  C22 UNL     1      41.296 -34.494  17.654  1.00  0.00     0.074 C 
HETATM   34  C23 UNL     1      41.448 -34.616  18.930  1.00  0.00     0.005 C 
BRANCH  34  35
HETATM   35  C24 UNL     1      40.652 -34.050  20.001  1.00  0.00     0.000 C 
HETATM   36  C25 UNL     1      41.141 -33.034  20.750  1.00  0.00    -0.000 C 
BRANCH  36  37
HETATM   37  C26 UNL     1      40.403 -32.447  21.810  1.00  0.00    -0.004 C 
HETATM   38  C27 UNL     1      40.868 -31.889  22.884  1.00  0.00    -0.023 C 
BRANCH  38  39
HETATM   39  C28 UNL     1      42.322 -31.788  23.162  1.00  0.00     0.004 C 
HETATM   40  C29 UNL     1      42.776 -30.325  23.106  1.00  0.00     0.014 C 
BRANCH  39  41
HETATM   41  C30 UNL     1      42.646 -32.269  24.562  1.00  0.00     0.003 C 
HETATM   42  C31 UNL     1      42.247 -33.718  24.744  1.00  0.00     0.006 C 
ENDBRANCH  39  41
ENDBRANCH  38  39
ENDBRANCH  36  37
ENDBRANCH  34  35
ENDBRANCH  12  33
BRANCH   8  43
HETATM   43  O6  UNL     1      39.399 -39.780  15.738  1.00  0.00    -0.385 OA
HETATM   44  C17 UNL     1      38.549 -40.716  15.201  1.00  0.00     0.202 C 
ENDBRANCH   8  43
TORSDOF 15
ENDMDL
MODEL 4
REMARK VINA RESULT: -5.765163880      2.265      5.658
REMARK  15 active torsions:
REMARK  status: ('A' for Active; 'I' for Inactive)
REMARK    1  A    between atoms: C2_2  and  C4_4 
REMARK    2  A    between atoms: C4_4  and  O1_5 
REMARK    3  A    between atoms: C5_7  and  C6_8 
REMARK    4  A    between atoms: C6_8  and  O2_9 
REMARK    5  A    between atoms: C10_15  and  O4_16 
REMARK    6  A    between atoms: O4_16  and  C11_17 
REMARK    7  A    between atoms: C11_17  and  C12_19 
REMARK    8  A    between atoms: C16_23  and  O6_24 
REMARK    9  A    between atoms: C18_26  and  O7_27 
REMARK   10  A    between atoms: C20_29  and  O8_30 
REMARK       I    between atoms: N1_32  and  C21_33 
REMARK   11  A    between atoms: C21_33  and  C22_35 
REMARK   12  A    between atoms: C23_36  and  C24_37 
REMARK   13  A    between atoms: C25_38  and  C26_39 
REMARK   14  A    between atoms: C27_40  and  C28_41 
REMARK   15  A    between atoms: C28_41  and  C30_43 
ROOT
HETATM    1  C4  UNL     1      56.751 -39.399  12.193  1.00  0.00     0.191 C 
HETATM    2  C5  UNL     1      56.146 -39.868  10.931  1.00  0.00     0.208 C 
HETATM    3  O3  UNL     1      56.718 -39.081   9.922  1.00  0.00    -0.345 OA
HETATM    4  C7  UNL     1      56.916 -37.811  10.477  1.00  0.00     0.176 C 
HETATM    5  C8  UNL     1      58.172 -37.283   9.839  1.00  0.00     0.072 C 
HETATM    6  C9  UNL     1      58.935 -38.345   9.080  1.00  0.00     0.017 C 
HETATM    7  C10 UNL     1      57.829 -36.214   8.785  1.00  0.00     0.172 C 
HETATM    8  C16 UNL     1      56.765 -36.730   7.856  1.00  0.00     0.182 C 
HETATM    9  C18 UNL     1      55.484 -37.144   8.538  1.00  0.00     0.185 C 
HETATM   10  C20 UNL     1      55.726 -36.985  10.025  1.00  0.00     0.206 C 
HETATM   11  N1  UNL     1      56.910 -37.946  11.882  1.00  0.00    -0.274 N 
HETATM   12  C21 UNL     1      56.982 -37.003  12.946  1.00  0.00     0.248 C 
HETATM   13  O9  UNL     1      56.859 -37.419  14.156  1.00  0.00    -0.268 OA
ENDROOT
BRANCH  10  14
HETATM   14  O8  UNL     1      54.615 -37.341  10.746  1.00  0.00    -0.388 OA
ATOM     15  H8  UNL     1      54.248 -38.144  10.394  1.00  0.00     0.210 HD
ENDBRANCH  10  14
BRANCH   2  16
HETATM   16  C6  UNL     1      56.247 -41.299  10.554  1.00  0.00     0.201 C 
BRANCH  16  17
HETATM   17  O2  UNL     1      55.584 -42.195  11.349  1.00  0.00    -0.398 OA
ATOM     18  H2  UNL     1      54.694 -42.413  11.097  1.00  0.00     0.209 HD
ENDBRANCH  16  17
ENDBRANCH   2  16
BRANCH   7  19
HETATM   19  O4  UNL     1      59.029 -36.107   7.989  1.00  0.00    -0.312 OA
BRANCH  19  20
HETATM   20  C11 UNL     1      59.671 -34.888   7.829  1.00  0.00     0.267 C 
HETATM   21  O5  UNL     1      60.031 -34.319   8.889  1.00  0.00    -0.264 OA
BRANCH  20  22
HETATM   22  C12 UNL     1      59.895 -34.333   6.467  1.00  0.00     0.037 C 
HETATM   23  C13 UNL     1      60.157 -35.404   5.434  1.00  0.00     0.025 C 
HETATM   24  C14 UNL     1      58.826 -33.357   6.048  1.00  0.00     0.025 C 
HETATM   25  C15 UNL     1      61.199 -33.526   6.546  1.00  0.00     0.025 C 
ENDBRANCH  20  22
ENDBRANCH  19  20
ENDBRANCH   7  19
BRANCH   9  26
HETATM   26  O7  UNL     1      55.171 -38.454   8.269  1.00  0.00    -0.385 OA
HETATM   27  C19 UNL     1      54.065 -38.645   7.468  1.00  0.00     0.202 C 
ENDBRANCH   9  26
BRANCH   1  28
HETATM   28  C2  UNL     1      57.943 -40.014  12.714  1.00  0.00    -0.035 C 
HETATM   29  C1  UNL     1      59.155 -39.733  12.234  1.00  0.00     0.019 C 
HETATM   30  C3  UNL     1      57.930 -41.029  13.803  1.00  0.00     0.048 C 
ENDBRANCH   1  28
BRANCH   1  31
HETATM   31  O1  UNL     1      55.743 -39.519  13.189  1.00  0.00    -0.364 OA
ATOM     32  H1  UNL     1      55.170 -40.229  12.927  1.00  0.00     0.213 HD
ENDBRANCH   1  31
BRANCH  12  33
HETATM   33  C22 UNL     1      57.182 -35.601  12.787  1.00  0.00     0.074 C 
HETATM   34  C23 UNL     1      57.164 -34.665  13.675  1.00  0.00     0.005 C 
BRANCH  34  35
HETATM   35  C24 UNL     1      56.933 -34.768  15.103  1.00  0.00     0.000 C 
HETATM   36  C25 UNL     1      57.179 -33.711  15.911  1.00  0.00    -0.000 C 
BRANCH  36  37
HETATM   37  C26 UNL     1      56.971 -33.761  17.313  1.00  0.00    -0.004 C 
HETATM   38  C27 UNL     1      56.151 -33.045  18.018  1.00  0.00    -0.023 C 
BRANCH  38  39
HETATM   39  C28 UNL     1      55.272 -32.014  17.411  1.00  0.00     0.004 C 
HETATM   40  C29 UNL     1      54.356 -32.648  16.358  1.00  0.00     0.014 C 
BRANCH  39  41
HETATM   41  C30 UNL     1      54.351 -31.402  18.447  1.00  0.00     0.003 C 
HETATM   42  C31 UNL     1      52.907 -31.471  17.997  1.00  0.00     0.006 C 
ENDBRANCH  39  41
ENDBRANCH  38  39
ENDBRANCH  36  37
ENDBRANCH  34  35
ENDBRANCH  12  33
BRANCH   8  43
HETATM   43  O6  UNL     1      56.428 -35.769   6.903  1.00  0.00    -0.385 OA
HETATM   44  C17 UNL     1      56.481 -36.268   5.625  1.00  0.00     0.202 C 
ENDBRANCH   8  43
TORSDOF 15
ENDMDL
MODEL 5
REMARK VINA RESULT: -5.659798867     15.340     18.709
REMARK  15 active torsions:
REMARK  status: ('A' for Active; 'I' for Inactive)
REMARK    1  A    between atoms: C2_2  and  C4_4 
REMARK    2  A    between atoms: C4_4  and  O1_5 
REMARK    3  A    between atoms: C5_7  and  C6_8 
REMARK    4  A    between atoms: C6_8  and  O2_9 
REMARK    5  A    between atoms: C10_15  and  O4_16 
REMARK    6  A    between atoms: O4_16  and  C11_17 
REMARK    7  A    between atoms: C11_17  and  C12_19 
REMARK    8  A    between atoms: C16_23  and  O6_24 
REMARK    9  A    between atoms: C18_26  and  O7_27 
REMARK   10  A    between atoms: C20_29  and  O8_30 
REMARK       I    between atoms: N1_32  and  C21_33 
REMARK   11  A    between atoms: C21_33  and  C22_35 
REMARK   12  A    between atoms: C23_36  and  C24_37 
REMARK   13  A    between atoms: C25_38  and  C26_39 
REMARK   14  A    between atoms: C27_40  and  C28_41 
REMARK   15  A    between atoms: C28_41  and  C30_43 
ROOT
HETATM    1  C4  UNL     1      39.112 -40.527  15.438  1.00  0.00     0.191 C 
HETATM    2  C5  UNL     1      39.019 -40.374  16.903  1.00  0.00     0.208 C 
HETATM    3  O3  UNL     1      38.960 -38.992  17.135  1.00  0.00    -0.345 OA
HETATM    4  C7  UNL     1      39.764 -38.393  16.158  1.00  0.00     0.176 C 
HETATM    5  C8  UNL     1      39.102 -37.081  15.839  1.00  0.00     0.072 C 
HETATM    6  C9  UNL     1      37.709 -36.971  16.417  1.00  0.00     0.017 C 
HETATM    7  C10 UNL     1      39.886 -35.917  16.474  1.00  0.00     0.172 C 
HETATM    8  C16 UNL     1      40.148 -36.207  17.927  1.00  0.00     0.182 C 
HETATM    9  C18 UNL     1      40.913 -37.482  18.184  1.00  0.00     0.185 C 
HETATM   10  C20 UNL     1      41.099 -38.142  16.833  1.00  0.00     0.206 C 
HETATM   11  N1  UNL     1      39.919 -39.315  15.100  1.00  0.00    -0.274 N 
HETATM   12  C21 UNL     1      40.681 -39.290  13.898  1.00  0.00     0.248 C 
HETATM   13  O9  UNL     1      40.698 -40.337  13.150  1.00  0.00    -0.268 OA
ENDROOT
BRANCH  10  14
HETATM   14  O8  UNL     1      41.787 -39.324  16.953  1.00  0.00    -0.388 OA
ATOM     15  H8  UNL     1      42.475 -39.362  16.299  1.00  0.00     0.210 HD
ENDBRANCH  10  14
BRANCH   2  16
HETATM   16  C6  UNL     1      37.922 -41.042  17.644  1.00  0.00     0.201 C 
BRANCH  16  17
HETATM   17  O2  UNL     1      37.911 -42.411  17.628  1.00  0.00    -0.398 OA
ATOM     18  H2  UNL     1      37.738 -42.847  18.454  1.00  0.00     0.209 HD
ENDBRANCH  16  17
ENDBRANCH   2  16
BRANCH   7  19
HETATM   19  O4  UNL     1      38.955 -34.813  16.455  1.00  0.00    -0.312 OA
BRANCH  19  20
HETATM   20  C11 UNL     1      39.288 -33.611  15.850  1.00  0.00     0.267 C 
HETATM   21  O5  UNL     1      39.902 -33.702  14.758  1.00  0.00    -0.264 OA
BRANCH  20  22
HETATM   22  C12 UNL     1      38.921 -32.322  16.495  1.00  0.00     0.037 C 
HETATM   23  C13 UNL     1      37.460 -32.253  16.875  1.00  0.00     0.025 C 
HETATM   24  C14 UNL     1      39.844 -31.946  17.625  1.00  0.00     0.025 C 
HETATM   25  C15 UNL     1      39.105 -31.241  15.419  1.00  0.00     0.025 C 
ENDBRANCH  20  22
ENDBRANCH  19  20
ENDBRANCH   7  19
BRANCH   9  26
HETATM   26  O7  UNL     1      40.214 -38.329  19.009  1.00  0.00    -0.385 OA
HETATM   27  C19 UNL     1      39.874 -37.810  20.239  1.00  0.00     0.202 C 
ENDBRANCH   9  26
BRANCH   1  28
HETATM   28  C2  UNL     1      37.929 -40.679  14.634  1.00  0.00    -0.035 C 
HETATM   29  C1  UNL     1      36.935 -39.790  14.658  1.00  0.00     0.019 C 
HETATM   30  C3  UNL     1      37.696 -41.843  13.735  1.00  0.00     0.048 C 
ENDBRANCH   1  28
BRANCH   1  31
HETATM   31  O1  UNL     1      39.930 -41.667  15.207  1.00  0.00    -0.364 OA
ATOM     32  H1  UNL     1      40.727 -41.550  15.710  1.00  0.00     0.213 HD
ENDBRANCH   1  31
BRANCH  12  33
HETATM   33  C22 UNL     1      41.449 -38.182  13.436  1.00  0.00     0.074 C 
HETATM   34  C23 UNL     1      41.098 -37.202  12.675  1.00  0.00     0.005 C 
BRANCH  34  35
HETATM   35  C24 UNL     1      39.809 -36.940  12.063  1.00  0.00     0.000 C 
HETATM   36  C25 UNL     1      39.480 -35.685  11.678  1.00  0.00    -0.000 C 
BRANCH  36  37
HETATM   37  C26 UNL     1      38.233 -35.377  11.077  1.00  0.00    -0.004 C 
HETATM   38  C27 UNL     1      37.067 -35.342  11.645  1.00  0.00    -0.023 C 
BRANCH  38  39
HETATM   39  C28 UNL     1      36.876 -35.640  13.086  1.00  0.00     0.004 C 
HETATM   40  C29 UNL     1      36.349 -34.403  13.821  1.00  0.00     0.014 C 
BRANCH  39  41
HETATM   41  C30 UNL     1      35.830 -36.718  13.288  1.00  0.00     0.003 C 
HETATM   42  C31 UNL     1      35.843 -37.707  12.142  1.00  0.00     0.006 C 
ENDBRANCH  39  41
ENDBRANCH  38  39
ENDBRANCH  36  37
ENDBRANCH  34  35
ENDBRANCH  12  33
BRANCH   8  43
HETATM   43  O6  UNL     1      40.873 -35.171  18.517  1.00  0.00    -0.385 OA
HETATM   44  C17 UNL     1      42.214 -35.457  18.593  1.00  0.00     0.202 C 
ENDBRANCH   8  43
TORSDOF 15
ENDMDL
