MODEL 1
REMARK VINA RESULT: -7.775192865      0.000      0.000
REMARK  8 active torsions:
REMARK  status: ('A' for Active; 'I' for Inactive)
REMARK    1  A    between atoms: O1_2  and  C2_3 
REMARK    2  A    between atoms: C2_3  and  C3_5 
REMARK    3  A    between atoms: C3_5  and  N1_7 
REMARK    4  A    between atoms: N3_14  and  C8_15 
REMARK    5  A    between atoms: C8_15  and  C9_16 
REMARK    6  A    between atoms: N4_18  and  C11_19 
REMARK    7  A    between atoms: C13_23  and  N6_24 
REMARK    8  A    between atoms: C14_29  and  N8_30 
ROOT
HETATM    1  C9  UNL     1       7.592  -3.512 -24.427  1.00  0.00     0.059 A 
HETATM    2  C10 UNL     1       6.522  -4.098 -23.784  1.00  0.00     0.146 A 
HETATM    3  N4  UNL     1       5.822  -3.154 -23.119  1.00  0.00    -0.246 N 
HETATM    4  N9  UNL     1       6.450  -2.020 -23.350  1.00  0.00    -0.236 N 
ATOM      5  H9  UNL     1       6.159  -1.114 -22.981  1.00  0.00     0.209 HD
HETATM    6  N10 UNL     1       7.518  -2.208 -24.133  1.00  0.00    -0.287 N 
ATOM      7  H10 UNL     1       8.164  -1.485 -24.451  1.00  0.00     0.188 HD
ENDROOT
BRANCH   1   8
HETATM    8  C8  UNL     1       8.570  -4.219 -25.244  1.00  0.00     0.174 C 
BRANCH   8   9
HETATM    9  N3  UNL     1       8.074  -4.789 -26.448  1.00  0.00    -0.209 NA
HETATM   10  C7  UNL     1       9.031  -5.309 -27.350  1.00  0.00     0.134 C 
HETATM   11  C6  UNL     1       8.294  -6.072 -28.448  1.00  0.00     0.154 C 
HETATM   12  N2  UNL     1       7.439  -5.124 -29.176  1.00  0.00    -0.224 N 
HETATM   13  C5  UNL     1       6.925  -3.991 -28.489  1.00  0.00     0.685 C 
ATOM     14  H2  UNL     1       7.218  -5.276 -30.160  1.00  0.00     0.177 HD
HETATM   15  N1  UNL     1       6.208  -3.120 -29.109  1.00  0.00    -0.212 N 
HETATM   16  N11 UNL     1       7.243  -3.878 -27.108  1.00  0.00    -0.152 N 
ATOM     17  H1  UNL     1       6.028  -3.277 -30.101  1.00  0.00     0.178 HD
ATOM     18  H11 UNL     1       6.849  -3.101 -26.578  1.00  0.00     0.199 HD
BRANCH  15  19
HETATM   19  C3  UNL     1       5.647  -1.951 -28.513  1.00  0.00     0.195 C 
HETATM   20  C4  UNL     1       6.612  -0.794 -28.803  1.00  0.00     0.043 C 
BRANCH  19  21
HETATM   21  C2  UNL     1       4.366  -1.596 -29.204  1.00  0.00     0.281 C 
HETATM   22  O2  UNL     1       4.348  -1.234 -30.403  1.00  0.00    -0.263 OA
BRANCH  21  23
HETATM   23  O1  UNL     1       3.176  -1.665 -28.520  1.00  0.00    -0.325 OA
HETATM   24  C1  UNL     1       2.945  -0.982 -27.289  1.00  0.00     0.213 C 
ENDBRANCH  21  23
ENDBRANCH  19  21
ENDBRANCH  15  19
ENDBRANCH   8   9
ENDBRANCH   1   8
BRANCH   3  25
HETATM   25  C11 UNL     1       4.651  -3.293 -22.321  1.00  0.00     0.117 A 
HETATM   26  C12 UNL     1       4.687  -3.311 -20.941  1.00  0.00     0.141 A 
HETATM   27  N5  UNL     1       3.567  -3.444 -20.208  1.00  0.00    -0.200 N 
HETATM   28  C13 UNL     1       2.356  -3.565 -20.782  1.00  0.00     0.677 A 
ATOM     29  H5  UNL     1       3.637  -3.453 -19.190  1.00  0.00     0.183 HD
HETATM   30  N7  UNL     1       2.306  -3.549 -22.125  1.00  0.00    -0.175 N 
HETATM   31  C14 UNL     1       3.402  -3.419 -22.893  1.00  0.00     0.145 A 
ATOM     32  H7  UNL     1       1.398  -3.640 -22.581  1.00  0.00     0.186 HD
BRANCH  28  33
HETATM   33  N6  UNL     1       1.287  -3.692 -20.053  1.00  0.00    -0.234 N 
ATOM     34  H62 UNL     1       0.384  -3.321 -20.349  1.00  0.00     0.174 HD
ATOM     35  H61 UNL     1       1.323  -4.174 -19.155  1.00  0.00     0.174 HD
ENDBRANCH  28  33
BRANCH  31  36
HETATM   36  N8  UNL     1       3.337  -3.405 -24.189  1.00  0.00    -0.383 N 
ATOM     37  H82 UNL     1       2.961  -4.191 -24.720  1.00  0.00     0.157 HD
ATOM     38  H81 UNL     1       3.679  -2.570 -24.665  1.00  0.00     0.157 HD
ENDBRANCH  31  36
ENDBRANCH   3  25
TORSDOF 8
ENDMDL
MODEL 2
REMARK VINA RESULT: -7.703839651      3.547      7.470
REMARK  8 active torsions:
REMARK  status: ('A' for Active; 'I' for Inactive)
REMARK    1  A    between atoms: O1_2  and  C2_3 
REMARK    2  A    between atoms: C2_3  and  C3_5 
REMARK    3  A    between atoms: C3_5  and  N1_7 
REMARK    4  A    between atoms: N3_14  and  C8_15 
REMARK    5  A    between atoms: C8_15  and  C9_16 
REMARK    6  A    between atoms: N4_18  and  C11_19 
REMARK    7  A    between atoms: C13_23  and  N6_24 
REMARK    8  A    between atoms: C14_29  and  N8_30 
ROOT
HETATM    1  C9  UNL     1       5.401  -1.472 -25.797  1.00  0.00     0.059 A 
HETATM    2  C10 UNL     1       6.581  -2.114 -26.106  1.00  0.00     0.146 A 
HETATM    3  N4  UNL     1       6.322  -3.387 -26.474  1.00  0.00    -0.246 N 
HETATM    4  N9  UNL     1       5.013  -3.518 -26.392  1.00  0.00    -0.236 N 
ATOM      5  H9  UNL     1       4.506  -4.376 -26.610  1.00  0.00     0.209 HD
HETATM    6  N10 UNL     1       4.436  -2.382 -25.986  1.00  0.00    -0.287 N 
ATOM      7  H10 UNL     1       3.437  -2.234 -25.845  1.00  0.00     0.188 HD
ENDROOT
BRANCH   1   8
HETATM    8  C8  UNL     1       5.288  -0.086 -25.359  1.00  0.00     0.174 C 
BRANCH   8   9
HETATM    9  N3  UNL     1       5.870   0.212 -24.097  1.00  0.00    -0.209 NA
HETATM   10  C7  UNL     1       7.270   0.410 -24.071  1.00  0.00     0.134 C 
HETATM   11  C6  UNL     1       7.656   0.942 -22.693  1.00  0.00     0.154 C 
HETATM   12  N2  UNL     1       7.314  -0.078 -21.691  1.00  0.00    -0.224 N 
HETATM   13  C5  UNL     1       6.229  -0.958 -21.947  1.00  0.00     0.685 C 
ATOM     14  H2  UNL     1       7.847  -0.152 -20.825  1.00  0.00     0.177 HD
HETATM   15  N1  UNL     1       5.931  -1.890 -21.109  1.00  0.00    -0.212 N 
HETATM   16  N11 UNL     1       5.508  -0.758 -23.155  1.00  0.00    -0.152 N 
ATOM     17  H1  UNL     1       6.500  -1.965 -20.265  1.00  0.00     0.178 HD
ATOM     18  H11 UNL     1       4.695  -1.344 -23.343  1.00  0.00     0.199 HD
BRANCH  15  19
HETATM   19  C3  UNL     1       4.865  -2.824 -21.272  1.00  0.00     0.195 C 
HETATM   20  C4  UNL     1       5.503  -4.212 -21.407  1.00  0.00     0.043 C 
BRANCH  19  21
HETATM   21  C2  UNL     1       4.041  -2.874 -20.021  1.00  0.00     0.281 C 
HETATM   22  O2  UNL     1       4.195  -2.038 -19.102  1.00  0.00    -0.263 OA
BRANCH  21  23
HETATM   23  O1  UNL     1       3.091  -3.854 -19.865  1.00  0.00    -0.325 OA
HETATM   24  C1  UNL     1       1.733  -3.694 -20.271  1.00  0.00     0.213 C 
ENDBRANCH  21  23
ENDBRANCH  19  21
ENDBRANCH  15  19
ENDBRANCH   8   9
ENDBRANCH   1   8
BRANCH   3  25
HETATM   25  C11 UNL     1       7.223  -4.413 -26.874  1.00  0.00     0.117 A 
HETATM   26  C12 UNL     1       7.909  -5.198 -25.968  1.00  0.00     0.141 A 
HETATM   27  N5  UNL     1       8.756  -6.162 -26.369  1.00  0.00    -0.200 N 
HETATM   28  C13 UNL     1       8.979  -6.410 -27.673  1.00  0.00     0.677 A 
ATOM     29  H5  UNL     1       9.243  -6.720 -25.668  1.00  0.00     0.183 HD
HETATM   30  N7  UNL     1       8.320  -5.653 -28.567  1.00  0.00    -0.175 N 
HETATM   31  C14 UNL     1       7.464  -4.680 -28.206  1.00  0.00     0.145 A 
ATOM     32  H7  UNL     1       8.474  -5.824 -29.560  1.00  0.00     0.186 HD
BRANCH  28  33
HETATM   33  N6  UNL     1       9.803  -7.347 -28.038  1.00  0.00    -0.234 N 
ATOM     34  H62 UNL     1      10.503  -7.199 -28.765  1.00  0.00     0.174 HD
ATOM     35  H61 UNL     1       9.772  -8.268 -27.600  1.00  0.00     0.174 HD
ENDBRANCH  28  33
BRANCH  31  36
HETATM   36  N8  UNL     1       6.834  -3.958 -29.081  1.00  0.00    -0.383 N 
ATOM     37  H82 UNL     1       5.820  -3.991 -29.180  1.00  0.00     0.157 HD
ATOM     38  H81 UNL     1       7.396  -3.347 -29.674  1.00  0.00     0.157 HD
ENDBRANCH  31  36
ENDBRANCH   3  25
TORSDOF 8
ENDMDL
MODEL 3
REMARK VINA RESULT: -7.614776946      4.822      9.009
REMARK  8 active torsions:
REMARK  status: ('A' for Active; 'I' for Inactive)
REMARK    1  A    between atoms: O1_2  and  C2_3 
REMARK    2  A    between atoms: C2_3  and  C3_5 
REMARK    3  A    between atoms: C3_5  and  N1_7 
REMARK    4  A    between atoms: N3_14  and  C8_15 
REMARK    5  A    between atoms: C8_15  and  C9_16 
REMARK    6  A    between atoms: N4_18  and  C11_19 
REMARK    7  A    between atoms: C13_23  and  N6_24 
REMARK    8  A    between atoms: C14_29  and  N8_30 
ROOT
HETATM    1  C9  UNL     1       9.030   0.005 -30.018  1.00  0.00     0.059 A 
HETATM    2  C10 UNL     1      10.128  -0.208 -29.212  1.00  0.00     0.146 A 
HETATM    3  N4  UNL     1      11.186  -0.558 -29.974  1.00  0.00    -0.246 N 
HETATM    4  N9  UNL     1      10.744  -0.559 -31.215  1.00  0.00    -0.236 N 
ATOM      5  H9  UNL     1      11.315  -0.785 -32.030  1.00  0.00     0.209 HD
HETATM    6  N10 UNL     1       9.450  -0.226 -31.268  1.00  0.00    -0.287 N 
ATOM      7  H10 UNL     1       8.883  -0.158 -32.113  1.00  0.00     0.188 HD
ENDROOT
BRANCH   1   8
HETATM    8  C8  UNL     1       7.707   0.396 -29.547  1.00  0.00     0.174 C 
BRANCH   8   9
HETATM    9  N3  UNL     1       6.721  -0.628 -29.552  1.00  0.00    -0.209 NA
HETATM   10  C7  UNL     1       5.469  -0.312 -28.975  1.00  0.00     0.134 C 
HETATM   11  C6  UNL     1       4.494  -1.444 -29.289  1.00  0.00     0.154 C 
HETATM   12  N2  UNL     1       4.997  -2.674 -28.660  1.00  0.00    -0.224 N 
HETATM   13  C5  UNL     1       6.397  -2.834 -28.480  1.00  0.00     0.685 C 
ATOM     14  H2  UNL     1       4.350  -3.402 -28.356  1.00  0.00     0.177 HD
HETATM   15  N1  UNL     1       6.866  -3.881 -27.894  1.00  0.00    -0.212 N 
HETATM   16  N11 UNL     1       7.231  -1.795 -28.973  1.00  0.00    -0.152 N 
ATOM     17  H1  UNL     1       6.197  -4.580 -27.570  1.00  0.00     0.178 HD
ATOM     18  H11 UNL     1       8.243  -1.904 -28.902  1.00  0.00     0.199 HD
BRANCH  15  19
HETATM   19  C3  UNL     1       8.251  -4.136 -27.665  1.00  0.00     0.195 C 
HETATM   20  C4  UNL     1       8.472  -4.075 -26.148  1.00  0.00     0.043 C 
BRANCH  19  21
HETATM   21  C2  UNL     1       8.580  -5.541 -28.068  1.00  0.00     0.281 C 
HETATM   22  O2  UNL     1       8.135  -6.038 -29.129  1.00  0.00    -0.263 OA
BRANCH  21  23
HETATM   23  O1  UNL     1       9.386  -6.313 -27.268  1.00  0.00    -0.325 OA
HETATM   24  C1  UNL     1       8.930  -7.495 -26.613  1.00  0.00     0.213 C 
ENDBRANCH  21  23
ENDBRANCH  19  21
ENDBRANCH  15  19
ENDBRANCH   8   9
ENDBRANCH   1   8
BRANCH   3  25
HETATM   25  C11 UNL     1      12.518  -0.871 -29.580  1.00  0.00     0.117 A 
HETATM   26  C12 UNL     1      13.561   0.027 -29.698  1.00  0.00     0.141 A 
HETATM   27  N5  UNL     1      14.812  -0.291 -29.320  1.00  0.00    -0.200 N 
HETATM   28  C13 UNL     1      15.111  -1.500 -28.810  1.00  0.00     0.677 A 
ATOM     29  H5  UNL     1      15.553   0.401 -29.424  1.00  0.00     0.183 HD
HETATM   30  N7  UNL     1      14.106  -2.385 -28.690  1.00  0.00    -0.175 N 
HETATM   31  C14 UNL     1      12.842  -2.106 -29.056  1.00  0.00     0.145 A 
ATOM     32  H7  UNL     1      14.311  -3.307 -28.306  1.00  0.00     0.186 HD
BRANCH  28  33
HETATM   33  N6  UNL     1      16.328  -1.786 -28.451  1.00  0.00    -0.234 N 
ATOM     34  H62 UNL     1      17.041  -1.066 -28.338  1.00  0.00     0.174 HD
ATOM     35  H61 UNL     1      16.604  -2.751 -28.271  1.00  0.00     0.174 HD
ENDBRANCH  28  33
BRANCH  31  36
HETATM   36  N8  UNL     1      11.883  -2.971 -28.934  1.00  0.00    -0.383 N 
ATOM     37  H82 UNL     1      11.446  -3.411 -29.744  1.00  0.00     0.157 HD
ATOM     38  H81 UNL     1      11.577  -3.199 -27.988  1.00  0.00     0.157 HD
ENDBRANCH  31  36
ENDBRANCH   3  25
TORSDOF 8
ENDMDL
MODEL 4
REMARK VINA RESULT: -7.458593312      2.860      4.850
REMARK  8 active torsions:
REMARK  status: ('A' for Active; 'I' for Inactive)
REMARK    1  A    between atoms: O1_2  and  C2_3 
REMARK    2  A    between atoms: C2_3  and  C3_5 
REMARK    3  A    between atoms: C3_5  and  N1_7 
REMARK    4  A    between atoms: N3_14  and  C8_15 
REMARK    5  A    between atoms: C8_15  and  C9_16 
REMARK    6  A    between atoms: N4_18  and  C11_19 
REMARK    7  A    between atoms: C13_23  and  N6_24 
REMARK    8  A    between atoms: C14_29  and  N8_30 
ROOT
HETATM    1  C9  UNL     1       4.087  -2.776 -25.003  1.00  0.00     0.059 A 
HETATM    2  C10 UNL     1       5.221  -2.458 -24.287  1.00  0.00     0.146 A 
HETATM    3  N4  UNL     1       5.230  -3.144 -23.125  1.00  0.00    -0.246 N 
HETATM    4  N9  UNL     1       4.127  -3.865 -23.131  1.00  0.00    -0.236 N 
ATOM      5  H9  UNL     1       3.847  -4.497 -22.381  1.00  0.00     0.209 HD
HETATM    6  N10 UNL     1       3.421  -3.661 -24.249  1.00  0.00    -0.287 N 
ATOM      7  H10 UNL     1       2.532  -4.101 -24.485  1.00  0.00     0.188 HD
ENDROOT
BRANCH   1   8
HETATM    8  C8  UNL     1       3.735  -2.229 -26.308  1.00  0.00     0.174 C 
BRANCH   8   9
HETATM    9  N3  UNL     1       4.811  -1.680 -27.057  1.00  0.00    -0.209 NA
HETATM   10  C7  UNL     1       4.469  -0.890 -28.179  1.00  0.00     0.134 C 
HETATM   11  C6  UNL     1       5.736  -0.213 -28.696  1.00  0.00     0.154 C 
HETATM   12  N2  UNL     1       6.673  -1.258 -29.134  1.00  0.00    -0.224 N 
HETATM   13  C5  UNL     1       6.631  -2.530 -28.502  1.00  0.00     0.685 C 
ATOM     14  H2  UNL     1       7.342  -1.073 -29.881  1.00  0.00     0.177 HD
HETATM   15  N1  UNL     1       7.409  -3.479 -28.891  1.00  0.00    -0.212 N 
HETATM   16  N11 UNL     1       5.701  -2.690 -27.439  1.00  0.00    -0.152 N 
ATOM     17  H1  UNL     1       8.047  -3.281 -29.662  1.00  0.00     0.178 HD
ATOM     18  H11 UNL     1       5.682  -3.576 -26.935  1.00  0.00     0.199 HD
BRANCH  15  19
HETATM   19  C3  UNL     1       7.445  -4.788 -28.325  1.00  0.00     0.195 C 
HETATM   20  C4  UNL     1       7.227  -5.780 -29.476  1.00  0.00     0.043 C 
BRANCH  19  21
HETATM   21  C2  UNL     1       8.817  -5.074 -27.797  1.00  0.00     0.281 C 
HETATM   22  O2  UNL     1       9.585  -4.151 -27.438  1.00  0.00    -0.263 OA
BRANCH  21  23
HETATM   23  O1  UNL     1       9.258  -6.371 -27.698  1.00  0.00    -0.325 OA
HETATM   24  C1  UNL     1       8.990  -7.200 -26.568  1.00  0.00     0.213 C 
ENDBRANCH  21  23
ENDBRANCH  19  21
ENDBRANCH  15  19
ENDBRANCH   8   9
ENDBRANCH   1   8
BRANCH   3  25
HETATM   25  C11 UNL     1       6.194  -3.135 -22.078  1.00  0.00     0.117 A 
HETATM   26  C12 UNL     1       6.177  -2.205 -21.057  1.00  0.00     0.141 A 
HETATM   27  N5  UNL     1       7.099  -2.215 -20.078  1.00  0.00    -0.200 N 
HETATM   28  C13 UNL     1       8.084  -3.130 -20.044  1.00  0.00     0.677 A 
ATOM     29  H5  UNL     1       7.051  -1.510 -19.343  1.00  0.00     0.183 HD
HETATM   30  N7  UNL     1       8.114  -4.042 -21.031  1.00  0.00    -0.175 N 
HETATM   31  C14 UNL     1       7.211  -4.066 -22.027  1.00  0.00     0.145 A 
ATOM     32  H7  UNL     1       8.853  -4.745 -21.025  1.00  0.00     0.186 HD
BRANCH  28  33
HETATM   33  N6  UNL     1       8.965  -3.121 -19.087  1.00  0.00    -0.234 N 
ATOM     34  H62 UNL     1       8.701  -2.996 -18.110  1.00  0.00     0.174 HD
ATOM     35  H61 UNL     1       9.957  -3.241 -19.292  1.00  0.00     0.174 HD
ENDBRANCH  28  33
BRANCH  31  36
HETATM   36  N8  UNL     1       7.253  -4.953 -22.973  1.00  0.00    -0.383 N 
ATOM     37  H82 UNL     1       7.485  -4.707 -23.935  1.00  0.00     0.157 HD
ATOM     38  H81 UNL     1       7.043  -5.918 -22.719  1.00  0.00     0.157 HD
ENDBRANCH  31  36
ENDBRANCH   3  25
TORSDOF 8
ENDMDL
MODEL 5
REMARK VINA RESULT: -7.404828972      2.824      4.731
REMARK  8 active torsions:
REMARK  status: ('A' for Active; 'I' for Inactive)
REMARK    1  A    between atoms: O1_2  and  C2_3 
REMARK    2  A    between atoms: C2_3  and  C3_5 
REMARK    3  A    between atoms: C3_5  and  N1_7 
REMARK    4  A    between atoms: N3_14  and  C8_15 
REMARK    5  A    between atoms: C8_15  and  C9_16 
REMARK    6  A    between atoms: N4_18  and  C11_19 
REMARK    7  A    between atoms: C13_23  and  N6_24 
REMARK    8  A    between atoms: C14_29  and  N8_30 
ROOT
HETATM    1  C9  UNL     1       4.159  -2.791 -24.937  1.00  0.00     0.059 A 
HETATM    2  C10 UNL     1       5.288  -2.485 -24.207  1.00  0.00     0.146 A 
HETATM    3  N4  UNL     1       5.289  -3.192 -23.057  1.00  0.00    -0.246 N 
HETATM    4  N9  UNL     1       4.187  -3.914 -23.086  1.00  0.00    -0.236 N 
ATOM      5  H9  UNL     1       3.902  -4.560 -22.349  1.00  0.00     0.209 HD
HETATM    6  N10 UNL     1       3.489  -3.690 -24.205  1.00  0.00    -0.287 N 
ATOM      7  H10 UNL     1       2.603  -4.127 -24.456  1.00  0.00     0.188 HD
ENDROOT
BRANCH   1   8
HETATM    8  C8  UNL     1       3.818  -2.221 -26.234  1.00  0.00     0.174 C 
BRANCH   8   9
HETATM    9  N3  UNL     1       4.905  -1.697 -26.984  1.00  0.00    -0.209 NA
HETATM   10  C7  UNL     1       4.582  -0.859 -28.077  1.00  0.00     0.134 C 
HETATM   11  C6  UNL     1       5.870  -0.223 -28.595  1.00  0.00     0.154 C 
HETATM   12  N2  UNL     1       6.753  -1.295 -29.078  1.00  0.00    -0.224 N 
HETATM   13  C5  UNL     1       6.664  -2.581 -28.482  1.00  0.00     0.685 C 
ATOM     14  H2  UNL     1       7.419  -1.117 -29.830  1.00  0.00     0.177 HD
HETATM   15  N1  UNL     1       7.394  -3.552 -28.911  1.00  0.00    -0.212 N 
HETATM   16  N11 UNL     1       5.744  -2.732 -27.410  1.00  0.00    -0.152 N 
ATOM     17  H1  UNL     1       8.029  -3.359 -29.686  1.00  0.00     0.178 HD
ATOM     18  H11 UNL     1       5.694  -3.631 -26.931  1.00  0.00     0.199 HD
BRANCH  15  19
HETATM   19  C3  UNL     1       7.381  -4.878 -28.384  1.00  0.00     0.195 C 
HETATM   20  C4  UNL     1       7.078  -5.822 -29.555  1.00  0.00     0.043 C 
BRANCH  19  21
HETATM   21  C2  UNL     1       8.753  -5.246 -27.908  1.00  0.00     0.281 C 
HETATM   22  O2  UNL     1       9.356  -6.246 -28.363  1.00  0.00    -0.263 OA
BRANCH  21  23
HETATM   23  O1  UNL     1       9.376  -4.482 -26.952  1.00  0.00    -0.325 OA
HETATM   24  C1  UNL     1       8.865  -4.319 -25.630  1.00  0.00     0.213 C 
ENDBRANCH  21  23
ENDBRANCH  19  21
ENDBRANCH  15  19
ENDBRANCH   8   9
ENDBRANCH   1   8
BRANCH   3  25
HETATM   25  C11 UNL     1       6.245  -3.201 -22.003  1.00  0.00     0.117 A 
HETATM   26  C12 UNL     1       7.552  -3.606 -22.185  1.00  0.00     0.141 A 
HETATM   27  N5  UNL     1       8.438  -3.607 -21.173  1.00  0.00    -0.200 N 
HETATM   28  C13 UNL     1       8.096  -3.213 -19.933  1.00  0.00     0.677 A 
ATOM     29  H5  UNL     1       9.394  -3.914 -21.350  1.00  0.00     0.183 HD
HETATM   30  N7  UNL     1       6.826  -2.816 -19.740  1.00  0.00    -0.175 N 
HETATM   31  C14 UNL     1       5.911  -2.801 -20.725  1.00  0.00     0.145 A 
ATOM     32  H7  UNL     1       6.545  -2.514 -18.807  1.00  0.00     0.186 HD
BRANCH  28  33
HETATM   33  N6  UNL     1       8.970  -3.221 -18.969  1.00  0.00    -0.234 N 
ATOM     34  H62 UNL     1       9.970  -3.312 -19.147  1.00  0.00     0.174 HD
ATOM     35  H61 UNL     1       8.673  -3.135 -17.997  1.00  0.00     0.174 HD
ENDBRANCH  28  33
BRANCH  31  36
HETATM   36  N8  UNL     1       4.689  -2.415 -20.523  1.00  0.00    -0.383 N 
ATOM     37  H82 UNL     1       4.401  -1.443 -20.642  1.00  0.00     0.157 HD
ATOM     38  H81 UNL     1       4.015  -3.126 -20.237  1.00  0.00     0.157 HD
ENDBRANCH  31  36
ENDBRANCH   3  25
TORSDOF 8
ENDMDL
