MODEL 1
REMARK VINA RESULT: -7.458376679      0.000      0.000
REMARK  7 active torsions:
REMARK  status: ('A' for Active; 'I' for Inactive)
REMARK    1  A    between atoms: C1_2  and  C2_3 
REMARK       I    between atoms: C1_2  and  N6_23 
REMARK    2  A    between atoms: N1_4  and  N2_6 
REMARK    3  A    between atoms: N2_6  and  C3_8 
REMARK    4  A    between atoms: N6_23  and  C9_25 
REMARK    5  A    between atoms: C11_28  and  C12_29 
REMARK    6  A    between atoms: C12_29  and  O3_30 
REMARK    7  A    between atoms: C14_33  and  O4_34 
ROOT
HETATM    1  C2  UNL     1       6.235  -3.341 -29.637  1.00  0.00     0.181 C 
HETATM    2  N1  UNL     1       6.592  -3.300 -28.422  1.00  0.00    -0.305 N 
ATOM      3  H1  UNL     1       7.057  -2.457 -28.086  1.00  0.00     0.186 HD
ENDROOT
BRANCH   2   4
HETATM    4  N2  UNL     1       6.387  -4.336 -27.523  1.00  0.00    -0.280 N 
ATOM      5  H2  UNL     1       6.394  -5.306 -27.838  1.00  0.00     0.189 HD
BRANCH   4   6
HETATM    6  C3  UNL     1       6.168  -4.023 -26.164  1.00  0.00     0.156 C 
HETATM    7  N3  UNL     1       4.999  -3.878 -25.642  1.00  0.00    -0.340 N 
HETATM    8  C4  UNL     1       4.860  -3.560 -24.251  1.00  0.00     0.317 C 
ATOM      9  H3  UNL     1       4.167  -3.991 -26.222  1.00  0.00     0.163 HD
HETATM   10  N4  UNL     1       5.261  -4.703 -23.463  1.00  0.00    -0.051 N 
HETATM   11  C7  UNL     1       5.548  -2.298 -23.866  1.00  0.00     0.245 C 
HETATM   12  C5  UNL     1       5.522  -4.357 -22.081  1.00  0.00     0.262 C 
ATOM     13  H42 UNL     1       4.576  -5.455 -23.530  1.00  0.00     0.279 HD
ATOM     14  H41 UNL     1       6.064  -5.174 -23.881  1.00  0.00     0.279 HD
HETATM   15  C6  UNL     1       4.813  -3.071 -21.714  1.00  0.00     0.260 C 
HETATM   16  N5  UNL     1       5.250  -1.940 -22.501  1.00  0.00    -0.065 N 
ATOM     17  H52 UNL     1       4.569  -1.181 -22.461  1.00  0.00     0.277 HD
ATOM     18  H51 UNL     1       6.043  -1.473 -22.063  1.00  0.00     0.277 HD
HETATM   19  C8  UNL     1       7.049  -2.361 -23.999  1.00  0.00     0.119 C 
HETATM   20  S1  UNL     1       7.551  -3.792 -25.021  1.00  0.00    -0.091 SA
ENDBRANCH   4   6
ENDBRANCH   2   4
BRANCH   1  21
HETATM   21  C1  UNL     1       6.488  -2.215 -30.508  1.00  0.00     0.260 C 
HETATM   22  O1  UNL     1       5.803  -2.096 -31.570  1.00  0.00    -0.267 OA
HETATM   23  N6  UNL     1       7.491  -1.273 -30.158  1.00  0.00    -0.328 N 
ATOM     24  H6  UNL     1       8.029  -1.389 -29.300  1.00  0.00     0.165 HD
BRANCH  23  25
HETATM   25  C9  UNL     1       7.742  -0.153 -31.027  1.00  0.00     0.252 C 
HETATM   26  O2  UNL     1       8.531  -0.519 -32.128  1.00  0.00    -0.364 OA
HETATM   27  C10 UNL     1       8.929   0.650 -32.770  1.00  0.00     0.177 C 
HETATM   28  C11 UNL     1      10.102   1.195 -31.983  1.00  0.00     0.036 C 
HETATM   29  C13 UNL     1       9.884   0.921 -30.502  1.00  0.00     0.045 C 
HETATM   30  C14 UNL     1       8.415   0.941 -30.218  1.00  0.00     0.167 C 
BRANCH  28  31
HETATM   31  C12 UNL     1      11.362   0.511 -32.474  1.00  0.00     0.170 C 
BRANCH  31  32
HETATM   32  O3  UNL     1      11.042  -0.773 -32.953  1.00  0.00    -0.400 OA
ATOM     33  H3  UNL     1      11.480  -0.919 -33.783  1.00  0.00     0.209 HD
ENDBRANCH  31  32
ENDBRANCH  28  31
BRANCH  30  34
HETATM   34  O4  UNL     1       7.875   2.190 -30.515  1.00  0.00    -0.391 OA
ATOM     35  H4  UNL     1       6.927   2.150 -30.567  1.00  0.00     0.210 HD
ENDBRANCH  30  34
ENDBRANCH  23  25
ENDBRANCH   1  21
TORSDOF 7
ENDMDL
MODEL 2
REMARK VINA RESULT: -7.254056166      4.449      9.087
REMARK  7 active torsions:
REMARK  status: ('A' for Active; 'I' for Inactive)
REMARK    1  A    between atoms: C1_2  and  C2_3 
REMARK       I    between atoms: C1_2  and  N6_23 
REMARK    2  A    between atoms: N1_4  and  N2_6 
REMARK    3  A    between atoms: N2_6  and  C3_8 
REMARK    4  A    between atoms: N6_23  and  C9_25 
REMARK    5  A    between atoms: C11_28  and  C12_29 
REMARK    6  A    between atoms: C12_29  and  O3_30 
REMARK    7  A    between atoms: C14_33  and  O4_34 
ROOT
HETATM    1  C2  UNL     1      10.636  -0.700 -28.726  1.00  0.00     0.181 C 
HETATM    2  N1  UNL     1      11.233  -1.254 -29.696  1.00  0.00    -0.305 N 
ATOM      3  H1  UNL     1      11.242  -2.273 -29.735  1.00  0.00     0.186 HD
ENDROOT
BRANCH   2   4
HETATM    4  N2  UNL     1      11.873  -0.555 -30.708  1.00  0.00    -0.280 N 
ATOM      5  H2  UNL     1      12.850  -0.743 -30.931  1.00  0.00     0.189 HD
BRANCH   4   6
HETATM    6  C3  UNL     1      11.148   0.423 -31.423  1.00  0.00     0.156 C 
HETATM    7  N3  UNL     1      11.566   1.626 -31.615  1.00  0.00    -0.340 N 
HETATM    8  C4  UNL     1      10.770   2.562 -32.353  1.00  0.00     0.317 C 
ATOM      9  H3  UNL     1      12.470   1.915 -31.239  1.00  0.00     0.163 HD
HETATM   10  N4  UNL     1      10.741   2.165 -33.743  1.00  0.00    -0.051 N 
HETATM   11  C7  UNL     1       9.419   2.775 -31.766  1.00  0.00     0.245 C 
HETATM   12  C5  UNL     1       9.673   2.807 -34.480  1.00  0.00     0.262 C 
ATOM     13  H42 UNL     1      11.644   2.327 -34.190  1.00  0.00     0.279 HD
ATOM     14  H41 UNL     1      10.693   1.150 -33.834  1.00  0.00     0.279 HD
HETATM   15  C6  UNL     1       9.232   4.073 -33.778  1.00  0.00     0.260 C 
HETATM   16  N5  UNL     1       8.718   3.834 -32.448  1.00  0.00    -0.065 N 
ATOM     17  H52 UNL     1       8.720   4.691 -31.895  1.00  0.00     0.277 HD
ATOM     18  H51 UNL     1       7.714   3.655 -32.471  1.00  0.00     0.277 HD
HETATM   19  C8  UNL     1       8.540   1.551 -31.808  1.00  0.00     0.119 C 
HETATM   20  S1  UNL     1       9.530   0.051 -32.142  1.00  0.00    -0.091 SA
ENDBRANCH   4   6
ENDBRANCH   2   4
BRANCH   1  21
HETATM   21  C1  UNL     1       9.992  -1.505 -27.712  1.00  0.00     0.260 C 
HETATM   22  O1  UNL     1      10.180  -1.217 -26.490  1.00  0.00    -0.267 OA
HETATM   23  N6  UNL     1       9.171  -2.595 -28.103  1.00  0.00    -0.328 N 
ATOM     24  H6  UNL     1       9.035  -2.809 -29.091  1.00  0.00     0.165 HD
BRANCH  23  25
HETATM   25  C9  UNL     1       8.531  -3.397 -27.092  1.00  0.00     0.252 C 
HETATM   26  O2  UNL     1       9.423  -4.319 -26.523  1.00  0.00    -0.364 OA
HETATM   27  C10 UNL     1       8.679  -5.205 -25.751  1.00  0.00     0.177 C 
HETATM   28  C11 UNL     1       8.086  -6.217 -26.709  1.00  0.00     0.036 C 
HETATM   29  C13 UNL     1       7.728  -5.523 -28.015  1.00  0.00     0.045 C 
HETATM   30  C14 UNL     1       7.346  -4.107 -27.721  1.00  0.00     0.167 C 
BRANCH  28  31
HETATM   31  C12 UNL     1       9.115  -7.306 -26.945  1.00  0.00     0.170 C 
BRANCH  31  32
HETATM   32  O3  UNL     1       9.870  -6.995 -28.091  1.00  0.00    -0.400 OA
ATOM     33  H3  UNL     1       9.629  -7.583 -28.797  1.00  0.00     0.209 HD
ENDBRANCH  31  32
ENDBRANCH  28  31
BRANCH  30  34
HETATM   34  O4  UNL     1       6.233  -4.063 -26.884  1.00  0.00    -0.391 OA
ATOM     35  H4  UNL     1       5.516  -4.575 -27.239  1.00  0.00     0.210 HD
ENDBRANCH  30  34
ENDBRANCH  23  25
ENDBRANCH   1  21
TORSDOF 7
ENDMDL
MODEL 3
REMARK VINA RESULT: -7.219463988      4.856      9.750
REMARK  7 active torsions:
REMARK  status: ('A' for Active; 'I' for Inactive)
REMARK    1  A    between atoms: C1_2  and  C2_3 
REMARK       I    between atoms: C1_2  and  N6_23 
REMARK    2  A    between atoms: N1_4  and  N2_6 
REMARK    3  A    between atoms: N2_6  and  C3_8 
REMARK    4  A    between atoms: N6_23  and  C9_25 
REMARK    5  A    between atoms: C11_28  and  C12_29 
REMARK    6  A    between atoms: C12_29  and  O3_30 
REMARK    7  A    between atoms: C14_33  and  O4_34 
ROOT
HETATM    1  C2  UNL     1      11.183  -1.608 -28.316  1.00  0.00     0.181 C 
HETATM    2  N1  UNL     1      11.200  -1.465 -29.575  1.00  0.00    -0.305 N 
ATOM      3  H1  UNL     1      10.412  -1.828 -30.110  1.00  0.00     0.186 HD
ENDROOT
BRANCH   2   4
HETATM    4  N2  UNL     1      12.229  -0.842 -30.266  1.00  0.00    -0.280 N 
ATOM      5  H2  UNL     1      13.190  -1.171 -30.173  1.00  0.00     0.189 HD
BRANCH   4   6
HETATM    6  C3  UNL     1      11.921   0.255 -31.099  1.00  0.00     0.156 C 
HETATM    7  N3  UNL     1      12.810   1.028 -31.622  1.00  0.00    -0.340 N 
HETATM    8  C4  UNL     1      12.416   2.122 -32.460  1.00  0.00     0.317 C 
ATOM      9  H3  UNL     1      13.799   0.859 -31.440  1.00  0.00     0.163 HD
HETATM   10  N4  UNL     1      11.887   1.603 -33.700  1.00  0.00    -0.051 N 
HETATM   11  C7  UNL     1      11.506   3.084 -31.779  1.00  0.00     0.245 C 
HETATM   12  C5  UNL     1      11.122   2.590 -34.432  1.00  0.00     0.262 C 
ATOM     13  H42 UNL     1      12.629   1.209 -34.280  1.00  0.00     0.279 HD
ATOM     14  H41 UNL     1      11.338   0.758 -33.540  1.00  0.00     0.279 HD
HETATM   15  C6  UNL     1      11.515   3.988 -34.005  1.00  0.00     0.260 C 
HETATM   16  N5  UNL     1      11.266   4.243 -32.604  1.00  0.00    -0.065 N 
ATOM     17  H52 UNL     1      11.804   5.045 -32.276  1.00  0.00     0.277 HD
ATOM     18  H51 UNL     1      10.324   4.606 -32.460  1.00  0.00     0.277 HD
HETATM   19  C8  UNL     1      10.164   2.498 -31.421  1.00  0.00     0.119 C 
HETATM   20  S1  UNL     1      10.208   0.672 -31.505  1.00  0.00    -0.091 SA
ENDBRANCH   4   6
ENDBRANCH   2   4
BRANCH   1  21
HETATM   21  C1  UNL     1      10.070  -2.271 -27.675  1.00  0.00     0.260 C 
HETATM   22  O1  UNL     1       9.300  -1.592 -26.928  1.00  0.00    -0.267 OA
HETATM   23  N6  UNL     1       9.864  -3.659 -27.891  1.00  0.00    -0.328 N 
ATOM     24  H6  UNL     1      10.495  -4.185 -28.495  1.00  0.00     0.165 HD
BRANCH  23  25
HETATM   25  C9  UNL     1       8.755  -4.318 -27.251  1.00  0.00     0.252 C 
HETATM   26  O2  UNL     1       9.034  -4.611 -25.908  1.00  0.00    -0.364 OA
HETATM   27  C10 UNL     1       8.029  -5.453 -25.442  1.00  0.00     0.177 C 
HETATM   28  C11 UNL     1       8.379  -6.846 -25.923  1.00  0.00     0.036 C 
HETATM   29  C13 UNL     1       9.015  -6.756 -27.302  1.00  0.00     0.045 C 
HETATM   30  C14 UNL     1       8.435  -5.583 -28.027  1.00  0.00     0.167 C 
BRANCH  28  31
HETATM   31  C12 UNL     1       9.341  -7.464 -24.929  1.00  0.00     0.170 C 
BRANCH  31  32
HETATM   32  O3  UNL     1       9.829  -8.680 -25.443  1.00  0.00    -0.400 OA
ATOM     33  H3  UNL     1      10.764  -8.607 -25.594  1.00  0.00     0.209 HD
ENDBRANCH  31  32
ENDBRANCH  28  31
BRANCH  30  34
HETATM   34  O4  UNL     1       7.060  -5.737 -28.190  1.00  0.00    -0.391 OA
ATOM     35  H4  UNL     1       6.854  -6.088 -29.048  1.00  0.00     0.210 HD
ENDBRANCH  30  34
ENDBRANCH  23  25
ENDBRANCH   1  21
TORSDOF 7
ENDMDL
MODEL 4
REMARK VINA RESULT: -7.188896694      4.771      9.432
REMARK  7 active torsions:
REMARK  status: ('A' for Active; 'I' for Inactive)
REMARK    1  A    between atoms: C1_2  and  C2_3 
REMARK       I    between atoms: C1_2  and  N6_23 
REMARK    2  A    between atoms: N1_4  and  N2_6 
REMARK    3  A    between atoms: N2_6  and  C3_8 
REMARK    4  A    between atoms: N6_23  and  C9_25 
REMARK    5  A    between atoms: C11_28  and  C12_29 
REMARK    6  A    between atoms: C12_29  and  O3_30 
REMARK    7  A    between atoms: C14_33  and  O4_34 
ROOT
HETATM    1  C2  UNL     1      10.671  -1.623 -27.946  1.00  0.00     0.181 C 
HETATM    2  N1  UNL     1      11.293  -2.120 -28.932  1.00  0.00    -0.305 N 
ATOM      3  H1  UNL     1      11.109  -3.093 -29.174  1.00  0.00     0.186 HD
ENDROOT
BRANCH   2   4
HETATM    4  N2  UNL     1      12.208  -1.416 -29.700  1.00  0.00    -0.280 N 
ATOM      5  H2  UNL     1      13.204  -1.625 -29.642  1.00  0.00     0.189 HD
BRANCH   4   6
HETATM    6  C3  UNL     1      11.734  -0.404 -30.564  1.00  0.00     0.156 C 
HETATM    7  N3  UNL     1      10.956  -0.627 -31.566  1.00  0.00    -0.340 N 
HETATM    8  C4  UNL     1      10.517   0.456 -32.398  1.00  0.00     0.317 C 
ATOM      9  H3  UNL     1      10.649  -1.578 -31.770  1.00  0.00     0.163 HD
HETATM   10  N4  UNL     1       9.602   1.286 -31.649  1.00  0.00    -0.051 N 
HETATM   11  C7  UNL     1      11.640   1.212 -33.016  1.00  0.00     0.245 C 
HETATM   12  C5  UNL     1       9.413   2.587 -32.255  1.00  0.00     0.262 C 
ATOM     13  H42 UNL     1       8.709   0.814 -31.507  1.00  0.00     0.279 HD
ATOM     14  H41 UNL     1       9.897   1.374 -30.676  1.00  0.00     0.279 HD
HETATM   15  C6  UNL     1       9.769   2.543 -33.725  1.00  0.00     0.260 C 
HETATM   16  N5  UNL     1      11.150   2.185 -33.962  1.00  0.00    -0.065 N 
ATOM     17  H52 UNL     1      11.286   1.866 -34.921  1.00  0.00     0.277 HD
ATOM     18  H51 UNL     1      11.745   3.013 -33.978  1.00  0.00     0.277 HD
HETATM   19  C8  UNL     1      12.499   1.945 -32.018  1.00  0.00     0.119 C 
HETATM   20  S1  UNL     1      12.199   1.327 -30.324  1.00  0.00    -0.091 SA
ENDBRANCH   4   6
ENDBRANCH   2   4
BRANCH   1  21
HETATM   21  C1  UNL     1       9.732  -2.429 -27.198  1.00  0.00     0.260 C 
HETATM   22  O1  UNL     1       9.033  -1.875 -26.295  1.00  0.00    -0.267 OA
HETATM   23  N6  UNL     1       9.615  -3.814 -27.486  1.00  0.00    -0.328 N 
ATOM     24  H6  UNL     1      10.188  -4.238 -28.216  1.00  0.00     0.165 HD
BRANCH  23  25
HETATM   25  C9  UNL     1       8.680  -4.615 -26.739  1.00  0.00     0.252 C 
HETATM   26  O2  UNL     1       9.268  -5.152 -25.583  1.00  0.00    -0.364 OA
HETATM   27  C10 UNL     1       8.389  -6.096 -25.063  1.00  0.00     0.177 C 
HETATM   28  C11 UNL     1       8.589  -7.361 -25.871  1.00  0.00     0.036 C 
HETATM   29  C13 UNL     1       8.877  -6.990 -27.319  1.00  0.00     0.045 C 
HETATM   30  C14 UNL     1       8.162  -5.717 -27.644  1.00  0.00     0.167 C 
BRANCH  28  31
HETATM   31  C12 UNL     1       9.750  -8.129 -25.274  1.00  0.00     0.170 C 
BRANCH  31  32
HETATM   32  O3  UNL     1       9.300  -8.872 -24.167  1.00  0.00    -0.400 OA
ATOM     33  H3  UNL     1       9.849  -8.683 -23.415  1.00  0.00     0.209 HD
ENDBRANCH  31  32
ENDBRANCH  28  31
BRANCH  30  34
HETATM   34  O4  UNL     1       6.785  -5.878 -27.501  1.00  0.00    -0.391 OA
ATOM     35  H4  UNL     1       6.577  -6.712 -27.096  1.00  0.00     0.210 HD
ENDBRANCH  30  34
ENDBRANCH  23  25
ENDBRANCH   1  21
TORSDOF 7
ENDMDL
MODEL 5
REMARK VINA RESULT: -7.156832093      2.576      2.879
REMARK  7 active torsions:
REMARK  status: ('A' for Active; 'I' for Inactive)
REMARK    1  A    between atoms: C1_2  and  C2_3 
REMARK       I    between atoms: C1_2  and  N6_23 
REMARK    2  A    between atoms: N1_4  and  N2_6 
REMARK    3  A    between atoms: N2_6  and  C3_8 
REMARK    4  A    between atoms: N6_23  and  C9_25 
REMARK    5  A    between atoms: C11_28  and  C12_29 
REMARK    6  A    between atoms: C12_29  and  O3_30 
REMARK    7  A    between atoms: C14_33  and  O4_34 
ROOT
HETATM    1  C2  UNL     1       6.212  -3.379 -29.958  1.00  0.00     0.181 C 
HETATM    2  N1  UNL     1       6.845  -4.444 -30.225  1.00  0.00    -0.305 N 
ATOM      3  H1  UNL     1       7.519  -4.423 -30.990  1.00  0.00     0.186 HD
ENDROOT
BRANCH   2   4
HETATM    4  N2  UNL     1       6.673  -5.636 -29.538  1.00  0.00    -0.280 N 
ATOM      5  H2  UNL     1       6.105  -6.385 -29.932  1.00  0.00     0.189 HD
BRANCH   4   6
HETATM    6  C3  UNL     1       7.299  -5.793 -28.282  1.00  0.00     0.156 C 
HETATM    7  N3  UNL     1       6.674  -6.135 -27.209  1.00  0.00    -0.340 N 
HETATM    8  C4  UNL     1       7.382  -6.273 -25.970  1.00  0.00     0.317 C 
ATOM      9  H3  UNL     1       5.669  -6.309 -27.240  1.00  0.00     0.163 HD
HETATM   10  N4  UNL     1       8.244  -7.431 -26.046  1.00  0.00    -0.051 N 
HETATM   11  C7  UNL     1       8.088  -5.030 -25.556  1.00  0.00     0.245 C 
HETATM   12  C5  UNL     1       9.263  -7.430 -25.017  1.00  0.00     0.262 C 
ATOM     13  H42 UNL     1       7.702  -8.295 -26.024  1.00  0.00     0.279 HD
ATOM     14  H41 UNL     1       8.658  -7.521 -26.974  1.00  0.00     0.279 HD
HETATM   15  C6  UNL     1       8.845  -6.552 -23.858  1.00  0.00     0.260 C 
HETATM   16  N5  UNL     1       8.651  -5.170 -24.235  1.00  0.00    -0.065 N 
ATOM     17  H52 UNL     1       8.089  -4.676 -23.542  1.00  0.00     0.277 HD
ATOM     18  H51 UNL     1       9.520  -4.642 -24.150  1.00  0.00     0.277 HD
HETATM   19  C8  UNL     1       9.206  -4.630 -26.484  1.00  0.00     0.119 C 
HETATM   20  S1  UNL     1       9.075  -5.514 -28.079  1.00  0.00    -0.091 SA
ENDBRANCH   4   6
ENDBRANCH   2   4
BRANCH   1  21
HETATM   21  C1  UNL     1       6.452  -2.178 -30.726  1.00  0.00     0.260 C 
HETATM   22  O1  UNL     1       5.681  -1.907 -31.697  1.00  0.00    -0.267 OA
HETATM   23  N6  UNL     1       7.540  -1.333 -30.380  1.00  0.00    -0.328 N 
ATOM     24  H6  UNL     1       8.147  -1.571 -29.596  1.00  0.00     0.165 HD
BRANCH  23  25
HETATM   25  C9  UNL     1       7.778  -0.138 -31.146  1.00  0.00     0.252 C 
HETATM   26  O2  UNL     1       8.545  -0.402 -32.291  1.00  0.00    -0.364 OA
HETATM   27  C10 UNL     1       8.934   0.820 -32.830  1.00  0.00     0.177 C 
HETATM   28  C11 UNL     1      10.123   1.289 -32.020  1.00  0.00     0.036 C 
HETATM   29  C13 UNL     1       9.932   0.880 -30.566  1.00  0.00     0.045 C 
HETATM   30  C14 UNL     1       8.469   0.875 -30.253  1.00  0.00     0.167 C 
BRANCH  28  31
HETATM   31  C12 UNL     1      11.372   0.651 -32.595  1.00  0.00     0.170 C 
BRANCH  31  32
HETATM   32  O3  UNL     1      11.088  -0.674 -32.976  1.00  0.00    -0.400 OA
ATOM     33  H3  UNL     1      11.810  -1.016 -33.490  1.00  0.00     0.209 HD
ENDBRANCH  31  32
ENDBRANCH  28  31
BRANCH  30  34
HETATM   34  O4  UNL     1       7.927   2.148 -30.424  1.00  0.00    -0.391 OA
ATOM     35  H4  UNL     1       6.998   2.101 -30.616  1.00  0.00     0.210 HD
ENDBRANCH  30  34
ENDBRANCH  23  25
ENDBRANCH   1  21
TORSDOF 7
ENDMDL
