MODEL 1
REMARK VINA RESULT: -9.655136020      0.000      0.000
REMARK  9 active torsions:
REMARK  status: ('A' for Active; 'I' for Inactive)
REMARK    1  A    between atoms: C5_6  and  C6_7 
REMARK    2  A    between atoms: C6_7  and  N2_8 
REMARK    3  A    between atoms: C6_7  and  C7_12 
REMARK    4  A    between atoms: C7_12  and  O2_14 
REMARK    5  A    between atoms: O2_14  and  C8_15 
REMARK    6  A    between atoms: C8_15  and  C9_16 
REMARK    7  A    between atoms: C8_15  and  C19_31 
REMARK    8  A    between atoms: C9_16  and  C10_17 
REMARK    9  A    between atoms: C12_20  and  C13_21 
ROOT
HETATM    1  N1  UNL     1     -15.149   3.065  -5.499  1.00  0.00    -0.190 NA
HETATM    2  C1  UNL     1     -15.211   3.583  -6.530  1.00  0.00     0.117 C 
HETATM    3  C2  UNL     1     -15.299   4.212  -7.840  1.00  0.00     0.114 A 
HETATM    4  C3  UNL     1     -14.371   5.079  -8.332  1.00  0.00     0.043 A 
HETATM    5  C4  UNL     1     -14.810   5.445  -9.589  1.00  0.00     0.030 A 
HETATM    6  C5  UNL     1     -15.987   4.806  -9.848  1.00  0.00     0.050 A 
HETATM    7  N4  UNL     1     -16.269   4.049  -8.752  1.00  0.00    -0.349 N 
ATOM      8  H4  UNL     1     -17.089   3.453  -8.642  1.00  0.00     0.166 HD
ENDROOT
BRANCH   6   9
HETATM    9  C6  UNL     1     -16.798   4.912 -11.087  1.00  0.00     0.332 C 
BRANCH   9  10
HETATM   10  N2  UNL     1     -16.658   3.763 -11.923  1.00  0.00    -0.060 N 
ATOM     11  H23 UNL     1     -16.446   2.930 -11.372  1.00  0.00     0.275 HD
ATOM     12  H22 UNL     1     -17.557   3.477 -12.310  1.00  0.00     0.275 HD
ATOM     13  H21 UNL     1     -15.967   3.904 -12.659  1.00  0.00     0.275 HD
ENDBRANCH   9  10
BRANCH   9  14
HETATM   14  C7  UNL     1     -18.173   5.320 -10.802  1.00  0.00     0.300 C 
HETATM   15  O1  UNL     1     -19.026   4.463 -10.425  1.00  0.00    -0.262 OA
BRANCH  14  16
HETATM   16  O2  UNL     1     -18.700   6.619 -10.901  1.00  0.00    -0.280 OA
BRANCH  16  17
HETATM   17  C8  UNL     1     -18.896   7.447  -9.817  1.00  0.00     0.071 C 
BRANCH  17  18
HETATM   18  C9  UNL     1     -20.075   8.370  -9.945  1.00  0.00     0.100 C 
BRANCH  18  19
HETATM   19  C10 UNL     1     -21.197   7.904 -10.765  1.00  0.00     0.154 C 
HETATM   20  C11 UNL     1     -22.536   8.442 -10.387  1.00  0.00     0.203 C 
HETATM   21  O3  UNL     1     -23.446   7.493 -10.960  1.00  0.00    -0.357 OA
HETATM   22  C12 UNL     1     -22.654   6.431 -11.267  1.00  0.00     0.283 C 
HETATM   23  O4  UNL     1     -21.472   6.522 -10.569  1.00  0.00    -0.352 OA
BRANCH  22  24
HETATM   24  C13 UNL     1     -23.366   5.114 -11.023  1.00  0.00     0.104 C 
HETATM   25  C14 UNL     1     -24.156   4.704 -12.168  1.00  0.00     0.074 C 
HETATM   26  N3  UNL     1     -24.779   4.356 -13.074  1.00  0.00    -0.196 NA
HETATM   27  C15 UNL     1     -22.433   4.011 -10.572  1.00  0.00     0.036 C 
HETATM   28  C16 UNL     1     -23.348   3.064  -9.782  1.00  0.00     0.081 C 
HETATM   29  C17 UNL     1     -24.520   3.892  -9.345  1.00  0.00     0.245 C 
HETATM   30  F1  UNL     1     -25.716   3.480  -9.906  1.00  0.00    -0.206 F 
HETATM   31  F2  UNL     1     -24.643   3.907  -7.966  1.00  0.00    -0.206 F 
HETATM   32  C18 UNL     1     -24.225   5.288  -9.792  1.00  0.00     0.108 C 
ENDBRANCH  22  24
ENDBRANCH  18  19
ENDBRANCH  17  18
BRANCH  17  33
HETATM   33  C19 UNL     1     -17.715   7.957  -9.161  1.00  0.00     0.015 A 
HETATM   34  C20 UNL     1     -17.432   7.646  -7.820  1.00  0.00     0.015 A 
HETATM   35  C21 UNL     1     -16.269   8.032  -7.201  1.00  0.00     0.001 A 
HETATM   36  C22 UNL     1     -15.303   8.749  -7.851  1.00  0.00     0.002 A 
HETATM   37  C23 UNL     1     -15.536   9.074  -9.153  1.00  0.00     0.025 A 
HETATM   38  C24 UNL     1     -16.696   8.688  -9.768  1.00  0.00     0.046 A 
HETATM   39 CL1  UNL     1     -16.853   9.230 -11.440  1.00  0.00    -0.083 Cl
ENDBRANCH  17  33
ENDBRANCH  16  17
ENDBRANCH  14  16
ENDBRANCH   9  14
ENDBRANCH   6   9
TORSDOF 9
ENDMDL
MODEL 2
REMARK VINA RESULT: -9.393998443      3.714      7.898
REMARK  9 active torsions:
REMARK  status: ('A' for Active; 'I' for Inactive)
REMARK    1  A    between atoms: C5_6  and  C6_7 
REMARK    2  A    between atoms: C6_7  and  N2_8 
REMARK    3  A    between atoms: C6_7  and  C7_12 
REMARK    4  A    between atoms: C7_12  and  O2_14 
REMARK    5  A    between atoms: O2_14  and  C8_15 
REMARK    6  A    between atoms: C8_15  and  C9_16 
REMARK    7  A    between atoms: C8_15  and  C19_31 
REMARK    8  A    between atoms: C9_16  and  C10_17 
REMARK    9  A    between atoms: C12_20  and  C13_21 
ROOT
HETATM    1  N1  UNL     1     -16.391   9.289 -12.989  1.00  0.00    -0.190 NA
HETATM    2  C1  UNL     1     -17.382   9.530 -12.445  1.00  0.00     0.117 C 
HETATM    3  C2  UNL     1     -18.640   9.808 -11.767  1.00  0.00     0.114 A 
HETATM    4  C3  UNL     1     -19.264  11.019 -11.788  1.00  0.00     0.043 A 
HETATM    5  C4  UNL     1     -20.415  10.874 -11.039  1.00  0.00     0.030 A 
HETATM    6  C5  UNL     1     -20.480   9.593 -10.574  1.00  0.00     0.050 A 
HETATM    7  N4  UNL     1     -19.371   8.954 -11.038  1.00  0.00    -0.349 N 
ATOM      8  H4  UNL     1     -19.135   7.978 -10.858  1.00  0.00     0.166 HD
ENDROOT
BRANCH   6   9
HETATM    9  C6  UNL     1     -21.555   9.011  -9.731  1.00  0.00     0.332 C 
BRANCH   9  10
HETATM   10  N2  UNL     1     -22.313  10.014  -9.055  1.00  0.00    -0.060 N 
ATOM     11  H23 UNL     1     -22.611   9.692  -8.133  1.00  0.00     0.275 HD
ATOM     12  H22 UNL     1     -21.722  10.795  -8.772  1.00  0.00     0.275 HD
ATOM     13  H21 UNL     1     -23.107  10.334  -9.609  1.00  0.00     0.275 HD
ENDBRANCH   9  10
BRANCH   9  14
HETATM   14  C7  UNL     1     -22.338   8.015 -10.463  1.00  0.00     0.300 C 
HETATM   15  O1  UNL     1     -23.595   8.140 -10.559  1.00  0.00    -0.262 OA
BRANCH  14  16
HETATM   16  O2  UNL     1     -21.845   6.869 -11.108  1.00  0.00    -0.280 OA
BRANCH  16  17
HETATM   17  C8  UNL     1     -22.082   5.584 -10.668  1.00  0.00     0.071 C 
BRANCH  17  18
HETATM   18  C9  UNL     1     -20.878   4.686 -10.694  1.00  0.00     0.100 C 
BRANCH  18  19
HETATM   19  C10 UNL     1     -19.592   5.308 -11.020  1.00  0.00     0.154 C 
HETATM   20  C11 UNL     1     -18.463   4.364 -11.260  1.00  0.00     0.203 C 
HETATM   21  O3  UNL     1     -17.302   5.178 -11.050  1.00  0.00    -0.357 OA
HETATM   22  C12 UNL     1     -17.791   6.285 -10.430  1.00  0.00     0.283 C 
HETATM   23  O4  UNL     1     -19.037   6.010  -9.914  1.00  0.00    -0.352 OA
BRANCH  22  24
HETATM   24  C13 UNL     1     -16.833   6.804  -9.374  1.00  0.00     0.104 C 
HETATM   25  C14 UNL     1     -15.666   7.432  -9.963  1.00  0.00     0.074 C 
HETATM   26  N3  UNL     1     -14.737   7.946 -10.414  1.00  0.00    -0.196 NA
HETATM   27  C15 UNL     1     -17.500   7.714  -8.365  1.00  0.00     0.036 C 
HETATM   28  C16 UNL     1     -16.619   7.576  -7.116  1.00  0.00     0.081 C 
HETATM   29  C17 UNL     1     -15.908   6.262  -7.255  1.00  0.00     0.245 C 
HETATM   30  F1  UNL     1     -14.537   6.395  -7.375  1.00  0.00    -0.206 F 
HETATM   31  F2  UNL     1     -16.195   5.418  -6.196  1.00  0.00    -0.206 F 
HETATM   32  C18 UNL     1     -16.450   5.633  -8.499  1.00  0.00     0.108 C 
ENDBRANCH  22  24
ENDBRANCH  18  19
ENDBRANCH  17  18
BRANCH  17  33
HETATM   33  C19 UNL     1     -23.360   5.002 -11.008  1.00  0.00     0.015 A 
HETATM   34  C20 UNL     1     -23.819   4.972 -12.335  1.00  0.00     0.015 A 
HETATM   35  C21 UNL     1     -24.980   4.338 -12.701  1.00  0.00     0.001 A 
HETATM   36  C22 UNL     1     -25.772   3.690 -11.794  1.00  0.00     0.002 A 
HETATM   37  C23 UNL     1     -25.366   3.695 -10.494  1.00  0.00     0.025 A 
HETATM   38  C24 UNL     1     -24.208   4.329 -10.132  1.00  0.00     0.046 A 
HETATM   39 CL1  UNL     1     -23.855   4.275  -8.403  1.00  0.00    -0.083 Cl
ENDBRANCH  17  33
ENDBRANCH  16  17
ENDBRANCH  14  16
ENDBRANCH   9  14
ENDBRANCH   6   9
TORSDOF 9
ENDMDL
MODEL 3
REMARK VINA RESULT: -9.390927496      3.015      4.054
REMARK  9 active torsions:
REMARK  status: ('A' for Active; 'I' for Inactive)
REMARK    1  A    between atoms: C5_6  and  C6_7 
REMARK    2  A    between atoms: C6_7  and  N2_8 
REMARK    3  A    between atoms: C6_7  and  C7_12 
REMARK    4  A    between atoms: C7_12  and  O2_14 
REMARK    5  A    between atoms: O2_14  and  C8_15 
REMARK    6  A    between atoms: C8_15  and  C9_16 
REMARK    7  A    between atoms: C8_15  and  C19_31 
REMARK    8  A    between atoms: C9_16  and  C10_17 
REMARK    9  A    between atoms: C12_20  and  C13_21 
ROOT
HETATM    1  N1  UNL     1     -12.603   7.017  -5.177  1.00  0.00    -0.190 NA
HETATM    2  C1  UNL     1     -13.327   6.442  -5.869  1.00  0.00     0.117 C 
HETATM    3  C2  UNL     1     -14.234   5.734  -6.762  1.00  0.00     0.114 A 
HETATM    4  C3  UNL     1     -15.460   5.271  -6.391  1.00  0.00     0.043 A 
HETATM    5  C4  UNL     1     -16.002   4.669  -7.509  1.00  0.00     0.030 A 
HETATM    6  C5  UNL     1     -15.111   4.769  -8.538  1.00  0.00     0.050 A 
HETATM    7  N4  UNL     1     -14.026   5.431  -8.051  1.00  0.00    -0.349 N 
ATOM      8  H4  UNL     1     -13.188   5.661  -8.584  1.00  0.00     0.166 HD
ENDROOT
BRANCH   6   9
HETATM    9  C6  UNL     1     -15.295   4.259  -9.920  1.00  0.00     0.332 C 
BRANCH   9  10
HETATM   10  N2  UNL     1     -15.769   2.912  -9.939  1.00  0.00    -0.060 N 
ATOM     11  H23 UNL     1     -15.087   2.275  -9.526  1.00  0.00     0.275 HD
ATOM     12  H22 UNL     1     -16.535   2.781  -9.279  1.00  0.00     0.275 HD
ATOM     13  H21 UNL     1     -16.034   2.611 -10.877  1.00  0.00     0.275 HD
ENDBRANCH   9  10
BRANCH   9  14
HETATM   14  C7  UNL     1     -16.042   5.201 -10.751  1.00  0.00     0.300 C 
HETATM   15  O1  UNL     1     -17.280   5.025 -10.957  1.00  0.00    -0.262 OA
BRANCH  14  16
HETATM   16  O2  UNL     1     -15.532   6.344 -11.391  1.00  0.00    -0.280 OA
BRANCH  16  17
HETATM   17  C8  UNL     1     -15.907   7.630 -11.066  1.00  0.00     0.071 C 
BRANCH  17  18
HETATM   18  C9  UNL     1     -16.112   8.534 -12.249  1.00  0.00     0.100 C 
BRANCH  18  19
HETATM   19  C10 UNL     1     -17.438   9.142 -12.398  1.00  0.00     0.154 C 
HETATM   20  C11 UNL     1     -17.626  10.450 -11.707  1.00  0.00     0.203 C 
HETATM   21  O3  UNL     1     -19.050  10.555 -11.582  1.00  0.00    -0.357 OA
HETATM   22  C12 UNL     1     -19.491   9.296 -11.847  1.00  0.00     0.283 C 
HETATM   23  O4  UNL     1     -18.449   8.407 -11.719  1.00  0.00    -0.352 OA
BRANCH  22  24
HETATM   24  C13 UNL     1     -20.675   8.923 -10.976  1.00  0.00     0.104 C 
HETATM   25  C14 UNL     1     -20.924   7.494 -10.980  1.00  0.00     0.074 C 
HETATM   26  N3  UNL     1     -21.128   6.359 -10.962  1.00  0.00    -0.196 NA
HETATM   27  C15 UNL     1     -20.564   9.460  -9.565  1.00  0.00     0.036 C 
HETATM   28  C16 UNL     1     -22.024   9.568  -9.103  1.00  0.00     0.081 C 
HETATM   29  C17 UNL     1     -22.848   9.655 -10.354  1.00  0.00     0.245 C 
HETATM   30  F1  UNL     1     -23.694   8.574 -10.524  1.00  0.00    -0.206 F 
HETATM   31  F2  UNL     1     -23.586  10.825 -10.393  1.00  0.00    -0.206 F 
HETATM   32  C18 UNL     1     -21.871   9.694 -11.486  1.00  0.00     0.108 C 
ENDBRANCH  22  24
ENDBRANCH  18  19
ENDBRANCH  17  18
BRANCH  17  33
HETATM   33  C19 UNL     1     -15.317   8.204  -9.879  1.00  0.00     0.015 A 
HETATM   34  C20 UNL     1     -14.004   8.704  -9.885  1.00  0.00     0.015 A 
HETATM   35  C21 UNL     1     -13.453   9.345  -8.803  1.00  0.00     0.001 A 
HETATM   36  C22 UNL     1     -14.148   9.540  -7.642  1.00  0.00     0.002 A 
HETATM   37  C23 UNL     1     -15.426   9.070  -7.592  1.00  0.00     0.025 A 
HETATM   38  C24 UNL     1     -15.973   8.432  -8.672  1.00  0.00     0.046 A 
HETATM   39 CL1  UNL     1     -17.620   7.849  -8.419  1.00  0.00    -0.083 Cl
ENDBRANCH  17  33
ENDBRANCH  16  17
ENDBRANCH  14  16
ENDBRANCH   9  14
ENDBRANCH   6   9
TORSDOF 9
ENDMDL
MODEL 4
REMARK VINA RESULT: -9.232195794      3.224      7.888
REMARK  9 active torsions:
REMARK  status: ('A' for Active; 'I' for Inactive)
REMARK    1  A    between atoms: C5_6  and  C6_7 
REMARK    2  A    between atoms: C6_7  and  N2_8 
REMARK    3  A    between atoms: C6_7  and  C7_12 
REMARK    4  A    between atoms: C7_12  and  O2_14 
REMARK    5  A    between atoms: O2_14  and  C8_15 
REMARK    6  A    between atoms: C8_15  and  C9_16 
REMARK    7  A    between atoms: C8_15  and  C19_31 
REMARK    8  A    between atoms: C9_16  and  C10_17 
REMARK    9  A    between atoms: C12_20  and  C13_21 
ROOT
HETATM    1  N1  UNL     1     -26.061   3.261  -5.884  1.00  0.00    -0.190 NA
HETATM    2  C1  UNL     1     -25.995   3.235  -7.037  1.00  0.00     0.117 C 
HETATM    3  C2  UNL     1     -25.905   3.230  -8.490  1.00  0.00     0.114 A 
HETATM    4  C3  UNL     1     -26.784   2.582  -9.305  1.00  0.00     0.043 A 
HETATM    5  C4  UNL     1     -26.361   2.819 -10.598  1.00  0.00     0.030 A 
HETATM    6  C5  UNL     1     -25.243   3.599 -10.560  1.00  0.00     0.050 A 
HETATM    7  N4  UNL     1     -24.980   3.840  -9.246  1.00  0.00    -0.349 N 
ATOM      8  H4  UNL     1     -24.203   4.396  -8.892  1.00  0.00     0.166 HD
ENDROOT
BRANCH   6   9
HETATM    9  C6  UNL     1     -24.467   4.093 -11.726  1.00  0.00     0.332 C 
BRANCH   9  10
HETATM   10  N2  UNL     1     -25.277   4.840 -12.634  1.00  0.00    -0.060 N 
ATOM     11  H23 UNL     1     -25.236   4.445 -13.575  1.00  0.00     0.275 HD
ATOM     12  H22 UNL     1     -26.269   4.702 -12.443  1.00  0.00     0.275 HD
ATOM     13  H21 UNL     1     -25.036   5.831 -12.638  1.00  0.00     0.275 HD
ENDBRANCH   9  10
BRANCH   9  14
HETATM   14  C7  UNL     1     -23.221   4.739 -11.314  1.00  0.00     0.300 C 
HETATM   15  O1  UNL     1     -22.414   4.134 -10.547  1.00  0.00    -0.262 OA
BRANCH  14  16
HETATM   16  O2  UNL     1     -22.780   6.021 -11.681  1.00  0.00    -0.280 OA
BRANCH  16  17
HETATM   17  C8  UNL     1     -21.562   6.545 -11.304  1.00  0.00     0.071 C 
BRANCH  17  18
HETATM   18  C9  UNL     1     -20.689   5.595 -10.534  1.00  0.00     0.100 C 
BRANCH  18  19
HETATM   19  C10 UNL     1     -19.252   5.636 -10.816  1.00  0.00     0.154 C 
HETATM   20  C11 UNL     1     -18.548   4.322 -10.762  1.00  0.00     0.203 C 
HETATM   21  O3  UNL     1     -17.176   4.691 -10.568  1.00  0.00    -0.357 OA
HETATM   22  C12 UNL     1     -17.242   6.000 -10.206  1.00  0.00     0.283 C 
HETATM   23  O4  UNL     1     -18.519   6.300  -9.793  1.00  0.00    -0.352 OA
BRANCH  22  24
HETATM   24  C13 UNL     1     -16.202   6.343  -9.156  1.00  0.00     0.104 C 
HETATM   25  C14 UNL     1     -15.837   5.188  -8.357  1.00  0.00     0.074 C 
HETATM   26  N3  UNL     1     -15.525   4.279  -7.721  1.00  0.00    -0.196 NA
HETATM   27  C15 UNL     1     -14.980   7.024  -9.733  1.00  0.00     0.036 C 
HETATM   28  C16 UNL     1     -14.428   7.836  -8.553  1.00  0.00     0.081 C 
HETATM   29  C17 UNL     1     -15.582   8.043  -7.618  1.00  0.00     0.245 C 
HETATM   30  F1  UNL     1     -15.408   7.425  -6.393  1.00  0.00    -0.206 F 
HETATM   31  F2  UNL     1     -15.837   9.390  -7.419  1.00  0.00    -0.206 F 
HETATM   32  C18 UNL     1     -16.774   7.449  -8.300  1.00  0.00     0.108 C 
ENDBRANCH  22  24
ENDBRANCH  18  19
ENDBRANCH  17  18
BRANCH  17  33
HETATM   33  C19 UNL     1     -21.539   7.937 -10.920  1.00  0.00     0.015 A 
HETATM   34  C20 UNL     1     -22.501   8.470 -10.046  1.00  0.00     0.015 A 
HETATM   35  C21 UNL     1     -22.447   9.762  -9.585  1.00  0.00     0.001 A 
HETATM   36  C22 UNL     1     -21.447  10.621  -9.948  1.00  0.00     0.002 A 
HETATM   37  C23 UNL     1     -20.492  10.147 -10.796  1.00  0.00     0.025 A 
HETATM   38  C24 UNL     1     -20.549   8.859 -11.254  1.00  0.00     0.046 A 
HETATM   39 CL1  UNL     1     -19.259   8.424 -12.377  1.00  0.00    -0.083 Cl
ENDBRANCH  17  33
ENDBRANCH  16  17
ENDBRANCH  14  16
ENDBRANCH   9  14
ENDBRANCH   6   9
TORSDOF 9
ENDMDL
MODEL 5
REMARK VINA RESULT: -9.171817786      3.296      7.869
REMARK  9 active torsions:
REMARK  status: ('A' for Active; 'I' for Inactive)
REMARK    1  A    between atoms: C5_6  and  C6_7 
REMARK    2  A    between atoms: C6_7  and  N2_8 
REMARK    3  A    between atoms: C6_7  and  C7_12 
REMARK    4  A    between atoms: C7_12  and  O2_14 
REMARK    5  A    between atoms: O2_14  and  C8_15 
REMARK    6  A    between atoms: C8_15  and  C9_16 
REMARK    7  A    between atoms: C8_15  and  C19_31 
REMARK    8  A    between atoms: C9_16  and  C10_17 
REMARK    9  A    between atoms: C12_20  and  C13_21 
ROOT
HETATM    1  N1  UNL     1     -26.067   3.274  -5.874  1.00  0.00    -0.190 NA
HETATM    2  C1  UNL     1     -26.000   3.249  -7.027  1.00  0.00     0.117 C 
HETATM    3  C2  UNL     1     -25.907   3.245  -8.480  1.00  0.00     0.114 A 
HETATM    4  C3  UNL     1     -26.791   2.607  -9.297  1.00  0.00     0.043 A 
HETATM    5  C4  UNL     1     -26.364   2.841 -10.589  1.00  0.00     0.030 A 
HETATM    6  C5  UNL     1     -25.238   3.610 -10.548  1.00  0.00     0.050 A 
HETATM    7  N4  UNL     1     -24.975   3.846  -9.233  1.00  0.00    -0.349 N 
ATOM      8  H4  UNL     1     -24.192   4.395  -8.878  1.00  0.00     0.166 HD
ENDROOT
BRANCH   6   9
HETATM    9  C6  UNL     1     -24.456   4.097 -11.712  1.00  0.00     0.332 C 
BRANCH   9  10
HETATM   10  N2  UNL     1     -25.264   4.823 -12.639  1.00  0.00    -0.060 N 
ATOM     11  H23 UNL     1     -25.186   5.829 -12.487  1.00  0.00     0.275 HD
ATOM     12  H22 UNL     1     -24.880   4.771 -13.582  1.00  0.00     0.275 HD
ATOM     13  H21 UNL     1     -26.237   4.521 -12.619  1.00  0.00     0.275 HD
ENDBRANCH   9  10
BRANCH   9  14
HETATM   14  C7  UNL     1     -23.222   4.762 -11.296  1.00  0.00     0.300 C 
HETATM   15  O1  UNL     1     -22.463   4.218 -10.438  1.00  0.00    -0.262 OA
BRANCH  14  16
HETATM   16  O2  UNL     1     -22.742   6.002 -11.751  1.00  0.00    -0.280 OA
BRANCH  16  17
HETATM   17  C8  UNL     1     -21.537   6.544 -11.359  1.00  0.00     0.071 C 
BRANCH  17  18
HETATM   18  C9  UNL     1     -20.646   5.597 -10.605  1.00  0.00     0.100 C 
BRANCH  18  19
HETATM   19  C10 UNL     1     -19.204   5.714 -10.838  1.00  0.00     0.154 C 
HETATM   20  C11 UNL     1     -18.426   4.448 -10.707  1.00  0.00     0.203 C 
HETATM   21  O3  UNL     1     -17.087   4.905 -10.478  1.00  0.00    -0.357 OA
HETATM   22  C12 UNL     1     -17.244   6.221 -10.172  1.00  0.00     0.283 C 
HETATM   23  O4  UNL     1     -18.551   6.459  -9.816  1.00  0.00    -0.352 OA
BRANCH  22  24
HETATM   24  C13 UNL     1     -16.266   6.665  -9.100  1.00  0.00     0.104 C 
HETATM   25  C14 UNL     1     -15.050   7.214  -9.668  1.00  0.00     0.074 C 
HETATM   26  N3  UNL     1     -14.081   7.664 -10.102  1.00  0.00    -0.196 NA
HETATM   27  C15 UNL     1     -16.882   7.614  -8.093  1.00  0.00     0.036 C 
HETATM   28  C16 UNL     1     -16.030   7.406  -6.833  1.00  0.00     0.081 C 
HETATM   29  C17 UNL     1     -15.411   6.047  -6.972  1.00  0.00     0.245 C 
HETATM   30  F1  UNL     1     -14.033   6.084  -7.072  1.00  0.00    -0.206 F 
HETATM   31  F2  UNL     1     -15.772   5.217  -5.923  1.00  0.00    -0.206 F 
HETATM   32  C18 UNL     1     -15.978   5.465  -8.228  1.00  0.00     0.108 C 
ENDBRANCH  22  24
ENDBRANCH  18  19
ENDBRANCH  17  18
BRANCH  17  33
HETATM   33  C19 UNL     1     -21.544   7.928 -10.946  1.00  0.00     0.015 A 
HETATM   34  C20 UNL     1     -22.517   8.420 -10.058  1.00  0.00     0.015 A 
HETATM   35  C21 UNL     1     -22.490   9.703  -9.570  1.00  0.00     0.001 A 
HETATM   36  C22 UNL     1     -21.511  10.592  -9.917  1.00  0.00     0.002 A 
HETATM   37  C23 UNL     1     -20.548  10.158 -10.776  1.00  0.00     0.025 A 
HETATM   38  C24 UNL     1     -20.577   8.878 -11.262  1.00  0.00     0.046 A 
HETATM   39 CL1  UNL     1     -19.280   8.498 -12.397  1.00  0.00    -0.083 Cl
ENDBRANCH  17  33
ENDBRANCH  16  17
ENDBRANCH  14  16
ENDBRANCH   9  14
ENDBRANCH   6   9
TORSDOF 9
ENDMDL
