MODEL 1
REMARK VINA RESULT: -8.043025007      0.000      0.000
REMARK  10 active torsions:
REMARK  status: ('A' for Active; 'I' for Inactive)
REMARK    1  A    between atoms: C2_2  and  O1_3 
REMARK    2  A    between atoms: O1_3  and  C3_4 
REMARK    3  A    between atoms: C4_5  and  C5_6 
REMARK    4  A    between atoms: C9_11  and  S1_12 
REMARK    5  A    between atoms: S1_12  and  N2_15 
REMARK    6  A    between atoms: N2_15  and  C10_17 
REMARK    7  A    between atoms: C16_29  and  C17_30 
REMARK    8  A    between atoms: C17_30  and  C18_31 
REMARK    9  A    between atoms: C18_31  and  C19_32 
REMARK   10  A    between atoms: C19_32  and  O4_33 
ROOT
HETATM    1  C5  UNL     1     -19.527   7.576 -11.001  1.00  0.00     0.040 A 
HETATM    2  C6  UNL     1     -20.751   8.182 -11.006  1.00  0.00     0.060 A 
HETATM    3  C7  UNL     1     -20.884   9.607 -11.091  1.00  0.00     0.100 C 
HETATM    4  N1  UNL     1     -20.975  10.749 -11.160  1.00  0.00    -0.191 NA
HETATM    5  C8  UNL     1     -21.923   7.432 -10.909  1.00  0.00     0.052 A 
HETATM    6  C9  UNL     1     -21.850   6.074 -10.806  1.00  0.00     0.123 A 
HETATM    7  C13 UNL     1     -20.627   5.441 -10.798  1.00  0.00     0.179 A 
HETATM    8  F1  UNL     1     -20.547   4.099 -10.697  1.00  0.00    -0.201 F 
HETATM    9  C14 UNL     1     -19.471   6.210 -10.898  1.00  0.00     0.169 A 
HETATM   10  F2  UNL     1     -18.282   5.553 -10.887  1.00  0.00    -0.202 F 
ENDROOT
BRANCH   1  11
HETATM   11  C4  UNL     1     -18.259   8.361 -11.127  1.00  0.00     0.020 A 
HETATM   12  C3  UNL     1     -17.397   8.608 -10.103  1.00  0.00     0.097 A 
HETATM   13  C16 UNL     1     -16.272   9.330 -10.407  1.00  0.00     0.039 A 
HETATM   14  S3  UNL     1     -16.435   9.640 -12.075  1.00  0.00    -0.098 SA
HETATM   15  C15 UNL     1     -17.912   8.859 -12.357  1.00  0.00     0.065 A 
BRANCH  12  16
HETATM   16  O1  UNL     1     -17.617   8.163  -8.769  1.00  0.00    -0.349 OA
BRANCH  16  17
HETATM   17  C2  UNL     1     -17.007   7.088  -8.166  1.00  0.00     0.171 C 
HETATM   18  C1  UNL     1     -16.312   7.325  -6.866  1.00  0.00     0.034 C 
ENDBRANCH  16  17
ENDBRANCH  12  16
BRANCH  13  19
HETATM   19  C17 UNL     1     -15.185   9.785  -9.499  1.00  0.00     0.023 C 
BRANCH  19  20
HETATM   20  C18 UNL     1     -14.129   9.031  -9.365  1.00  0.00     0.039 C 
BRANCH  20  21
HETATM   21  C19 UNL     1     -13.273   9.241  -8.169  1.00  0.00     0.328 C 
HETATM   22  F3  UNL     1     -13.059   8.008  -7.554  1.00  0.00    -0.215 F 
BRANCH  21  23
HETATM   23  O4  UNL     1     -13.911  10.092  -7.247  1.00  0.00    -0.364 OA
ATOM     24  H4  UNL     1     -14.525   9.604  -6.711  1.00  0.00     0.213 HD
ENDBRANCH  21  23
ENDBRANCH  20  21
ENDBRANCH  19  20
ENDBRANCH  13  19
ENDBRANCH   1  11
BRANCH   6  25
HETATM   25  S1  UNL     1     -23.287   5.064 -10.680  1.00  0.00     0.267 S 
HETATM   26  O2  UNL     1     -23.214   4.055 -11.792  1.00  0.00    -0.200 OA
HETATM   27  O3  UNL     1     -24.507   5.891 -10.881  1.00  0.00    -0.200 OA
BRANCH  25  28
HETATM   28  N2  UNL     1     -23.285   4.201  -9.197  1.00  0.00    -0.260 N 
ATOM     29  H2  UNL     1     -22.393   3.965  -8.762  1.00  0.00     0.181 HD
BRANCH  28  30
HETATM   30  C10 UNL     1     -24.387   3.841  -8.614  1.00  0.00     0.158 A 
HETATM   31  N3  UNL     1     -24.801   4.000  -7.356  1.00  0.00    -0.345 N 
HETATM   32  C11 UNL     1     -25.969   3.537  -7.020  1.00  0.00     0.097 A 
ATOM     33  H3  UNL     1     -24.213   4.474  -6.671  1.00  0.00     0.167 HD
HETATM   34  C12 UNL     1     -26.715   2.909  -7.983  1.00  0.00     0.070 A 
HETATM   35  S2  UNL     1     -25.684   3.016  -9.342  1.00  0.00    -0.064 SA
ENDBRANCH  28  30
ENDBRANCH  25  28
ENDBRANCH   6  25
TORSDOF 10
ENDMDL
MODEL 2
REMARK VINA RESULT: -8.019425797      1.075      1.147
REMARK  10 active torsions:
REMARK  status: ('A' for Active; 'I' for Inactive)
REMARK    1  A    between atoms: C2_2  and  O1_3 
REMARK    2  A    between atoms: O1_3  and  C3_4 
REMARK    3  A    between atoms: C4_5  and  C5_6 
REMARK    4  A    between atoms: C9_11  and  S1_12 
REMARK    5  A    between atoms: S1_12  and  N2_15 
REMARK    6  A    between atoms: N2_15  and  C10_17 
REMARK    7  A    between atoms: C16_29  and  C17_30 
REMARK    8  A    between atoms: C17_30  and  C18_31 
REMARK    9  A    between atoms: C18_31  and  C19_32 
REMARK   10  A    between atoms: C19_32  and  O4_33 
ROOT
HETATM    1  C5  UNL     1     -19.509   7.605 -11.006  1.00  0.00     0.040 A 
HETATM    2  C6  UNL     1     -20.729   8.220 -10.998  1.00  0.00     0.060 A 
HETATM    3  C7  UNL     1     -20.852   9.647 -11.056  1.00  0.00     0.100 C 
HETATM    4  N1  UNL     1     -20.935  10.791 -11.104  1.00  0.00    -0.191 NA
HETATM    5  C8  UNL     1     -21.906   7.477 -10.911  1.00  0.00     0.052 A 
HETATM    6  C9  UNL     1     -21.842   6.116 -10.834  1.00  0.00     0.123 A 
HETATM    7  C13 UNL     1     -20.623   5.475 -10.840  1.00  0.00     0.179 A 
HETATM    8  F1  UNL     1     -20.552   4.130 -10.763  1.00  0.00    -0.201 F 
HETATM    9  C14 UNL     1     -19.462   6.237 -10.928  1.00  0.00     0.169 A 
HETATM   10  F2  UNL     1     -18.278   5.572 -10.931  1.00  0.00    -0.202 F 
ENDROOT
BRANCH   1  11
HETATM   11  C4  UNL     1     -18.235   8.383 -11.120  1.00  0.00     0.020 A 
HETATM   12  C3  UNL     1     -17.383   8.629 -10.088  1.00  0.00     0.097 A 
HETATM   13  C16 UNL     1     -16.251   9.345 -10.382  1.00  0.00     0.039 A 
HETATM   14  S3  UNL     1     -16.395   9.652 -12.052  1.00  0.00    -0.098 SA
HETATM   15  C15 UNL     1     -17.873   8.878 -12.348  1.00  0.00     0.065 A 
BRANCH  12  16
HETATM   16  O1  UNL     1     -17.619   8.188  -8.756  1.00  0.00    -0.349 OA
BRANCH  16  17
HETATM   17  C2  UNL     1     -17.051   7.087  -8.158  1.00  0.00     0.171 C 
HETATM   18  C1  UNL     1     -16.176   7.318  -6.970  1.00  0.00     0.034 C 
ENDBRANCH  16  17
ENDBRANCH  12  16
BRANCH  13  19
HETATM   19  C17 UNL     1     -15.171   9.796  -9.464  1.00  0.00     0.023 C 
BRANCH  19  20
HETATM   20  C18 UNL     1     -14.961  11.076  -9.333  1.00  0.00     0.039 C 
BRANCH  20  21
HETATM   21  C19 UNL     1     -13.604  11.593  -9.654  1.00  0.00     0.328 C 
HETATM   22  F3  UNL     1     -12.814  11.510  -8.507  1.00  0.00    -0.215 F 
BRANCH  21  23
HETATM   23  O4  UNL     1     -13.671  12.943 -10.050  1.00  0.00    -0.364 OA
ATOM     24  H4  UNL     1     -12.997  13.452  -9.615  1.00  0.00     0.213 HD
ENDBRANCH  21  23
ENDBRANCH  20  21
ENDBRANCH  19  20
ENDBRANCH  13  19
ENDBRANCH   1  11
BRANCH   6  25
HETATM   25  S1  UNL     1     -23.285   5.114 -10.723  1.00  0.00     0.267 S 
HETATM   26  O2  UNL     1     -23.222   4.124 -11.852  1.00  0.00    -0.200 OA
HETATM   27  O3  UNL     1     -24.500   5.953 -10.907  1.00  0.00    -0.200 OA
BRANCH  25  28
HETATM   28  N2  UNL     1     -23.287   4.225  -9.255  1.00  0.00    -0.260 N 
ATOM     29  H2  UNL     1     -22.396   3.982  -8.821  1.00  0.00     0.181 HD
BRANCH  28  30
HETATM   30  C10 UNL     1     -24.389   3.854  -8.681  1.00  0.00     0.158 A 
HETATM   31  N3  UNL     1     -24.795   3.964  -7.416  1.00  0.00    -0.345 N 
HETATM   32  C11 UNL     1     -25.967   3.502  -7.093  1.00  0.00     0.097 A 
ATOM     33  H3  UNL     1     -24.198   4.403  -6.715  1.00  0.00     0.167 HD
HETATM   34  C12 UNL     1     -26.725   2.923  -8.077  1.00  0.00     0.070 A 
HETATM   35  S2  UNL     1     -25.700   3.075  -9.436  1.00  0.00    -0.064 SA
ENDBRANCH  28  30
ENDBRANCH  25  28
ENDBRANCH   6  25
TORSDOF 10
ENDMDL
MODEL 3
REMARK VINA RESULT: -7.841184034      3.218      4.415
REMARK  10 active torsions:
REMARK  status: ('A' for Active; 'I' for Inactive)
REMARK    1  A    between atoms: C2_2  and  O1_3 
REMARK    2  A    between atoms: O1_3  and  C3_4 
REMARK    3  A    between atoms: C4_5  and  C5_6 
REMARK    4  A    between atoms: C9_11  and  S1_12 
REMARK    5  A    between atoms: S1_12  and  N2_15 
REMARK    6  A    between atoms: N2_15  and  C10_17 
REMARK    7  A    between atoms: C16_29  and  C17_30 
REMARK    8  A    between atoms: C17_30  and  C18_31 
REMARK    9  A    between atoms: C18_31  and  C19_32 
REMARK   10  A    between atoms: C19_32  and  O4_33 
ROOT
HETATM    1  C5  UNL     1     -17.179   6.369  -9.357  1.00  0.00     0.040 A 
HETATM    2  C6  UNL     1     -17.621   5.710 -10.468  1.00  0.00     0.060 A 
HETATM    3  C7  UNL     1     -16.890   4.613 -11.032  1.00  0.00     0.100 C 
HETATM    4  N1  UNL     1     -16.294   3.736 -11.472  1.00  0.00    -0.191 NA
HETATM    5  C8  UNL     1     -18.797   6.095 -11.111  1.00  0.00     0.052 A 
HETATM    6  C9  UNL     1     -19.520   7.145 -10.626  1.00  0.00     0.123 A 
HETATM    7  C13 UNL     1     -19.094   7.826  -9.507  1.00  0.00     0.179 A 
HETATM    8  F1  UNL     1     -19.802   8.865  -9.021  1.00  0.00    -0.201 F 
HETATM    9  C14 UNL     1     -17.917   7.423  -8.881  1.00  0.00     0.169 A 
HETATM   10  F2  UNL     1     -17.526   8.116  -7.781  1.00  0.00    -0.202 F 
ENDROOT
BRANCH   1  11
HETATM   11  C4  UNL     1     -15.931   5.958  -8.640  1.00  0.00     0.020 A 
HETATM   12  C3  UNL     1     -14.712   6.538  -8.814  1.00  0.00     0.097 A 
HETATM   13  C16 UNL     1     -13.682   6.042  -8.056  1.00  0.00     0.039 A 
HETATM   14  S3  UNL     1     -14.419   4.808  -7.139  1.00  0.00    -0.098 SA
HETATM   15  C15 UNL     1     -16.003   4.938  -7.725  1.00  0.00     0.065 A 
BRANCH  12  16
HETATM   16  O1  UNL     1     -14.474   7.603  -9.727  1.00  0.00    -0.349 OA
BRANCH  16  17
HETATM   17  C2  UNL     1     -14.535   8.945  -9.434  1.00  0.00     0.171 C 
HETATM   18  C1  UNL     1     -15.478   9.786 -10.231  1.00  0.00     0.034 C 
ENDBRANCH  16  17
ENDBRANCH  12  16
BRANCH  13  19
HETATM   19  C17 UNL     1     -12.249   6.441  -8.059  1.00  0.00     0.023 C 
BRANCH  19  20
HETATM   20  C18 UNL     1     -11.639   6.579  -6.915  1.00  0.00     0.039 C 
BRANCH  20  21
HETATM   21  C19 UNL     1     -12.078   7.682  -6.021  1.00  0.00     0.328 C 
HETATM   22  F3  UNL     1     -10.955   8.408  -5.627  1.00  0.00    -0.215 F 
BRANCH  21  23
HETATM   23  O4  UNL     1     -12.701   7.167  -4.868  1.00  0.00    -0.364 OA
ATOM     24  H4  UNL     1     -13.566   7.546  -4.759  1.00  0.00     0.213 HD
ENDBRANCH  21  23
ENDBRANCH  20  21
ENDBRANCH  19  20
ENDBRANCH  13  19
ENDBRANCH   1  11
BRANCH   6  25
HETATM   25  S1  UNL     1     -21.013   7.687 -11.384  1.00  0.00     0.267 S 
HETATM   26  O2  UNL     1     -21.075   7.048 -12.743  1.00  0.00    -0.200 OA
HETATM   27  O3  UNL     1     -20.983   9.163 -11.565  1.00  0.00    -0.200 OA
BRANCH  25  28
HETATM   28  N2  UNL     1     -22.373   7.138 -10.492  1.00  0.00    -0.260 N 
ATOM     29  H2  UNL     1     -22.742   7.721  -9.741  1.00  0.00     0.181 HD
BRANCH  28  30
HETATM   30  C10 UNL     1     -22.944   6.001 -10.746  1.00  0.00     0.158 A 
HETATM   31  N3  UNL     1     -24.169   5.721 -11.193  1.00  0.00    -0.345 N 
HETATM   32  C11 UNL     1     -24.500   4.475 -11.366  1.00  0.00     0.097 A 
ATOM     33  H3  UNL     1     -24.833   6.468 -11.394  1.00  0.00     0.167 HD
HETATM   34  C12 UNL     1     -23.567   3.513 -11.080  1.00  0.00     0.070 A 
HETATM   35  S2  UNL     1     -22.240   4.462 -10.567  1.00  0.00    -0.064 SA
ENDBRANCH  28  30
ENDBRANCH  25  28
ENDBRANCH   6  25
TORSDOF 10
ENDMDL
MODEL 4
REMARK VINA RESULT: -7.743875125      1.721      2.091
REMARK  10 active torsions:
REMARK  status: ('A' for Active; 'I' for Inactive)
REMARK    1  A    between atoms: C2_2  and  O1_3 
REMARK    2  A    between atoms: O1_3  and  C3_4 
REMARK    3  A    between atoms: C4_5  and  C5_6 
REMARK    4  A    between atoms: C9_11  and  S1_12 
REMARK    5  A    between atoms: S1_12  and  N2_15 
REMARK    6  A    between atoms: N2_15  and  C10_17 
REMARK    7  A    between atoms: C16_29  and  C17_30 
REMARK    8  A    between atoms: C17_30  and  C18_31 
REMARK    9  A    between atoms: C18_31  and  C19_32 
REMARK   10  A    between atoms: C19_32  and  O4_33 
ROOT
HETATM    1  C5  UNL     1     -19.505   7.368 -11.023  1.00  0.00     0.040 A 
HETATM    2  C6  UNL     1     -19.440   6.004 -11.037  1.00  0.00     0.060 A 
HETATM    3  C7  UNL     1     -18.192   5.312 -11.175  1.00  0.00     0.100 C 
HETATM    4  N1  UNL     1     -17.185   4.773 -11.287  1.00  0.00    -0.191 NA
HETATM    5  C8  UNL     1     -20.595   5.230 -10.935  1.00  0.00     0.052 A 
HETATM    6  C9  UNL     1     -21.810   5.839 -10.821  1.00  0.00     0.123 A 
HETATM    7  C13 UNL     1     -21.901   7.214 -10.806  1.00  0.00     0.179 A 
HETATM    8  F1  UNL     1     -23.098   7.824 -10.693  1.00  0.00    -0.201 F 
HETATM    9  C14 UNL     1     -20.734   7.966 -10.907  1.00  0.00     0.169 A 
HETATM   10  F2  UNL     1     -20.860   9.319 -10.889  1.00  0.00    -0.202 F 
ENDROOT
BRANCH   1  11
HETATM   11  C4  UNL     1     -18.275   8.217 -11.109  1.00  0.00     0.020 A 
HETATM   12  C3  UNL     1     -17.442   8.480 -10.066  1.00  0.00     0.097 A 
HETATM   13  C16 UNL     1     -16.349   9.264 -10.335  1.00  0.00     0.039 A 
HETATM   14  S3  UNL     1     -16.504   9.609 -11.997  1.00  0.00    -0.098 SA
HETATM   15  C15 UNL     1     -17.936   8.764 -12.322  1.00  0.00     0.065 A 
BRANCH  12  16
HETATM   16  O1  UNL     1     -17.658   7.991  -8.748  1.00  0.00    -0.349 OA
BRANCH  16  17
HETATM   17  C2  UNL     1     -16.970   6.963  -8.146  1.00  0.00     0.171 C 
HETATM   18  C1  UNL     1     -16.292   7.252  -6.847  1.00  0.00     0.034 C 
ENDBRANCH  16  17
ENDBRANCH  12  16
BRANCH  13  19
HETATM   19  C17 UNL     1     -15.299   9.748  -9.399  1.00  0.00     0.023 C 
BRANCH  19  20
HETATM   20  C18 UNL     1     -14.169   9.100  -9.343  1.00  0.00     0.039 C 
BRANCH  20  21
HETATM   21  C19 UNL     1     -13.295   9.329  -8.162  1.00  0.00     0.328 C 
HETATM   22  F3  UNL     1     -13.038   8.099  -7.556  1.00  0.00    -0.215 F 
BRANCH  21  23
HETATM   23  O4  UNL     1     -13.938  10.160  -7.225  1.00  0.00    -0.364 OA
ATOM     24  H4  UNL     1     -13.310  10.736  -6.805  1.00  0.00     0.213 HD
ENDBRANCH  21  23
ENDBRANCH  20  21
ENDBRANCH  19  20
ENDBRANCH  13  19
ENDBRANCH   1  11
BRANCH   6  25
HETATM   25  S1  UNL     1     -23.310   4.927 -10.688  1.00  0.00     0.267 S 
HETATM   26  O2  UNL     1     -23.339   3.958 -11.838  1.00  0.00    -0.200 OA
HETATM   27  O3  UNL     1     -24.474   5.843 -10.822  1.00  0.00    -0.200 OA
BRANCH  25  28
HETATM   28  N2  UNL     1     -23.328   4.010  -9.238  1.00  0.00    -0.260 N 
ATOM     29  H2  UNL     1     -22.446   3.669  -8.856  1.00  0.00     0.181 HD
BRANCH  28  30
HETATM   30  C10 UNL     1     -24.432   3.737  -8.615  1.00  0.00     0.158 A 
HETATM   31  N3  UNL     1     -24.811   3.986  -7.361  1.00  0.00    -0.345 N 
HETATM   32  C11 UNL     1     -25.992   3.600  -6.977  1.00  0.00     0.097 A 
ATOM     33  H3  UNL     1     -24.186   4.468  -6.715  1.00  0.00     0.167 HD
HETATM   34  C12 UNL     1     -26.789   2.957  -7.888  1.00  0.00     0.070 A 
HETATM   35  S2  UNL     1     -25.784   2.938  -9.270  1.00  0.00    -0.064 SA
ENDBRANCH  28  30
ENDBRANCH  25  28
ENDBRANCH   6  25
TORSDOF 10
ENDMDL
MODEL 5
REMARK VINA RESULT: -7.708379329      5.326      7.724
REMARK  10 active torsions:
REMARK  status: ('A' for Active; 'I' for Inactive)
REMARK    1  A    between atoms: C2_2  and  O1_3 
REMARK    2  A    between atoms: O1_3  and  C3_4 
REMARK    3  A    between atoms: C4_5  and  C5_6 
REMARK    4  A    between atoms: C9_11  and  S1_12 
REMARK    5  A    between atoms: S1_12  and  N2_15 
REMARK    6  A    between atoms: N2_15  and  C10_17 
REMARK    7  A    between atoms: C16_29  and  C17_30 
REMARK    8  A    between atoms: C17_30  and  C18_31 
REMARK    9  A    between atoms: C18_31  and  C19_32 
REMARK   10  A    between atoms: C19_32  and  O4_33 
ROOT
HETATM    1  C5  UNL     1     -16.879   5.880  -9.999  1.00  0.00     0.040 A 
HETATM    2  C6  UNL     1     -16.382   6.020  -8.734  1.00  0.00     0.060 A 
HETATM    3  C7  UNL     1     -16.593   7.215  -7.971  1.00  0.00     0.100 C 
HETATM    4  N1  UNL     1     -16.770   8.179  -7.373  1.00  0.00    -0.191 NA
HETATM    5  C8  UNL     1     -15.632   5.005  -8.142  1.00  0.00     0.052 A 
HETATM    6  C9  UNL     1     -15.386   3.855  -8.833  1.00  0.00     0.123 A 
HETATM    7  C13 UNL     1     -15.875   3.691 -10.110  1.00  0.00     0.179 A 
HETATM    8  F1  UNL     1     -15.638   2.557 -10.800  1.00  0.00    -0.201 F 
HETATM    9  C14 UNL     1     -16.624   4.718 -10.680  1.00  0.00     0.169 A 
HETATM   10  F2  UNL     1     -17.091   4.523 -11.941  1.00  0.00    -0.202 F 
ENDROOT
BRANCH   1  11
HETATM   11  C4  UNL     1     -17.705   6.949 -10.644  1.00  0.00     0.020 A 
HETATM   12  C3  UNL     1     -19.065   6.968 -10.666  1.00  0.00     0.097 A 
HETATM   13  C16 UNL     1     -19.655   8.039 -11.287  1.00  0.00     0.039 A 
HETATM   14  S3  UNL     1     -18.331   8.974 -11.814  1.00  0.00    -0.098 SA
HETATM   15  C15 UNL     1     -17.064   8.003 -11.245  1.00  0.00     0.065 A 
BRANCH  12  16
HETATM   16  O1  UNL     1     -19.872   5.947 -10.090  1.00  0.00    -0.349 OA
BRANCH  16  17
HETATM   17  C2  UNL     1     -20.382   4.853 -10.748  1.00  0.00     0.171 C 
HETATM   18  C1  UNL     1     -21.857   4.632 -10.687  1.00  0.00     0.034 C 
ENDBRANCH  16  17
ENDBRANCH  12  16
BRANCH  13  19
HETATM   19  C17 UNL     1     -21.102   8.308 -11.502  1.00  0.00     0.023 C 
BRANCH  19  20
HETATM   20  C18 UNL     1     -21.810   8.746 -10.498  1.00  0.00     0.039 C 
BRANCH  20  21
HETATM   21  C19 UNL     1     -21.893  10.216 -10.295  1.00  0.00     0.328 C 
HETATM   22  F3  UNL     1     -21.737  10.486  -8.935  1.00  0.00    -0.215 F 
BRANCH  21  23
HETATM   23  O4  UNL     1     -23.150  10.701 -10.703  1.00  0.00    -0.364 OA
ATOM     24  H4  UNL     1     -23.060  11.262 -11.464  1.00  0.00     0.213 HD
ENDBRANCH  21  23
ENDBRANCH  20  21
ENDBRANCH  19  20
ENDBRANCH  13  19
ENDBRANCH   1  11
BRANCH   6  25
HETATM   25  S1  UNL     1     -14.447   2.531  -8.149  1.00  0.00     0.267 S 
HETATM   26  O2  UNL     1     -14.029   2.955  -6.769  1.00  0.00    -0.200 OA
HETATM   27  O3  UNL     1     -13.220   2.310  -8.960  1.00  0.00    -0.200 OA
BRANCH  25  28
HETATM   28  N2  UNL     1     -15.419   1.126  -7.988  1.00  0.00    -0.260 N 
ATOM     29  H2  UNL     1     -16.343   1.209  -7.562  1.00  0.00     0.181 HD
BRANCH  28  30
HETATM   30  C10 UNL     1     -15.013  -0.037  -8.392  1.00  0.00     0.158 A 
HETATM   31  N3  UNL     1     -14.757  -0.494  -9.618  1.00  0.00    -0.345 N 
HETATM   32  C11 UNL     1     -14.355  -1.723  -9.755  1.00  0.00     0.097 A 
ATOM     33  H3  UNL     1     -14.875   0.108 -10.433  1.00  0.00     0.167 HD
HETATM   34  C12 UNL     1     -14.214  -2.486  -8.625  1.00  0.00     0.070 A 
HETATM   35  S2  UNL     1     -14.675  -1.381  -7.405  1.00  0.00    -0.064 SA
ENDBRANCH  28  30
ENDBRANCH  25  28
ENDBRANCH   6  25
TORSDOF 10
ENDMDL
