MODEL 1
REMARK VINA RESULT: -5.236318212      0.000      0.000
REMARK  9 active torsions:
REMARK  status: ('A' for Active; 'I' for Inactive)
REMARK    1  A    between atoms: C2_2  and  C4_4 
REMARK    2  A    between atoms: C5_6  and  C6_7 
REMARK    3  A    between atoms: C15_19  and  O2_20 
REMARK    4  A    between atoms: C16_22  and  O3_23 
REMARK    5  A    between atoms: C16_22  and  C17_25 
REMARK    6  A    between atoms: C17_25  and  O4_26 
REMARK    7  A    between atoms: C18_28  and  O5_29 
REMARK    8  A    between atoms: C20_31  and  C21_32 
REMARK    9  A    between atoms: C21_32  and  O7_34 
ROOT
HETATM    1  C4  UNL     1       4.108 -21.803   9.342  1.00  0.00     0.172 C 
HETATM    2  O1  UNL     1       3.894 -20.432   9.208  1.00  0.00    -0.366 OA
HETATM    3  C5  UNL     1       3.262 -19.687  10.059  1.00  0.00     0.230 C 
HETATM    4  C7  UNL     1       1.820 -20.138   9.989  1.00  0.00     0.051 C 
HETATM    5  C8  UNL     1       1.841 -21.585  10.422  1.00  0.00    -0.019 C 
HETATM    6  C9  UNL     1       1.775 -21.388  11.881  1.00  0.00     0.016 C 
HETATM    7  C10 UNL     1       0.476 -22.154  10.119  1.00  0.00     0.011 C 
HETATM    8  C11 UNL     1       0.430 -23.405  10.943  1.00  0.00     0.013 C 
HETATM    9  C12 UNL     1       1.527 -24.371  10.735  1.00  0.00    -0.006 C 
HETATM   10  C13 UNL     1       0.864 -25.526  10.003  1.00  0.00     0.018 C 
HETATM   11  C14 UNL     1       1.783 -25.038  12.114  1.00  0.00     0.047 C 
HETATM   12  C15 UNL     1       3.237 -25.092  12.331  1.00  0.00     0.158 C 
HETATM   13  C16 UNL     1       3.862 -24.097  11.339  1.00  0.00     0.138 C 
HETATM   14  C18 UNL     1       2.885 -23.907  10.243  1.00  0.00     0.123 C 
HETATM   15  C20 UNL     1       2.824 -22.450   9.700  1.00  0.00     0.120 C 
ENDROOT
BRANCH  13  16
HETATM   16  O3  UNL     1       4.180 -22.993  12.110  1.00  0.00    -0.382 OA
ATOM     17  H3  UNL     1       4.792 -22.500  11.577  1.00  0.00     0.211 HD
ENDBRANCH  13  16
BRANCH  13  18
HETATM   18  C17 UNL     1       5.231 -24.661  11.124  1.00  0.00     0.207 C 
BRANCH  18  19
HETATM   19  O4  UNL     1       5.338 -25.855  11.933  1.00  0.00    -0.398 OA
ATOM     20  H4  UNL     1       4.994 -25.647  12.793  1.00  0.00     0.209 HD
ENDBRANCH  18  19
ENDBRANCH  13  18
BRANCH  12  21
HETATM   21  O2  UNL     1       3.631 -24.817  13.640  1.00  0.00    -0.392 OA
ATOM     22  H2  UNL     1       4.568 -24.878  13.786  1.00  0.00     0.210 HD
ENDBRANCH  12  21
BRANCH  14  23
HETATM   23  O5  UNL     1       3.315 -24.621   9.179  1.00  0.00    -0.379 OA
HETATM   24  C19 UNL     1       3.580 -25.874   8.986  1.00  0.00     0.202 C 
ENDBRANCH  14  23
BRANCH  15  25
HETATM   25  C21 UNL     1       2.255 -22.538   8.307  1.00  0.00     0.274 C 
HETATM   26  O6  UNL     1       1.944 -21.514   7.634  1.00  0.00    -0.264 OA
BRANCH  25  27
HETATM   27  O7  UNL     1       1.983 -23.626   7.543  1.00  0.00    -0.326 OA
HETATM   28  C22 UNL     1       2.264 -23.743   6.174  1.00  0.00     0.213 C 
ENDBRANCH  25  27
ENDBRANCH  15  25
BRANCH   1  29
HETATM   29  C2  UNL     1       4.806 -22.047   8.055  1.00  0.00    -0.063 C 
HETATM   30  C1  UNL     1       4.987 -21.047   7.147  1.00  0.00     0.016 C 
HETATM   31  C3  UNL     1       5.397 -23.245   7.484  1.00  0.00     0.045 C 
ENDBRANCH   1  29
BRANCH   3  32
HETATM   32  C6  UNL     1       3.381 -18.206   9.716  1.00  0.00     0.413 C 
HETATM   33  F1  UNL     1       2.123 -17.665   9.972  1.00  0.00    -0.168 F 
HETATM   34  F2  UNL     1       4.252 -17.647  10.621  1.00  0.00    -0.168 F 
HETATM   35  F3  UNL     1       3.735 -18.042   8.413  1.00  0.00    -0.168 F 
ENDBRANCH   3  32
TORSDOF 9
ENDMDL
MODEL 2
REMARK VINA RESULT: -4.449174555      2.414      4.584
REMARK  9 active torsions:
REMARK  status: ('A' for Active; 'I' for Inactive)
REMARK    1  A    between atoms: C2_2  and  C4_4 
REMARK    2  A    between atoms: C5_6  and  C6_7 
REMARK    3  A    between atoms: C15_19  and  O2_20 
REMARK    4  A    between atoms: C16_22  and  O3_23 
REMARK    5  A    between atoms: C16_22  and  C17_25 
REMARK    6  A    between atoms: C17_25  and  O4_26 
REMARK    7  A    between atoms: C18_28  and  O5_29 
REMARK    8  A    between atoms: C20_31  and  C21_32 
REMARK    9  A    between atoms: C21_32  and  O7_34 
ROOT
HETATM    1  C4  UNL     1       2.795 -21.744   8.729  1.00  0.00     0.172 C 
HETATM    2  O1  UNL     1       3.584 -21.686   7.581  1.00  0.00    -0.366 OA
HETATM    3  C5  UNL     1       4.006 -22.711   6.912  1.00  0.00     0.230 C 
HETATM    4  C7  UNL     1       4.998 -23.401   7.822  1.00  0.00     0.051 C 
HETATM    5  C8  UNL     1       4.195 -23.817   9.032  1.00  0.00    -0.019 C 
HETATM    6  C9  UNL     1       3.671 -25.098   8.529  1.00  0.00     0.016 C 
HETATM    7  C10 UNL     1       5.183 -24.271  10.079  1.00  0.00     0.011 C 
HETATM    8  C11 UNL     1       4.338 -25.050  11.040  1.00  0.00     0.013 C 
HETATM    9  C12 UNL     1       3.167 -24.350  11.604  1.00  0.00    -0.006 C 
HETATM   10  C13 UNL     1       3.551 -24.100  13.053  1.00  0.00     0.018 C 
HETATM   11  C14 UNL     1       2.068 -25.431  11.800  1.00  0.00     0.047 C 
HETATM   12  C15 UNL     1       0.795 -24.881  11.311  1.00  0.00     0.158 C 
HETATM   13  C16 UNL     1       1.153 -23.672  10.430  1.00  0.00     0.138 C 
HETATM   14  C18 UNL     1       2.500 -23.219  10.844  1.00  0.00     0.123 C 
HETATM   15  C20 UNL     1       3.388 -22.728   9.664  1.00  0.00     0.120 C 
ENDROOT
BRANCH  13  16
HETATM   16  O3  UNL     1       1.003 -24.133   9.134  1.00  0.00    -0.382 OA
ATOM     17  H3  UNL     1       1.382 -25.004   9.147  1.00  0.00     0.211 HD
ENDBRANCH  13  16
BRANCH  13  18
HETATM   18  C17 UNL     1      -0.067 -22.813  10.538  1.00  0.00     0.207 C 
BRANCH  18  19
HETATM   19  O4  UNL     1      -0.400 -22.365   9.204  1.00  0.00    -0.398 OA
ATOM     20  H4  UNL     1      -1.250 -21.945   9.249  1.00  0.00     0.209 HD
ENDBRANCH  18  19
ENDBRANCH  13  18
BRANCH  12  21
HETATM   21  O2  UNL     1       0.004 -25.797  10.618  1.00  0.00    -0.392 OA
ATOM     22  H2  UNL     1       0.488 -26.360  10.026  1.00  0.00     0.210 HD
ENDBRANCH  12  21
BRANCH  14  23
HETATM   23  O5  UNL     1       2.347 -22.111  11.604  1.00  0.00    -0.379 OA
HETATM   24  C19 UNL     1       1.610 -21.820  12.627  1.00  0.00     0.202 C 
ENDBRANCH  14  23
BRANCH  15  25
HETATM   25  C21 UNL     1       4.432 -21.822  10.264  1.00  0.00     0.274 C 
HETATM   26  O6  UNL     1       5.473 -21.474   9.636  1.00  0.00    -0.264 OA
BRANCH  25  27
HETATM   27  O7  UNL     1       4.478 -21.235  11.488  1.00  0.00    -0.326 OA
HETATM   28  C22 UNL     1       4.879 -19.915  11.735  1.00  0.00     0.213 C 
ENDBRANCH  25  27
ENDBRANCH  15  25
BRANCH   1  29
HETATM   29  C2  UNL     1       2.722 -20.290   9.024  1.00  0.00    -0.063 C 
HETATM   30  C1  UNL     1       3.521 -19.396   8.376  1.00  0.00     0.016 C 
HETATM   31  C3  UNL     1       1.905 -19.529   9.953  1.00  0.00     0.045 C 
ENDBRANCH   1  29
BRANCH   3  32
HETATM   32  C6  UNL     1       4.671 -22.300   5.603  1.00  0.00     0.413 C 
HETATM   33  F1  UNL     1       5.627 -21.351   5.956  1.00  0.00    -0.168 F 
HETATM   34  F2  UNL     1       5.348 -23.397   5.127  1.00  0.00    -0.168 F 
HETATM   35  F3  UNL     1       3.753 -21.783   4.741  1.00  0.00    -0.168 F 
ENDBRANCH   3  32
TORSDOF 9
ENDMDL
MODEL 3
REMARK VINA RESULT: -4.327574875      2.260      4.453
REMARK  9 active torsions:
REMARK  status: ('A' for Active; 'I' for Inactive)
REMARK    1  A    between atoms: C2_2  and  C4_4 
REMARK    2  A    between atoms: C5_6  and  C6_7 
REMARK    3  A    between atoms: C15_19  and  O2_20 
REMARK    4  A    between atoms: C16_22  and  O3_23 
REMARK    5  A    between atoms: C16_22  and  C17_25 
REMARK    6  A    between atoms: C17_25  and  O4_26 
REMARK    7  A    between atoms: C18_28  and  O5_29 
REMARK    8  A    between atoms: C20_31  and  C21_32 
REMARK    9  A    between atoms: C21_32  and  O7_34 
ROOT
HETATM    1  C4  UNL     1       2.452 -21.460   9.425  1.00  0.00     0.172 C 
HETATM    2  O1  UNL     1       3.030 -21.255   8.173  1.00  0.00    -0.366 OA
HETATM    3  C5  UNL     1       3.420 -22.190   7.367  1.00  0.00     0.230 C 
HETATM    4  C7  UNL     1       4.605 -22.837   8.049  1.00  0.00     0.051 C 
HETATM    5  C8  UNL     1       4.055 -23.404   9.336  1.00  0.00    -0.019 C 
HETATM    6  C9  UNL     1       3.564 -24.695   8.826  1.00  0.00     0.016 C 
HETATM    7  C10 UNL     1       5.240 -23.824  10.172  1.00  0.00     0.011 C 
HETATM    8  C11 UNL     1       4.636 -24.740  11.193  1.00  0.00     0.013 C 
HETATM    9  C12 UNL     1       3.521 -24.193  11.991  1.00  0.00    -0.006 C 
HETATM   10  C13 UNL     1       4.120 -23.999  13.374  1.00  0.00     0.018 C 
HETATM   11  C14 UNL     1       2.567 -25.386  12.277  1.00  0.00     0.047 C 
HETATM   12  C15 UNL     1       1.188 -24.932  12.044  1.00  0.00     0.158 C 
HETATM   13  C16 UNL     1       1.289 -23.641  11.213  1.00  0.00     0.138 C 
HETATM   14  C18 UNL     1       2.643 -23.087  11.438  1.00  0.00     0.123 C 
HETATM   15  C20 UNL     1       3.275 -22.439  10.172  1.00  0.00     0.120 C 
ENDROOT
BRANCH  13  16
HETATM   16  O3  UNL     1       0.963 -24.033   9.927  1.00  0.00    -0.382 OA
ATOM     17  H3  UNL     1       1.136 -23.265   9.395  1.00  0.00     0.211 HD
ENDBRANCH  13  16
BRANCH  13  18
HETATM   18  C17 UNL     1       0.036 -22.912  11.583  1.00  0.00     0.207 C 
BRANCH  18  19
HETATM   19  O4  UNL     1      -0.900 -23.083  10.494  1.00  0.00    -0.398 OA
ATOM     20  H4  UNL     1      -1.763 -22.863  10.825  1.00  0.00     0.209 HD
ENDBRANCH  18  19
ENDBRANCH  13  18
BRANCH  12  21
HETATM   21  O2  UNL     1       0.373 -25.874  11.418  1.00  0.00    -0.392 OA
ATOM     22  H2  UNL     1      -0.077 -26.460  12.017  1.00  0.00     0.210 HD
ENDBRANCH  12  21
BRANCH  14  23
HETATM   23  O5  UNL     1       2.526 -22.049  12.297  1.00  0.00    -0.379 OA
HETATM   24  C19 UNL     1       1.943 -21.893  13.442  1.00  0.00     0.202 C 
ENDBRANCH  14  23
BRANCH  15  25
HETATM   25  C21 UNL     1       4.325 -21.476  10.665  1.00  0.00     0.274 C 
HETATM   26  O6  UNL     1       5.273 -21.070   9.934  1.00  0.00    -0.264 OA
BRANCH  25  27
HETATM   27  O7  UNL     1       4.466 -20.887  11.880  1.00  0.00    -0.326 OA
HETATM   28  C22 UNL     1       4.956 -19.592  12.097  1.00  0.00     0.213 C 
ENDBRANCH  25  27
ENDBRANCH  15  25
BRANCH   1  29
HETATM   29  C2  UNL     1       2.307 -20.042   9.840  1.00  0.00    -0.063 C 
HETATM   30  C1  UNL     1       1.355 -19.662  10.739  1.00  0.00     0.016 C 
HETATM   31  C3  UNL     1       3.026 -18.840   9.455  1.00  0.00     0.045 C 
ENDBRANCH   1  29
BRANCH   3  32
HETATM   32  C6  UNL     1       3.818 -21.636   6.003  1.00  0.00     0.413 C 
HETATM   33  F1  UNL     1       2.893 -20.631   5.729  1.00  0.00    -0.168 F 
HETATM   34  F2  UNL     1       5.041 -21.028   6.150  1.00  0.00    -0.168 F 
HETATM   35  F3  UNL     1       3.781 -22.614   5.059  1.00  0.00    -0.168 F 
ENDBRANCH   3  32
TORSDOF 9
ENDMDL
MODEL 4
REMARK VINA RESULT: -4.254133511      2.477      4.081
REMARK  9 active torsions:
REMARK  status: ('A' for Active; 'I' for Inactive)
REMARK    1  A    between atoms: C2_2  and  C4_4 
REMARK    2  A    between atoms: C5_6  and  C6_7 
REMARK    3  A    between atoms: C15_19  and  O2_20 
REMARK    4  A    between atoms: C16_22  and  O3_23 
REMARK    5  A    between atoms: C16_22  and  C17_25 
REMARK    6  A    between atoms: C17_25  and  O4_26 
REMARK    7  A    between atoms: C18_28  and  O5_29 
REMARK    8  A    between atoms: C20_31  and  C21_32 
REMARK    9  A    between atoms: C21_32  and  O7_34 
ROOT
HETATM    1  C4  UNL     1       4.041 -21.134  11.490  1.00  0.00     0.172 C 
HETATM    2  O1  UNL     1       3.687 -20.806  12.798  1.00  0.00    -0.366 OA
HETATM    3  C5  UNL     1       2.943 -21.527  13.574  1.00  0.00     0.230 C 
HETATM    4  C7  UNL     1       1.562 -21.483  12.958  1.00  0.00     0.051 C 
HETATM    5  C8  UNL     1       1.720 -22.112  11.594  1.00  0.00    -0.019 C 
HETATM    6  C9  UNL     1       1.572 -23.527  11.978  1.00  0.00     0.016 C 
HETATM    7  C10 UNL     1       0.439 -21.854  10.840  1.00  0.00     0.011 C 
HETATM    8  C11 UNL     1       0.493 -22.841   9.715  1.00  0.00     0.013 C 
HETATM    9  C12 UNL     1       1.695 -22.799   8.859  1.00  0.00    -0.006 C 
HETATM   10  C13 UNL     1       1.193 -22.217   7.548  1.00  0.00     0.018 C 
HETATM   11  C14 UNL     1       1.964 -24.264   8.416  1.00  0.00     0.047 C 
HETATM   12  C15 UNL     1       3.405 -24.525   8.557  1.00  0.00     0.158 C 
HETATM   13  C16 UNL     1       3.960 -23.422   9.473  1.00  0.00     0.138 C 
HETATM   14  C18 UNL     1       3.015 -22.285   9.402  1.00  0.00     0.123 C 
HETATM   15  C20 UNL     1       2.821 -21.543  10.757  1.00  0.00     0.120 C 
ENDROOT
BRANCH  13  16
HETATM   16  O3  UNL     1       4.125 -24.041  10.699  1.00  0.00    -0.382 OA
ATOM     17  H3  UNL     1       3.913 -23.368  11.334  1.00  0.00     0.211 HD
ENDBRANCH  13  16
BRANCH  13  18
HETATM   18  C17 UNL     1       5.389 -23.324   9.042  1.00  0.00     0.207 C 
BRANCH  18  19
HETATM   19  O4  UNL     1       5.552 -24.179   7.888  1.00  0.00    -0.398 OA
ATOM     20  H4  UNL     1       5.943 -24.991   8.189  1.00  0.00     0.209 HD
ENDBRANCH  18  19
ENDBRANCH  13  18
BRANCH  12  21
HETATM   21  O2  UNL     1       3.711 -25.793   9.048  1.00  0.00    -0.392 OA
ATOM     22  H2  UNL     1       4.189 -26.343   8.438  1.00  0.00     0.210 HD
ENDBRANCH  12  21
BRANCH  14  23
HETATM   23  O5  UNL     1       3.564 -21.341   8.604  1.00  0.00    -0.379 OA
HETATM   24  C19 UNL     1       3.805 -21.269   7.334  1.00  0.00     0.202 C 
ENDBRANCH  14  23
BRANCH  15  25
HETATM   25  C21 UNL     1       2.324 -20.161  10.419  1.00  0.00     0.274 C 
HETATM   26  O6  UNL     1       1.368 -19.611  11.038  1.00  0.00    -0.264 OA
BRANCH  25  27
HETATM   27  O7  UNL     1       2.752 -19.287   9.472  1.00  0.00    -0.326 OA
HETATM   28  C22 UNL     1       2.587 -17.896   9.524  1.00  0.00     0.213 C 
ENDBRANCH  25  27
ENDBRANCH  15  25
BRANCH   1  29
HETATM   29  C2  UNL     1       4.815 -19.912  11.154  1.00  0.00    -0.063 C 
HETATM   30  C1  UNL     1       4.846 -18.840  11.997  1.00  0.00     0.016 C 
HETATM   31  C3  UNL     1       5.629 -19.565  10.002  1.00  0.00     0.045 C 
ENDBRANCH   1  29
BRANCH   3  32
HETATM   32  C6  UNL     1       2.916 -20.987  14.999  1.00  0.00     0.413 C 
HETATM   33  F1  UNL     1       3.722 -19.850  14.978  1.00  0.00    -0.168 F 
HETATM   34  F2  UNL     1       1.633 -20.565  15.252  1.00  0.00    -0.168 F 
HETATM   35  F3  UNL     1       3.391 -21.915  15.873  1.00  0.00    -0.168 F 
ENDBRANCH   3  32
TORSDOF 9
ENDMDL
MODEL 5
REMARK VINA RESULT: -3.669045014      0.857      1.152
REMARK  9 active torsions:
REMARK  status: ('A' for Active; 'I' for Inactive)
REMARK    1  A    between atoms: C2_2  and  C4_4 
REMARK    2  A    between atoms: C5_6  and  C6_7 
REMARK    3  A    between atoms: C15_19  and  O2_20 
REMARK    4  A    between atoms: C16_22  and  O3_23 
REMARK    5  A    between atoms: C16_22  and  C17_25 
REMARK    6  A    between atoms: C17_25  and  O4_26 
REMARK    7  A    between atoms: C18_28  and  O5_29 
REMARK    8  A    between atoms: C20_31  and  C21_32 
REMARK    9  A    between atoms: C21_32  and  O7_34 
ROOT
HETATM    1  C4  UNL     1       4.193 -22.364   9.523  1.00  0.00     0.172 C 
HETATM    2  O1  UNL     1       4.141 -21.044   9.077  1.00  0.00    -0.366 OA
HETATM    3  C5  UNL     1       3.591 -20.061   9.715  1.00  0.00     0.230 C 
HETATM    4  C7  UNL     1       2.107 -20.354   9.697  1.00  0.00     0.051 C 
HETATM    5  C8  UNL     1       1.956 -21.657  10.445  1.00  0.00    -0.019 C 
HETATM    6  C9  UNL     1       1.898 -21.128  11.818  1.00  0.00     0.016 C 
HETATM    7  C10 UNL     1       0.537 -22.126  10.228  1.00  0.00     0.011 C 
HETATM    8  C11 UNL     1       0.339 -23.143  11.309  1.00  0.00     0.013 C 
HETATM    9  C12 UNL     1       1.318 -24.246  11.363  1.00  0.00    -0.006 C 
HETATM   10  C13 UNL     1       0.533 -25.458  10.887  1.00  0.00     0.018 C 
HETATM   11  C14 UNL     1       1.482 -24.607  12.866  1.00  0.00     0.047 C 
HETATM   12  C15 UNL     1       2.917 -24.770  13.142  1.00  0.00     0.158 C 
HETATM   13  C16 UNL     1       3.663 -24.103  11.974  1.00  0.00     0.138 C 
HETATM   14  C18 UNL     1       2.725 -24.060  10.830  1.00  0.00     0.123 C 
HETATM   15  C20 UNL     1       2.839 -22.767   9.971  1.00  0.00     0.120 C 
ENDROOT
BRANCH  13  16
HETATM   16  O3  UNL     1       4.099 -22.895  12.489  1.00  0.00    -0.382 OA
ATOM     17  H3  UNL     1       4.545 -22.475  11.763  1.00  0.00     0.211 HD
ENDBRANCH  13  16
BRANCH  13  18
HETATM   18  C17 UNL     1       4.959 -24.849  11.941  1.00  0.00     0.207 C 
BRANCH  18  19
HETATM   19  O4  UNL     1       5.022 -25.658  13.137  1.00  0.00    -0.398 OA
ATOM     20  H4  UNL     1       4.567 -26.472  12.954  1.00  0.00     0.209 HD
ENDBRANCH  18  19
ENDBRANCH  13  18
BRANCH  12  21
HETATM   21  O2  UNL     1       3.327 -24.250  14.369  1.00  0.00    -0.392 OA
ATOM     22  H2  UNL     1       3.363 -24.889  15.071  1.00  0.00     0.210 HD
ENDBRANCH  12  21
BRANCH  14  23
HETATM   23  O5  UNL     1       3.080 -25.041   9.969  1.00  0.00    -0.379 OA
HETATM   24  C19 UNL     1       4.083 -25.857   9.903  1.00  0.00     0.202 C 
ENDBRANCH  14  23
BRANCH  15  25
HETATM   25  C21 UNL     1       2.278 -23.106   8.614  1.00  0.00     0.274 C 
HETATM   26  O6  UNL     1       1.777 -22.233   7.848  1.00  0.00    -0.264 OA
BRANCH  25  27
HETATM   27  O7  UNL     1       2.198 -24.302   7.977  1.00  0.00    -0.326 OA
HETATM   28  C22 UNL     1       2.295 -24.486   6.590  1.00  0.00     0.213 C 
ENDBRANCH  25  27
ENDBRANCH  15  25
BRANCH   1  29
HETATM   29  C2  UNL     1       4.871 -22.971   8.350  1.00  0.00    -0.063 C 
HETATM   30  C1  UNL     1       4.984 -22.295   7.171  1.00  0.00     0.016 C 
HETATM   31  C3  UNL     1       5.503 -24.264   8.156  1.00  0.00     0.045 C 
ENDBRANCH   1  29
BRANCH   3  32
HETATM   32  C6  UNL     1       3.884 -18.719   9.053  1.00  0.00     0.413 C 
HETATM   33  F1  UNL     1       5.271 -18.592   9.076  1.00  0.00    -0.168 F 
HETATM   34  F2  UNL     1       3.512 -18.824   7.735  1.00  0.00    -0.168 F 
HETATM   35  F3  UNL     1       3.283 -17.706   9.734  1.00  0.00    -0.168 F 
ENDBRANCH   3  32
TORSDOF 9
ENDMDL
