MODEL 1
REMARK VINA RESULT: -5.593394044      0.000      0.000
REMARK  7 active torsions:
REMARK  status: ('A' for Active; 'I' for Inactive)
REMARK    1  A    between atoms: O1_2  and  C2_3 
REMARK    2  A    between atoms: C2_3  and  C3_4 
REMARK    3  A    between atoms: C3_4  and  C5_6 
REMARK    4  A    between atoms: C8_9  and  C10_11 
REMARK    5  A    between atoms: C10_11  and  C12_13 
REMARK    6  A    between atoms: C15_16  and  O2_17 
REMARK    7  A    between atoms: C16_19  and  O3_20 
ROOT
HETATM    1  C5  UNL     1      46.775 -83.798 -39.689  1.00  0.00     0.192 C 
HETATM    2  C6  UNL     1      47.102 -83.980 -41.178  1.00  0.00     0.036 C 
HETATM    3  C7  UNL     1      47.206 -82.491 -41.548  1.00  0.00     0.041 C 
HETATM    4  C8  UNL     1      48.020 -81.964 -40.391  1.00  0.00     0.126 C 
HETATM    5  C9  UNL     1      49.491 -82.193 -40.772  1.00  0.00     0.046 C 
HETATM    6  N1  UNL     1      47.754 -82.822 -39.282  1.00  0.00    -0.062 N 
ATOM      7  H11 UNL     1      48.600 -83.249 -38.903  1.00  0.00     0.278 HD
ATOM      8  H12 UNL     1      47.473 -82.308 -38.447  1.00  0.00     0.278 HD
ENDROOT
BRANCH   4   9
HETATM    9  C10 UNL     1      47.762 -80.510 -40.224  1.00  0.00     0.021 C 
HETATM   10  C11 UNL     1      46.787 -79.950 -41.227  1.00  0.00     0.013 C 
BRANCH   9  11
HETATM   11  C12 UNL     1      47.451 -80.012 -38.870  1.00  0.00    -0.006 C 
HETATM   12  C13 UNL     1      45.984 -79.872 -38.536  1.00  0.00     0.007 C 
HETATM   13  C14 UNL     1      45.848 -79.424 -37.096  1.00  0.00     0.035 C 
HETATM   14  C15 UNL     1      46.656 -78.228 -36.734  1.00  0.00     0.147 C 
HETATM   15  C16 UNL     1      48.096 -78.302 -37.202  1.00  0.00     0.147 C 
HETATM   16  C17 UNL     1      48.035 -78.619 -38.690  1.00  0.00     0.039 C 
BRANCH  14  17
HETATM   17  O2  UNL     1      46.690 -78.130 -35.346  1.00  0.00    -0.393 OA
ATOM     18  H2  UNL     1      46.087 -77.445 -35.082  1.00  0.00     0.210 HD
ENDBRANCH  14  17
BRANCH  15  19
HETATM   19  O3  UNL     1      48.638 -77.028 -37.067  1.00  0.00    -0.393 OA
ATOM     20  H3  UNL     1      48.206 -76.617 -36.326  1.00  0.00     0.210 HD
ENDBRANCH  15  19
ENDBRANCH   9  11
ENDBRANCH   4   9
BRANCH   1  21
HETATM   21  C3  UNL     1      46.813 -85.094 -38.981  1.00  0.00     0.036 C 
HETATM   22  C4  UNL     1      48.190 -85.376 -38.421  1.00  0.00     0.014 C 
BRANCH  21  23
HETATM   23  C2  UNL     1      45.798 -85.267 -37.906  1.00  0.00     0.173 C 
BRANCH  23  24
HETATM   24  O1  UNL     1      44.836 -86.224 -38.259  1.00  0.00    -0.396 OA
HETATM   25  C1  UNL     1      44.989 -87.301 -37.383  1.00  0.00     0.201 C 
ENDBRANCH  23  24
ENDBRANCH  21  23
ENDBRANCH   1  21
TORSDOF 7
ENDMDL
MODEL 2
REMARK VINA RESULT: -5.567460100      2.776      6.557
REMARK  7 active torsions:
REMARK  status: ('A' for Active; 'I' for Inactive)
REMARK    1  A    between atoms: O1_2  and  C2_3 
REMARK    2  A    between atoms: C2_3  and  C3_4 
REMARK    3  A    between atoms: C3_4  and  C5_6 
REMARK    4  A    between atoms: C8_9  and  C10_11 
REMARK    5  A    between atoms: C10_11  and  C12_13 
REMARK    6  A    between atoms: C15_16  and  O2_17 
REMARK    7  A    between atoms: C16_19  and  O3_20 
ROOT
HETATM    1  C5  UNL     1      49.720 -78.779 -37.138  1.00  0.00     0.192 C 
HETATM    2  C6  UNL     1      49.016 -77.490 -37.583  1.00  0.00     0.036 C 
HETATM    3  C7  UNL     1      47.759 -78.139 -38.185  1.00  0.00     0.041 C 
HETATM    4  C8  UNL     1      47.426 -79.157 -37.121  1.00  0.00     0.126 C 
HETATM    5  C9  UNL     1      46.579 -78.415 -36.077  1.00  0.00     0.046 C 
HETATM    6  N1  UNL     1      48.655 -79.491 -36.478  1.00  0.00    -0.062 N 
ATOM      7  H11 UNL     1      48.632 -79.319 -35.472  1.00  0.00     0.278 HD
ATOM      8  H12 UNL     1      48.819 -80.498 -36.442  1.00  0.00     0.278 HD
ENDROOT
BRANCH   4   9
HETATM    9  C10 UNL     1      46.632 -80.262 -37.722  1.00  0.00     0.021 C 
HETATM   10  C11 UNL     1      46.472 -80.146 -39.216  1.00  0.00     0.013 C 
BRANCH   9  11
HETATM   11  C12 UNL     1      46.976 -81.647 -37.346  1.00  0.00    -0.006 C 
HETATM   12  C13 UNL     1      46.863 -82.679 -38.444  1.00  0.00     0.007 C 
HETATM   13  C14 UNL     1      47.320 -84.019 -37.906  1.00  0.00     0.035 C 
HETATM   14  C15 UNL     1      46.674 -84.435 -36.632  1.00  0.00     0.147 C 
HETATM   15  C16 UNL     1      46.650 -83.346 -35.577  1.00  0.00     0.147 C 
HETATM   16  C17 UNL     1      46.036 -82.127 -36.250  1.00  0.00     0.039 C 
BRANCH  14  17
HETATM   17  O2  UNL     1      47.404 -85.494 -36.100  1.00  0.00    -0.393 OA
ATOM     18  H2  UNL     1      47.126 -85.623 -35.200  1.00  0.00     0.210 HD
ENDBRANCH  14  17
BRANCH  15  19
HETATM   19  O3  UNL     1      45.775 -83.761 -34.579  1.00  0.00    -0.393 OA
ATOM     20  H3  UNL     1      46.303 -84.005 -33.827  1.00  0.00     0.210 HD
ENDBRANCH  15  19
ENDBRANCH   9  11
ENDBRANCH   4   9
BRANCH   1  21
HETATM   21  C3  UNL     1      50.908 -78.472 -36.315  1.00  0.00     0.036 C 
HETATM   22  C4  UNL     1      51.048 -76.983 -36.086  1.00  0.00     0.014 C 
BRANCH  21  23
HETATM   23  C2  UNL     1      50.982 -79.181 -35.008  1.00  0.00     0.173 C 
BRANCH  23  24
HETATM   24  O1  UNL     1      50.265 -78.498 -34.014  1.00  0.00    -0.396 OA
HETATM   25  C1  UNL     1      49.806 -79.458 -33.109  1.00  0.00     0.201 C 
ENDBRANCH  23  24
ENDBRANCH  21  23
ENDBRANCH   1  21
TORSDOF 7
ENDMDL
MODEL 3
REMARK VINA RESULT: -5.539184681      3.972      5.991
REMARK  7 active torsions:
REMARK  status: ('A' for Active; 'I' for Inactive)
REMARK    1  A    between atoms: O1_2  and  C2_3 
REMARK    2  A    between atoms: C2_3  and  C3_4 
REMARK    3  A    between atoms: C3_4  and  C5_6 
REMARK    4  A    between atoms: C8_9  and  C10_11 
REMARK    5  A    between atoms: C10_11  and  C12_13 
REMARK    6  A    between atoms: C15_16  and  O2_17 
REMARK    7  A    between atoms: C16_19  and  O3_20 
ROOT
HETATM    1  C5  UNL     1      47.234 -79.344 -39.159  1.00  0.00     0.192 C 
HETATM    2  C6  UNL     1      46.720 -80.470 -38.251  1.00  0.00     0.036 C 
HETATM    3  C7  UNL     1      47.646 -80.204 -37.052  1.00  0.00     0.041 C 
HETATM    4  C8  UNL     1      47.556 -78.701 -36.948  1.00  0.00     0.126 C 
HETATM    5  C9  UNL     1      46.314 -78.411 -36.092  1.00  0.00     0.046 C 
HETATM    6  N1  UNL     1      47.262 -78.219 -38.259  1.00  0.00    -0.062 N 
ATOM      7  H11 UNL     1      46.404 -77.668 -38.292  1.00  0.00     0.278 HD
ATOM      8  H12 UNL     1      47.906 -77.489 -38.562  1.00  0.00     0.278 HD
ENDROOT
BRANCH   4   9
HETATM    9  C10 UNL     1      48.770 -78.176 -36.269  1.00  0.00     0.021 C 
HETATM   10  C11 UNL     1      49.148 -78.944 -35.029  1.00  0.00     0.013 C 
BRANCH   9  11
HETATM   11  C12 UNL     1      49.965 -77.909 -37.095  1.00  0.00    -0.006 C 
HETATM   12  C13 UNL     1      51.117 -78.870 -36.922  1.00  0.00     0.007 C 
HETATM   13  C14 UNL     1      52.220 -78.493 -37.889  1.00  0.00     0.035 C 
HETATM   14  C15 UNL     1      52.627 -77.063 -37.847  1.00  0.00     0.147 C 
HETATM   15  C16 UNL     1      51.460 -76.095 -37.867  1.00  0.00     0.147 C 
HETATM   16  C17 UNL     1      50.531 -76.541 -36.747  1.00  0.00     0.039 C 
BRANCH  14  17
HETATM   17  O2  UNL     1      53.391 -76.794 -38.980  1.00  0.00    -0.393 OA
ATOM     18  H2  UNL     1      53.412 -75.852 -39.107  1.00  0.00     0.210 HD
ENDBRANCH  14  17
BRANCH  15  19
HETATM   19  O3  UNL     1      51.958 -74.843 -37.527  1.00  0.00    -0.393 OA
ATOM     20  H3  UNL     1      51.813 -74.270 -38.272  1.00  0.00     0.210 HD
ENDBRANCH  15  19
ENDBRANCH   9  11
ENDBRANCH   4   9
BRANCH   1  21
HETATM   21  C3  UNL     1      46.377 -79.202 -40.354  1.00  0.00     0.036 C 
HETATM   22  C4  UNL     1      46.272 -77.756 -40.788  1.00  0.00     0.014 C 
BRANCH  21  23
HETATM   23  C2  UNL     1      46.762 -80.041 -41.521  1.00  0.00     0.173 C 
BRANCH  23  24
HETATM   24  O1  UNL     1      46.029 -79.692 -42.666  1.00  0.00    -0.396 OA
HETATM   25  C1  UNL     1      46.466 -80.523 -43.700  1.00  0.00     0.201 C 
ENDBRANCH  23  24
ENDBRANCH  21  23
ENDBRANCH   1  21
TORSDOF 7
ENDMDL
MODEL 4
REMARK VINA RESULT: -5.525783684      0.851      1.104
REMARK  7 active torsions:
REMARK  status: ('A' for Active; 'I' for Inactive)
REMARK    1  A    between atoms: O1_2  and  C2_3 
REMARK    2  A    between atoms: C2_3  and  C3_4 
REMARK    3  A    between atoms: C3_4  and  C5_6 
REMARK    4  A    between atoms: C8_9  and  C10_11 
REMARK    5  A    between atoms: C10_11  and  C12_13 
REMARK    6  A    between atoms: C15_16  and  O2_17 
REMARK    7  A    between atoms: C16_19  and  O3_20 
ROOT
HETATM    1  C5  UNL     1      46.733 -83.760 -39.783  1.00  0.00     0.192 C 
HETATM    2  C6  UNL     1      47.097 -83.921 -41.265  1.00  0.00     0.036 C 
HETATM    3  C7  UNL     1      47.214 -82.427 -41.610  1.00  0.00     0.041 C 
HETATM    4  C8  UNL     1      47.999 -81.919 -40.426  1.00  0.00     0.126 C 
HETATM    5  C9  UNL     1      49.478 -82.144 -40.772  1.00  0.00     0.046 C 
HETATM    6  N1  UNL     1      47.703 -82.793 -39.337  1.00  0.00    -0.062 N 
ATOM      7  H11 UNL     1      48.538 -83.227 -38.943  1.00  0.00     0.278 HD
ATOM      8  H12 UNL     1      47.401 -82.291 -38.501  1.00  0.00     0.278 HD
ENDROOT
BRANCH   4   9
HETATM    9  C10 UNL     1      47.738 -80.466 -40.243  1.00  0.00     0.021 C 
HETATM   10  C11 UNL     1      46.745 -79.903 -41.226  1.00  0.00     0.013 C 
BRANCH   9  11
HETATM   11  C12 UNL     1      47.448 -79.980 -38.880  1.00  0.00    -0.006 C 
HETATM   12  C13 UNL     1      45.987 -79.856 -38.518  1.00  0.00     0.007 C 
HETATM   13  C14 UNL     1      45.875 -79.418 -37.072  1.00  0.00     0.035 C 
HETATM   14  C15 UNL     1      46.678 -78.217 -36.719  1.00  0.00     0.147 C 
HETATM   15  C16 UNL     1      48.110 -78.273 -37.215  1.00  0.00     0.147 C 
HETATM   16  C17 UNL     1      48.022 -78.582 -38.704  1.00  0.00     0.039 C 
BRANCH  14  17
HETATM   17  O2  UNL     1      46.738 -78.127 -35.331  1.00  0.00    -0.393 OA
ATOM     18  H2  UNL     1      47.410 -78.725 -35.024  1.00  0.00     0.210 HD
ENDBRANCH  14  17
BRANCH  15  19
HETATM   19  O3  UNL     1      48.641 -76.995 -37.082  1.00  0.00    -0.393 OA
ATOM     20  H3  UNL     1      49.136 -76.812 -37.873  1.00  0.00     0.210 HD
ENDBRANCH  15  19
ENDBRANCH   9  11
ENDBRANCH   4   9
BRANCH   1  21
HETATM   21  C3  UNL     1      46.751 -85.067 -39.094  1.00  0.00     0.036 C 
HETATM   22  C4  UNL     1      48.160 -85.602 -38.964  1.00  0.00     0.014 C 
BRANCH  21  23
HETATM   23  C2  UNL     1      46.087 -85.098 -37.762  1.00  0.00     0.173 C 
BRANCH  23  24
HETATM   24  O1  UNL     1      45.970 -83.810 -37.219  1.00  0.00    -0.396 OA
HETATM   25  C1  UNL     1      46.653 -83.816 -36.001  1.00  0.00     0.201 C 
ENDBRANCH  23  24
ENDBRANCH  21  23
ENDBRANCH   1  21
TORSDOF 7
ENDMDL
MODEL 5
REMARK VINA RESULT: -5.512386775      2.897      4.675
REMARK  7 active torsions:
REMARK  status: ('A' for Active; 'I' for Inactive)
REMARK    1  A    between atoms: O1_2  and  C2_3 
REMARK    2  A    between atoms: C2_3  and  C3_4 
REMARK    3  A    between atoms: C3_4  and  C5_6 
REMARK    4  A    between atoms: C8_9  and  C10_11 
REMARK    5  A    between atoms: C10_11  and  C12_13 
REMARK    6  A    between atoms: C15_16  and  O2_17 
REMARK    7  A    between atoms: C16_19  and  O3_20 
ROOT
HETATM    1  C5  UNL     1      47.798 -81.772 -36.530  1.00  0.00     0.192 C 
HETATM    2  C6  UNL     1      48.050 -80.858 -35.323  1.00  0.00     0.036 C 
HETATM    3  C7  UNL     1      48.045 -79.518 -36.077  1.00  0.00     0.041 C 
HETATM    4  C8  UNL     1      46.846 -79.698 -36.975  1.00  0.00     0.126 C 
HETATM    5  C9  UNL     1      45.627 -79.269 -36.144  1.00  0.00     0.046 C 
HETATM    6  N1  UNL     1      46.709 -81.102 -37.195  1.00  0.00    -0.062 N 
ATOM      7  H11 UNL     1      45.796 -81.457 -36.909  1.00  0.00     0.278 HD
ATOM      8  H12 UNL     1      46.646 -81.341 -38.184  1.00  0.00     0.278 HD
ENDROOT
BRANCH   4   9
HETATM    9  C10 UNL     1      46.980 -78.818 -38.166  1.00  0.00     0.021 C 
HETATM   10  C11 UNL     1      48.293 -78.081 -38.227  1.00  0.00     0.013 C 
BRANCH   9  11
HETATM   11  C12 UNL     1      46.644 -79.383 -39.488  1.00  0.00    -0.006 C 
HETATM   12  C13 UNL     1      47.680 -80.295 -40.101  1.00  0.00     0.007 C 
HETATM   13  C14 UNL     1      47.143 -80.838 -41.410  1.00  0.00     0.035 C 
HETATM   14  C15 UNL     1      46.628 -79.806 -42.350  1.00  0.00     0.147 C 
HETATM   15  C16 UNL     1      45.704 -78.796 -41.700  1.00  0.00     0.147 C 
HETATM   16  C17 UNL     1      46.459 -78.256 -40.493  1.00  0.00     0.039 C 
BRANCH  14  17
HETATM   17  O2  UNL     1      45.888 -80.450 -43.338  1.00  0.00    -0.393 OA
ATOM     18  H2  UNL     1      46.488 -80.738 -44.017  1.00  0.00     0.210 HD
ENDBRANCH  14  17
BRANCH  15  19
HETATM   19  O3  UNL     1      45.544 -77.747 -42.599  1.00  0.00    -0.393 OA
ATOM     20  H3  UNL     1      44.996 -78.065 -43.307  1.00  0.00     0.210 HD
ENDBRANCH  15  19
ENDBRANCH   9  11
ENDBRANCH   4   9
BRANCH   1  21
HETATM   21  C3  UNL     1      47.540 -83.160 -36.093  1.00  0.00     0.036 C 
HETATM   22  C4  UNL     1      46.281 -83.249 -35.259  1.00  0.00     0.014 C 
BRANCH  21  23
HETATM   23  C2  UNL     1      47.485 -84.174 -37.180  1.00  0.00     0.173 C 
BRANCH  23  24
HETATM   24  O1  UNL     1      46.339 -84.011 -37.974  1.00  0.00    -0.396 OA
HETATM   25  C1  UNL     1      46.746 -84.120 -39.306  1.00  0.00     0.201 C 
ENDBRANCH  23  24
ENDBRANCH  21  23
ENDBRANCH   1  21
TORSDOF 7
ENDMDL
