MODEL 1
REMARK VINA RESULT: -5.924843457      0.000      0.000
REMARK  7 active torsions:
REMARK  status: ('A' for Active; 'I' for Inactive)
REMARK    1  A    between atoms: C2_3  and  C3_4 
REMARK    2  A    between atoms: C3_4  and  N3_9 
REMARK    3  A    between atoms: N2_5  and  O1_7 
REMARK    4  A    between atoms: N3_9  and  C4_11 
REMARK    5  A    between atoms: C4_11  and  C5_12 
REMARK    6  A    between atoms: C4_11  and  C12_19 
REMARK    7  A    between atoms: C5_12  and  C6_13 
ROOT
HETATM    1  N1  UNL     1      47.074 -85.769 -35.336  1.00  0.00    -0.196 NA
HETATM    2  C1  UNL     1      47.072 -84.775 -35.921  1.00  0.00     0.077 C 
HETATM    3  C2  UNL     1      47.060 -83.506 -36.641  1.00  0.00     0.108 C 
HETATM    4  C13 UNL     1      46.043 -83.587 -37.782  1.00  0.00     0.033 C 
HETATM    5  C14 UNL     1      46.796 -84.139 -38.967  1.00  0.00     0.002 C 
HETATM    6  C15 UNL     1      48.188 -84.468 -38.435  1.00  0.00     0.002 C 
HETATM    7  C16 UNL     1      48.341 -83.338 -37.395  1.00  0.00     0.033 C 
ENDROOT
BRANCH   3   8
HETATM    8  C3  UNL     1      46.660 -82.351 -35.817  1.00  0.00     0.121 C 
HETATM    9  N2  UNL     1      46.877 -82.314 -34.554  1.00  0.00    -0.255 N 
ATOM     10  H2  UNL     1      46.560 -81.469 -34.080  1.00  0.00     0.195 HD
BRANCH   9  11
HETATM   11  O1  UNL     1      47.463 -83.232 -33.770  1.00  0.00    -0.288 OA
ATOM     12  H1  UNL     1      47.751 -83.152 -32.868  1.00  0.00     0.244 HD
ENDBRANCH   9  11
BRANCH   8  13
HETATM   13  N3  UNL     1      46.009 -81.230 -36.388  1.00  0.00    -0.364 N 
ATOM     14  H3  UNL     1      44.990 -81.181 -36.386  1.00  0.00     0.161 HD
BRANCH  13  15
HETATM   15  C4  UNL     1      46.769 -80.165 -36.968  1.00  0.00     0.172 C 
BRANCH  15  16
HETATM   16  C5  UNL     1      46.223 -79.744 -38.319  1.00  0.00     0.039 C 
BRANCH  16  17
HETATM   17  C6  UNL     1      47.268 -79.144 -39.202  1.00  0.00    -0.012 C 
HETATM   18  C7  UNL     1      48.129 -80.264 -39.737  1.00  0.00     0.005 C 
HETATM   19  C8  UNL     1      47.407 -81.078 -40.786  1.00  0.00     0.000 C 
HETATM   20  C9  UNL     1      46.801 -80.220 -41.859  1.00  0.00     0.000 C 
HETATM   21  C10 UNL     1      45.900 -79.160 -41.293  1.00  0.00     0.000 C 
HETATM   22  C11 UNL     1      46.703 -78.325 -40.326  1.00  0.00     0.005 C 
ENDBRANCH  16  17
ENDBRANCH  15  16
BRANCH  15  23
HETATM   23  C12 UNL     1      46.675 -78.968 -36.092  1.00  0.00     0.253 C 
HETATM   24  N4  UNL     1      45.402 -78.382 -35.769  1.00  0.00    -0.060 NA
HETATM   25  O2  UNL     1      47.687 -78.414 -35.596  1.00  0.00    -0.275 OA
ENDBRANCH  15  23
ENDBRANCH  13  15
ENDBRANCH   8  13
ENDBRANCH   3   8
TORSDOF 7
ENDMDL
MODEL 2
REMARK VINA RESULT: -5.861155061      2.520      4.594
REMARK  7 active torsions:
REMARK  status: ('A' for Active; 'I' for Inactive)
REMARK    1  A    between atoms: C2_3  and  C3_4 
REMARK    2  A    between atoms: C3_4  and  N3_9 
REMARK    3  A    between atoms: N2_5  and  O1_7 
REMARK    4  A    between atoms: N3_9  and  C4_11 
REMARK    5  A    between atoms: C4_11  and  C5_12 
REMARK    6  A    between atoms: C4_11  and  C12_19 
REMARK    7  A    between atoms: C5_12  and  C6_13 
ROOT
HETATM    1  N1  UNL     1      50.246 -78.583 -34.076  1.00  0.00    -0.196 NA
HETATM    2  C1  UNL     1      49.808 -78.637 -35.142  1.00  0.00     0.077 C 
HETATM    3  C2  UNL     1      49.237 -78.721 -36.481  1.00  0.00     0.108 C 
HETATM    4  C13 UNL     1      50.242 -79.403 -37.413  1.00  0.00     0.033 C 
HETATM    5  C14 UNL     1      51.112 -78.299 -37.961  1.00  0.00     0.002 C 
HETATM    6  C15 UNL     1      50.655 -77.036 -37.235  1.00  0.00     0.002 C 
HETATM    7  C16 UNL     1      49.152 -77.355 -37.083  1.00  0.00     0.033 C 
ENDROOT
BRANCH   3   8
HETATM    8  C3  UNL     1      48.000 -79.520 -36.558  1.00  0.00     0.121 C 
HETATM    9  N2  UNL     1      46.906 -79.124 -36.021  1.00  0.00    -0.255 N 
ATOM     10  H2  UNL     1      46.111 -79.752 -36.133  1.00  0.00     0.195 HD
BRANCH   9  11
HETATM   11  O1  UNL     1      46.661 -77.999 -35.333  1.00  0.00    -0.288 OA
ATOM     12  H1  UNL     1      46.494 -77.122 -35.659  1.00  0.00     0.244 HD
ENDBRANCH   9  11
BRANCH   8  13
HETATM   13  N3  UNL     1      47.971 -80.768 -37.227  1.00  0.00    -0.364 N 
ATOM     14  H3  UNL     1      48.813 -81.343 -37.263  1.00  0.00     0.161 HD
BRANCH  13  15
HETATM   15  C4  UNL     1      46.769 -81.231 -37.851  1.00  0.00     0.172 C 
BRANCH  15  16
HETATM   16  C5  UNL     1      47.005 -81.677 -39.282  1.00  0.00     0.039 C 
BRANCH  16  17
HETATM   17  C6  UNL     1      47.894 -80.744 -40.038  1.00  0.00    -0.012 C 
HETATM   18  C7  UNL     1      48.184 -81.362 -41.385  1.00  0.00     0.005 C 
HETATM   19  C8  UNL     1      46.984 -81.304 -42.303  1.00  0.00     0.000 C 
HETATM   20  C9  UNL     1      46.397 -79.924 -42.389  1.00  0.00     0.000 C 
HETATM   21  C10 UNL     1      46.060 -79.369 -41.035  1.00  0.00     0.000 C 
HETATM   22  C11 UNL     1      47.317 -79.367 -40.199  1.00  0.00     0.005 C 
ENDBRANCH  16  17
ENDBRANCH  15  16
BRANCH  15  23
HETATM   23  C12 UNL     1      46.270 -82.425 -37.122  1.00  0.00     0.253 C 
HETATM   24  N4  UNL     1      45.830 -82.332 -35.757  1.00  0.00    -0.060 NA
HETATM   25  O2  UNL     1      46.207 -83.562 -37.652  1.00  0.00    -0.275 OA
ENDBRANCH  15  23
ENDBRANCH  13  15
ENDBRANCH   8  13
ENDBRANCH   3   8
TORSDOF 7
ENDMDL
MODEL 3
REMARK VINA RESULT: -5.679815826      3.091      4.870
REMARK  7 active torsions:
REMARK  status: ('A' for Active; 'I' for Inactive)
REMARK    1  A    between atoms: C2_3  and  C3_4 
REMARK    2  A    between atoms: C3_4  and  N3_9 
REMARK    3  A    between atoms: N2_5  and  O1_7 
REMARK    4  A    between atoms: N3_9  and  C4_11 
REMARK    5  A    between atoms: C4_11  and  C5_12 
REMARK    6  A    between atoms: C4_11  and  C12_19 
REMARK    7  A    between atoms: C5_12  and  C6_13 
ROOT
HETATM    1  N1  UNL     1      52.099 -77.577 -34.143  1.00  0.00    -0.196 NA
HETATM    2  C1  UNL     1      51.329 -77.979 -34.903  1.00  0.00     0.077 C 
HETATM    3  C2  UNL     1      50.346 -78.502 -35.844  1.00  0.00     0.108 C 
HETATM    4  C13 UNL     1      51.075 -79.227 -36.979  1.00  0.00     0.033 C 
HETATM    5  C14 UNL     1      51.367 -78.175 -38.020  1.00  0.00     0.002 C 
HETATM    6  C15 UNL     1      50.903 -76.861 -37.398  1.00  0.00     0.002 C 
HETATM    7  C16 UNL     1      49.698 -77.373 -36.581  1.00  0.00     0.033 C 
ENDROOT
BRANCH   3   8
HETATM    8  C3  UNL     1      49.417 -79.486 -35.260  1.00  0.00     0.121 C 
HETATM    9  N2  UNL     1      49.153 -79.504 -34.006  1.00  0.00    -0.255 N 
ATOM     10  H2  UNL     1      48.498 -80.226 -33.706  1.00  0.00     0.195 HD
BRANCH   9  11
HETATM   11  O1  UNL     1      49.617 -78.706 -33.032  1.00  0.00    -0.288 OA
ATOM     12  H1  UNL     1      49.864 -77.789 -33.077  1.00  0.00     0.244 HD
ENDBRANCH   9  11
BRANCH   8  13
HETATM   13  N3  UNL     1      48.779 -80.464 -36.062  1.00  0.00    -0.364 N 
ATOM     14  H3  UNL     1      49.338 -81.179 -36.528  1.00  0.00     0.161 HD
BRANCH  13  15
HETATM   15  C4  UNL     1      47.358 -80.456 -36.226  1.00  0.00     0.172 C 
BRANCH  15  16
HETATM   16  C5  UNL     1      46.950 -80.556 -37.684  1.00  0.00     0.039 C 
BRANCH  16  17
HETATM   17  C6  UNL     1      47.981 -79.999 -38.611  1.00  0.00    -0.012 C 
HETATM   18  C7  UNL     1      48.328 -81.066 -39.622  1.00  0.00     0.005 C 
HETATM   19  C8  UNL     1      47.221 -81.267 -40.632  1.00  0.00     0.000 C 
HETATM   20  C9  UNL     1      46.770 -79.975 -41.251  1.00  0.00     0.000 C 
HETATM   21  C10 UNL     1      46.371 -78.962 -40.217  1.00  0.00     0.000 C 
HETATM   22  C11 UNL     1      47.547 -78.737 -39.298  1.00  0.00     0.005 C 
ENDBRANCH  16  17
ENDBRANCH  15  16
BRANCH  15  23
HETATM   23  C12 UNL     1      46.784 -81.650 -35.553  1.00  0.00     0.253 C 
HETATM   24  N4  UNL     1      47.546 -82.399 -34.591  1.00  0.00    -0.060 NA
HETATM   25  O2  UNL     1      45.620 -82.061 -35.784  1.00  0.00    -0.275 OA
ENDBRANCH  15  23
ENDBRANCH  13  15
ENDBRANCH   8  13
ENDBRANCH   3   8
TORSDOF 7
ENDMDL
MODEL 4
REMARK VINA RESULT: -5.467945198      2.215      4.349
REMARK  7 active torsions:
REMARK  status: ('A' for Active; 'I' for Inactive)
REMARK    1  A    between atoms: C2_3  and  C3_4 
REMARK    2  A    between atoms: C3_4  and  N3_9 
REMARK    3  A    between atoms: N2_5  and  O1_7 
REMARK    4  A    between atoms: N3_9  and  C4_11 
REMARK    5  A    between atoms: C4_11  and  C5_12 
REMARK    6  A    between atoms: C4_11  and  C12_19 
REMARK    7  A    between atoms: C5_12  and  C6_13 
ROOT
HETATM    1  N1  UNL     1      48.625 -80.594 -34.570  1.00  0.00    -0.196 NA
HETATM    2  C1  UNL     1      47.812 -80.781 -35.368  1.00  0.00     0.077 C 
HETATM    3  C2  UNL     1      46.794 -81.042 -36.378  1.00  0.00     0.108 C 
HETATM    4  C13 UNL     1      47.098 -80.207 -37.625  1.00  0.00     0.033 C 
HETATM    5  C14 UNL     1      46.408 -78.882 -37.413  1.00  0.00     0.002 C 
HETATM    6  C15 UNL     1      45.831 -78.956 -36.002  1.00  0.00     0.002 C 
HETATM    7  C16 UNL     1      45.487 -80.460 -35.943  1.00  0.00     0.033 C 
ENDROOT
BRANCH   3   8
HETATM    8  C3  UNL     1      46.738 -82.444 -36.829  1.00  0.00     0.121 C 
HETATM    9  N2  UNL     1      46.162 -83.354 -36.135  1.00  0.00    -0.255 N 
ATOM     10  H2  UNL     1      46.181 -84.291 -36.538  1.00  0.00     0.195 HD
BRANCH   9  11
HETATM   11  O1  UNL     1      45.536 -83.247 -34.952  1.00  0.00    -0.288 OA
ATOM     12  H1  UNL     1      44.699 -82.845 -34.753  1.00  0.00     0.244 HD
ENDBRANCH   9  11
BRANCH   8  13
HETATM   13  N3  UNL     1      47.329 -82.848 -38.051  1.00  0.00    -0.364 N 
ATOM     14  H3  UNL     1      48.334 -82.737 -38.189  1.00  0.00     0.161 HD
BRANCH  13  15
HETATM   15  C4  UNL     1      46.528 -83.413 -39.095  1.00  0.00     0.172 C 
BRANCH  15  16
HETATM   16  C5  UNL     1      47.123 -83.165 -40.468  1.00  0.00     0.039 C 
BRANCH  16  17
HETATM   17  C6  UNL     1      47.842 -81.859 -40.559  1.00  0.00    -0.012 C 
HETATM   18  C7  UNL     1      49.172 -82.102 -41.231  1.00  0.00     0.005 C 
HETATM   19  C8  UNL     1      49.017 -82.362 -42.712  1.00  0.00     0.000 C 
HETATM   20  C9  UNL     1      48.182 -81.315 -43.392  1.00  0.00     0.000 C 
HETATM   21  C10 UNL     1      46.841 -81.148 -42.736  1.00  0.00     0.000 C 
HETATM   22  C11 UNL     1      47.066 -80.799 -41.285  1.00  0.00     0.005 C 
ENDBRANCH  16  17
ENDBRANCH  15  16
BRANCH  15  23
HETATM   23  C12 UNL     1      46.477 -84.888 -38.925  1.00  0.00     0.253 C 
HETATM   24  N4  UNL     1      45.372 -85.522 -38.258  1.00  0.00    -0.060 NA
HETATM   25  O2  UNL     1      47.382 -85.648 -39.350  1.00  0.00    -0.275 OA
ENDBRANCH  15  23
ENDBRANCH  13  15
ENDBRANCH   8  13
ENDBRANCH   3   8
TORSDOF 7
ENDMDL
MODEL 5
REMARK VINA RESULT: -5.465041987      2.830      4.144
REMARK  7 active torsions:
REMARK  status: ('A' for Active; 'I' for Inactive)
REMARK    1  A    between atoms: C2_3  and  C3_4 
REMARK    2  A    between atoms: C3_4  and  N3_9 
REMARK    3  A    between atoms: N2_5  and  O1_7 
REMARK    4  A    between atoms: N3_9  and  C4_11 
REMARK    5  A    between atoms: C4_11  and  C5_12 
REMARK    6  A    between atoms: C4_11  and  C12_19 
REMARK    7  A    between atoms: C5_12  and  C6_13 
ROOT
HETATM    1  N1  UNL     1      47.014 -86.397 -36.101  1.00  0.00    -0.196 NA
HETATM    2  C1  UNL     1      47.013 -85.315 -36.503  1.00  0.00     0.077 C 
HETATM    3  C2  UNL     1      47.011 -83.957 -37.034  1.00  0.00     0.108 C 
HETATM    4  C13 UNL     1      48.337 -83.278 -36.680  1.00  0.00     0.033 C 
HETATM    5  C14 UNL     1      48.128 -82.644 -35.327  1.00  0.00     0.002 C 
HETATM    6  C15 UNL     1      46.730 -83.079 -34.896  1.00  0.00     0.002 C 
HETATM    7  C16 UNL     1      46.035 -83.116 -36.274  1.00  0.00     0.033 C 
ENDROOT
BRANCH   3   8
HETATM    8  C3  UNL     1      46.893 -83.885 -38.501  1.00  0.00     0.121 C 
HETATM    9  N2  UNL     1      46.087 -84.639 -39.152  1.00  0.00    -0.255 N 
ATOM     10  H2  UNL     1      46.085 -84.508 -40.164  1.00  0.00     0.195 HD
BRANCH   9  11
HETATM   11  O1  UNL     1      45.245 -85.575 -38.689  1.00  0.00    -0.288 OA
ATOM     12  H1  UNL     1      44.733 -86.213 -39.174  1.00  0.00     0.244 HD
ENDBRANCH   9  11
BRANCH   8  13
HETATM   13  N3  UNL     1      47.676 -82.979 -39.259  1.00  0.00    -0.364 N 
ATOM     14  H3  UNL     1      48.676 -83.148 -39.375  1.00  0.00     0.161 HD
BRANCH  13  15
HETATM   15  C4  UNL     1      47.077 -81.829 -39.864  1.00  0.00     0.172 C 
BRANCH  15  16
HETATM   16  C5  UNL     1      47.786 -80.545 -39.475  1.00  0.00     0.039 C 
BRANCH  16  17
HETATM   17  C6  UNL     1      46.840 -79.418 -39.219  1.00  0.00    -0.012 C 
HETATM   18  C7  UNL     1      46.046 -79.746 -37.976  1.00  0.00     0.005 C 
HETATM   19  C8  UNL     1      46.880 -79.613 -36.722  1.00  0.00     0.000 C 
HETATM   20  C9  UNL     1      47.595 -78.294 -36.649  1.00  0.00     0.000 C 
HETATM   21  C10 UNL     1      48.426 -78.033 -37.872  1.00  0.00     0.000 C 
HETATM   22  C11 UNL     1      47.519 -78.087 -39.078  1.00  0.00     0.005 C 
ENDBRANCH  16  17
ENDBRANCH  15  16
BRANCH  15  23
HETATM   23  C12 UNL     1      47.196 -81.937 -41.341  1.00  0.00     0.253 C 
HETATM   24  N4  UNL     1      46.560 -83.006 -42.061  1.00  0.00    -0.060 NA
HETATM   25  O2  UNL     1      47.849 -81.113 -42.027  1.00  0.00    -0.275 OA
ENDBRANCH  15  23
ENDBRANCH  13  15
ENDBRANCH   8  13
ENDBRANCH   3   8
TORSDOF 7
ENDMDL
