MODEL 1
REMARK VINA RESULT: -5.858666909      0.000      0.000
REMARK  5 active torsions:
REMARK  status: ('A' for Active; 'I' for Inactive)
REMARK    1  A    between atoms: C2_2  and  C3_3 
REMARK    2  A    between atoms: C3_3  and  N1_4 
REMARK    3  A    between atoms: C3_3  and  C11_19 
REMARK    4  A    between atoms: N1_4  and  C4_6 
REMARK    5  A    between atoms: C9_14  and  N3_15 
ROOT
HETATM    1  C4  UNL     1      47.336 -81.248 -39.009  1.00  0.00     0.108 C 
HETATM    2  C5  UNL     1      48.463 -82.198 -38.552  1.00  0.00     0.257 C 
HETATM    3  N2  UNL     1      48.942 -81.840 -37.241  1.00  0.00    -0.069 N 
ATOM      4  H21 UNL     1      49.430 -80.945 -37.273  1.00  0.00     0.277 HD
ATOM      5  H22 UNL     1      49.713 -82.448 -36.966  1.00  0.00     0.277 HD
HETATM    6  C6  UNL     1      47.930 -81.823 -36.225  1.00  0.00     0.188 C 
HETATM    7  C7  UNL     1      46.556 -82.053 -36.873  1.00  0.00     0.042 C 
HETATM    8  C8  UNL     1      46.542 -80.828 -37.813  1.00  0.00     0.041 C 
HETATM    9  C9  UNL     1      47.097 -79.757 -36.956  1.00  0.00     0.164 C 
HETATM   10  C10 UNL     1      47.774 -80.391 -35.759  1.00  0.00     0.065 C 
ENDROOT
BRANCH   1  11
HETATM   11  N1  UNL     1      47.885 -80.308 -39.872  1.00  0.00    -0.411 N 
ATOM     12  H1  UNL     1      48.678 -79.750 -39.554  1.00  0.00     0.154 HD
BRANCH  11  13
HETATM   13  C3  UNL     1      47.379 -80.099 -41.181  1.00  0.00     0.080 C 
BRANCH  13  14
HETATM   14  C2  UNL     1      46.043 -79.332 -41.111  1.00  0.00     0.021 C 
HETATM   15  C1  UNL     1      46.433 -77.968 -40.516  1.00  0.00     0.007 C 
ENDBRANCH  13  14
BRANCH  13  16
HETATM   16  C11 UNL     1      47.216 -81.345 -42.010  1.00  0.00     0.008 C 
HETATM   17  C12 UNL     1      48.509 -81.943 -42.374  1.00  0.00     0.007 C 
HETATM   18  C13 UNL     1      48.949 -81.851 -43.786  1.00  0.00     0.000 C 
HETATM   19  C14 UNL     1      48.074 -81.180 -44.769  1.00  0.00     0.000 C 
HETATM   20  C15 UNL     1      47.010 -80.274 -44.178  1.00  0.00     0.000 C 
HETATM   21  C16 UNL     1      46.288 -81.121 -43.180  1.00  0.00     0.007 C 
ENDBRANCH  13  16
ENDBRANCH  11  13
ENDBRANCH   1  11
BRANCH   9  22
HETATM   22  N3  UNL     1      45.947 -78.964 -36.479  1.00  0.00    -0.150 N 
HETATM   23  O1  UNL     1      44.801 -79.097 -36.948  1.00  0.00    -0.536 OA
HETATM   24  O2  UNL     1      46.126 -78.048 -35.475  1.00  0.00    -0.536 OA
ENDBRANCH   9  22
TORSDOF 5
ENDMDL
MODEL 2
REMARK VINA RESULT: -5.745568962      1.540      2.833
REMARK  5 active torsions:
REMARK  status: ('A' for Active; 'I' for Inactive)
REMARK    1  A    between atoms: C2_2  and  C3_3 
REMARK    2  A    between atoms: C3_3  and  N1_4 
REMARK    3  A    between atoms: C3_3  and  C11_19 
REMARK    4  A    between atoms: N1_4  and  C4_6 
REMARK    5  A    between atoms: C9_14  and  N3_15 
ROOT
HETATM    1  C4  UNL     1      46.736 -82.626 -37.845  1.00  0.00     0.108 C 
HETATM    2  C5  UNL     1      47.379 -83.762 -37.022  1.00  0.00     0.257 C 
HETATM    3  N2  UNL     1      48.084 -83.240 -35.879  1.00  0.00    -0.069 N 
ATOM      4  H21 UNL     1      48.905 -82.714 -36.178  1.00  0.00     0.277 HD
ATOM      5  H22 UNL     1      48.537 -83.995 -35.366  1.00  0.00     0.277 HD
HETATM    6  C6  UNL     1      47.275 -82.449 -34.997  1.00  0.00     0.188 C 
HETATM    7  C7  UNL     1      45.885 -82.255 -35.619  1.00  0.00     0.042 C 
HETATM    8  C8  UNL     1      46.315 -81.534 -36.915  1.00  0.00     0.041 C 
HETATM    9  C9  UNL     1      47.354 -80.596 -36.433  1.00  0.00     0.164 C 
HETATM   10  C10 UNL     1      47.797 -81.028 -35.051  1.00  0.00     0.065 C 
ENDROOT
BRANCH   1  11
HETATM   11  N1  UNL     1      47.556 -82.364 -38.936  1.00  0.00    -0.411 N 
ATOM     12  H1  UNL     1      48.564 -82.474 -38.833  1.00  0.00     0.154 HD
BRANCH  11  13
HETATM   13  C3  UNL     1      47.035 -81.947 -40.188  1.00  0.00     0.080 C 
BRANCH  13  14
HETATM   14  C2  UNL     1      47.111 -83.108 -41.201  1.00  0.00     0.021 C 
HETATM   15  C1  UNL     1      48.471 -83.765 -40.907  1.00  0.00     0.007 C 
ENDBRANCH  13  14
BRANCH  13  16
HETATM   16  C11 UNL     1      47.674 -80.714 -40.768  1.00  0.00     0.008 C 
HETATM   17  C12 UNL     1      47.458 -79.528 -39.926  1.00  0.00     0.007 C 
HETATM   18  C13 UNL     1      46.531 -78.481 -40.418  1.00  0.00     0.000 C 
HETATM   19  C14 UNL     1      45.876 -78.660 -41.730  1.00  0.00     0.000 C 
HETATM   20  C15 UNL     1      45.872 -80.080 -42.264  1.00  0.00     0.000 C 
HETATM   21  C16 UNL     1      47.300 -80.519 -42.218  1.00  0.00     0.007 C 
ENDBRANCH  13  16
ENDBRANCH  11  13
ENDBRANCH   1  11
BRANCH   9  22
HETATM   22  N3  UNL     1      46.708 -79.273 -36.326  1.00  0.00    -0.150 N 
HETATM   23  O1  UNL     1      47.205 -78.336 -35.674  1.00  0.00    -0.536 OA
HETATM   24  O2  UNL     1      45.519 -79.047 -36.969  1.00  0.00    -0.536 OA
ENDBRANCH   9  22
TORSDOF 5
ENDMDL
MODEL 3
REMARK VINA RESULT: -5.555542188      6.751      9.234
REMARK  5 active torsions:
REMARK  status: ('A' for Active; 'I' for Inactive)
REMARK    1  A    between atoms: C2_2  and  C3_3 
REMARK    2  A    between atoms: C3_3  and  N1_4 
REMARK    3  A    between atoms: C3_3  and  C11_19 
REMARK    4  A    between atoms: N1_4  and  C4_6 
REMARK    5  A    between atoms: C9_14  and  N3_15 
ROOT
HETATM    1  C4  UNL     1      49.493 -76.870 -46.990  1.00  0.00     0.108 C 
HETATM    2  C5  UNL     1      50.094 -76.028 -48.135  1.00  0.00     0.257 C 
HETATM    3  N2  UNL     1      49.072 -75.607 -49.059  1.00  0.00    -0.069 N 
ATOM      4  H21 UNL     1      48.700 -76.409 -49.569  1.00  0.00     0.277 HD
ATOM      5  H22 UNL     1      49.485 -75.086 -49.832  1.00  0.00     0.277 HD
HETATM    6  C6  UNL     1      48.007 -74.856 -48.461  1.00  0.00     0.188 C 
HETATM    7  C7  UNL     1      48.189 -74.842 -46.936  1.00  0.00     0.042 C 
HETATM    8  C8  UNL     1      48.119 -76.365 -46.687  1.00  0.00     0.041 C 
HETATM    9  C9  UNL     1      47.015 -76.788 -47.577  1.00  0.00     0.164 C 
HETATM   10  C10 UNL     1      46.744 -75.683 -48.577  1.00  0.00     0.065 C 
ENDROOT
BRANCH   1  11
HETATM   11  N1  UNL     1      49.718 -78.212 -47.274  1.00  0.00    -0.411 N 
ATOM     12  H1  UNL     1      49.870 -78.491 -48.243  1.00  0.00     0.154 HD
BRANCH  11  13
HETATM   13  C3  UNL     1      49.744 -79.204 -46.261  1.00  0.00     0.080 C 
BRANCH  13  14
HETATM   14  C2  UNL     1      51.186 -79.396 -45.751  1.00  0.00     0.021 C 
HETATM   15  C1  UNL     1      51.990 -79.709 -47.025  1.00  0.00     0.007 C 
ENDBRANCH  13  14
BRANCH  13  16
HETATM   16  C11 UNL     1      49.153 -80.533 -46.652  1.00  0.00     0.008 C 
HETATM   17  C12 UNL     1      48.043 -80.388 -47.604  1.00  0.00     0.007 C 
HETATM   18  C13 UNL     1      46.668 -80.659 -47.122  1.00  0.00     0.000 C 
HETATM   19  C14 UNL     1      46.468 -81.075 -45.718  1.00  0.00     0.000 C 
HETATM   20  C15 UNL     1      47.624 -80.777 -44.784  1.00  0.00     0.000 C 
HETATM   21  C16 UNL     1      48.824 -81.376 -45.443  1.00  0.00     0.007 C 
ENDBRANCH  13  16
ENDBRANCH  11  13
ENDBRANCH   1  11
BRANCH   9  22
HETATM   22  N3  UNL     1      45.823 -76.947 -46.719  1.00  0.00    -0.150 N 
HETATM   23  O1  UNL     1      44.703 -76.511 -47.043  1.00  0.00    -0.536 OA
HETATM   24  O2  UNL     1      45.934 -77.603 -45.521  1.00  0.00    -0.536 OA
ENDBRANCH   9  22
TORSDOF 5
ENDMDL
MODEL 4
REMARK VINA RESULT: -5.524144448      2.281      3.731
REMARK  5 active torsions:
REMARK  status: ('A' for Active; 'I' for Inactive)
REMARK    1  A    between atoms: C2_2  and  C3_3 
REMARK    2  A    between atoms: C3_3  and  N1_4 
REMARK    3  A    between atoms: C3_3  and  C11_19 
REMARK    4  A    between atoms: N1_4  and  C4_6 
REMARK    5  A    between atoms: C9_14  and  N3_15 
ROOT
HETATM    1  C4  UNL     1      46.658 -81.175 -37.182  1.00  0.00     0.108 C 
HETATM    2  C5  UNL     1      47.343 -80.701 -35.883  1.00  0.00     0.257 C 
HETATM    3  N2  UNL     1      48.132 -79.518 -36.116  1.00  0.00    -0.069 N 
ATOM      4  H21 UNL     1      48.937 -79.736 -36.703  1.00  0.00     0.277 HD
ATOM      5  H22 UNL     1      48.612 -79.237 -35.261  1.00  0.00     0.277 HD
HETATM    6  C6  UNL     1      47.396 -78.415 -36.663  1.00  0.00     0.188 C 
HETATM    7  C7  UNL     1      45.968 -78.871 -36.994  1.00  0.00     0.042 C 
HETATM    8  C8  UNL     1      46.315 -79.979 -38.012  1.00  0.00     0.041 C 
HETATM    9  C9  UNL     1      47.396 -79.358 -38.810  1.00  0.00     0.164 C 
HETATM   10  C10 UNL     1      47.930 -78.157 -38.057  1.00  0.00     0.065 C 
ENDROOT
BRANCH   1  11
HETATM   11  N1  UNL     1      47.402 -82.224 -37.708  1.00  0.00    -0.411 N 
ATOM     12  H1  UNL     1      48.340 -82.392 -37.345  1.00  0.00     0.154 HD
BRANCH  11  13
HETATM   13  C3  UNL     1      46.900 -83.068 -38.732  1.00  0.00     0.080 C 
BRANCH  13  14
HETATM   14  C2  UNL     1      46.102 -84.231 -38.109  1.00  0.00     0.021 C 
HETATM   15  C1  UNL     1      47.109 -84.902 -37.159  1.00  0.00     0.007 C 
ENDBRANCH  13  14
BRANCH  13  16
HETATM   16  C11 UNL     1      47.936 -83.603 -39.684  1.00  0.00     0.008 C 
HETATM   17  C12 UNL     1      48.975 -82.610 -39.990  1.00  0.00     0.007 C 
HETATM   18  C13 UNL     1      48.991 -82.009 -41.345  1.00  0.00     0.000 C 
HETATM   19  C14 UNL     1      47.978 -82.437 -42.332  1.00  0.00     0.000 C 
HETATM   20  C15 UNL     1      46.759 -83.128 -41.752  1.00  0.00     0.000 C 
HETATM   21  C16 UNL     1      47.303 -84.231 -40.903  1.00  0.00     0.007 C 
ENDBRANCH  13  16
ENDBRANCH  11  13
ENDBRANCH   1  11
BRANCH   9  22
HETATM   22  N3  UNL     1      46.775 -78.887 -40.063  1.00  0.00    -0.150 N 
HETATM   23  O1  UNL     1      46.397 -79.666 -40.958  1.00  0.00    -0.536 OA
HETATM   24  O2  UNL     1      46.591 -77.543 -40.265  1.00  0.00    -0.536 OA
ENDBRANCH   9  22
TORSDOF 5
ENDMDL
MODEL 5
REMARK VINA RESULT: -5.476152341      2.723      4.375
REMARK  5 active torsions:
REMARK  status: ('A' for Active; 'I' for Inactive)
REMARK    1  A    between atoms: C2_2  and  C3_3 
REMARK    2  A    between atoms: C3_3  and  N1_4 
REMARK    3  A    between atoms: C3_3  and  C11_19 
REMARK    4  A    between atoms: N1_4  and  C4_6 
REMARK    5  A    between atoms: C9_14  and  N3_15 
ROOT
HETATM    1  C4  UNL     1      48.367 -80.297 -35.126  1.00  0.00     0.108 C 
HETATM    2  C5  UNL     1      49.112 -81.466 -34.449  1.00  0.00     0.257 C 
HETATM    3  N2  UNL     1      50.539 -81.305 -34.560  1.00  0.00    -0.069 N 
ATOM      4  H21 UNL     1      50.835 -81.409 -35.531  1.00  0.00     0.277 HD
ATOM      5  H22 UNL     1      51.021 -82.102 -34.144  1.00  0.00     0.277 HD
HETATM    6  C6  UNL     1      51.040 -80.076 -34.013  1.00  0.00     0.188 C 
HETATM    7  C7  UNL     1      49.859 -79.192 -33.587  1.00  0.00     0.042 C 
HETATM    8  C8  UNL     1      49.175 -79.049 -34.964  1.00  0.00     0.041 C 
HETATM    9  C9  UNL     1      50.323 -78.845 -35.876  1.00  0.00     0.164 C 
HETATM   10  C10 UNL     1      51.593 -79.258 -35.161  1.00  0.00     0.065 C 
ENDROOT
BRANCH   1  11
HETATM   11  N1  UNL     1      47.944 -80.721 -36.380  1.00  0.00    -0.411 N 
ATOM     12  H1  UNL     1      48.429 -81.499 -36.826  1.00  0.00     0.154 HD
BRANCH  11  13
HETATM   13  C3  UNL     1      46.861 -80.106 -37.059  1.00  0.00     0.080 C 
BRANCH  13  14
HETATM   14  C2  UNL     1      45.707 -79.839 -36.073  1.00  0.00     0.021 C 
HETATM   15  C1  UNL     1      45.273 -78.399 -36.394  1.00  0.00     0.007 C 
ENDBRANCH  13  14
BRANCH  13  16
HETATM   16  C11 UNL     1      46.351 -80.857 -38.260  1.00  0.00     0.008 C 
HETATM   17  C12 UNL     1      47.082 -82.113 -38.482  1.00  0.00     0.007 C 
HETATM   18  C13 UNL     1      48.001 -82.191 -39.642  1.00  0.00     0.000 C 
HETATM   19  C14 UNL     1      48.136 -81.020 -40.533  1.00  0.00     0.000 C 
HETATM   20  C15 UNL     1      47.658 -79.704 -39.949  1.00  0.00     0.000 C 
HETATM   21  C16 UNL     1      46.264 -79.969 -39.479  1.00  0.00     0.007 C 
ENDBRANCH  13  16
ENDBRANCH  11  13
ENDBRANCH   1  11
BRANCH   9  22
HETATM   22  N3  UNL     1      50.388 -77.396 -36.149  1.00  0.00    -0.150 N 
HETATM   23  O1  UNL     1      51.181 -76.639 -35.559  1.00  0.00    -0.536 OA
HETATM   24  O2  UNL     1      49.557 -76.846 -37.090  1.00  0.00    -0.536 OA
ENDBRANCH   9  22
TORSDOF 5
ENDMDL
