MODEL 1
REMARK VINA RESULT: -8.299552681      0.000      0.000
REMARK  7 active torsions:
REMARK  status: ('A' for Active; 'I' for Inactive)
REMARK    1  A    between atoms: C2_2  and  C3_3 
REMARK    2  A    between atoms: C3_3  and  N1_4 
REMARK    3  A    between atoms: C3_3  and  C14_24 
REMARK    4  A    between atoms: N1_4  and  C4_6 
REMARK    5  A    between atoms: C6_12  and  N4_13 
REMARK    6  A    between atoms: N4_13  and  C7_15 
REMARK    7  A    between atoms: C7_15  and  C8_16 
ROOT
HETATM    1  C4  UNL     1      21.592  32.006 -10.172  1.00  0.00     0.134 A 
HETATM    2  C5  UNL     1      22.344  32.598 -11.166  1.00  0.00     0.156 A 
HETATM    3  N2  UNL     1      22.940  31.818 -12.080  1.00  0.00    -0.294 N 
ATOM      4  H2  UNL     1      23.494  32.261 -12.813  1.00  0.00     0.186 HD
HETATM    5  N3  UNL     1      22.842  30.500 -12.070  1.00  0.00    -0.132 N 
ATOM      6  H3  UNL     1      23.309  29.938 -12.781  1.00  0.00     0.205 HD
HETATM    7  C6  UNL     1      22.122  29.925 -11.117  1.00  0.00     0.694 A 
HETATM    8  N5  UNL     1      21.495  30.677 -10.166  1.00  0.00    -0.174 N 
ATOM      9  H5  UNL     1      20.945  30.217  -9.441  1.00  0.00     0.186 HD
ENDROOT
BRANCH   1  10
HETATM   10  N1  UNL     1      21.031  32.782  -9.309  1.00  0.00    -0.366 N 
ATOM     11  H1  UNL     1      20.145  32.474  -8.908  1.00  0.00     0.161 HD
BRANCH  10  12
HETATM   12  C3  UNL     1      21.551  34.047  -8.867  1.00  0.00     0.116 C 
BRANCH  12  13
HETATM   13  C2  UNL     1      20.436  35.064  -8.727  1.00  0.00     0.025 C 
HETATM   14  C1  UNL     1      19.330  34.571  -7.836  1.00  0.00     0.007 C 
ENDBRANCH  12  13
BRANCH  12  15
HETATM   15  C14 UNL     1      22.320  33.850  -7.618  1.00  0.00    -0.036 A 
HETATM   16  C15 UNL     1      23.085  34.885  -7.134  1.00  0.00     0.009 A 
HETATM   17  C16 UNL     1      23.828  34.760  -5.962  1.00  0.00     0.001 A 
HETATM   18  C17 UNL     1      23.795  33.561  -5.263  1.00  0.00     0.000 A 
HETATM   19  C18 UNL     1      23.031  32.530  -5.747  1.00  0.00     0.001 A 
HETATM   20  C19 UNL     1      22.298  32.667  -6.915  1.00  0.00     0.009 A 
ENDBRANCH  12  15
ENDBRANCH  10  12
ENDBRANCH   1  10
BRANCH   7  21
HETATM   21  N4  UNL     1      21.971  28.664 -11.027  1.00  0.00    -0.221 N 
ATOM     22  H4  UNL     1      21.137  28.273 -11.467  1.00  0.00     0.178 HD
BRANCH  21  23
HETATM   23  C7  UNL     1      22.843  27.739 -10.379  1.00  0.00     0.176 C 
BRANCH  23  24
HETATM   24  C8  UNL     1      22.881  27.937  -8.898  1.00  0.00    -0.040 A 
HETATM   25  C9  UNL     1      23.837  28.726  -8.283  1.00  0.00     0.009 A 
HETATM   26  C10 UNL     1      23.837  28.884  -6.906  1.00  0.00     0.001 A 
HETATM   27  C11 UNL     1      22.892  28.262  -6.117  1.00  0.00     0.000 A 
HETATM   28  C12 UNL     1      21.941  27.477  -6.727  1.00  0.00     0.001 A 
HETATM   29  C13 UNL     1      21.950  27.329  -8.088  1.00  0.00     0.009 A 
ENDBRANCH  23  24
ENDBRANCH  21  23
ENDBRANCH   7  21
TORSDOF 7
ENDMDL
MODEL 2
REMARK VINA RESULT: -8.261121910      1.627      5.270
REMARK  7 active torsions:
REMARK  status: ('A' for Active; 'I' for Inactive)
REMARK    1  A    between atoms: C2_2  and  C3_3 
REMARK    2  A    between atoms: C3_3  and  N1_4 
REMARK    3  A    between atoms: C3_3  and  C14_24 
REMARK    4  A    between atoms: N1_4  and  C4_6 
REMARK    5  A    between atoms: C6_12  and  N4_13 
REMARK    6  A    between atoms: N4_13  and  C7_15 
REMARK    7  A    between atoms: C7_15  and  C8_16 
ROOT
HETATM    1  C4  UNL     1      20.993  29.818 -10.806  1.00  0.00     0.134 A 
HETATM    2  C5  UNL     1      21.825  29.306 -11.781  1.00  0.00     0.156 A 
HETATM    3  N2  UNL     1      22.772  30.097 -12.307  1.00  0.00    -0.294 N 
ATOM      4  H2  UNL     1      23.384  29.713 -13.027  1.00  0.00     0.186 HD
HETATM    5  N3  UNL     1      22.945  31.353 -11.933  1.00  0.00    -0.132 N 
ATOM      6  H3  UNL     1      23.675  31.926 -12.354  1.00  0.00     0.205 HD
HETATM    7  C6  UNL     1      22.148  31.851 -10.997  1.00  0.00     0.694 A 
HETATM    8  N5  UNL     1      21.171  31.084 -10.432  1.00  0.00    -0.174 N 
ATOM      9  H5  UNL     1      20.569  31.485  -9.713  1.00  0.00     0.186 HD
ENDROOT
BRANCH   1  10
HETATM   10  N1  UNL     1      20.093  29.032 -10.320  1.00  0.00    -0.366 N 
ATOM     11  H1  UNL     1      19.578  28.448 -10.978  1.00  0.00     0.161 HD
BRANCH  10  12
HETATM   12  C3  UNL     1      19.758  28.914  -8.927  1.00  0.00     0.116 C 
BRANCH  12  13
HETATM   13  C2  UNL     1      18.499  28.091  -8.750  1.00  0.00     0.025 C 
HETATM   14  C1  UNL     1      18.034  27.482 -10.044  1.00  0.00     0.007 C 
ENDBRANCH  12  13
BRANCH  12  15
HETATM   15  C14 UNL     1      20.920  28.370  -8.189  1.00  0.00    -0.036 A 
HETATM   16  C15 UNL     1      21.640  29.207  -7.369  1.00  0.00     0.009 A 
HETATM   17  C16 UNL     1      22.741  28.751  -6.646  1.00  0.00     0.001 A 
HETATM   18  C17 UNL     1      23.120  27.420  -6.755  1.00  0.00     0.000 A 
HETATM   19  C18 UNL     1      22.400  26.588  -7.573  1.00  0.00     0.001 A 
HETATM   20  C19 UNL     1      21.307  27.054  -8.287  1.00  0.00     0.009 A 
ENDBRANCH  12  15
ENDBRANCH  10  12
ENDBRANCH   1  10
BRANCH   7  21
HETATM   21  N4  UNL     1      22.240  33.049 -10.574  1.00  0.00    -0.221 N 
ATOM     22  H4  UNL     1      22.963  33.628 -11.001  1.00  0.00     0.178 HD
BRANCH  21  23
HETATM   23  C7  UNL     1      21.441  33.666  -9.566  1.00  0.00     0.176 C 
BRANCH  23  24
HETATM   24  C8  UNL     1      22.184  33.841  -8.281  1.00  0.00    -0.040 A 
HETATM   25  C9  UNL     1      22.932  34.972  -8.008  1.00  0.00     0.009 A 
HETATM   26  C10 UNL     1      23.606  35.096  -6.803  1.00  0.00     0.001 A 
HETATM   27  C11 UNL     1      23.550  34.100  -5.850  1.00  0.00     0.000 A 
HETATM   28  C12 UNL     1      22.806  32.974  -6.119  1.00  0.00     0.001 A 
HETATM   29  C13 UNL     1      22.144  32.864  -7.313  1.00  0.00     0.009 A 
ENDBRANCH  23  24
ENDBRANCH  21  23
ENDBRANCH   7  21
TORSDOF 7
ENDMDL
MODEL 3
REMARK VINA RESULT: -8.062187135      2.158      3.256
REMARK  7 active torsions:
REMARK  status: ('A' for Active; 'I' for Inactive)
REMARK    1  A    between atoms: C2_2  and  C3_3 
REMARK    2  A    between atoms: C3_3  and  N1_4 
REMARK    3  A    between atoms: C3_3  and  C14_24 
REMARK    4  A    between atoms: N1_4  and  C4_6 
REMARK    5  A    between atoms: C6_12  and  N4_13 
REMARK    6  A    between atoms: N4_13  and  C7_15 
REMARK    7  A    between atoms: C7_15  and  C8_16 
ROOT
HETATM    1  C4  UNL     1      20.944  29.733 -11.394  1.00  0.00     0.134 A 
HETATM    2  C5  UNL     1      20.852  29.572 -12.762  1.00  0.00     0.156 A 
HETATM    3  N2  UNL     1      21.127  28.373 -13.294  1.00  0.00    -0.294 N 
ATOM      4  H2  UNL     1      21.056  28.260 -14.305  1.00  0.00     0.186 HD
HETATM    5  N3  UNL     1      21.486  27.331 -12.564  1.00  0.00    -0.132 N 
ATOM      6  H3  UNL     1      21.687  26.433 -13.002  1.00  0.00     0.205 HD
HETATM    7  C6  UNL     1      21.578  27.479 -11.249  1.00  0.00     0.694 A 
HETATM    8  N5  UNL     1      21.307  28.681 -10.662  1.00  0.00    -0.174 N 
ATOM      9  H5  UNL     1      21.382  28.775  -9.650  1.00  0.00     0.186 HD
ENDROOT
BRANCH   1  10
HETATM   10  N1  UNL     1      20.673  30.899 -10.913  1.00  0.00    -0.366 N 
ATOM     11  H1  UNL     1      19.730  31.258 -11.060  1.00  0.00     0.161 HD
BRANCH  10  12
HETATM   12  C3  UNL     1      21.592  31.732 -10.187  1.00  0.00     0.116 C 
BRANCH  12  13
HETATM   13  C2  UNL     1      22.607  32.352 -11.125  1.00  0.00     0.025 C 
HETATM   14  C1  UNL     1      23.958  31.703 -11.005  1.00  0.00     0.007 C 
ENDBRANCH  12  13
BRANCH  12  15
HETATM   15  C14 UNL     1      20.831  32.734  -9.406  1.00  0.00    -0.036 A 
HETATM   16  C15 UNL     1      19.956  32.300  -8.438  1.00  0.00     0.009 A 
HETATM   17  C16 UNL     1      19.215  33.196  -7.668  1.00  0.00     0.001 A 
HETATM   18  C17 UNL     1      19.363  34.559  -7.884  1.00  0.00     0.000 A 
HETATM   19  C18 UNL     1      20.236  34.988  -8.851  1.00  0.00     0.001 A 
HETATM   20  C19 UNL     1      20.967  34.088  -9.609  1.00  0.00     0.009 A 
ENDBRANCH  12  15
ENDBRANCH  10  12
ENDBRANCH   1  10
BRANCH   7  21
HETATM   21  N4  UNL     1      21.916  26.533 -10.467  1.00  0.00    -0.221 N 
ATOM     22  H4  UNL     1      21.249  25.767 -10.364  1.00  0.00     0.178 HD
BRANCH  21  23
HETATM   23  C7  UNL     1      23.127  26.429  -9.721  1.00  0.00     0.176 C 
BRANCH  23  24
HETATM   24  C8  UNL     1      23.111  27.279  -8.491  1.00  0.00    -0.040 A 
HETATM   25  C9  UNL     1      23.808  28.471  -8.409  1.00  0.00     0.009 A 
HETATM   26  C10 UNL     1      23.767  29.230  -7.250  1.00  0.00     0.001 A 
HETATM   27  C11 UNL     1      23.036  28.818  -6.154  1.00  0.00     0.000 A 
HETATM   28  C12 UNL     1      22.343  27.633  -6.234  1.00  0.00     0.001 A 
HETATM   29  C13 UNL     1      22.390  26.892  -7.385  1.00  0.00     0.009 A 
ENDBRANCH  23  24
ENDBRANCH  21  23
ENDBRANCH   7  21
TORSDOF 7
ENDMDL
MODEL 4
REMARK VINA RESULT: -8.021492089      1.730      5.637
REMARK  7 active torsions:
REMARK  status: ('A' for Active; 'I' for Inactive)
REMARK    1  A    between atoms: C2_2  and  C3_3 
REMARK    2  A    between atoms: C3_3  and  N1_4 
REMARK    3  A    between atoms: C3_3  and  C14_24 
REMARK    4  A    between atoms: N1_4  and  C4_6 
REMARK    5  A    between atoms: C6_12  and  N4_13 
REMARK    6  A    between atoms: N4_13  and  C7_15 
REMARK    7  A    between atoms: C7_15  and  C8_16 
ROOT
HETATM    1  C4  UNL     1      20.907  29.585 -10.868  1.00  0.00     0.134 A 
HETATM    2  C5  UNL     1      21.685  29.008 -11.851  1.00  0.00     0.156 A 
HETATM    3  N2  UNL     1      22.658  29.735 -12.419  1.00  0.00    -0.294 N 
ATOM      4  H2  UNL     1      23.230  29.304 -13.144  1.00  0.00     0.186 HD
HETATM    5  N3  UNL     1      22.906  30.988 -12.079  1.00  0.00    -0.132 N 
ATOM      6  H3  UNL     1      23.655  31.512 -12.531  1.00  0.00     0.205 HD
HETATM    7  C6  UNL     1      22.162  31.549 -11.135  1.00  0.00     0.694 A 
HETATM    8  N5  UNL     1      21.161  30.847 -10.528  1.00  0.00    -0.174 N 
ATOM      9  H5  UNL     1      20.599  31.295  -9.804  1.00  0.00     0.186 HD
ENDROOT
BRANCH   1  10
HETATM   10  N1  UNL     1      19.980  28.859 -10.341  1.00  0.00    -0.366 N 
ATOM     11  H1  UNL     1      19.432  28.272 -10.970  1.00  0.00     0.161 HD
BRANCH  10  12
HETATM   12  C3  UNL     1      19.658  28.809  -8.941  1.00  0.00     0.116 C 
BRANCH  12  13
HETATM   13  C2  UNL     1      18.434  27.949  -8.706  1.00  0.00     0.025 C 
HETATM   14  C1  UNL     1      17.895  27.370  -9.985  1.00  0.00     0.007 C 
ENDBRANCH  12  13
BRANCH  12  15
HETATM   15  C14 UNL     1      20.845  28.357  -8.182  1.00  0.00    -0.036 A 
HETATM   16  C15 UNL     1      21.228  27.039  -8.266  1.00  0.00     0.009 A 
HETATM   17  C16 UNL     1      22.339  26.555  -7.577  1.00  0.00     0.001 A 
HETATM   18  C17 UNL     1      23.078  27.425  -6.787  1.00  0.00     0.000 A 
HETATM   19  C18 UNL     1      22.693  28.739  -6.704  1.00  0.00     0.001 A 
HETATM   20  C19 UNL     1      21.587  29.207  -7.394  1.00  0.00     0.009 A 
ENDBRANCH  12  15
ENDBRANCH  10  12
ENDBRANCH   1  10
BRANCH   7  21
HETATM   21  N4  UNL     1      22.327  32.749 -10.743  1.00  0.00    -0.221 N 
ATOM     22  H4  UNL     1      22.249  33.476 -11.455  1.00  0.00     0.178 HD
BRANCH  21  23
HETATM   23  C7  UNL     1      22.611  33.185  -9.415  1.00  0.00     0.176 C 
BRANCH  23  24
HETATM   24  C8  UNL     1      21.395  33.697  -8.713  1.00  0.00    -0.040 A 
HETATM   25  C9  UNL     1      21.119  33.388  -7.392  1.00  0.00     0.009 A 
HETATM   26  C10 UNL     1      19.980  33.883  -6.778  1.00  0.00     0.001 A 
HETATM   27  C11 UNL     1      19.095  34.690  -7.463  1.00  0.00     0.000 A 
HETATM   28  C12 UNL     1      19.366  34.998  -8.776  1.00  0.00     0.001 A 
HETATM   29  C13 UNL     1      20.496  34.503  -9.372  1.00  0.00     0.009 A 
ENDBRANCH  23  24
ENDBRANCH  21  23
ENDBRANCH   7  21
TORSDOF 7
ENDMDL
MODEL 5
REMARK VINA RESULT: -8.019547076      2.375      6.338
REMARK  7 active torsions:
REMARK  status: ('A' for Active; 'I' for Inactive)
REMARK    1  A    between atoms: C2_2  and  C3_3 
REMARK    2  A    between atoms: C3_3  and  N1_4 
REMARK    3  A    between atoms: C3_3  and  C14_24 
REMARK    4  A    between atoms: N1_4  and  C4_6 
REMARK    5  A    between atoms: C6_12  and  N4_13 
REMARK    6  A    between atoms: N4_13  and  C7_15 
REMARK    7  A    between atoms: C7_15  and  C8_16 
ROOT
HETATM    1  C4  UNL     1      20.355  27.467 -10.661  1.00  0.00     0.134 A 
HETATM    2  C5  UNL     1      19.359  26.518 -10.551  1.00  0.00     0.156 A 
HETATM    3  N2  UNL     1      18.118  26.913 -10.230  1.00  0.00    -0.294 N 
ATOM      4  H2  UNL     1      17.386  26.208 -10.151  1.00  0.00     0.186 HD
HETATM    5  N3  UNL     1      17.804  28.179 -10.013  1.00  0.00    -0.132 N 
ATOM      6  H3  UNL     1      16.850  28.444  -9.771  1.00  0.00     0.205 HD
HETATM    7  C6  UNL     1      18.757  29.095 -10.116  1.00  0.00     0.694 A 
HETATM    8  N5  UNL     1      20.034  28.740 -10.441  1.00  0.00    -0.174 N 
ATOM      9  H5  UNL     1      20.753  29.460 -10.516  1.00  0.00     0.186 HD
ENDROOT
BRANCH   1  10
HETATM   10  N1  UNL     1      21.537  27.054 -10.970  1.00  0.00    -0.366 N 
ATOM     11  H1  UNL     1      21.897  27.314 -11.888  1.00  0.00     0.161 HD
BRANCH  10  12
HETATM   12  C3  UNL     1      22.387  26.258 -10.128  1.00  0.00     0.116 C 
BRANCH  12  13
HETATM   13  C2  UNL     1      23.556  25.707 -10.918  1.00  0.00     0.025 C 
HETATM   14  C1  UNL     1      24.058  24.407 -10.351  1.00  0.00     0.007 C 
ENDBRANCH  12  13
BRANCH  12  15
HETATM   15  C14 UNL     1      22.801  27.060  -8.955  1.00  0.00    -0.036 A 
HETATM   16  C15 UNL     1      23.598  28.163  -9.148  1.00  0.00     0.009 A 
HETATM   17  C16 UNL     1      24.016  28.959  -8.083  1.00  0.00     0.001 A 
HETATM   18  C17 UNL     1      23.619  28.630  -6.794  1.00  0.00     0.000 A 
HETATM   19  C18 UNL     1      22.825  27.528  -6.604  1.00  0.00     0.001 A 
HETATM   20  C19 UNL     1      22.415  26.746  -7.672  1.00  0.00     0.009 A 
ENDBRANCH  12  15
ENDBRANCH  10  12
ENDBRANCH   1  10
BRANCH   7  21
HETATM   21  N4  UNL     1      18.548  30.337  -9.924  1.00  0.00    -0.221 N 
ATOM     22  H4  UNL     1      18.217  30.872 -10.727  1.00  0.00     0.178 HD
BRANCH  21  23
HETATM   23  C7  UNL     1      18.727  31.059  -8.707  1.00  0.00     0.176 C 
BRANCH  23  24
HETATM   24  C8  UNL     1      19.899  31.985  -8.764  1.00  0.00    -0.040 A 
HETATM   25  C9  UNL     1      19.774  33.312  -9.138  1.00  0.00     0.009 A 
HETATM   26  C10 UNL     1      20.886  34.138  -9.177  1.00  0.00     0.001 A 
HETATM   27  C11 UNL     1      22.139  33.663  -8.849  1.00  0.00     0.000 A 
HETATM   28  C12 UNL     1      22.265  32.345  -8.477  1.00  0.00     0.001 A 
HETATM   29  C13 UNL     1      21.159  31.538  -8.441  1.00  0.00     0.009 A 
ENDBRANCH  23  24
ENDBRANCH  21  23
ENDBRANCH   7  21
TORSDOF 7
ENDMDL
