MODEL 1
REMARK VINA RESULT: -6.987124970      0.000      0.000
REMARK  7 active torsions:
REMARK  status: ('A' for Active; 'I' for Inactive)
REMARK    1  A    between atoms: O1_2  and  C2_3 
REMARK    2  A    between atoms: C5_6  and  C6_7 
REMARK    3  A    between atoms: C6_7  and  N1_9 
REMARK    4  A    between atoms: N1_9  and  C8_11 
REMARK    5  A    between atoms: C8_11  and  N2_13 
REMARK    6  A    between atoms: N2_13  and  N3_15 
REMARK    7  A    between atoms: C9_17  and  C10_18 
ROOT
HETATM    1  C8  UNL     1      20.730  34.032  -9.129  1.00  0.00     0.187 C 
HETATM    2  S1  UNL     1      19.359  34.884  -8.774  1.00  0.00    -0.040 SA
ENDROOT
BRANCH   1   3
HETATM    3  N1  UNL     1      21.967  34.640  -8.837  1.00  0.00    -0.358 N 
ATOM      4  H1  UNL     1      22.775  34.491  -9.440  1.00  0.00     0.162 HD
BRANCH   3   5
HETATM    5  C6  UNL     1      22.068  35.481  -7.663  1.00  0.00     0.113 C 
HETATM    6  C7  UNL     1      22.538  36.865  -7.989  1.00  0.00     0.037 C 
BRANCH   5   7
HETATM    7  C5  UNL     1      22.916  34.917  -6.592  1.00  0.00    -0.036 A 
HETATM    8  C4  UNL     1      22.972  33.627  -6.186  1.00  0.00     0.012 A 
HETATM    9  C3  UNL     1      23.822  33.234  -5.147  1.00  0.00     0.037 A 
HETATM   10  C2  UNL     1      24.631  34.134  -4.497  1.00  0.00     0.068 A 
HETATM   11  C17 UNL     1      24.585  35.450  -4.899  1.00  0.00     0.037 A 
HETATM   12  C16 UNL     1      23.748  35.820  -5.918  1.00  0.00     0.012 A 
BRANCH  10  13
HETATM   13  O1  UNL     1      25.463  33.701  -3.467  1.00  0.00    -0.356 OA
HETATM   14  C1  UNL     1      25.779  34.475  -2.352  1.00  0.00     0.210 C 
ENDBRANCH  10  13
ENDBRANCH   5   7
ENDBRANCH   3   5
ENDBRANCH   1   3
BRANCH   1  15
HETATM   15  N2  UNL     1      20.574  32.743  -9.706  1.00  0.00    -0.277 N 
ATOM     16  H2  UNL     1      20.259  32.668 -10.673  1.00  0.00     0.189 HD
BRANCH  15  17
HETATM   17  N3  UNL     1      20.840  31.571  -8.983  1.00  0.00    -0.309 N 
HETATM   18  C9  UNL     1      22.038  31.127  -8.977  1.00  0.00     0.120 C 
ATOM     19  H3  UNL     1      20.098  31.088  -8.476  1.00  0.00     0.186 HD
BRANCH  18  20
HETATM   20  C10 UNL     1      22.345  29.906  -8.229  1.00  0.00    -0.004 A 
HETATM   21  C11 UNL     1      22.865  29.956  -6.950  1.00  0.00     0.015 A 
HETATM   22  C12 UNL     1      23.158  28.818  -6.236  1.00  0.00     0.018 A 
HETATM   23  C13 UNL     1      22.910  27.595  -6.858  1.00  0.00     0.090 A 
HETATM   24  N4  UNL     1      22.411  27.537  -8.086  1.00  0.00    -0.370 N 
HETATM   25  C14 UNL     1      22.152  26.257  -8.732  1.00  0.00     0.154 C 
HETATM   26  C15 UNL     1      22.128  28.659  -8.772  1.00  0.00     0.102 A 
ENDBRANCH  18  20
ENDBRANCH  15  17
ENDBRANCH   1  15
TORSDOF 7
ENDMDL
MODEL 2
REMARK VINA RESULT: -6.973894583      2.532      3.388
REMARK  7 active torsions:
REMARK  status: ('A' for Active; 'I' for Inactive)
REMARK    1  A    between atoms: O1_2  and  C2_3 
REMARK    2  A    between atoms: C5_6  and  C6_7 
REMARK    3  A    between atoms: C6_7  and  N1_9 
REMARK    4  A    between atoms: N1_9  and  C8_11 
REMARK    5  A    between atoms: C8_11  and  N2_13 
REMARK    6  A    between atoms: N2_13  and  N3_15 
REMARK    7  A    between atoms: C9_17  and  C10_18 
ROOT
HETATM    1  C8  UNL     1      21.539  35.694  -7.840  1.00  0.00     0.187 C 
HETATM    2  S1  UNL     1      22.364  37.097  -8.131  1.00  0.00    -0.040 SA
ENDROOT
BRANCH   1   3
HETATM    3  N1  UNL     1      21.819  35.013  -6.639  1.00  0.00    -0.358 N 
ATOM      4  H1  UNL     1      21.184  35.081  -5.843  1.00  0.00     0.162 HD
BRANCH   3   5
HETATM    5  C6  UNL     1      23.022  34.214  -6.556  1.00  0.00     0.113 C 
HETATM    6  C7  UNL     1      22.732  32.752  -6.412  1.00  0.00     0.037 C 
BRANCH   5   7
HETATM    7  C5  UNL     1      23.950  34.635  -5.485  1.00  0.00    -0.036 A 
HETATM    8  C4  UNL     1      24.422  35.883  -5.256  1.00  0.00     0.012 A 
HETATM    9  C3  UNL     1      25.307  36.136  -4.202  1.00  0.00     0.037 A 
HETATM   10  C2  UNL     1      25.732  35.137  -3.361  1.00  0.00     0.068 A 
HETATM   11  C17 UNL     1      25.259  33.863  -3.582  1.00  0.00     0.037 A 
HETATM   12  C16 UNL     1      24.394  33.630  -4.617  1.00  0.00     0.012 A 
BRANCH  10  13
HETATM   13  O1  UNL     1      26.613  35.431  -2.323  1.00  0.00    -0.356 OA
HETATM   14  C1  UNL     1      26.307  36.292  -1.269  1.00  0.00     0.210 C 
ENDBRANCH  10  13
ENDBRANCH   5   7
ENDBRANCH   3   5
ENDBRANCH   1   3
BRANCH   1  15
HETATM   15  N2  UNL     1      20.602  35.266  -8.819  1.00  0.00    -0.277 N 
ATOM     16  H2  UNL     1      19.882  35.916  -9.133  1.00  0.00     0.189 HD
BRANCH  15  17
HETATM   17  N3  UNL     1      20.640  33.974  -9.364  1.00  0.00    -0.309 N 
HETATM   18  C9  UNL     1      19.720  33.152  -9.029  1.00  0.00     0.120 C 
ATOM     19  H3  UNL     1      21.380  33.698 -10.009  1.00  0.00     0.186 HD
BRANCH  18  20
HETATM   20  C10 UNL     1      19.733  31.798  -9.583  1.00  0.00    -0.004 A 
HETATM   21  C11 UNL     1      18.719  30.899  -9.316  1.00  0.00     0.015 A 
HETATM   22  C12 UNL     1      18.718  29.623  -9.830  1.00  0.00     0.018 A 
HETATM   23  C13 UNL     1      19.794  29.264 -10.640  1.00  0.00     0.090 A 
HETATM   24  N4  UNL     1      20.775  30.119 -10.902  1.00  0.00    -0.370 N 
HETATM   25  C14 UNL     1      21.896  29.740 -11.749  1.00  0.00     0.154 C 
HETATM   26  C15 UNL     1      20.760  31.364 -10.393  1.00  0.00     0.102 A 
ENDBRANCH  18  20
ENDBRANCH  15  17
ENDBRANCH   1  15
TORSDOF 7
ENDMDL
MODEL 3
REMARK VINA RESULT: -6.899832023      3.216      5.132
REMARK  7 active torsions:
REMARK  status: ('A' for Active; 'I' for Inactive)
REMARK    1  A    between atoms: O1_2  and  C2_3 
REMARK    2  A    between atoms: C5_6  and  C6_7 
REMARK    3  A    between atoms: C6_7  and  N1_9 
REMARK    4  A    between atoms: N1_9  and  C8_11 
REMARK    5  A    between atoms: C8_11  and  N2_13 
REMARK    6  A    between atoms: N2_13  and  N3_15 
REMARK    7  A    between atoms: C9_17  and  C10_18 
ROOT
HETATM    1  C8  UNL     1      22.305  33.900  -6.955  1.00  0.00     0.187 C 
HETATM    2  S1  UNL     1      23.366  35.149  -7.177  1.00  0.00    -0.040 SA
ENDROOT
BRANCH   1   3
HETATM    3  N1  UNL     1      20.977  34.093  -7.385  1.00  0.00    -0.358 N 
ATOM      4  H1  UNL     1      20.208  34.079  -6.716  1.00  0.00     0.162 HD
BRANCH   3   5
HETATM    5  C6  UNL     1      20.726  34.309  -8.794  1.00  0.00     0.113 C 
HETATM    6  C7  UNL     1      19.365  34.878  -9.052  1.00  0.00     0.037 C 
BRANCH   5   7
HETATM    7  C5  UNL     1      20.919  33.106  -9.631  1.00  0.00    -0.036 A 
HETATM    8  C4  UNL     1      20.231  31.943  -9.562  1.00  0.00     0.012 A 
HETATM    9  C3  UNL     1      20.529  30.878 -10.418  1.00  0.00     0.037 A 
HETATM   10  C2  UNL     1      21.524  30.965 -11.360  1.00  0.00     0.068 A 
HETATM   11  C17 UNL     1      22.232  32.144 -11.442  1.00  0.00     0.037 A 
HETATM   12  C16 UNL     1      21.930  33.178 -10.597  1.00  0.00     0.012 A 
BRANCH  10  13
HETATM   13  O1  UNL     1      21.788  29.882 -12.194  1.00  0.00    -0.356 OA
HETATM   14  C1  UNL     1      20.838  28.923 -12.541  1.00  0.00     0.210 C 
ENDBRANCH  10  13
ENDBRANCH   5   7
ENDBRANCH   3   5
ENDBRANCH   1   3
BRANCH   1  15
HETATM   15  N2  UNL     1      22.800  32.716  -6.348  1.00  0.00    -0.277 N 
ATOM     16  H2  UNL     1      23.362  32.791  -5.500  1.00  0.00     0.189 HD
BRANCH  15  17
HETATM   17  N3  UNL     1      22.538  31.445  -6.881  1.00  0.00    -0.309 N 
HETATM   18  C9  UNL     1      23.165  30.445  -6.390  1.00  0.00     0.120 C 
ATOM     19  H3  UNL     1      21.866  31.323  -7.639  1.00  0.00     0.186 HD
BRANCH  18  20
HETATM   20  C10 UNL     1      22.910  29.107  -6.927  1.00  0.00    -0.004 A 
HETATM   21  C11 UNL     1      22.406  28.096  -6.133  1.00  0.00     0.015 A 
HETATM   22  C12 UNL     1      22.161  26.834  -6.622  1.00  0.00     0.018 A 
HETATM   23  C13 UNL     1      22.447  26.609  -7.968  1.00  0.00     0.090 A 
HETATM   24  N4  UNL     1      22.931  27.574  -8.740  1.00  0.00    -0.370 N 
HETATM   25  C14 UNL     1      23.227  27.334 -10.145  1.00  0.00     0.154 C 
HETATM   26  C15 UNL     1      23.164  28.803  -8.246  1.00  0.00     0.102 A 
ENDBRANCH  18  20
ENDBRANCH  15  17
ENDBRANCH   1  15
TORSDOF 7
ENDMDL
MODEL 4
REMARK VINA RESULT: -6.888263257      2.518      3.335
REMARK  7 active torsions:
REMARK  status: ('A' for Active; 'I' for Inactive)
REMARK    1  A    between atoms: O1_2  and  C2_3 
REMARK    2  A    between atoms: C5_6  and  C6_7 
REMARK    3  A    between atoms: C6_7  and  N1_9 
REMARK    4  A    between atoms: N1_9  and  C8_11 
REMARK    5  A    between atoms: C8_11  and  N2_13 
REMARK    6  A    between atoms: N2_13  and  N3_15 
REMARK    7  A    between atoms: C9_17  and  C10_18 
ROOT
HETATM    1  C8  UNL     1      21.687  35.728  -7.822  1.00  0.00     0.187 C 
HETATM    2  S1  UNL     1      22.393  37.205  -8.058  1.00  0.00    -0.040 SA
ENDROOT
BRANCH   1   3
HETATM    3  N1  UNL     1      21.927  35.083  -6.592  1.00  0.00    -0.358 N 
ATOM      4  H1  UNL     1      21.271  35.180  -5.818  1.00  0.00     0.162 HD
BRANCH   3   5
HETATM    5  C6  UNL     1      23.122  34.279  -6.450  1.00  0.00     0.113 C 
HETATM    6  C7  UNL     1      22.815  32.826  -6.261  1.00  0.00     0.037 C 
BRANCH   5   7
HETATM    7  C5  UNL     1      24.026  34.732  -5.371  1.00  0.00    -0.036 A 
HETATM    8  C4  UNL     1      24.450  35.996  -5.136  1.00  0.00     0.012 A 
HETATM    9  C3  UNL     1      25.317  36.279  -4.076  1.00  0.00     0.037 A 
HETATM   10  C2  UNL     1      25.772  35.295  -3.233  1.00  0.00     0.068 A 
HETATM   11  C17 UNL     1      25.347  34.005  -3.459  1.00  0.00     0.037 A 
HETATM   12  C16 UNL     1      24.499  33.742  -4.502  1.00  0.00     0.012 A 
BRANCH  10  13
HETATM   13  O1  UNL     1      26.633  35.619  -2.188  1.00  0.00    -0.356 OA
HETATM   14  C1  UNL     1      26.249  36.357  -1.069  1.00  0.00     0.210 C 
ENDBRANCH  10  13
ENDBRANCH   5   7
ENDBRANCH   3   5
ENDBRANCH   1   3
BRANCH   1  15
HETATM   15  N2  UNL     1      20.885  35.206  -8.871  1.00  0.00    -0.277 N 
ATOM     16  H2  UNL     1      19.967  35.616  -9.045  1.00  0.00     0.189 HD
BRANCH  15  17
HETATM   17  N3  UNL     1      21.320  34.143  -9.676  1.00  0.00    -0.309 N 
HETATM   18  C9  UNL     1      20.831  32.983  -9.456  1.00  0.00     0.120 C 
ATOM     19  H3  UNL     1      22.007  34.291 -10.416  1.00  0.00     0.186 HD
BRANCH  18  20
HETATM   20  C10 UNL     1      21.266  31.854 -10.281  1.00  0.00    -0.004 A 
HETATM   21  C11 UNL     1      22.440  31.903 -11.007  1.00  0.00     0.015 A 
HETATM   22  C12 UNL     1      22.862  30.851 -11.787  1.00  0.00     0.018 A 
HETATM   23  C13 UNL     1      22.049  29.719 -11.820  1.00  0.00     0.090 A 
HETATM   24  N4  UNL     1      20.919  29.662 -11.126  1.00  0.00    -0.370 N 
HETATM   25  C14 UNL     1      20.073  28.478 -11.163  1.00  0.00     0.154 C 
HETATM   26  C15 UNL     1      20.521  30.699 -10.367  1.00  0.00     0.102 A 
ENDBRANCH  18  20
ENDBRANCH  15  17
ENDBRANCH   1  15
TORSDOF 7
ENDMDL
MODEL 5
REMARK VINA RESULT: -6.855884600      1.632      1.947
REMARK  7 active torsions:
REMARK  status: ('A' for Active; 'I' for Inactive)
REMARK    1  A    between atoms: O1_2  and  C2_3 
REMARK    2  A    between atoms: C5_6  and  C6_7 
REMARK    3  A    between atoms: C6_7  and  N1_9 
REMARK    4  A    between atoms: N1_9  and  C8_11 
REMARK    5  A    between atoms: C8_11  and  N2_13 
REMARK    6  A    between atoms: N2_13  and  N3_15 
REMARK    7  A    between atoms: C9_17  and  C10_18 
ROOT
HETATM    1  C8  UNL     1      21.337  32.619 -10.530  1.00  0.00     0.187 C 
HETATM    2  S1  UNL     1      22.418  32.215 -11.714  1.00  0.00    -0.040 SA
ENDROOT
BRANCH   1   3
HETATM    3  N1  UNL     1      21.462  33.894  -9.945  1.00  0.00    -0.358 N 
ATOM      4  H1  UNL     1      21.905  34.659 -10.454  1.00  0.00     0.162 HD
BRANCH   3   5
HETATM    5  C6  UNL     1      20.950  34.099  -8.607  1.00  0.00     0.113 C 
HETATM    6  C7  UNL     1      19.930  35.194  -8.545  1.00  0.00     0.037 C 
BRANCH   5   7
HETATM    7  C5  UNL     1      21.997  34.349  -7.594  1.00  0.00    -0.036 A 
HETATM    8  C4  UNL     1      22.499  33.465  -6.701  1.00  0.00     0.012 A 
HETATM    9  C3  UNL     1      23.490  33.845  -5.789  1.00  0.00     0.037 A 
HETATM   10  C2  UNL     1      23.993  35.123  -5.761  1.00  0.00     0.068 A 
HETATM   11  C17 UNL     1      23.492  36.032  -6.665  1.00  0.00     0.037 A 
HETATM   12  C16 UNL     1      22.522  35.646  -7.552  1.00  0.00     0.012 A 
BRANCH  10  13
HETATM   13  O1  UNL     1      24.979  35.460  -4.838  1.00  0.00    -0.356 OA
HETATM   14  C1  UNL     1      24.920  36.586  -4.018  1.00  0.00     0.210 C 
ENDBRANCH  10  13
ENDBRANCH   5   7
ENDBRANCH   3   5
ENDBRANCH   1   3
BRANCH   1  15
HETATM   15  N2  UNL     1      20.354  31.656 -10.180  1.00  0.00    -0.277 N 
ATOM     16  H2  UNL     1      19.368  31.897 -10.276  1.00  0.00     0.189 HD
BRANCH  15  17
HETATM   17  N3  UNL     1      20.701  30.383  -9.704  1.00  0.00    -0.309 N 
HETATM   18  C9  UNL     1      21.467  30.310  -8.684  1.00  0.00     0.120 C 
ATOM     19  H3  UNL     1      20.353  29.539 -10.160  1.00  0.00     0.186 HD
BRANCH  18  20
HETATM   20  C10 UNL     1      21.845  28.994  -8.165  1.00  0.00    -0.004 A 
HETATM   21  C11 UNL     1      22.283  28.830  -6.865  1.00  0.00     0.015 A 
HETATM   22  C12 UNL     1      22.642  27.601  -6.364  1.00  0.00     0.018 A 
HETATM   23  C13 UNL     1      22.548  26.511  -7.228  1.00  0.00     0.090 A 
HETATM   24  N4  UNL     1      22.128  26.657  -8.478  1.00  0.00    -0.370 N 
HETATM   25  C14 UNL     1      22.031  25.516  -9.377  1.00  0.00     0.154 C 
HETATM   26  C15 UNL     1      21.781  27.867  -8.953  1.00  0.00     0.102 A 
ENDBRANCH  18  20
ENDBRANCH  15  17
ENDBRANCH   1  15
TORSDOF 7
ENDMDL
