MODEL 1
REMARK VINA RESULT: -8.094619475      0.000      0.000
REMARK  8 active torsions:
REMARK  status: ('A' for Active; 'I' for Inactive)
REMARK    1  A    between atoms: C2_2  and  C3_3 
REMARK    2  A    between atoms: C3_3  and  C4_4 
REMARK    3  A    between atoms: C4_4  and  C5_5 
REMARK    4  A    between atoms: C7_10  and  C8_11 
REMARK    5  A    between atoms: C8_11  and  O2_13 
REMARK    6  A    between atoms: O2_13  and  C9_14 
REMARK    7  A    between atoms: C9_14  and  C10_15 
REMARK       I    between atoms: C10_15  and  N3_17 
REMARK       I    between atoms: N3_17  and  C11_19 
REMARK       I    between atoms: C11_19  and  N4_21 
REMARK    8  A    between atoms: N4_21  and  C12_23 
ROOT
HETATM    1  C8  UNL     1     -55.211  22.382  31.431  1.00  0.00     0.298 C 
HETATM    2  O1  UNL     1     -54.921  22.692  32.611  1.00  0.00    -0.259 OA
ENDROOT
BRANCH   1   3
HETATM    3  C7  UNL     1     -54.844  21.074  30.882  1.00  0.00     0.098 A 
HETATM    4  C5  UNL     1     -55.574  19.912  30.926  1.00  0.00     0.045 A 
HETATM    5  N1  UNL     1     -54.808  18.987  30.317  1.00  0.00    -0.297 N 
HETATM    6  N2  UNL     1     -53.649  19.527  29.905  1.00  0.00    -0.260 N 
ATOM      7  H1  UNL     1     -55.072  18.010  30.186  1.00  0.00     0.187 HD
HETATM    8  C6  UNL     1     -53.651  20.818  30.243  1.00  0.00     0.111 A 
HETATM    9  C20 UNL     1     -52.574  18.911  29.227  1.00  0.00     0.114 A 
HETATM   10  S1  UNL     1     -52.282  21.885  29.866  1.00  0.00    -0.105 SA
HETATM   11  C18 UNL     1     -51.044  20.894  29.014  1.00  0.00     0.109 A 
HETATM   12  C19 UNL     1     -51.472  19.493  28.851  1.00  0.00     0.003 A 
BRANCH   4  13
HETATM   13  C4  UNL     1     -56.915  19.651  31.465  1.00  0.00     0.060 C 
BRANCH  13  14
HETATM   14  C3  UNL     1     -57.706  18.620  30.725  1.00  0.00     0.006 C 
BRANCH  14  15
HETATM   15  C2  UNL     1     -57.792  17.330  31.509  1.00  0.00    -0.004 C 
HETATM   16  C1  UNL     1     -58.874  17.362  32.530  1.00  0.00     0.005 C 
ENDBRANCH  14  15
ENDBRANCH  13  14
ENDBRANCH   4  13
ENDBRANCH   1   3
BRANCH   1  17
HETATM   17  O2  UNL     1     -55.879  23.300  30.677  1.00  0.00    -0.308 OA
BRANCH  17  18
HETATM   18  C9  UNL     1     -56.285  23.201  29.352  1.00  0.00     0.282 C 
BRANCH  18  19
HETATM   19  C10 UNL     1     -57.752  23.184  29.151  1.00  0.00     0.249 C 
HETATM   20  O3  UNL     1     -58.329  24.278  29.050  1.00  0.00    -0.271 OA
HETATM   21  N3  UNL     1     -58.442  21.970  29.081  1.00  0.00    -0.277 N 
HETATM   22  C11 UNL     1     -59.796  21.714  28.909  1.00  0.00     0.323 C 
ATOM     23  H3  UNL     1     -57.856  21.140  29.170  1.00  0.00     0.173 HD
HETATM   24  O4  UNL     1     -60.167  20.474  28.884  1.00  0.00    -0.247 OA
HETATM   25  N4  UNL     1     -60.792  22.695  28.761  1.00  0.00    -0.338 N 
ATOM     26  H4  UNL     1     -60.521  23.677  28.777  1.00  0.00     0.164 HD
BRANCH  25  27
HETATM   27  C12 UNL     1     -62.201  22.355  28.585  1.00  0.00     0.086 C 
HETATM   28  C13 UNL     1     -62.617  22.297  27.155  1.00  0.00     0.025 C 
HETATM   29  C14 UNL     1     -63.778  23.210  26.819  1.00  0.00     0.002 C 
HETATM   30  C15 UNL     1     -64.959  22.958  27.736  1.00  0.00     0.000 C 
HETATM   31  C16 UNL     1     -64.518  22.837  29.181  1.00  0.00     0.002 C 
HETATM   32  C17 UNL     1     -63.081  23.342  29.344  1.00  0.00     0.025 C 
ENDBRANCH  25  27
ENDBRANCH  18  19
ENDBRANCH  17  18
ENDBRANCH   1  17
TORSDOF 8
ENDMDL
MODEL 2
REMARK VINA RESULT: -7.787506439      3.271      9.294
REMARK  8 active torsions:
REMARK  status: ('A' for Active; 'I' for Inactive)
REMARK    1  A    between atoms: C2_2  and  C3_3 
REMARK    2  A    between atoms: C3_3  and  C4_4 
REMARK    3  A    between atoms: C4_4  and  C5_5 
REMARK    4  A    between atoms: C7_10  and  C8_11 
REMARK    5  A    between atoms: C8_11  and  O2_13 
REMARK    6  A    between atoms: O2_13  and  C9_14 
REMARK    7  A    between atoms: C9_14  and  C10_15 
REMARK       I    between atoms: C10_15  and  N3_17 
REMARK       I    between atoms: N3_17  and  C11_19 
REMARK       I    between atoms: C11_19  and  N4_21 
REMARK    8  A    between atoms: N4_21  and  C12_23 
ROOT
HETATM    1  C8  UNL     1     -56.197  20.743  30.430  1.00  0.00     0.298 C 
HETATM    2  O1  UNL     1     -56.102  20.783  31.680  1.00  0.00    -0.259 OA
ENDROOT
BRANCH   1   3
HETATM    3  C7  UNL     1     -57.399  20.215  29.780  1.00  0.00     0.098 A 
HETATM    4  C5  UNL     1     -57.787  18.903  29.674  1.00  0.00     0.045 A 
HETATM    5  N1  UNL     1     -58.935  18.926  28.971  1.00  0.00    -0.297 N 
HETATM    6  N2  UNL     1     -59.265  20.186  28.644  1.00  0.00    -0.260 N 
ATOM      7  H1  UNL     1     -59.479  18.100  28.722  1.00  0.00     0.187 HD
HETATM    8  C6  UNL     1     -58.329  21.000  29.135  1.00  0.00     0.111 A 
HETATM    9  C20 UNL     1     -60.383  20.650  27.917  1.00  0.00     0.114 A 
HETATM   10  S1  UNL     1     -58.411  22.760  28.913  1.00  0.00    -0.105 SA
HETATM   11  C18 UNL     1     -59.901  23.116  27.967  1.00  0.00     0.109 A 
HETATM   12  C19 UNL     1     -60.650  21.892  27.632  1.00  0.00     0.003 A 
BRANCH   4  13
HETATM   13  C4  UNL     1     -57.168  17.682  30.208  1.00  0.00     0.060 C 
BRANCH  13  14
HETATM   14  C3  UNL     1     -57.400  17.441  31.666  1.00  0.00     0.006 C 
BRANCH  14  15
HETATM   15  C2  UNL     1     -58.799  16.924  31.918  1.00  0.00    -0.004 C 
HETATM   16  C1  UNL     1     -59.353  17.407  33.212  1.00  0.00     0.005 C 
ENDBRANCH  14  15
ENDBRANCH  13  14
ENDBRANCH   4  13
ENDBRANCH   1   3
BRANCH   1  17
HETATM   17  O2  UNL     1     -55.146  21.208  29.698  1.00  0.00    -0.308 OA
BRANCH  17  18
HETATM   18  C9  UNL     1     -54.302  22.277  29.977  1.00  0.00     0.282 C 
BRANCH  18  19
HETATM   19  C10 UNL     1     -52.970  21.896  30.501  1.00  0.00     0.249 C 
HETATM   20  O3  UNL     1     -52.591  22.439  31.549  1.00  0.00    -0.271 OA
HETATM   21  N3  UNL     1     -52.186  20.957  29.823  1.00  0.00    -0.277 N 
HETATM   22  C11 UNL     1     -50.923  20.461  30.117  1.00  0.00     0.323 C 
ATOM     23  H3  UNL     1     -52.611  20.576  28.977  1.00  0.00     0.173 HD
HETATM   24  O4  UNL     1     -50.424  19.587  29.303  1.00  0.00    -0.247 OA
HETATM   25  N4  UNL     1     -50.146  20.833  31.228  1.00  0.00    -0.338 N 
ATOM     26  H4  UNL     1     -50.521  21.520  31.882  1.00  0.00     0.164 HD
BRANCH  25  27
HETATM   27  C12 UNL     1     -48.821  20.272  31.477  1.00  0.00     0.086 C 
HETATM   28  C13 UNL     1     -48.846  19.091  32.386  1.00  0.00     0.025 C 
HETATM   29  C14 UNL     1     -47.966  19.244  33.609  1.00  0.00     0.002 C 
HETATM   30  C15 UNL     1     -46.543  19.599  33.223  1.00  0.00     0.000 C 
HETATM   31  C16 UNL     1     -46.515  20.681  32.162  1.00  0.00     0.002 C 
HETATM   32  C17 UNL     1     -47.891  21.342  32.038  1.00  0.00     0.025 C 
ENDBRANCH  25  27
ENDBRANCH  18  19
ENDBRANCH  17  18
ENDBRANCH   1  17
TORSDOF 8
ENDMDL
MODEL 3
REMARK VINA RESULT: -7.755969163      1.049      1.618
REMARK  8 active torsions:
REMARK  status: ('A' for Active; 'I' for Inactive)
REMARK    1  A    between atoms: C2_2  and  C3_3 
REMARK    2  A    between atoms: C3_3  and  C4_4 
REMARK    3  A    between atoms: C4_4  and  C5_5 
REMARK    4  A    between atoms: C7_10  and  C8_11 
REMARK    5  A    between atoms: C8_11  and  O2_13 
REMARK    6  A    between atoms: O2_13  and  C9_14 
REMARK    7  A    between atoms: C9_14  and  C10_15 
REMARK       I    between atoms: C10_15  and  N3_17 
REMARK       I    between atoms: N3_17  and  C11_19 
REMARK       I    between atoms: C11_19  and  N4_21 
REMARK    8  A    between atoms: N4_21  and  C12_23 
ROOT
HETATM    1  C8  UNL     1     -55.096  22.423  31.563  1.00  0.00     0.298 C 
HETATM    2  O1  UNL     1     -54.790  22.676  32.753  1.00  0.00    -0.259 OA
ENDROOT
BRANCH   1   3
HETATM    3  C7  UNL     1     -54.778  21.125  30.961  1.00  0.00     0.098 A 
HETATM    4  C5  UNL     1     -55.543  19.985  30.973  1.00  0.00     0.045 A 
HETATM    5  N1  UNL     1     -54.815  19.061  30.318  1.00  0.00    -0.297 N 
HETATM    6  N2  UNL     1     -53.646  19.580  29.909  1.00  0.00    -0.260 N 
ATOM      7  H1  UNL     1     -55.111  18.098  30.156  1.00  0.00     0.187 HD
HETATM    8  C6  UNL     1     -53.602  20.856  30.294  1.00  0.00     0.111 A 
HETATM    9  C20 UNL     1     -52.600  18.957  29.193  1.00  0.00     0.114 A 
HETATM   10  S1  UNL     1     -52.207  21.895  29.936  1.00  0.00    -0.105 SA
HETATM   11  C18 UNL     1     -51.012  20.898  29.030  1.00  0.00     0.109 A 
HETATM   12  C19 UNL     1     -51.486  19.518  28.822  1.00  0.00     0.003 A 
BRANCH   4  13
HETATM   13  C4  UNL     1     -56.884  19.746  31.523  1.00  0.00     0.060 C 
BRANCH  13  14
HETATM   14  C3  UNL     1     -57.696  18.726  30.790  1.00  0.00     0.006 C 
BRANCH  14  15
HETATM   15  C2  UNL     1     -57.746  17.419  31.548  1.00  0.00    -0.004 C 
HETATM   16  C1  UNL     1     -58.843  17.392  32.553  1.00  0.00     0.005 C 
ENDBRANCH  14  15
ENDBRANCH  13  14
ENDBRANCH   4  13
ENDBRANCH   1   3
BRANCH   1  17
HETATM   17  O2  UNL     1     -55.734  23.393  30.850  1.00  0.00    -0.308 OA
BRANCH  17  18
HETATM   18  C9  UNL     1     -55.995  23.434  29.485  1.00  0.00     0.282 C 
BRANCH  18  19
HETATM   19  C10 UNL     1     -57.424  23.305  29.122  1.00  0.00     0.249 C 
HETATM   20  O3  UNL     1     -57.863  22.162  28.924  1.00  0.00    -0.271 OA
HETATM   21  N3  UNL     1     -58.231  24.442  29.011  1.00  0.00    -0.277 N 
HETATM   22  C11 UNL     1     -59.574  24.562  28.679  1.00  0.00     0.323 C 
ATOM     23  H3  UNL     1     -57.757  25.323  29.206  1.00  0.00     0.173 HD
HETATM   24  O4  UNL     1     -60.074  25.755  28.649  1.00  0.00    -0.247 OA
HETATM   25  N4  UNL     1     -60.432  23.490  28.375  1.00  0.00    -0.338 N 
ATOM     26  H4  UNL     1     -60.058  22.541  28.394  1.00  0.00     0.164 HD
BRANCH  25  27
HETATM   27  C12 UNL     1     -61.837  23.687  28.032  1.00  0.00     0.086 C 
HETATM   28  C13 UNL     1     -62.711  23.882  29.224  1.00  0.00     0.025 C 
HETATM   29  C14 UNL     1     -63.855  22.894  29.309  1.00  0.00     0.002 C 
HETATM   30  C15 UNL     1     -64.675  22.890  28.033  1.00  0.00     0.000 C 
HETATM   31  C16 UNL     1     -63.784  22.874  26.807  1.00  0.00     0.002 C 
HETATM   32  C17 UNL     1     -62.346  22.518  27.197  1.00  0.00     0.025 C 
ENDBRANCH  25  27
ENDBRANCH  18  19
ENDBRANCH  17  18
ENDBRANCH   1  17
TORSDOF 8
ENDMDL
MODEL 4
REMARK VINA RESULT: -7.751702289      1.724      4.041
REMARK  8 active torsions:
REMARK  status: ('A' for Active; 'I' for Inactive)
REMARK    1  A    between atoms: C2_2  and  C3_3 
REMARK    2  A    between atoms: C3_3  and  C4_4 
REMARK    3  A    between atoms: C4_4  and  C5_5 
REMARK    4  A    between atoms: C7_10  and  C8_11 
REMARK    5  A    between atoms: C8_11  and  O2_13 
REMARK    6  A    between atoms: O2_13  and  C9_14 
REMARK    7  A    between atoms: C9_14  and  C10_15 
REMARK       I    between atoms: C10_15  and  N3_17 
REMARK       I    between atoms: N3_17  and  C11_19 
REMARK       I    between atoms: C11_19  and  N4_21 
REMARK    8  A    between atoms: N4_21  and  C12_23 
ROOT
HETATM    1  C8  UNL     1     -53.667  21.648  30.415  1.00  0.00     0.298 C 
HETATM    2  O1  UNL     1     -52.882  22.023  31.319  1.00  0.00    -0.259 OA
ENDROOT
BRANCH   1   3
HETATM    3  C7  UNL     1     -53.887  20.225  30.147  1.00  0.00     0.098 A 
HETATM    4  C5  UNL     1     -53.046  19.353  29.501  1.00  0.00     0.045 A 
HETATM    5  N1  UNL     1     -53.700  18.177  29.479  1.00  0.00    -0.297 N 
HETATM    6  N2  UNL     1     -54.896  18.288  30.078  1.00  0.00    -0.260 N 
ATOM      7  H1  UNL     1     -53.336  17.319  29.064  1.00  0.00     0.187 HD
HETATM    8  C6  UNL     1     -55.033  19.546  30.500  1.00  0.00     0.111 A 
HETATM    9  C20 UNL     1     -55.888  17.300  30.272  1.00  0.00     0.114 A 
HETATM   10  S1  UNL     1     -56.492  20.094  31.351  1.00  0.00    -0.105 SA
HETATM   11  C18 UNL     1     -57.604  18.684  31.479  1.00  0.00     0.109 A 
HETATM   12  C19 UNL     1     -57.033  17.471  30.865  1.00  0.00     0.003 A 
BRANCH   4  13
HETATM   13  C4  UNL     1     -51.699  19.562  28.954  1.00  0.00     0.060 C 
BRANCH  13  14
HETATM   14  C3  UNL     1     -51.658  20.114  27.565  1.00  0.00     0.006 C 
BRANCH  14  15
HETATM   15  C2  UNL     1     -51.274  21.577  27.568  1.00  0.00    -0.004 C 
HETATM   16  C1  UNL     1     -50.382  21.923  28.708  1.00  0.00     0.005 C 
ENDBRANCH  14  15
ENDBRANCH  13  14
ENDBRANCH   4  13
ENDBRANCH   1   3
BRANCH   1  17
HETATM   17  O2  UNL     1     -54.309  22.609  29.692  1.00  0.00    -0.308 OA
BRANCH  17  18
HETATM   18  C9  UNL     1     -54.997  23.724  30.153  1.00  0.00     0.282 C 
BRANCH  18  19
HETATM   19  C10 UNL     1     -56.427  23.775  29.770  1.00  0.00     0.249 C 
HETATM   20  O3  UNL     1     -57.078  24.772  30.116  1.00  0.00    -0.271 OA
HETATM   21  N3  UNL     1     -57.001  22.727  29.043  1.00  0.00    -0.277 N 
HETATM   22  C11 UNL     1     -58.302  22.556  28.587  1.00  0.00     0.323 C 
ATOM     23  H3  UNL     1     -56.362  21.967  28.810  1.00  0.00     0.173 HD
HETATM   24  O4  UNL     1     -58.563  21.472  27.931  1.00  0.00    -0.247 OA
HETATM   25  N4  UNL     1     -59.354  23.468  28.783  1.00  0.00    -0.338 N 
ATOM     26  H4  UNL     1     -59.168  24.330  29.296  1.00  0.00     0.164 HD
BRANCH  25  27
HETATM   27  C12 UNL     1     -60.702  23.225  28.277  1.00  0.00     0.086 C 
HETATM   28  C13 UNL     1     -61.082  24.135  27.159  1.00  0.00     0.025 C 
HETATM   29  C14 UNL     1     -62.349  24.924  27.419  1.00  0.00     0.002 C 
HETATM   30  C15 UNL     1     -63.501  24.009  27.787  1.00  0.00     0.000 C 
HETATM   31  C16 UNL     1     -63.071  22.961  28.795  1.00  0.00     0.002 C 
HETATM   32  C17 UNL     1     -61.718  23.334  29.408  1.00  0.00     0.025 C 
ENDBRANCH  25  27
ENDBRANCH  18  19
ENDBRANCH  17  18
ENDBRANCH   1  17
TORSDOF 8
ENDMDL
MODEL 5
REMARK VINA RESULT: -7.671945377      1.847      4.318
REMARK  8 active torsions:
REMARK  status: ('A' for Active; 'I' for Inactive)
REMARK    1  A    between atoms: C2_2  and  C3_3 
REMARK    2  A    between atoms: C3_3  and  C4_4 
REMARK    3  A    between atoms: C4_4  and  C5_5 
REMARK    4  A    between atoms: C7_10  and  C8_11 
REMARK    5  A    between atoms: C8_11  and  O2_13 
REMARK    6  A    between atoms: O2_13  and  C9_14 
REMARK    7  A    between atoms: C9_14  and  C10_15 
REMARK       I    between atoms: C10_15  and  N3_17 
REMARK       I    between atoms: N3_17  and  C11_19 
REMARK       I    between atoms: C11_19  and  N4_21 
REMARK    8  A    between atoms: N4_21  and  C12_23 
ROOT
HETATM    1  C8  UNL     1     -53.668  21.592  30.382  1.00  0.00     0.298 C 
HETATM    2  O1  UNL     1     -52.961  21.971  31.346  1.00  0.00    -0.259 OA
ENDROOT
BRANCH   1   3
HETATM    3  C7  UNL     1     -53.879  20.167  30.115  1.00  0.00     0.098 A 
HETATM    4  C5  UNL     1     -53.035  19.301  29.466  1.00  0.00     0.045 A 
HETATM    5  N1  UNL     1     -53.681  18.120  29.446  1.00  0.00    -0.297 N 
HETATM    6  N2  UNL     1     -54.876  18.224  30.050  1.00  0.00    -0.260 N 
ATOM      7  H1  UNL     1     -53.314  17.264  29.030  1.00  0.00     0.187 HD
HETATM    8  C6  UNL     1     -55.019  19.481  30.472  1.00  0.00     0.111 A 
HETATM    9  C20 UNL     1     -55.861  17.230  30.247  1.00  0.00     0.114 A 
HETATM   10  S1  UNL     1     -56.479  20.020  31.328  1.00  0.00    -0.105 SA
HETATM   11  C18 UNL     1     -57.581  18.603  31.461  1.00  0.00     0.109 A 
HETATM   12  C19 UNL     1     -57.005  17.394  30.845  1.00  0.00     0.003 A 
BRANCH   4  13
HETATM   13  C4  UNL     1     -51.691  19.519  28.914  1.00  0.00     0.060 C 
BRANCH  13  14
HETATM   14  C3  UNL     1     -51.659  20.048  27.516  1.00  0.00     0.006 C 
BRANCH  14  15
HETATM   15  C2  UNL     1     -51.289  21.515  27.495  1.00  0.00    -0.004 C 
HETATM   16  C1  UNL     1     -50.399  21.887  28.628  1.00  0.00     0.005 C 
ENDBRANCH  14  15
ENDBRANCH  13  14
ENDBRANCH   4  13
ENDBRANCH   1   3
BRANCH   1  17
HETATM   17  O2  UNL     1     -54.232  22.549  29.592  1.00  0.00    -0.308 OA
BRANCH  17  18
HETATM   18  C9  UNL     1     -55.020  23.629  29.970  1.00  0.00     0.282 C 
BRANCH  18  19
HETATM   19  C10 UNL     1     -56.422  23.570  29.497  1.00  0.00     0.249 C 
HETATM   20  O3  UNL     1     -56.826  22.493  29.033  1.00  0.00    -0.271 OA
HETATM   21  N3  UNL     1     -57.244  24.698  29.582  1.00  0.00    -0.277 N 
HETATM   22  C11 UNL     1     -58.567  24.877  29.199  1.00  0.00     0.323 C 
ATOM     23  H3  UNL     1     -56.801  25.521  29.990  1.00  0.00     0.173 HD
HETATM   24  O4  UNL     1     -59.089  26.046  29.393  1.00  0.00    -0.247 OA
HETATM   25  N4  UNL     1     -59.383  23.889  28.619  1.00  0.00    -0.338 N 
ATOM     26  H4  UNL     1     -58.992  22.961  28.459  1.00  0.00     0.164 HD
BRANCH  25  27
HETATM   27  C12 UNL     1     -60.769  24.146  28.238  1.00  0.00     0.086 C 
HETATM   28  C13 UNL     1     -61.754  23.654  29.243  1.00  0.00     0.025 C 
HETATM   29  C14 UNL     1     -62.775  22.690  28.675  1.00  0.00     0.002 C 
HETATM   30  C15 UNL     1     -63.481  23.283  27.471  1.00  0.00     0.000 C 
HETATM   31  C16 UNL     1     -62.497  23.947  26.528  1.00  0.00     0.002 C 
HETATM   32  C17 UNL     1     -61.064  23.532  26.874  1.00  0.00     0.025 C 
ENDBRANCH  25  27
ENDBRANCH  18  19
ENDBRANCH  17  18
ENDBRANCH   1  17
TORSDOF 8
ENDMDL
