MODEL 1
REMARK VINA RESULT: -7.688963785      0.000      0.000
REMARK  9 active torsions:
REMARK  status: ('A' for Active; 'I' for Inactive)
REMARK    1  A    between atoms: C2_2  and  S1_4 
REMARK    2  A    between atoms: S1_4  and  C4_5 
REMARK    3  A    between atoms: C5_6  and  N1_7 
REMARK    4  A    between atoms: N1_7  and  C6_9 
REMARK    5  A    between atoms: C11_17  and  S2_18 
REMARK    6  A    between atoms: S2_18  and  C12_19 
REMARK    7  A    between atoms: C12_19  and  C13_20 
REMARK    8  A    between atoms: C13_20  and  O2_21 
REMARK    9  A    between atoms: C13_20  and  N3_23 
ROOT
HETATM    1  C4  UNL     1     -47.745  20.220  32.745  1.00  0.00     0.113 A 
HETATM    2  C5  UNL     1     -48.203  18.911  32.611  1.00  0.00     0.126 A 
HETATM    3  N2  UNL     1     -49.158  18.695  31.696  1.00  0.00    -0.322 N 
ATOM      4  H2  UNL     1     -49.501  17.740  31.589  1.00  0.00     0.169 HD
HETATM    5  C11 UNL     1     -49.699  19.640  30.907  1.00  0.00     0.149 A 
HETATM    6  N4  UNL     1     -49.229  20.885  31.068  1.00  0.00    -0.303 N 
ATOM      7  H4  UNL     1     -49.617  21.627  30.487  1.00  0.00     0.171 HD
HETATM    8  C18 UNL     1     -48.275  21.207  31.955  1.00  0.00     0.268 A 
HETATM    9  O3  UNL     1     -47.866  22.421  32.062  1.00  0.00    -0.267 OA
ENDROOT
BRANCH   5  10
HETATM   10  S2  UNL     1     -50.975  19.227  29.717  1.00  0.00    -0.086 SA
BRANCH  10  11
HETATM   11  C12 UNL     1     -52.459  20.168  29.959  1.00  0.00     0.166 C 
BRANCH  11  12
HETATM   12  C13 UNL     1     -53.669  19.380  29.857  1.00  0.00     0.123 C 
BRANCH  12  13
HETATM   13  O2  UNL     1     -53.481  18.169  29.410  1.00  0.00    -0.349 OA
ATOM     14  H2  UNL     1     -54.056  17.926  28.693  1.00  0.00     0.219 HD
ENDBRANCH  12  13
BRANCH  12  15
HETATM   15  N3  UNL     1     -54.984  19.706  30.157  1.00  0.00    -0.365 N 
HETATM   16  C14 UNL     1     -56.062  18.643  30.269  1.00  0.00     0.124 C 
HETATM   17  C15 UNL     1     -56.887  19.092  31.451  1.00  0.00     0.021 C 
HETATM   18  C16 UNL     1     -56.391  20.481  31.778  1.00  0.00     0.021 C 
HETATM   19  C17 UNL     1     -55.750  20.883  30.430  1.00  0.00     0.124 C 
ENDBRANCH  12  15
ENDBRANCH  11  12
ENDBRANCH  10  11
ENDBRANCH   5  10
BRANCH   2  20
HETATM   20  N1  UNL     1     -47.639  17.868  33.396  1.00  0.00    -0.370 N 
ATOM     21  H1  UNL     1     -46.712  17.507  33.168  1.00  0.00     0.161 HD
BRANCH  20  22
HETATM   22  C6  UNL     1     -48.361  17.321  34.503  1.00  0.00     0.087 C 
HETATM   23  C7  UNL     1     -47.860  17.729  35.858  1.00  0.00     0.051 C 
HETATM   24  C8  UNL     1     -49.000  17.475  36.843  1.00  0.00     0.169 C 
HETATM   25  O1  UNL     1     -49.690  16.332  36.443  1.00  0.00    -0.391 OA
HETATM   26  C9  UNL     1     -48.861  15.367  35.877  1.00  0.00     0.169 C 
HETATM   27  C10 UNL     1     -48.359  15.792  34.495  1.00  0.00     0.051 C 
ENDBRANCH  20  22
ENDBRANCH   2  20
BRANCH   1  28
HETATM   28  S1  UNL     1     -46.493  20.612  33.942  1.00  0.00    -0.117 SA
BRANCH  28  29
HETATM   29  C2  UNL     1     -44.823  20.395  33.349  1.00  0.00     0.044 C 
HETATM   30  C1  UNL     1     -44.614  20.666  31.896  1.00  0.00     0.021 C 
HETATM   31  C3  UNL     1     -44.251  19.032  33.666  1.00  0.00     0.021 C 
ENDBRANCH  28  29
ENDBRANCH   1  28
TORSDOF 9
ENDMDL
MODEL 2
REMARK VINA RESULT: -7.556477152      2.189      2.510
REMARK  9 active torsions:
REMARK  status: ('A' for Active; 'I' for Inactive)
REMARK    1  A    between atoms: C2_2  and  S1_4 
REMARK    2  A    between atoms: S1_4  and  C4_5 
REMARK    3  A    between atoms: C5_6  and  N1_7 
REMARK    4  A    between atoms: N1_7  and  C6_9 
REMARK    5  A    between atoms: C11_17  and  S2_18 
REMARK    6  A    between atoms: S2_18  and  C12_19 
REMARK    7  A    between atoms: C12_19  and  C13_20 
REMARK    8  A    between atoms: C13_20  and  O2_21 
REMARK    9  A    between atoms: C13_20  and  N3_23 
ROOT
HETATM    1  C4  UNL     1     -47.543  20.039  32.352  1.00  0.00     0.113 A 
HETATM    2  C5  UNL     1     -48.241  18.834  32.380  1.00  0.00     0.126 A 
HETATM    3  N2  UNL     1     -49.339  18.752  31.617  1.00  0.00    -0.322 N 
ATOM      4  H2  UNL     1     -49.858  17.875  31.630  1.00  0.00     0.169 HD
HETATM    5  C11 UNL     1     -49.810  19.740  30.834  1.00  0.00     0.149 A 
HETATM    6  N4  UNL     1     -49.108  20.881  30.837  1.00  0.00    -0.303 N 
ATOM      7  H4  UNL     1     -49.436  21.651  30.255  1.00  0.00     0.171 HD
HETATM    8  C18 UNL     1     -47.995  21.065  31.564  1.00  0.00     0.268 A 
HETATM    9  O3  UNL     1     -47.366  22.186  31.523  1.00  0.00    -0.267 OA
ENDROOT
BRANCH   5  10
HETATM   10  S2  UNL     1     -51.295  19.510  29.856  1.00  0.00    -0.086 SA
BRANCH  10  11
HETATM   11  C12 UNL     1     -51.122  20.132  28.204  1.00  0.00     0.166 C 
BRANCH  11  12
HETATM   12  C13 UNL     1     -51.557  21.505  28.052  1.00  0.00     0.123 C 
BRANCH  12  13
HETATM   13  O2  UNL     1     -51.450  21.967  26.837  1.00  0.00    -0.349 OA
ATOM     14  H2  UNL     1     -51.948  22.760  26.678  1.00  0.00     0.219 HD
ENDBRANCH  12  13
BRANCH  12  15
HETATM   15  N3  UNL     1     -52.064  22.397  28.986  1.00  0.00    -0.365 N 
HETATM   16  C14 UNL     1     -53.549  22.478  29.284  1.00  0.00     0.124 C 
HETATM   17  C15 UNL     1     -53.606  22.656  30.782  1.00  0.00     0.021 C 
HETATM   18  C16 UNL     1     -52.178  22.908  31.207  1.00  0.00     0.021 C 
HETATM   19  C17 UNL     1     -51.565  23.400  29.877  1.00  0.00     0.124 C 
ENDBRANCH  12  15
ENDBRANCH  11  12
ENDBRANCH  10  11
ENDBRANCH   5  10
BRANCH   2  20
HETATM   20  N1  UNL     1     -47.766  17.746  33.164  1.00  0.00    -0.370 N 
ATOM     21  H1  UNL     1     -46.931  17.238  32.871  1.00  0.00     0.161 HD
BRANCH  20  22
HETATM   22  C6  UNL     1     -48.449  17.360  34.360  1.00  0.00     0.087 C 
HETATM   23  C7  UNL     1     -47.910  17.961  35.626  1.00  0.00     0.051 C 
HETATM   24  C8  UNL     1     -49.018  17.845  36.673  1.00  0.00     0.169 C 
HETATM   25  O1  UNL     1     -49.709  16.653  36.462  1.00  0.00    -0.391 OA
HETATM   26  C9  UNL     1     -48.889  15.621  36.014  1.00  0.00     0.169 C 
HETATM   27  C10 UNL     1     -48.433  15.846  34.571  1.00  0.00     0.051 C 
ENDBRANCH  20  22
ENDBRANCH   2  20
BRANCH   1  28
HETATM   28  S1  UNL     1     -46.084  20.253  33.342  1.00  0.00    -0.117 SA
BRANCH  28  29
HETATM   29  C2  UNL     1     -44.609  19.544  32.630  1.00  0.00     0.044 C 
HETATM   30  C1  UNL     1     -43.517  19.224  33.595  1.00  0.00     0.021 C 
HETATM   31  C3  UNL     1     -44.027  20.377  31.511  1.00  0.00     0.021 C 
ENDBRANCH  28  29
ENDBRANCH   1  28
TORSDOF 9
ENDMDL
MODEL 3
REMARK VINA RESULT: -7.445101814      1.271      1.629
REMARK  9 active torsions:
REMARK  status: ('A' for Active; 'I' for Inactive)
REMARK    1  A    between atoms: C2_2  and  S1_4 
REMARK    2  A    between atoms: S1_4  and  C4_5 
REMARK    3  A    between atoms: C5_6  and  N1_7 
REMARK    4  A    between atoms: N1_7  and  C6_9 
REMARK    5  A    between atoms: C11_17  and  S2_18 
REMARK    6  A    between atoms: S2_18  and  C12_19 
REMARK    7  A    between atoms: C12_19  and  C13_20 
REMARK    8  A    between atoms: C13_20  and  O2_21 
REMARK    9  A    between atoms: C13_20  and  N3_23 
ROOT
HETATM    1  C4  UNL     1     -47.694  20.214  32.659  1.00  0.00     0.113 A 
HETATM    2  C5  UNL     1     -48.201  18.921  32.544  1.00  0.00     0.126 A 
HETATM    3  N2  UNL     1     -49.199  18.738  31.669  1.00  0.00    -0.322 N 
ATOM      4  H2  UNL     1     -49.579  17.796  31.577  1.00  0.00     0.169 HD
HETATM    5  C11 UNL     1     -49.738  19.702  30.901  1.00  0.00     0.149 A 
HETATM    6  N4  UNL     1     -49.220  20.930  31.043  1.00  0.00    -0.303 N 
ATOM      7  H4  UNL     1     -49.605  21.685  30.477  1.00  0.00     0.171 HD
HETATM    8  C18 UNL     1     -48.221  21.218  31.890  1.00  0.00     0.268 A 
HETATM    9  O3  UNL     1     -47.767  22.418  31.980  1.00  0.00    -0.267 OA
ENDROOT
BRANCH   5  10
HETATM   10  S2  UNL     1     -51.075  19.333  29.764  1.00  0.00    -0.086 SA
BRANCH  10  11
HETATM   11  C12 UNL     1     -51.407  20.672  28.649  1.00  0.00     0.166 C 
BRANCH  11  12
HETATM   12  C13 UNL     1     -52.630  21.387  28.948  1.00  0.00     0.123 C 
BRANCH  12  13
HETATM   13  O2  UNL     1     -52.931  22.315  28.083  1.00  0.00    -0.349 OA
ATOM     14  H2  UNL     1     -53.368  23.070  28.459  1.00  0.00     0.219 HD
ENDBRANCH  12  13
BRANCH  12  15
HETATM   15  N3  UNL     1     -53.523  21.242  30.001  1.00  0.00    -0.365 N 
HETATM   16  C14 UNL     1     -53.565  22.231  31.151  1.00  0.00     0.124 C 
HETATM   17  C15 UNL     1     -55.039  22.396  31.429  1.00  0.00     0.021 C 
HETATM   18  C16 UNL     1     -55.721  21.328  30.607  1.00  0.00     0.021 C 
HETATM   19  C17 UNL     1     -54.555  20.335  30.400  1.00  0.00     0.124 C 
ENDBRANCH  12  15
ENDBRANCH  11  12
ENDBRANCH  10  11
ENDBRANCH   5  10
BRANCH   2  20
HETATM   20  N1  UNL     1     -47.642  17.859  33.308  1.00  0.00    -0.370 N 
ATOM     21  H1  UNL     1     -46.729  17.480  33.054  1.00  0.00     0.161 HD
BRANCH  20  22
HETATM   22  C6  UNL     1     -48.349  17.319  34.427  1.00  0.00     0.087 C 
HETATM   23  C7  UNL     1     -47.847  17.757  35.772  1.00  0.00     0.051 C 
HETATM   24  C8  UNL     1     -48.978  17.501  36.769  1.00  0.00     0.169 C 
HETATM   25  O1  UNL     1     -49.653  16.341  36.390  1.00  0.00    -0.391 OA
HETATM   26  C9  UNL     1     -48.811  15.380  35.835  1.00  0.00     0.169 C 
HETATM   27  C10 UNL     1     -48.324  15.790  34.444  1.00  0.00     0.051 C 
ENDBRANCH  20  22
ENDBRANCH   2  20
BRANCH   1  28
HETATM   28  S1  UNL     1     -46.382  20.562  33.804  1.00  0.00    -0.117 SA
BRANCH  28  29
HETATM   29  C2  UNL     1     -44.747  20.272  33.151  1.00  0.00     0.044 C 
HETATM   30  C1  UNL     1     -44.616  20.380  31.668  1.00  0.00     0.021 C 
HETATM   31  C3  UNL     1     -44.158  18.949  33.585  1.00  0.00     0.021 C 
ENDBRANCH  28  29
ENDBRANCH   1  28
TORSDOF 9
ENDMDL
MODEL 4
REMARK VINA RESULT: -7.432143222      1.389      1.990
REMARK  9 active torsions:
REMARK  status: ('A' for Active; 'I' for Inactive)
REMARK    1  A    between atoms: C2_2  and  S1_4 
REMARK    2  A    between atoms: S1_4  and  C4_5 
REMARK    3  A    between atoms: C5_6  and  N1_7 
REMARK    4  A    between atoms: N1_7  and  C6_9 
REMARK    5  A    between atoms: C11_17  and  S2_18 
REMARK    6  A    between atoms: S2_18  and  C12_19 
REMARK    7  A    between atoms: C12_19  and  C13_20 
REMARK    8  A    between atoms: C13_20  and  O2_21 
REMARK    9  A    between atoms: C13_20  and  N3_23 
ROOT
HETATM    1  C4  UNL     1     -48.286  20.355  33.248  1.00  0.00     0.113 A 
HETATM    2  C5  UNL     1     -48.406  19.012  32.897  1.00  0.00     0.126 A 
HETATM    3  N2  UNL     1     -49.193  18.728  31.851  1.00  0.00    -0.322 N 
ATOM      4  H2  UNL     1     -49.289  17.748  31.586  1.00  0.00     0.169 HD
HETATM    5  C11 UNL     1     -49.867  19.636  31.123  1.00  0.00     0.149 A 
HETATM    6  N4  UNL     1     -49.724  20.916  31.495  1.00  0.00    -0.303 N 
ATOM      7  H4  UNL     1     -50.221  21.631  30.965  1.00  0.00     0.171 HD
HETATM    8  C18 UNL     1     -48.960  21.306  32.527  1.00  0.00     0.268 A 
HETATM    9  O3  UNL     1     -48.863  22.551  32.832  1.00  0.00    -0.267 OA
ENDROOT
BRANCH   5  10
HETATM   10  S2  UNL     1     -50.893  19.131  29.741  1.00  0.00    -0.086 SA
BRANCH  10  11
HETATM   11  C12 UNL     1     -52.357  20.121  29.585  1.00  0.00     0.166 C 
BRANCH  11  12
HETATM   12  C13 UNL     1     -53.585  19.365  29.710  1.00  0.00     0.123 C 
BRANCH  12  13
HETATM   13  O2  UNL     1     -53.459  18.095  29.440  1.00  0.00    -0.349 OA
ATOM     14  H2  UNL     1     -53.425  17.897  28.511  1.00  0.00     0.219 HD
ENDBRANCH  12  13
BRANCH  12  15
HETATM   15  N3  UNL     1     -54.862  19.774  30.067  1.00  0.00    -0.365 N 
HETATM   16  C14 UNL     1     -55.963  18.774  30.367  1.00  0.00     0.124 C 
HETATM   17  C15 UNL     1     -56.681  19.375  31.552  1.00  0.00     0.021 C 
HETATM   18  C16 UNL     1     -56.115  20.768  31.695  1.00  0.00     0.021 C 
HETATM   19  C17 UNL     1     -55.565  21.004  30.270  1.00  0.00     0.124 C 
ENDBRANCH  12  15
ENDBRANCH  11  12
ENDBRANCH  10  11
ENDBRANCH   5  10
BRANCH   2  20
HETATM   20  N1  UNL     1     -47.686  18.016  33.613  1.00  0.00    -0.370 N 
ATOM     21  H1  UNL     1     -46.693  17.877  33.425  1.00  0.00     0.161 HD
BRANCH  20  22
HETATM   22  C6  UNL     1     -48.343  17.207  34.592  1.00  0.00     0.087 C 
HETATM   23  C7  UNL     1     -47.845  17.376  35.999  1.00  0.00     0.051 C 
HETATM   24  C8  UNL     1     -48.943  16.846  36.921  1.00  0.00     0.169 C 
HETATM   25  O1  UNL     1     -49.557  15.757  36.304  1.00  0.00    -0.391 OA
HETATM   26  C9  UNL     1     -48.671  14.988  35.552  1.00  0.00     0.169 C 
HETATM   27  C10 UNL     1     -48.231  15.715  34.280  1.00  0.00     0.051 C 
ENDBRANCH  20  22
ENDBRANCH   2  20
BRANCH   1  28
HETATM   28  S1  UNL     1     -47.280  20.834  34.631  1.00  0.00    -0.117 SA
BRANCH  28  29
HETATM   29  C2  UNL     1     -48.208  21.255  36.097  1.00  0.00     0.044 C 
HETATM   30  C1  UNL     1     -49.576  20.667  36.186  1.00  0.00     0.021 C 
HETATM   31  C3  UNL     1     -48.315  22.746  36.326  1.00  0.00     0.021 C 
ENDBRANCH  28  29
ENDBRANCH   1  28
TORSDOF 9
ENDMDL
MODEL 5
REMARK VINA RESULT: -7.331563676      2.597      3.157
REMARK  9 active torsions:
REMARK  status: ('A' for Active; 'I' for Inactive)
REMARK    1  A    between atoms: C2_2  and  S1_4 
REMARK    2  A    between atoms: S1_4  and  C4_5 
REMARK    3  A    between atoms: C5_6  and  N1_7 
REMARK    4  A    between atoms: N1_7  and  C6_9 
REMARK    5  A    between atoms: C11_17  and  S2_18 
REMARK    6  A    between atoms: S2_18  and  C12_19 
REMARK    7  A    between atoms: C12_19  and  C13_20 
REMARK    8  A    between atoms: C13_20  and  O2_21 
REMARK    9  A    between atoms: C13_20  and  N3_23 
ROOT
HETATM    1  C4  UNL     1     -47.461  19.970  32.422  1.00  0.00     0.113 A 
HETATM    2  C5  UNL     1     -48.202  18.790  32.420  1.00  0.00     0.126 A 
HETATM    3  N2  UNL     1     -49.303  18.767  31.657  1.00  0.00    -0.322 N 
ATOM      4  H2  UNL     1     -49.852  17.908  31.648  1.00  0.00     0.169 HD
HETATM    5  C11 UNL     1     -49.739  19.791  30.901  1.00  0.00     0.149 A 
HETATM    6  N4  UNL     1     -48.997  20.906  30.932  1.00  0.00    -0.303 N 
ATOM      7  H4  UNL     1     -49.299  21.703  30.372  1.00  0.00     0.171 HD
HETATM    8  C18 UNL     1     -47.878  21.032  31.662  1.00  0.00     0.268 A 
HETATM    9  O3  UNL     1     -47.210  22.130  31.649  1.00  0.00    -0.267 OA
ENDROOT
BRANCH   5  10
HETATM   10  S2  UNL     1     -51.233  19.640  29.920  1.00  0.00    -0.086 SA
BRANCH  10  11
HETATM   11  C12 UNL     1     -51.010  20.206  28.254  1.00  0.00     0.166 C 
BRANCH  11  12
HETATM   12  C13 UNL     1     -51.297  21.614  28.076  1.00  0.00     0.123 C 
BRANCH  12  13
HETATM   13  O2  UNL     1     -51.467  21.971  26.833  1.00  0.00    -0.349 OA
ATOM     14  H2  UNL     1     -51.729  22.877  26.722  1.00  0.00     0.219 HD
ENDBRANCH  12  13
BRANCH  12  15
HETATM   15  N3  UNL     1     -51.419  22.633  29.010  1.00  0.00    -0.365 N 
HETATM   16  C14 UNL     1     -50.306  23.638  29.241  1.00  0.00     0.124 C 
HETATM   17  C15 UNL     1     -51.035  24.948  29.414  1.00  0.00     0.021 C 
HETATM   18  C16 UNL     1     -52.496  24.579  29.518  1.00  0.00     0.021 C 
HETATM   19  C17 UNL     1     -52.390  23.100  29.952  1.00  0.00     0.124 C 
ENDBRANCH  12  15
ENDBRANCH  11  12
ENDBRANCH  10  11
ENDBRANCH   5  10
BRANCH   2  20
HETATM   20  N1  UNL     1     -47.764  17.666  33.174  1.00  0.00    -0.370 N 
ATOM     21  H1  UNL     1     -46.959  17.125  32.856  1.00  0.00     0.161 HD
BRANCH  20  22
HETATM   22  C6  UNL     1     -48.444  17.287  34.374  1.00  0.00     0.087 C 
HETATM   23  C7  UNL     1     -47.885  17.874  35.638  1.00  0.00     0.051 C 
HETATM   24  C8  UNL     1     -48.986  17.774  36.693  1.00  0.00     0.169 C 
HETATM   25  O1  UNL     1     -49.700  16.595  36.484  1.00  0.00    -0.391 OA
HETATM   26  C9  UNL     1     -48.901  15.550  36.026  1.00  0.00     0.169 C 
HETATM   27  C10 UNL     1     -48.453  15.772  34.579  1.00  0.00     0.051 C 
ENDBRANCH  20  22
ENDBRANCH   2  20
BRANCH   1  28
HETATM   28  S1  UNL     1     -45.995  20.106  33.415  1.00  0.00    -0.117 SA
BRANCH  28  29
HETATM   29  C2  UNL     1     -44.531  19.431  32.649  1.00  0.00     0.044 C 
HETATM   30  C1  UNL     1     -43.375  19.195  33.562  1.00  0.00     0.021 C 
HETATM   31  C3  UNL     1     -44.047  20.243  31.469  1.00  0.00     0.021 C 
ENDBRANCH  28  29
ENDBRANCH   1  28
TORSDOF 9
ENDMDL
