MODEL 1
REMARK VINA RESULT: -8.039867982      0.000      0.000
REMARK  11 active torsions:
REMARK  status: ('A' for Active; 'I' for Inactive)
REMARK    1  A    between atoms: C2_2  and  C3_3 
REMARK    2  A    between atoms: C3_3  and  C4_4 
REMARK    3  A    between atoms: C4_4  and  C5_6 
REMARK    4  A    between atoms: C6_7  and  O2_8 
REMARK    5  A    between atoms: C12_15  and  O3_16 
REMARK    6  A    between atoms: O3_16  and  C13_17 
REMARK    7  A    between atoms: C13_17  and  C14_19 
REMARK    8  A    between atoms: C15_20  and  C16_21 
REMARK    9  A    between atoms: C18_23  and  O5_24 
REMARK   10  A    between atoms: C20_26  and  O6_27 
REMARK   11  A    between atoms: C21_29  and  O7_30 
ROOT
HETATM    1  O3  UNL     1     -52.509  23.201  30.786  1.00  0.00    -0.312 OA
ENDROOT
BRANCH   1   2
HETATM    2  C12 UNL     1     -51.329  22.470  30.929  1.00  0.00     0.141 C 
HETATM    3  C8  UNL     1     -50.159  23.070  30.165  1.00  0.00     0.018 C 
HETATM    4  C7  UNL     1     -50.521  23.199  28.726  1.00  0.00     0.039 C 
HETATM    5  C9  UNL     1     -49.134  21.940  30.280  1.00  0.00     0.008 C 
HETATM    6  C6  UNL     1     -50.842  21.894  28.079  1.00  0.00     0.130 C 
HETATM    7  C5  UNL     1     -51.886  21.148  28.865  1.00  0.00     0.091 C 
HETATM    8  C11 UNL     1     -51.408  21.096  30.312  1.00  0.00     0.029 C 
HETATM    9  C10 UNL     1     -49.942  20.662  30.372  1.00  0.00     0.008 C 
BRANCH   6  10
HETATM   10  O2  UNL     1     -51.311  22.196  26.778  1.00  0.00    -0.395 OA
ATOM     11  H2  UNL     1     -51.093  23.089  26.539  1.00  0.00     0.210 HD
ENDBRANCH   6  10
BRANCH   7  12
HETATM   12  C4  UNL     1     -52.128  19.780  28.401  1.00  0.00     0.137 C 
HETATM   13  O1  UNL     1     -52.004  19.469  27.228  1.00  0.00    -0.297 OA
BRANCH  12  14
HETATM   14  C3  UNL     1     -52.539  18.692  29.342  1.00  0.00     0.105 C 
BRANCH  14  15
HETATM   15  C2  UNL     1     -54.017  18.615  29.456  1.00  0.00    -0.029 C 
HETATM   16  C1  UNL     1     -54.608  17.437  29.477  1.00  0.00     0.007 C 
ENDBRANCH  14  15
ENDBRANCH  12  14
ENDBRANCH   7  12
ENDBRANCH   1   2
BRANCH   1  17
HETATM   17  C13 UNL     1     -53.631  22.772  31.506  1.00  0.00     0.283 C 
HETATM   18  O4  UNL     1     -53.707  23.023  32.736  1.00  0.00    -0.260 OA
BRANCH  17  19
HETATM   19  C14 UNL     1     -54.713  22.047  30.873  1.00  0.00     0.083 C 
HETATM   20  C15 UNL     1     -55.433  21.197  31.556  1.00  0.00     0.017 C 
BRANCH  20  21
HETATM   21  C16 UNL     1     -56.537  20.417  31.030  1.00  0.00    -0.031 A 
HETATM   22  C17 UNL     1     -57.182  20.803  29.876  1.00  0.00     0.051 A 
HETATM   23  C18 UNL     1     -58.234  20.068  29.365  1.00  0.00     0.104 A 
HETATM   24  C20 UNL     1     -58.645  18.921  30.030  1.00  0.00     0.133 A 
HETATM   25  C21 UNL     1     -58.021  18.515  31.179  1.00  0.00     0.104 A 
HETATM   26  C23 UNL     1     -56.961  19.281  31.668  1.00  0.00     0.051 A 
BRANCH  23  27
HETATM   27  O5  UNL     1     -58.893  20.443  28.205  1.00  0.00    -0.353 OA
HETATM   28  C19 UNL     1     -59.030  21.798  27.847  1.00  0.00     0.210 C 
ENDBRANCH  23  27
BRANCH  24  29
HETATM   29  O6  UNL     1     -59.707  18.151  29.543  1.00  0.00    -0.356 OA
ATOM     30  H6  UNL     1     -59.844  17.262  29.848  1.00  0.00     0.218 HD
ENDBRANCH  24  29
BRANCH  25  31
HETATM   31  O7  UNL     1     -58.441  17.352  31.849  1.00  0.00    -0.353 OA
HETATM   32  C22 UNL     1     -59.206  17.484  33.053  1.00  0.00     0.210 C 
ENDBRANCH  25  31
ENDBRANCH  20  21
ENDBRANCH  17  19
ENDBRANCH   1  17
TORSDOF 11
ENDMDL
MODEL 2
REMARK VINA RESULT: -7.992539262      0.055      2.310
REMARK  11 active torsions:
REMARK  status: ('A' for Active; 'I' for Inactive)
REMARK    1  A    between atoms: C2_2  and  C3_3 
REMARK    2  A    between atoms: C3_3  and  C4_4 
REMARK    3  A    between atoms: C4_4  and  C5_6 
REMARK    4  A    between atoms: C6_7  and  O2_8 
REMARK    5  A    between atoms: C12_15  and  O3_16 
REMARK    6  A    between atoms: O3_16  and  C13_17 
REMARK    7  A    between atoms: C13_17  and  C14_19 
REMARK    8  A    between atoms: C15_20  and  C16_21 
REMARK    9  A    between atoms: C18_23  and  O5_24 
REMARK   10  A    between atoms: C20_26  and  O6_27 
REMARK   11  A    between atoms: C21_29  and  O7_30 
ROOT
HETATM    1  O3  UNL     1     -52.545  23.195  30.774  1.00  0.00    -0.312 OA
ENDROOT
BRANCH   1   2
HETATM    2  C12 UNL     1     -51.367  22.464  30.933  1.00  0.00     0.141 C 
HETATM    3  C8  UNL     1     -50.185  23.068  30.189  1.00  0.00     0.018 C 
HETATM    4  C7  UNL     1     -50.526  23.201  28.744  1.00  0.00     0.039 C 
HETATM    5  C9  UNL     1     -49.162  21.938  30.316  1.00  0.00     0.008 C 
HETATM    6  C6  UNL     1     -50.836  21.897  28.089  1.00  0.00     0.130 C 
HETATM    7  C5  UNL     1     -51.891  21.148  28.856  1.00  0.00     0.091 C 
HETATM    8  C11 UNL     1     -51.435  21.091  30.310  1.00  0.00     0.029 C 
HETATM    9  C10 UNL     1     -49.970  20.659  30.391  1.00  0.00     0.008 C 
BRANCH   6  10
HETATM   10  O2  UNL     1     -51.285  22.203  26.782  1.00  0.00    -0.395 OA
ATOM     11  H2  UNL     1     -52.229  22.120  26.720  1.00  0.00     0.210 HD
ENDBRANCH   6  10
BRANCH   7  12
HETATM   12  C4  UNL     1     -52.125  19.781  28.385  1.00  0.00     0.137 C 
HETATM   13  O1  UNL     1     -51.999  19.477  27.210  1.00  0.00    -0.297 OA
BRANCH  12  14
HETATM   14  C3  UNL     1     -52.529  18.685  29.320  1.00  0.00     0.105 C 
BRANCH  14  15
HETATM   15  C2  UNL     1     -54.005  18.614  29.453  1.00  0.00    -0.029 C 
HETATM   16  C1  UNL     1     -54.601  17.439  29.472  1.00  0.00     0.007 C 
ENDBRANCH  14  15
ENDBRANCH  12  14
ENDBRANCH   7  12
ENDBRANCH   1   2
BRANCH   1  17
HETATM   17  C13 UNL     1     -53.665  22.792  31.512  1.00  0.00     0.283 C 
HETATM   18  O4  UNL     1     -53.708  23.032  32.746  1.00  0.00    -0.260 OA
BRANCH  17  19
HETATM   19  C14 UNL     1     -54.780  22.104  30.895  1.00  0.00     0.083 C 
HETATM   20  C15 UNL     1     -55.402  21.145  31.527  1.00  0.00     0.017 C 
BRANCH  20  21
HETATM   21  C16 UNL     1     -56.527  20.388  31.009  1.00  0.00    -0.031 A 
HETATM   22  C17 UNL     1     -56.961  19.250  31.652  1.00  0.00     0.051 A 
HETATM   23  C18 UNL     1     -58.032  18.521  31.170  1.00  0.00     0.104 A 
HETATM   24  C20 UNL     1     -58.676  18.947  30.017  1.00  0.00     0.133 A 
HETATM   25  C21 UNL     1     -58.264  20.076  29.359  1.00  0.00     0.104 A 
HETATM   26  C23 UNL     1     -57.179  20.789  29.873  1.00  0.00     0.051 A 
BRANCH  23  27
HETATM   27  O5  UNL     1     -58.481  17.374  31.804  1.00  0.00    -0.353 OA
HETATM   28  C19 UNL     1     -59.159  17.438  33.036  1.00  0.00     0.210 C 
ENDBRANCH  23  27
BRANCH  24  29
HETATM   29  O6  UNL     1     -59.762  18.236  29.498  1.00  0.00    -0.356 OA
ATOM     30  H6  UNL     1     -60.089  18.413  28.624  1.00  0.00     0.218 HD
ENDBRANCH  24  29
BRANCH  25  31
HETATM   31  O7  UNL     1     -58.921  20.503  28.191  1.00  0.00    -0.353 OA
HETATM   32  C22 UNL     1     -59.101  21.908  27.973  1.00  0.00     0.210 C 
ENDBRANCH  25  31
ENDBRANCH  20  21
ENDBRANCH  17  19
ENDBRANCH   1  17
TORSDOF 11
ENDMDL
MODEL 3
REMARK VINA RESULT: -7.549409535      1.674      3.980
REMARK  11 active torsions:
REMARK  status: ('A' for Active; 'I' for Inactive)
REMARK    1  A    between atoms: C2_2  and  C3_3 
REMARK    2  A    between atoms: C3_3  and  C4_4 
REMARK    3  A    between atoms: C4_4  and  C5_6 
REMARK    4  A    between atoms: C6_7  and  O2_8 
REMARK    5  A    between atoms: C12_15  and  O3_16 
REMARK    6  A    between atoms: O3_16  and  C13_17 
REMARK    7  A    between atoms: C13_17  and  C14_19 
REMARK    8  A    between atoms: C15_20  and  C16_21 
REMARK    9  A    between atoms: C18_23  and  O5_24 
REMARK   10  A    between atoms: C20_26  and  O6_27 
REMARK   11  A    between atoms: C21_29  and  O7_30 
ROOT
HETATM    1  O3  UNL     1     -53.001  22.002  30.524  1.00  0.00    -0.312 OA
ENDROOT
BRANCH   1   2
HETATM    2  C12 UNL     1     -51.940  22.334  29.682  1.00  0.00     0.141 C 
HETATM    3  C8  UNL     1     -51.951  21.558  28.374  1.00  0.00     0.018 C 
HETATM    4  C7  UNL     1     -51.948  20.097  28.665  1.00  0.00     0.039 C 
HETATM    5  C9  UNL     1     -50.572  21.917  27.818  1.00  0.00     0.008 C 
HETATM    6  C6  UNL     1     -50.747  19.650  29.428  1.00  0.00     0.130 C 
HETATM    7  C5  UNL     1     -50.561  20.478  30.670  1.00  0.00     0.091 C 
HETATM    8  C11 UNL     1     -50.595  21.942  30.243  1.00  0.00     0.029 C 
HETATM    9  C10 UNL     1     -49.693  22.162  29.027  1.00  0.00     0.008 C 
BRANCH   6  10
HETATM   10  O2  UNL     1     -50.965  18.290  29.757  1.00  0.00    -0.395 OA
ATOM     11  H2  UNL     1     -51.725  17.949  29.300  1.00  0.00     0.210 HD
ENDBRANCH   6  10
BRANCH   7  12
HETATM   12  C4  UNL     1     -49.306  20.226  31.382  1.00  0.00     0.137 C 
HETATM   13  O1  UNL     1     -48.754  19.139  31.343  1.00  0.00    -0.297 OA
BRANCH  12  14
HETATM   14  C3  UNL     1     -48.636  21.289  32.193  1.00  0.00     0.105 C 
BRANCH  14  15
HETATM   15  C2  UNL     1     -47.163  21.247  32.015  1.00  0.00    -0.029 C 
HETATM   16  C1  UNL     1     -46.594  22.013  31.106  1.00  0.00     0.007 C 
ENDBRANCH  14  15
ENDBRANCH  12  14
ENDBRANCH   7  12
ENDBRANCH   1   2
BRANCH   1  17
HETATM   17  C13 UNL     1     -54.232  22.632  30.300  1.00  0.00     0.283 C 
HETATM   18  O4  UNL     1     -54.277  23.887  30.225  1.00  0.00    -0.260 OA
BRANCH  17  19
HETATM   19  C14 UNL     1     -55.460  21.879  30.150  1.00  0.00     0.083 C 
HETATM   20  C15 UNL     1     -55.585  20.696  30.689  1.00  0.00     0.017 C 
BRANCH  20  21
HETATM   21  C16 UNL     1     -56.764  19.854  30.605  1.00  0.00    -0.031 A 
HETATM   22  C17 UNL     1     -56.954  18.823  31.498  1.00  0.00     0.051 A 
HETATM   23  C18 UNL     1     -58.072  18.014  31.429  1.00  0.00     0.104 A 
HETATM   24  C20 UNL     1     -59.016  18.248  30.440  1.00  0.00     0.133 A 
HETATM   25  C21 UNL     1     -58.852  19.268  29.539  1.00  0.00     0.104 A 
HETATM   26  C23 UNL     1     -57.711  20.066  29.638  1.00  0.00     0.051 A 
BRANCH  23  27
HETATM   27  O5  UNL     1     -58.277  16.972  32.319  1.00  0.00    -0.353 OA
HETATM   28  C19 UNL     1     -59.163  17.103  33.406  1.00  0.00     0.210 C 
ENDBRANCH  23  27
BRANCH  24  29
HETATM   29  O6  UNL     1     -60.161  17.451  30.337  1.00  0.00    -0.356 OA
ATOM     30  H6  UNL     1     -60.462  17.136  29.493  1.00  0.00     0.218 HD
ENDBRANCH  24  29
BRANCH  25  31
HETATM   31  O7  UNL     1     -59.812  19.502  28.539  1.00  0.00    -0.353 OA
HETATM   32  C22 UNL     1     -59.410  20.164  27.334  1.00  0.00     0.210 C 
ENDBRANCH  25  31
ENDBRANCH  20  21
ENDBRANCH  17  19
ENDBRANCH   1  17
TORSDOF 11
ENDMDL
MODEL 4
REMARK VINA RESULT: -7.543862126      1.673      3.256
REMARK  11 active torsions:
REMARK  status: ('A' for Active; 'I' for Inactive)
REMARK    1  A    between atoms: C2_2  and  C3_3 
REMARK    2  A    between atoms: C3_3  and  C4_4 
REMARK    3  A    between atoms: C4_4  and  C5_6 
REMARK    4  A    between atoms: C6_7  and  O2_8 
REMARK    5  A    between atoms: C12_15  and  O3_16 
REMARK    6  A    between atoms: O3_16  and  C13_17 
REMARK    7  A    between atoms: C13_17  and  C14_19 
REMARK    8  A    between atoms: C15_20  and  C16_21 
REMARK    9  A    between atoms: C18_23  and  O5_24 
REMARK   10  A    between atoms: C20_26  and  O6_27 
REMARK   11  A    between atoms: C21_29  and  O7_30 
ROOT
HETATM    1  O3  UNL     1     -53.027  21.985  30.566  1.00  0.00    -0.312 OA
ENDROOT
BRANCH   1   2
HETATM    2  C12 UNL     1     -51.974  22.323  29.716  1.00  0.00     0.141 C 
HETATM    3  C8  UNL     1     -51.995  21.555  28.403  1.00  0.00     0.018 C 
HETATM    4  C7  UNL     1     -51.987  20.092  28.686  1.00  0.00     0.039 C 
HETATM    5  C9  UNL     1     -50.621  21.919  27.838  1.00  0.00     0.008 C 
HETATM    6  C6  UNL     1     -50.778  19.642  29.436  1.00  0.00     0.130 C 
HETATM    7  C5  UNL     1     -50.583  20.464  30.681  1.00  0.00     0.091 C 
HETATM    8  C11 UNL     1     -50.623  21.930  30.263  1.00  0.00     0.029 C 
HETATM    9  C10 UNL     1     -49.733  22.159  29.040  1.00  0.00     0.008 C 
BRANCH   6  10
HETATM   10  O2  UNL     1     -50.991  18.281  29.759  1.00  0.00    -0.395 OA
ATOM     11  H2  UNL     1     -50.383  17.723  29.290  1.00  0.00     0.210 HD
ENDBRANCH   6  10
BRANCH   7  12
HETATM   12  C4  UNL     1     -49.321  20.211  31.381  1.00  0.00     0.137 C 
HETATM   13  O1  UNL     1     -48.755  19.133  31.311  1.00  0.00    -0.297 OA
BRANCH  12  14
HETATM   14  C3  UNL     1     -48.661  21.261  32.216  1.00  0.00     0.105 C 
BRANCH  14  15
HETATM   15  C2  UNL     1     -47.188  21.236  32.041  1.00  0.00    -0.029 C 
HETATM   16  C1  UNL     1     -46.627  22.006  31.130  1.00  0.00     0.007 C 
ENDBRANCH  14  15
ENDBRANCH  12  14
ENDBRANCH   7  12
ENDBRANCH   1   2
BRANCH   1  17
HETATM   17  C13 UNL     1     -54.259  22.618  30.359  1.00  0.00     0.283 C 
HETATM   18  O4  UNL     1     -54.307  23.874  30.322  1.00  0.00    -0.260 OA
BRANCH  17  19
HETATM   19  C14 UNL     1     -55.485  21.867  30.186  1.00  0.00     0.083 C 
HETATM   20  C15 UNL     1     -55.625  20.687  30.730  1.00  0.00     0.017 C 
BRANCH  20  21
HETATM   21  C16 UNL     1     -56.804  19.847  30.624  1.00  0.00    -0.031 A 
HETATM   22  C17 UNL     1     -57.740  20.073  29.640  1.00  0.00     0.051 A 
HETATM   23  C18 UNL     1     -58.865  19.280  29.528  1.00  0.00     0.104 A 
HETATM   24  C20 UNL     1     -59.052  18.239  30.427  1.00  0.00     0.133 A 
HETATM   25  C21 UNL     1     -58.136  17.993  31.416  1.00  0.00     0.104 A 
HETATM   26  C23 UNL     1     -57.009  18.814  31.499  1.00  0.00     0.051 A 
BRANCH  23  27
HETATM   27  O5  UNL     1     -59.817  19.494  28.544  1.00  0.00    -0.353 OA
HETATM   28  C19 UNL     1     -59.478  20.100  27.319  1.00  0.00     0.210 C 
ENDBRANCH  23  27
BRANCH  24  29
HETATM   29  O6  UNL     1     -60.179  17.415  30.347  1.00  0.00    -0.356 OA
ATOM     30  H6  UNL     1     -60.477  17.076  29.511  1.00  0.00     0.218 HD
ENDBRANCH  24  29
BRANCH  25  31
HETATM   31  O7  UNL     1     -58.329  16.937  32.324  1.00  0.00    -0.353 OA
HETATM   32  C22 UNL     1     -59.198  17.137  33.445  1.00  0.00     0.210 C 
ENDBRANCH  25  31
ENDBRANCH  20  21
ENDBRANCH  17  19
ENDBRANCH   1  17
TORSDOF 11
ENDMDL
MODEL 5
REMARK VINA RESULT: -7.516298574      5.083      7.816
REMARK  11 active torsions:
REMARK  status: ('A' for Active; 'I' for Inactive)
REMARK    1  A    between atoms: C2_2  and  C3_3 
REMARK    2  A    between atoms: C3_3  and  C4_4 
REMARK    3  A    between atoms: C4_4  and  C5_6 
REMARK    4  A    between atoms: C6_7  and  O2_8 
REMARK    5  A    between atoms: C12_15  and  O3_16 
REMARK    6  A    between atoms: O3_16  and  C13_17 
REMARK    7  A    between atoms: C13_17  and  C14_19 
REMARK    8  A    between atoms: C15_20  and  C16_21 
REMARK    9  A    between atoms: C18_23  and  O5_24 
REMARK   10  A    between atoms: C20_26  and  O6_27 
REMARK   11  A    between atoms: C21_29  and  O7_30 
ROOT
HETATM    1  O3  UNL     1     -50.213  21.108  31.154  1.00  0.00    -0.312 OA
ENDROOT
BRANCH   1   2
HETATM    2  C12 UNL     1     -50.517  20.767  29.835  1.00  0.00     0.141 C 
HETATM    3  C8  UNL     1     -50.168  21.863  28.840  1.00  0.00     0.018 C 
HETATM    4  C7  UNL     1     -50.865  23.123  29.227  1.00  0.00     0.039 C 
HETATM    5  C9  UNL     1     -50.852  21.331  27.580  1.00  0.00     0.008 C 
HETATM    6  C6  UNL     1     -52.351  22.996  29.236  1.00  0.00     0.130 C 
HETATM    7  C5  UNL     1     -52.785  21.825  30.074  1.00  0.00     0.091 C 
HETATM    8  C11 UNL     1     -51.998  20.611  29.592  1.00  0.00     0.029 C 
HETATM    9  C10 UNL     1     -52.037  20.524  28.065  1.00  0.00     0.008 C 
BRANCH   6  10
HETATM   10  O2  UNL     1     -52.852  24.209  29.766  1.00  0.00    -0.395 OA
ATOM     11  H2  UNL     1     -52.152  24.838  29.893  1.00  0.00     0.210 HD
ENDBRANCH   6  10
BRANCH   7  12
HETATM   12  C4  UNL     1     -54.215  21.520  29.991  1.00  0.00     0.137 C 
HETATM   13  O1  UNL     1     -55.000  22.272  29.438  1.00  0.00    -0.297 OA
BRANCH  12  14
HETATM   14  C3  UNL     1     -54.787  20.268  30.578  1.00  0.00     0.105 C 
BRANCH  14  15
HETATM   15  C2  UNL     1     -56.047  20.550  31.310  1.00  0.00    -0.029 C 
HETATM   16  C1  UNL     1     -56.882  19.564  31.571  1.00  0.00     0.007 C 
ENDBRANCH  14  15
ENDBRANCH  12  14
ENDBRANCH   7  12
ENDBRANCH   1   2
BRANCH   1  17
HETATM   17  C13 UNL     1     -49.179  20.405  31.786  1.00  0.00     0.283 C 
HETATM   18  O4  UNL     1     -48.032  20.400  31.270  1.00  0.00    -0.260 OA
BRANCH  17  19
HETATM   19  C14 UNL     1     -49.392  19.680  33.021  1.00  0.00     0.083 C 
HETATM   20  C15 UNL     1     -48.658  18.641  33.318  1.00  0.00     0.017 C 
BRANCH  20  21
HETATM   21  C16 UNL     1     -48.780  17.841  34.523  1.00  0.00    -0.031 A 
HETATM   22  C17 UNL     1     -48.620  16.474  34.475  1.00  0.00     0.051 A 
HETATM   23  C18 UNL     1     -48.733  15.701  35.615  1.00  0.00     0.104 A 
HETATM   24  C20 UNL     1     -49.015  16.318  36.826  1.00  0.00     0.133 A 
HETATM   25  C21 UNL     1     -49.180  17.676  36.900  1.00  0.00     0.104 A 
HETATM   26  C23 UNL     1     -49.058  18.427  35.730  1.00  0.00     0.051 A 
BRANCH  23  27
HETATM   27  O5  UNL     1     -48.575  14.325  35.584  1.00  0.00    -0.353 OA
HETATM   28  C19 UNL     1     -49.672  13.467  35.379  1.00  0.00     0.210 C 
ENDBRANCH  23  27
BRANCH  24  29
HETATM   29  O6  UNL     1     -49.138  15.569  38.001  1.00  0.00    -0.356 OA
ATOM     30  H6  UNL     1     -49.644  15.895  38.735  1.00  0.00     0.218 HD
ENDBRANCH  24  29
BRANCH  25  31
HETATM   31  O7  UNL     1     -49.464  18.296  38.130  1.00  0.00    -0.353 OA
HETATM   32  C22 UNL     1     -48.751  19.486  38.486  1.00  0.00     0.210 C 
ENDBRANCH  25  31
ENDBRANCH  20  21
ENDBRANCH  17  19
ENDBRANCH   1  17
TORSDOF 11
ENDMDL
