MODEL 1
REMARK VINA RESULT: -9.011775886      0.000      0.000
REMARK  6 active torsions:
REMARK  status: ('A' for Active; 'I' for Inactive)
REMARK    1  A    between atoms: S1_2  and  N1_4 
REMARK    2  A    between atoms: S1_2  and  C5_17 
REMARK    3  A    between atoms: N1_4  and  C1_6 
REMARK    4  A    between atoms: C1_6  and  C2_11 
REMARK    5  A    between atoms: N2_7  and  O3_9 
REMARK    6  A    between atoms: N4_19  and  C7_20 
ROOT
HETATM    1  O1  UNL     1      -0.278 -13.635  23.653  1.00  0.00    -0.199 OA
HETATM    2  S1  UNL     1      -0.241 -12.618  22.521  1.00  0.00     0.282 S 
HETATM    3  O2  UNL     1      -0.970 -13.208  21.347  1.00  0.00    -0.199 OA
ENDROOT
BRANCH   2   4
HETATM    4  N1  UNL     1       1.410 -12.277  22.133  1.00  0.00    -0.261 N 
ATOM      5  H1  UNL     1       1.685 -12.163  21.157  1.00  0.00     0.180 HD
BRANCH   4   6
HETATM    6  C1  UNL     1       2.361 -12.157  23.131  1.00  0.00     0.169 C 
HETATM    7  N2  UNL     1       2.057 -12.260  24.367  1.00  0.00    -0.250 N 
ATOM      8  H2  UNL     1       1.084 -12.435  24.619  1.00  0.00     0.196 HD
BRANCH   7   9
HETATM    9  O3  UNL     1       2.997 -12.144  25.377  1.00  0.00    -0.288 OA
ATOM     10  H3  UNL     1       3.019 -12.731  26.123  1.00  0.00     0.244 HD
ENDBRANCH   7   9
BRANCH   6  11
HETATM   11  C2  UNL     1       3.766 -11.905  22.790  1.00  0.00     0.120 A 
HETATM   12  N3  UNL     1       4.861 -12.497  23.231  1.00  0.00    -0.357 N 
HETATM   13  C3  UNL     1       6.027 -12.128  22.804  1.00  0.00     0.096 A 
ATOM     14  H3  UNL     1       4.788 -13.251  23.914  1.00  0.00     0.166 HD
HETATM   15  C4  UNL     1       6.074 -11.108  21.885  1.00  0.00     0.069 A 
HETATM   16  S2  UNL     1       4.418 -10.745  21.694  1.00  0.00    -0.079 SA
ENDBRANCH   6  11
ENDBRANCH   4   6
ENDBRANCH   2   4
BRANCH   2  17
HETATM   17  C5  UNL     1      -1.087 -11.189  23.025  1.00  0.00     0.182 A 
HETATM   18  C6  UNL     1      -1.157 -10.657  24.298  1.00  0.00     0.163 A 
HETATM   19  N4  UNL     1      -1.903  -9.555  24.262  1.00  0.00    -0.250 N 
HETATM   20  N5  UNL     1      -2.287  -9.407  23.003  1.00  0.00    -0.235 N 
HETATM   21  N6  UNL     1      -1.812 -10.368  22.248  1.00  0.00    -0.273 N 
ATOM     22  H5  UNL     1      -2.874  -8.645  22.664  1.00  0.00     0.209 HD
ATOM     23  H6  UNL     1      -1.968 -10.475  21.246  1.00  0.00     0.189 HD
BRANCH  19  24
HETATM   24  C7  UNL     1      -2.268  -8.658  25.312  1.00  0.00     0.057 A 
HETATM   25  C8  UNL     1      -2.688  -7.368  25.065  1.00  0.00     0.031 A 
HETATM   26  C9  UNL     1      -3.034  -6.528  26.100  1.00  0.00     0.002 A 
HETATM   27  C10 UNL     1      -2.967  -6.959  27.418  1.00  0.00     0.000 A 
HETATM   28  C11 UNL     1      -2.549  -8.243  27.661  1.00  0.00     0.002 A 
HETATM   29  C12 UNL     1      -2.204  -9.083  26.631  1.00  0.00     0.031 A 
ENDBRANCH  19  24
ENDBRANCH   2  17
TORSDOF 6
ENDMDL
MODEL 2
REMARK VINA RESULT: -8.979478034      1.583      2.074
REMARK  6 active torsions:
REMARK  status: ('A' for Active; 'I' for Inactive)
REMARK    1  A    between atoms: S1_2  and  N1_4 
REMARK    2  A    between atoms: S1_2  and  C5_17 
REMARK    3  A    between atoms: N1_4  and  C1_6 
REMARK    4  A    between atoms: C1_6  and  C2_11 
REMARK    5  A    between atoms: N2_7  and  O3_9 
REMARK    6  A    between atoms: N4_19  and  C7_20 
ROOT
HETATM    1  O1  UNL     1      -1.890 -12.616  22.125  1.00  0.00    -0.199 OA
HETATM    2  S1  UNL     1      -0.758 -11.780  22.706  1.00  0.00     0.282 S 
HETATM    3  O2  UNL     1      -0.345 -10.776  21.668  1.00  0.00    -0.199 OA
ENDROOT
BRANCH   2   4
HETATM    4  N1  UNL     1       0.551 -12.829  23.126  1.00  0.00    -0.261 N 
ATOM      5  H1  UNL     1       0.454 -13.836  22.992  1.00  0.00     0.180 HD
BRANCH   4   6
HETATM    6  C1  UNL     1       1.729 -12.319  23.643  1.00  0.00     0.169 C 
HETATM    7  N2  UNL     1       2.025 -12.426  24.880  1.00  0.00    -0.250 N 
ATOM      8  H2  UNL     1       1.370 -12.902  25.501  1.00  0.00     0.196 HD
BRANCH   7   9
HETATM    9  O3  UNL     1       3.200 -11.922  25.412  1.00  0.00    -0.288 OA
ATOM     10  H3  UNL     1       3.387 -10.991  25.445  1.00  0.00     0.244 HD
ENDBRANCH   7   9
BRANCH   6  11
HETATM   11  C2  UNL     1       2.685 -11.630  22.767  1.00  0.00     0.120 A 
HETATM   12  N3  UNL     1       2.764 -10.352  22.444  1.00  0.00    -0.357 N 
HETATM   13  C3  UNL     1       3.692  -9.931  21.645  1.00  0.00     0.096 A 
ATOM     14  H3  UNL     1       2.088  -9.691  22.826  1.00  0.00     0.166 HD
HETATM   15  C4  UNL     1       4.578 -10.859  21.155  1.00  0.00     0.069 A 
HETATM   16  S2  UNL     1       4.010 -12.291  21.886  1.00  0.00    -0.079 SA
ENDBRANCH   6  11
ENDBRANCH   4   6
ENDBRANCH   2   4
BRANCH   2  17
HETATM   17  C5  UNL     1      -1.354 -10.918  24.090  1.00  0.00     0.182 A 
HETATM   18  C6  UNL     1      -1.741  -9.593  24.155  1.00  0.00     0.163 A 
HETATM   19  N4  UNL     1      -2.135  -9.322  25.397  1.00  0.00    -0.250 N 
HETATM   20  N5  UNL     1      -1.996 -10.446  26.085  1.00  0.00    -0.235 N 
HETATM   21  N6  UNL     1      -1.532 -11.410  25.327  1.00  0.00    -0.273 N 
ATOM     22  H5  UNL     1      -2.221 -10.548  27.075  1.00  0.00     0.209 HD
ATOM     23  H6  UNL     1      -1.340 -12.366  25.625  1.00  0.00     0.189 HD
BRANCH  19  24
HETATM   24  C7  UNL     1      -2.622  -8.103  25.962  1.00  0.00     0.057 A 
HETATM   25  C8  UNL     1      -2.836  -7.952  27.315  1.00  0.00     0.031 A 
HETATM   26  C9  UNL     1      -3.305  -6.763  27.828  1.00  0.00     0.002 A 
HETATM   27  C10 UNL     1      -3.574  -5.687  26.992  1.00  0.00     0.000 A 
HETATM   28  C11 UNL     1      -3.360  -5.839  25.646  1.00  0.00     0.002 A 
HETATM   29  C12 UNL     1      -2.893  -7.024  25.132  1.00  0.00     0.031 A 
ENDBRANCH  19  24
ENDBRANCH   2  17
TORSDOF 6
ENDMDL
MODEL 3
REMARK VINA RESULT: -8.898267920      1.636      1.944
REMARK  6 active torsions:
REMARK  status: ('A' for Active; 'I' for Inactive)
REMARK    1  A    between atoms: S1_2  and  N1_4 
REMARK    2  A    between atoms: S1_2  and  C5_17 
REMARK    3  A    between atoms: N1_4  and  C1_6 
REMARK    4  A    between atoms: C1_6  and  C2_11 
REMARK    5  A    between atoms: N2_7  and  O3_9 
REMARK    6  A    between atoms: N4_19  and  C7_20 
ROOT
HETATM    1  O1  UNL     1      -0.114 -14.101  25.054  1.00  0.00    -0.199 OA
HETATM    2  S1  UNL     1      -0.725 -13.025  24.168  1.00  0.00     0.282 S 
HETATM    3  O2  UNL     1      -1.830 -13.656  23.370  1.00  0.00    -0.199 OA
ENDROOT
BRANCH   2   4
HETATM    4  N1  UNL     1       0.509 -12.383  23.139  1.00  0.00    -0.261 N 
ATOM      5  H1  UNL     1       0.293 -12.165  22.167  1.00  0.00     0.180 HD
BRANCH   4   6
HETATM    6  C1  UNL     1       1.788 -12.163  23.622  1.00  0.00     0.169 C 
HETATM    7  N2  UNL     1       2.050 -12.187  24.871  1.00  0.00    -0.250 N 
ATOM      8  H2  UNL     1       1.292 -12.373  25.527  1.00  0.00     0.196 HD
BRANCH   7   9
HETATM    9  O3  UNL     1       3.324 -11.970  25.369  1.00  0.00    -0.288 OA
ATOM     10  H3  UNL     1       3.833 -12.656  25.785  1.00  0.00     0.244 HD
ENDBRANCH   7   9
BRANCH   6  11
HETATM   11  C2  UNL     1       2.894 -11.893  22.694  1.00  0.00     0.120 A 
HETATM   12  N3  UNL     1       3.569 -10.777  22.489  1.00  0.00    -0.357 N 
HETATM   13  C3  UNL     1       4.524 -10.737  21.615  1.00  0.00     0.096 A 
ATOM     14  H3  UNL     1       3.336  -9.939  23.022  1.00  0.00     0.166 HD
HETATM   15  C4  UNL     1       4.800 -11.890  20.921  1.00  0.00     0.069 A 
HETATM   16  S2  UNL     1       3.653 -12.967  21.581  1.00  0.00    -0.079 SA
ENDBRANCH   6  11
ENDBRANCH   4   6
ENDBRANCH   2   4
BRANCH   2  17
HETATM   17  C5  UNL     1      -1.417 -11.794  25.178  1.00  0.00     0.182 A 
HETATM   18  C6  UNL     1      -1.565 -10.452  24.887  1.00  0.00     0.163 A 
HETATM   19  N4  UNL     1      -2.141  -9.849  25.926  1.00  0.00    -0.250 N 
HETATM   20  N5  UNL     1      -2.343 -10.791  26.836  1.00  0.00    -0.235 N 
HETATM   21  N6  UNL     1      -1.919 -11.957  26.412  1.00  0.00    -0.273 N 
ATOM     22  H5  UNL     1      -2.772 -10.629  27.748  1.00  0.00     0.209 HD
ATOM     23  H6  UNL     1      -1.964 -12.834  26.930  1.00  0.00     0.189 HD
BRANCH  19  24
HETATM   24  C7  UNL     1      -2.502  -8.480  26.110  1.00  0.00     0.057 A 
HETATM   25  C8  UNL     1      -2.654  -7.610  25.051  1.00  0.00     0.031 A 
HETATM   26  C9  UNL     1      -3.004  -6.295  25.262  1.00  0.00     0.002 A 
HETATM   27  C10 UNL     1      -3.211  -5.812  26.548  1.00  0.00     0.000 A 
HETATM   28  C11 UNL     1      -3.059  -6.679  27.600  1.00  0.00     0.002 A 
HETATM   29  C12 UNL     1      -2.710  -7.991  27.392  1.00  0.00     0.031 A 
ENDBRANCH  19  24
ENDBRANCH   2  17
TORSDOF 6
ENDMDL
MODEL 4
REMARK VINA RESULT: -8.837570246      0.976      1.120
REMARK  6 active torsions:
REMARK  status: ('A' for Active; 'I' for Inactive)
REMARK    1  A    between atoms: S1_2  and  N1_4 
REMARK    2  A    between atoms: S1_2  and  C5_17 
REMARK    3  A    between atoms: N1_4  and  C1_6 
REMARK    4  A    between atoms: C1_6  and  C2_11 
REMARK    5  A    between atoms: N2_7  and  O3_9 
REMARK    6  A    between atoms: N4_19  and  C7_20 
ROOT
HETATM    1  O1  UNL     1      -0.064 -13.675  23.224  1.00  0.00    -0.199 OA
HETATM    2  S1  UNL     1      -0.291 -12.241  22.764  1.00  0.00     0.282 S 
HETATM    3  O2  UNL     1      -1.147 -12.282  21.530  1.00  0.00    -0.199 OA
ENDROOT
BRANCH   2   4
HETATM    4  N1  UNL     1       1.244 -11.510  22.444  1.00  0.00    -0.261 N 
ATOM      5  H1  UNL     1       1.367 -10.944  21.604  1.00  0.00     0.180 HD
BRANCH   4   6
HETATM    6  C1  UNL     1       2.306 -11.684  23.314  1.00  0.00     0.169 C 
HETATM    7  N2  UNL     1       2.131 -11.822  24.571  1.00  0.00    -0.250 N 
ATOM      8  H2  UNL     1       1.180 -11.801  24.938  1.00  0.00     0.196 HD
BRANCH   7   9
HETATM    9  O3  UNL     1       3.183 -11.998  25.454  1.00  0.00    -0.288 OA
ATOM     10  H3  UNL     1       3.492 -11.305  26.025  1.00  0.00     0.244 HD
ENDBRANCH   7   9
BRANCH   6  11
HETATM   11  C2  UNL     1       3.683 -11.716  22.805  1.00  0.00     0.120 A 
HETATM   12  N3  UNL     1       4.689 -12.501  23.144  1.00  0.00    -0.357 N 
HETATM   13  C3  UNL     1       5.844 -12.374  22.573  1.00  0.00     0.096 A 
ATOM     14  H3  UNL     1       4.555 -13.214  23.862  1.00  0.00     0.166 HD
HETATM   15  C4  UNL     1       5.976 -11.400  21.613  1.00  0.00     0.069 A 
HETATM   16  S2  UNL     1       4.409 -10.725  21.596  1.00  0.00    -0.079 SA
ENDBRANCH   6  11
ENDBRANCH   4   6
ENDBRANCH   2   4
BRANCH   2  17
HETATM   17  C5  UNL     1      -1.158 -11.388  24.002  1.00  0.00     0.182 A 
HETATM   18  C6  UNL     1      -1.262 -10.020  24.167  1.00  0.00     0.163 A 
HETATM   19  N4  UNL     1      -2.016  -9.773  25.236  1.00  0.00    -0.250 N 
HETATM   20  N5  UNL     1      -2.370 -10.953  25.722  1.00  0.00    -0.235 N 
HETATM   21  N6  UNL     1      -1.871 -11.930  25.003  1.00  0.00    -0.273 N 
ATOM     22  H5  UNL     1      -2.955 -11.086  26.547  1.00  0.00     0.209 HD
ATOM     23  H6  UNL     1      -2.001 -12.926  25.175  1.00  0.00     0.189 HD
BRANCH  19  24
HETATM   24  C7  UNL     1      -2.412  -8.528  25.813  1.00  0.00     0.057 A 
HETATM   25  C8  UNL     1      -2.707  -7.421  25.045  1.00  0.00     0.031 A 
HETATM   26  C9  UNL     1      -3.087  -6.235  25.633  1.00  0.00     0.002 A 
HETATM   27  C10 UNL     1      -3.182  -6.125  27.013  1.00  0.00     0.000 A 
HETATM   28  C11 UNL     1      -2.889  -7.227  27.776  1.00  0.00     0.002 A 
HETATM   29  C12 UNL     1      -2.509  -8.411  27.192  1.00  0.00     0.031 A 
ENDBRANCH  19  24
ENDBRANCH   2  17
TORSDOF 6
ENDMDL
MODEL 5
REMARK VINA RESULT: -8.637596804      1.358      1.510
REMARK  6 active torsions:
REMARK  status: ('A' for Active; 'I' for Inactive)
REMARK    1  A    between atoms: S1_2  and  N1_4 
REMARK    2  A    between atoms: S1_2  and  C5_17 
REMARK    3  A    between atoms: N1_4  and  C1_6 
REMARK    4  A    between atoms: C1_6  and  C2_11 
REMARK    5  A    between atoms: N2_7  and  O3_9 
REMARK    6  A    between atoms: N4_19  and  C7_20 
ROOT
HETATM    1  O1  UNL     1       1.180 -13.069  23.892  1.00  0.00    -0.199 OA
HETATM    2  S1  UNL     1       0.924 -12.193  22.674  1.00  0.00     0.282 S 
HETATM    3  O2  UNL     1       0.391 -13.071  21.577  1.00  0.00    -0.199 OA
ENDROOT
BRANCH   2   4
HETATM    4  N1  UNL     1       2.409 -11.436  22.211  1.00  0.00    -0.261 N 
ATOM      5  H1  UNL     1       2.425 -10.435  22.015  1.00  0.00     0.180 HD
BRANCH   4   6
HETATM    6  C1  UNL     1       3.575 -12.173  22.103  1.00  0.00     0.169 C 
HETATM    7  N2  UNL     1       3.612 -13.419  22.378  1.00  0.00    -0.250 N 
ATOM      8  H2  UNL     1       2.756 -13.879  22.686  1.00  0.00     0.196 HD
BRANCH   7   9
HETATM    9  O3  UNL     1       4.771 -14.171  22.273  1.00  0.00    -0.288 OA
ATOM     10  H3  UNL     1       5.239 -14.275  21.454  1.00  0.00     0.244 HD
ENDBRANCH   7   9
BRANCH   6  11
HETATM   11  C2  UNL     1       4.820 -11.531  21.661  1.00  0.00     0.120 A 
HETATM   12  N3  UNL     1       6.028 -11.580  22.190  1.00  0.00    -0.357 N 
HETATM   13  C3  UNL     1       7.012 -10.936  21.646  1.00  0.00     0.096 A 
ATOM     14  H3  UNL     1       6.189 -12.128  23.035  1.00  0.00     0.166 HD
HETATM   15  C4  UNL     1       6.746 -10.211  20.510  1.00  0.00     0.069 A 
HETATM   16  S2  UNL     1       5.080 -10.508  20.298  1.00  0.00    -0.079 SA
ENDBRANCH   6  11
ENDBRANCH   4   6
ENDBRANCH   2   4
BRANCH   2  17
HETATM   17  C5  UNL     1      -0.292 -11.021  23.073  1.00  0.00     0.182 A 
HETATM   18  C6  UNL     1      -0.473 -10.373  24.280  1.00  0.00     0.163 A 
HETATM   19  N4  UNL     1      -1.516  -9.552  24.174  1.00  0.00    -0.250 N 
HETATM   20  N5  UNL     1      -1.971  -9.687  22.937  1.00  0.00    -0.235 N 
HETATM   21  N6  UNL     1      -1.258 -10.557  22.263  1.00  0.00    -0.273 N 
ATOM     22  H5  UNL     1      -2.771  -9.181  22.558  1.00  0.00     0.209 HD
ATOM     23  H6  UNL     1      -1.410 -10.833  21.293  1.00  0.00     0.189 HD
BRANCH  19  24
HETATM   24  C7  UNL     1      -2.095  -8.673  25.139  1.00  0.00     0.057 A 
HETATM   25  C8  UNL     1      -2.590  -7.431  24.800  1.00  0.00     0.031 A 
HETATM   26  C9  UNL     1      -3.143  -6.607  25.755  1.00  0.00     0.002 A 
HETATM   27  C10 UNL     1      -3.214  -7.007  27.083  1.00  0.00     0.000 A 
HETATM   28  C11 UNL     1      -2.722  -8.242  27.418  1.00  0.00     0.002 A 
HETATM   29  C12 UNL     1      -2.170  -9.066  26.468  1.00  0.00     0.031 A 
ENDBRANCH  19  24
ENDBRANCH   2  17
TORSDOF 6
ENDMDL
