MODEL 1
REMARK VINA RESULT: -9.226567472      0.000      0.000
REMARK  11 active torsions:
REMARK  status: ('A' for Active; 'I' for Inactive)
REMARK    1  A    between atoms: C2_2  and  C3_3 
REMARK    2  A    between atoms: C3_3  and  C4_4 
REMARK    3  A    between atoms: C4_4  and  N1_5 
REMARK    4  A    between atoms: N1_5  and  C5_7 
REMARK    5  A    between atoms: C5_7  and  C6_8 
REMARK    6  A    between atoms: C6_8  and  C7_9 
REMARK    7  A    between atoms: C7_9  and  N2_10 
REMARK    8  A    between atoms: N2_10  and  C8_12 
REMARK    9  A    between atoms: C8_12  and  C9_13 
REMARK   10  A    between atoms: C10_18  and  C11_19 
REMARK   11  A    between atoms: C17_25  and  C18_26 
ROOT
HETATM    1  C18 UNL     1       7.415 -65.392  57.926  1.00  0.00    -0.021 A 
HETATM    2  C19 UNL     1       6.742 -64.470  58.655  1.00  0.00     0.014 A 
HETATM    3  C20 UNL     1       7.426 -63.609  59.518  1.00  0.00     0.023 A 
HETATM    4  C21 UNL     1       8.780 -63.668  59.652  1.00  0.00     0.044 A 
HETATM    5  C22 UNL     1       9.480 -62.775  60.543  1.00  0.00     0.099 C 
HETATM    6  N5  UNL     1      10.024 -62.067  61.266  1.00  0.00    -0.191 NA
HETATM    7  C23 UNL     1       9.483 -64.605  58.914  1.00  0.00     0.023 A 
HETATM    8  C24 UNL     1       8.807 -65.449  58.068  1.00  0.00     0.014 A 
ENDROOT
BRANCH   1   9
HETATM    9  C17 UNL     1       6.824 -66.362  56.984  1.00  0.00     0.029 A 
HETATM   10  C9  UNL     1       6.612 -67.711  57.128  1.00  0.00     0.056 A 
HETATM   11  N3  UNL     1       6.124 -68.171  55.977  1.00  0.00    -0.302 N 
HETATM   12  N4  UNL     1       6.011 -67.202  55.122  1.00  0.00    -0.299 N 
ATOM     13  H3  UNL     1       5.876 -69.143  55.794  1.00  0.00     0.186 HD
HETATM   14  C10 UNL     1       6.434 -66.053  55.712  1.00  0.00     0.071 A 
ATOM     15  H4  UNL     1       5.664 -67.288  54.167  1.00  0.00     0.187 HD
BRANCH  10  16
HETATM   16  C8  UNL     1       6.737 -68.482  58.397  1.00  0.00     0.178 C 
BRANCH  16  17
HETATM   17  N2  UNL     1       8.075 -68.891  58.709  1.00  0.00    -0.396 N 
ATOM     18  H2  UNL     1       8.823 -68.207  58.822  1.00  0.00     0.159 HD
BRANCH  17  19
HETATM   19  C7  UNL     1       8.315 -70.238  58.850  1.00  0.00     0.061 C 
BRANCH  19  20
HETATM   20  C6  UNL     1       8.620 -70.800  60.188  1.00  0.00     0.088 C 
BRANCH  20  21
HETATM   21  C5  UNL     1       7.483 -70.955  61.139  1.00  0.00     0.060 C 
BRANCH  21  22
HETATM   22  N1  UNL     1       7.436 -70.049  62.205  1.00  0.00    -0.402 N 
ATOM     23  H1  UNL     1       8.014 -70.154  63.038  1.00  0.00     0.158 HD
BRANCH  22  24
HETATM   24  C4  UNL     1       6.517 -68.965  62.040  1.00  0.00     0.118 C 
BRANCH  24  25
HETATM   25  C3  UNL     1       7.025 -67.781  62.813  1.00  0.00     0.019 C 
BRANCH  25  26
HETATM   26  C2  UNL     1       7.384 -66.621  61.928  1.00  0.00    -0.003 C 
HETATM   27  C1  UNL     1       7.342 -65.324  62.698  1.00  0.00     0.005 C 
ENDBRANCH  25  26
ENDBRANCH  24  25
ENDBRANCH  22  24
ENDBRANCH  21  22
ENDBRANCH  20  21
ENDBRANCH  19  20
ENDBRANCH  17  19
ENDBRANCH  16  17
ENDBRANCH  10  16
BRANCH  14  28
HETATM   28  C11 UNL     1       6.361 -64.753  55.064  1.00  0.00    -0.007 A 
HETATM   29  C12 UNL     1       5.108 -64.202  54.962  1.00  0.00     0.014 A 
HETATM   30  C13 UNL     1       4.953 -62.999  54.325  1.00  0.00     0.001 A 
HETATM   31  C14 UNL     1       6.033 -62.355  53.796  1.00  0.00     0.000 A 
HETATM   32  C15 UNL     1       7.290 -62.922  53.906  1.00  0.00     0.001 A 
HETATM   33  C16 UNL     1       7.457 -64.141  54.550  1.00  0.00     0.014 A 
ENDBRANCH  14  28
ENDBRANCH   1   9
TORSDOF 11
ENDMDL
MODEL 2
REMARK VINA RESULT: -9.216942646      2.468      7.769
REMARK  11 active torsions:
REMARK  status: ('A' for Active; 'I' for Inactive)
REMARK    1  A    between atoms: C2_2  and  C3_3 
REMARK    2  A    between atoms: C3_3  and  C4_4 
REMARK    3  A    between atoms: C4_4  and  N1_5 
REMARK    4  A    between atoms: N1_5  and  C5_7 
REMARK    5  A    between atoms: C5_7  and  C6_8 
REMARK    6  A    between atoms: C6_8  and  C7_9 
REMARK    7  A    between atoms: C7_9  and  N2_10 
REMARK    8  A    between atoms: N2_10  and  C8_12 
REMARK    9  A    between atoms: C8_12  and  C9_13 
REMARK   10  A    between atoms: C10_18  and  C11_19 
REMARK   11  A    between atoms: C17_25  and  C18_26 
ROOT
HETATM    1  C18 UNL     1       7.620 -69.469  59.183  1.00  0.00    -0.021 A 
HETATM    2  C19 UNL     1       8.958 -69.639  59.302  1.00  0.00     0.014 A 
HETATM    3  C20 UNL     1       9.487 -70.876  59.681  1.00  0.00     0.023 A 
HETATM    4  C21 UNL     1       8.680 -71.943  59.941  1.00  0.00     0.044 A 
HETATM    5  C22 UNL     1       9.233 -73.218  60.330  1.00  0.00     0.099 C 
HETATM    6  N5  UNL     1       9.684 -74.224  60.652  1.00  0.00    -0.191 NA
HETATM    7  C23 UNL     1       7.309 -71.785  59.824  1.00  0.00     0.023 A 
HETATM    8  C24 UNL     1       6.795 -70.569  59.451  1.00  0.00     0.014 A 
ENDROOT
BRANCH   1   9
HETATM    9  C17 UNL     1       6.929 -68.225  58.796  1.00  0.00     0.029 A 
HETATM   10  C9  UNL     1       6.492 -67.808  57.563  1.00  0.00     0.056 A 
HETATM   11  N3  UNL     1       5.996 -66.579  57.702  1.00  0.00    -0.302 N 
HETATM   12  N4  UNL     1       6.089 -66.198  58.939  1.00  0.00    -0.299 N 
ATOM     13  H3  UNL     1       5.602 -66.018  56.947  1.00  0.00     0.186 HD
HETATM   14  C10 UNL     1       6.662 -67.198  59.658  1.00  0.00     0.071 A 
ATOM     15  H4  UNL     1       5.782 -65.299  59.309  1.00  0.00     0.187 HD
BRANCH  10  16
HETATM   16  C8  UNL     1       6.422 -68.646  56.334  1.00  0.00     0.178 C 
BRANCH  16  17
HETATM   17  N2  UNL     1       7.131 -68.107  55.211  1.00  0.00    -0.396 N 
ATOM     18  H2  UNL     1       8.129 -68.272  55.089  1.00  0.00     0.159 HD
BRANCH  17  19
HETATM   19  C7  UNL     1       6.418 -67.358  54.304  1.00  0.00     0.061 C 
BRANCH  19  20
HETATM   20  C6  UNL     1       6.351 -65.884  54.450  1.00  0.00     0.088 C 
BRANCH  20  21
HETATM   21  C5  UNL     1       7.614 -65.175  54.802  1.00  0.00     0.060 C 
BRANCH  21  22
HETATM   22  N1  UNL     1       7.790 -63.904  54.242  1.00  0.00    -0.402 N 
ATOM     23  H1  UNL     1       8.617 -63.655  53.699  1.00  0.00     0.158 HD
BRANCH  22  24
HETATM   24  C4  UNL     1       6.726 -62.980  54.485  1.00  0.00     0.118 C 
BRANCH  24  25
HETATM   25  C3  UNL     1       6.596 -62.070  53.295  1.00  0.00     0.019 C 
BRANCH  25  26
HETATM   26  C2  UNL     1       6.991 -60.654  53.603  1.00  0.00    -0.003 C 
HETATM   27  C1  UNL     1       6.834 -60.360  55.075  1.00  0.00     0.005 C 
ENDBRANCH  25  26
ENDBRANCH  24  25
ENDBRANCH  22  24
ENDBRANCH  21  22
ENDBRANCH  20  21
ENDBRANCH  19  20
ENDBRANCH  17  19
ENDBRANCH  16  17
ENDBRANCH  10  16
BRANCH  14  28
HETATM   28  C11 UNL     1       6.836 -67.142  61.100  1.00  0.00    -0.007 A 
HETATM   29  C12 UNL     1       7.233 -65.931  61.611  1.00  0.00     0.014 A 
HETATM   30  C13 UNL     1       7.461 -65.811  62.957  1.00  0.00     0.001 A 
HETATM   31  C14 UNL     1       7.296 -66.886  63.782  1.00  0.00     0.000 A 
HETATM   32  C15 UNL     1       6.897 -68.100  63.254  1.00  0.00     0.001 A 
HETATM   33  C16 UNL     1       6.663 -68.231  61.891  1.00  0.00     0.014 A 
ENDBRANCH  14  28
ENDBRANCH   1   9
TORSDOF 11
ENDMDL
MODEL 3
REMARK VINA RESULT: -9.112070345      2.551      8.014
REMARK  11 active torsions:
REMARK  status: ('A' for Active; 'I' for Inactive)
REMARK    1  A    between atoms: C2_2  and  C3_3 
REMARK    2  A    between atoms: C3_3  and  C4_4 
REMARK    3  A    between atoms: C4_4  and  N1_5 
REMARK    4  A    between atoms: N1_5  and  C5_7 
REMARK    5  A    between atoms: C5_7  and  C6_8 
REMARK    6  A    between atoms: C6_8  and  C7_9 
REMARK    7  A    between atoms: C7_9  and  N2_10 
REMARK    8  A    between atoms: N2_10  and  C8_12 
REMARK    9  A    between atoms: C8_12  and  C9_13 
REMARK   10  A    between atoms: C10_18  and  C11_19 
REMARK   11  A    between atoms: C17_25  and  C18_26 
ROOT
HETATM    1  C18 UNL     1       8.039 -70.402  59.351  1.00  0.00    -0.021 A 
HETATM    2  C19 UNL     1       7.064 -71.341  59.320  1.00  0.00     0.014 A 
HETATM    3  C20 UNL     1       7.296 -72.624  59.824  1.00  0.00     0.023 A 
HETATM    4  C21 UNL     1       8.500 -72.970  60.359  1.00  0.00     0.044 A 
HETATM    5  C22 UNL     1       8.731 -74.295  60.879  1.00  0.00     0.099 C 
HETATM    6  N5  UNL     1       8.907 -75.358  61.278  1.00  0.00    -0.191 NA
HETATM    7  C23 UNL     1       9.508 -72.021  60.397  1.00  0.00     0.023 A 
HETATM    8  C24 UNL     1       9.276 -70.763  59.902  1.00  0.00     0.014 A 
ENDROOT
BRANCH   1   9
HETATM    9  C17 UNL     1       7.935 -69.018  58.853  1.00  0.00     0.029 A 
HETATM   10  C9  UNL     1       8.070 -68.529  57.577  1.00  0.00     0.056 A 
HETATM   11  N3  UNL     1       7.968 -67.202  57.637  1.00  0.00    -0.302 N 
HETATM   12  N4  UNL     1       7.774 -66.825  58.863  1.00  0.00    -0.299 N 
ATOM     13  H3  UNL     1       8.033 -66.574  56.836  1.00  0.00     0.186 HD
HETATM   14  C10 UNL     1       7.743 -67.928  59.655  1.00  0.00     0.071 A 
ATOM     15  H4  UNL     1       7.664 -65.862  59.179  1.00  0.00     0.187 HD
BRANCH  10  16
HETATM   16  C8  UNL     1       8.138 -69.347  56.333  1.00  0.00     0.178 C 
BRANCH  16  17
HETATM   17  N2  UNL     1       7.068 -69.108  55.411  1.00  0.00    -0.396 N 
ATOM     18  H2  UNL     1       6.850 -69.776  54.671  1.00  0.00     0.159 HD
BRANCH  17  19
HETATM   19  C7  UNL     1       6.344 -67.948  55.557  1.00  0.00     0.061 C 
BRANCH  19  20
HETATM   20  C6  UNL     1       6.354 -66.928  54.481  1.00  0.00     0.088 C 
BRANCH  20  21
HETATM   21  C5  UNL     1       6.516 -65.504  54.891  1.00  0.00     0.060 C 
BRANCH  21  22
HETATM   22  N1  UNL     1       7.661 -64.848  54.425  1.00  0.00    -0.402 N 
ATOM     23  H1  UNL     1       8.403 -65.335  53.922  1.00  0.00     0.158 HD
BRANCH  22  24
HETATM   24  C4  UNL     1       7.715 -63.446  54.704  1.00  0.00     0.118 C 
BRANCH  24  25
HETATM   25  C3  UNL     1       6.514 -62.785  54.088  1.00  0.00     0.019 C 
BRANCH  25  26
HETATM   26  C2  UNL     1       6.876 -61.597  53.243  1.00  0.00    -0.003 C 
HETATM   27  C1  UNL     1       6.792 -60.322  54.045  1.00  0.00     0.005 C 
ENDBRANCH  25  26
ENDBRANCH  24  25
ENDBRANCH  22  24
ENDBRANCH  21  22
ENDBRANCH  20  21
ENDBRANCH  19  20
ENDBRANCH  17  19
ENDBRANCH  16  17
ENDBRANCH  10  16
BRANCH  14  28
HETATM   28  C11 UNL     1       7.456 -67.877  61.080  1.00  0.00    -0.007 A 
HETATM   29  C12 UNL     1       7.450 -66.627  61.647  1.00  0.00     0.014 A 
HETATM   30  C13 UNL     1       7.231 -66.501  62.994  1.00  0.00     0.001 A 
HETATM   31  C14 UNL     1       7.021 -67.608  63.764  1.00  0.00     0.000 A 
HETATM   32  C15 UNL     1       7.030 -68.862  63.179  1.00  0.00     0.001 A 
HETATM   33  C16 UNL     1       7.251 -68.999  61.815  1.00  0.00     0.014 A 
ENDBRANCH  14  28
ENDBRANCH   1   9
TORSDOF 11
ENDMDL
MODEL 4
REMARK VINA RESULT: -9.074029206      2.211      7.254
REMARK  11 active torsions:
REMARK  status: ('A' for Active; 'I' for Inactive)
REMARK    1  A    between atoms: C2_2  and  C3_3 
REMARK    2  A    between atoms: C3_3  and  C4_4 
REMARK    3  A    between atoms: C4_4  and  N1_5 
REMARK    4  A    between atoms: N1_5  and  C5_7 
REMARK    5  A    between atoms: C5_7  and  C6_8 
REMARK    6  A    between atoms: C6_8  and  C7_9 
REMARK    7  A    between atoms: C7_9  and  N2_10 
REMARK    8  A    between atoms: N2_10  and  C8_12 
REMARK    9  A    between atoms: C8_12  and  C9_13 
REMARK   10  A    between atoms: C10_18  and  C11_19 
REMARK   11  A    between atoms: C17_25  and  C18_26 
ROOT
HETATM    1  C18 UNL     1       7.645 -69.468  59.169  1.00  0.00    -0.021 A 
HETATM    2  C19 UNL     1       8.981 -69.632  59.317  1.00  0.00     0.014 A 
HETATM    3  C20 UNL     1       9.508 -70.872  59.690  1.00  0.00     0.023 A 
HETATM    4  C21 UNL     1       8.701 -71.947  59.914  1.00  0.00     0.044 A 
HETATM    5  C22 UNL     1       9.252 -73.224  60.297  1.00  0.00     0.099 C 
HETATM    6  N5  UNL     1       9.702 -74.233  60.614  1.00  0.00    -0.191 NA
HETATM    7  C23 UNL     1       7.333 -71.795  59.768  1.00  0.00     0.023 A 
HETATM    8  C24 UNL     1       6.820 -70.576  59.401  1.00  0.00     0.014 A 
ENDROOT
BRANCH   1   9
HETATM    9  C17 UNL     1       6.955 -68.221  58.786  1.00  0.00     0.029 A 
HETATM   10  C9  UNL     1       6.501 -67.809  57.557  1.00  0.00     0.056 A 
HETATM   11  N3  UNL     1       6.015 -66.576  57.696  1.00  0.00    -0.302 N 
HETATM   12  N4  UNL     1       6.130 -66.188  58.929  1.00  0.00    -0.299 N 
ATOM     13  H3  UNL     1       5.612 -66.018  56.944  1.00  0.00     0.186 HD
HETATM   14  C10 UNL     1       6.709 -67.187  59.645  1.00  0.00     0.071 A 
ATOM     15  H4  UNL     1       5.836 -65.284  59.298  1.00  0.00     0.187 HD
BRANCH  10  16
HETATM   16  C8  UNL     1       6.406 -68.656  56.335  1.00  0.00     0.178 C 
BRANCH  16  17
HETATM   17  N2  UNL     1       7.078 -68.116  55.190  1.00  0.00    -0.396 N 
ATOM     18  H2  UNL     1       8.065 -68.304  55.021  1.00  0.00     0.159 HD
BRANCH  17  19
HETATM   19  C7  UNL     1       6.345 -67.334  54.328  1.00  0.00     0.061 C 
BRANCH  19  20
HETATM   20  C6  UNL     1       6.368 -65.858  54.465  1.00  0.00     0.088 C 
BRANCH  20  21
HETATM   21  C5  UNL     1       7.692 -65.213  54.692  1.00  0.00     0.060 C 
BRANCH  21  22
HETATM   22  N1  UNL     1       7.748 -63.826  54.512  1.00  0.00    -0.402 N 
ATOM     23  H1  UNL     1       7.667 -63.389  53.594  1.00  0.00     0.158 HD
BRANCH  22  24
HETATM   24  C4  UNL     1       7.926 -63.064  55.711  1.00  0.00     0.118 C 
BRANCH  24  25
HETATM   25  C3  UNL     1       9.016 -63.699  56.528  1.00  0.00     0.019 C 
BRANCH  25  26
HETATM   26  C2  UNL     1       8.623 -63.894  57.965  1.00  0.00    -0.003 C 
HETATM   27  C1  UNL     1       9.506 -64.923  58.628  1.00  0.00     0.005 C 
ENDBRANCH  25  26
ENDBRANCH  24  25
ENDBRANCH  22  24
ENDBRANCH  21  22
ENDBRANCH  20  21
ENDBRANCH  19  20
ENDBRANCH  17  19
ENDBRANCH  16  17
ENDBRANCH  10  16
BRANCH  14  28
HETATM   28  C11 UNL     1       6.907 -67.122  61.084  1.00  0.00    -0.007 A 
HETATM   29  C12 UNL     1       6.640 -68.275  61.780  1.00  0.00     0.014 A 
HETATM   30  C13 UNL     1       6.761 -68.279  63.145  1.00  0.00     0.001 A 
HETATM   31  C14 UNL     1       7.144 -67.148  63.806  1.00  0.00     0.000 A 
HETATM   32  C15 UNL     1       7.410 -65.994  63.092  1.00  0.00     0.001 A 
HETATM   33  C16 UNL     1       7.290 -65.980  61.708  1.00  0.00     0.014 A 
ENDBRANCH  14  28
ENDBRANCH   1   9
TORSDOF 11
ENDMDL
MODEL 5
REMARK VINA RESULT: -8.958401994      2.463      4.038
REMARK  11 active torsions:
REMARK  status: ('A' for Active; 'I' for Inactive)
REMARK    1  A    between atoms: C2_2  and  C3_3 
REMARK    2  A    between atoms: C3_3  and  C4_4 
REMARK    3  A    between atoms: C4_4  and  N1_5 
REMARK    4  A    between atoms: N1_5  and  C5_7 
REMARK    5  A    between atoms: C5_7  and  C6_8 
REMARK    6  A    between atoms: C6_8  and  C7_9 
REMARK    7  A    between atoms: C7_9  and  N2_10 
REMARK    8  A    between atoms: N2_10  and  C8_12 
REMARK    9  A    between atoms: C8_12  and  C9_13 
REMARK   10  A    between atoms: C10_18  and  C11_19 
REMARK   11  A    between atoms: C17_25  and  C18_26 
ROOT
HETATM    1  C18 UNL     1       7.663 -66.664  58.458  1.00  0.00    -0.021 A 
HETATM    2  C19 UNL     1       8.527 -65.629  58.582  1.00  0.00     0.014 A 
HETATM    3  C20 UNL     1       8.551 -64.858  59.748  1.00  0.00     0.023 A 
HETATM    4  C21 UNL     1       7.713 -65.121  60.789  1.00  0.00     0.044 A 
HETATM    5  C22 UNL     1       7.745 -64.323  61.990  1.00  0.00     0.099 C 
HETATM    6  N5  UNL     1       7.770 -63.672  62.937  1.00  0.00    -0.191 NA
HETATM    7  C23 UNL     1       6.823 -66.177  60.678  1.00  0.00     0.023 A 
HETATM    8  C24 UNL     1       6.803 -66.930  59.531  1.00  0.00     0.014 A 
ENDROOT
BRANCH   1   9
HETATM    9  C17 UNL     1       7.527 -67.554  57.288  1.00  0.00     0.029 A 
HETATM   10  C9  UNL     1       7.909 -68.863  57.131  1.00  0.00     0.056 A 
HETATM   11  N3  UNL     1       7.648 -69.214  55.872  1.00  0.00    -0.302 N 
HETATM   12  N4  UNL     1       7.125 -68.215  55.231  1.00  0.00    -0.299 N 
ATOM     13  H3  UNL     1       7.833 -70.133  55.471  1.00  0.00     0.186 HD
HETATM   14  C10 UNL     1       7.028 -67.159  56.080  1.00  0.00     0.071 A 
ATOM     15  H4  UNL     1       6.835 -68.222  54.253  1.00  0.00     0.187 HD
BRANCH  10  16
HETATM   16  C8  UNL     1       8.365 -69.775  58.218  1.00  0.00     0.178 C 
BRANCH  16  17
HETATM   17  N2  UNL     1       7.304 -70.333  59.003  1.00  0.00    -0.396 N 
ATOM     18  H2  UNL     1       6.327 -70.145  58.778  1.00  0.00     0.159 HD
BRANCH  17  19
HETATM   19  C7  UNL     1       7.648 -71.128  60.071  1.00  0.00     0.061 C 
BRANCH  19  20
HETATM   20  C6  UNL     1       9.077 -71.386  60.372  1.00  0.00     0.088 C 
BRANCH  20  21
HETATM   21  C5  UNL     1       9.441 -72.755  60.835  1.00  0.00     0.060 C 
BRANCH  21  22
HETATM   22  N1  UNL     1       8.504 -73.407  61.646  1.00  0.00    -0.402 N 
ATOM     23  H1  UNL     1       8.004 -72.930  62.396  1.00  0.00     0.158 HD
BRANCH  22  24
HETATM   24  C4  UNL     1       8.299 -74.791  61.346  1.00  0.00     0.118 C 
BRANCH  24  25
HETATM   25  C3  UNL     1       9.166 -75.164  60.177  1.00  0.00     0.019 C 
BRANCH  25  26
HETATM   26  C2  UNL     1      10.210 -76.185  60.533  1.00  0.00    -0.003 C 
HETATM   27  C1  UNL     1       9.573 -77.433  61.091  1.00  0.00     0.005 C 
ENDBRANCH  25  26
ENDBRANCH  24  25
ENDBRANCH  22  24
ENDBRANCH  21  22
ENDBRANCH  20  21
ENDBRANCH  19  20
ENDBRANCH  17  19
ENDBRANCH  16  17
ENDBRANCH  10  16
BRANCH  14  28
HETATM   28  C11 UNL     1       6.403 -65.898  55.713  1.00  0.00    -0.007 A 
HETATM   29  C12 UNL     1       5.164 -65.660  56.256  1.00  0.00     0.014 A 
HETATM   30  C13 UNL     1       4.493 -64.514  55.921  1.00  0.00     0.001 A 
HETATM   31  C14 UNL     1       5.050 -63.616  55.057  1.00  0.00     0.000 A 
HETATM   32  C15 UNL     1       6.298 -63.869  54.517  1.00  0.00     0.001 A 
HETATM   33  C16 UNL     1       6.986 -65.028  54.849  1.00  0.00     0.014 A 
ENDBRANCH  14  28
ENDBRANCH   1   9
TORSDOF 11
ENDMDL
