MODEL 1
REMARK VINA RESULT: -7.842381656      0.000      0.000
REMARK  12 active torsions:
REMARK  status: ('A' for Active; 'I' for Inactive)
REMARK    1  A    between atoms: C2_2  and  C3_3 
REMARK    2  A    between atoms: C3_3  and  C4_4 
REMARK    3  A    between atoms: C4_4  and  C5_5 
REMARK    4  A    between atoms: C5_5  and  C6_6 
REMARK    5  A    between atoms: C6_6  and  C7_7 
REMARK    6  A    between atoms: C7_7  and  C8_8 
REMARK    7  A    between atoms: C8_8  and  O2_10 
REMARK    8  A    between atoms: O2_10  and  C9_11 
REMARK    9  A    between atoms: C15_18  and  C16_19 
REMARK   10  A    between atoms: C16_19  and  C17_20 
REMARK   11  A    between atoms: C32_36  and  O5_38 
REMARK   12  A    between atoms: C34_40  and  O6_41 
ROOT
HETATM    1  C9  UNL     1     -17.013 -44.315 -52.277  1.00  0.00     0.193 C 
HETATM    2  C10 UNL     1     -18.073 -44.043 -53.207  1.00  0.00    -0.047 C 
HETATM    3  C11 UNL     1     -18.275 -42.704 -53.905  1.00  0.00     0.046 C 
HETATM    4  C12 UNL     1     -18.867 -45.071 -53.405  1.00  0.00    -0.039 C 
HETATM    5  C13 UNL     1     -20.071 -45.002 -54.362  1.00  0.00     0.047 C 
HETATM    6  C14 UNL     1     -18.423 -46.244 -52.602  1.00  0.00     0.145 C 
HETATM    7  O3  UNL     1     -19.481 -46.896 -52.196  1.00  0.00    -0.349 OA
HETATM    8  C15 UNL     1     -19.936 -47.452 -51.137  1.00  0.00     0.140 C 
HETATM    9  C21 UNL     1     -20.496 -46.497 -50.085  1.00  0.00     0.190 C 
HETATM   10  O4  UNL     1     -20.747 -45.281 -50.174  1.00  0.00    -0.289 OA
HETATM   11  C22 UNL     1     -20.680 -47.349 -48.931  1.00  0.00    -0.016 C 
HETATM   12  C23 UNL     1     -21.596 -47.033 -47.773  1.00  0.00     0.052 C 
HETATM   13  C24 UNL     1     -19.952 -48.432 -49.013  1.00  0.00    -0.004 C 
HETATM   14  C25 UNL     1     -19.180 -48.395 -50.289  1.00  0.00     0.074 C 
HETATM   15  C26 UNL     1     -19.058 -49.791 -50.779  1.00  0.00    -0.012 C 
HETATM   16  C27 UNL     1     -18.668 -50.253 -51.920  1.00  0.00    -0.086 C 
HETATM   17  C28 UNL     1     -18.674 -51.774 -52.063  1.00  0.00     0.043 C 
HETATM   18  C29 UNL     1     -18.214 -49.551 -53.128  1.00  0.00     0.040 C 
HETATM   19  C30 UNL     1     -17.226 -48.457 -52.945  1.00  0.00     0.023 C 
HETATM   20  C31 UNL     1     -15.927 -48.956 -53.617  1.00  0.00     0.013 C 
HETATM   21  C32 UNL     1     -17.683 -47.157 -53.618  1.00  0.00     0.096 C 
HETATM   22  C33 UNL     1     -18.455 -47.494 -54.829  1.00  0.00     0.050 C 
HETATM   23  C34 UNL     1     -17.354 -45.702 -51.770  1.00  0.00     0.194 C 
ENDROOT
BRANCH  21  24
HETATM   24  O5  UNL     1     -16.522 -46.529 -54.070  1.00  0.00    -0.386 OA
ATOM     25  H5  UNL     1     -16.002 -47.135 -54.584  1.00  0.00     0.210 HD
ENDBRANCH  21  24
BRANCH  23  26
HETATM   26  O6  UNL     1     -17.497 -45.541 -50.421  1.00  0.00    -0.389 OA
ATOM     27  H6  UNL     1     -17.921 -46.341 -50.134  1.00  0.00     0.210 HD
ENDBRANCH  23  26
BRANCH   8  28
HETATM   28  C16 UNL     1     -21.251 -48.213 -51.455  1.00  0.00     0.075 C 
BRANCH  28  29
HETATM   29  C17 UNL     1     -21.836 -47.917 -52.760  1.00  0.00    -0.021 C 
HETATM   30  C18 UNL     1     -22.150 -48.813 -53.679  1.00  0.00    -0.091 C 
HETATM   31  C19 UNL     1     -22.741 -48.388 -54.973  1.00  0.00     0.042 C 
HETATM   32  C20 UNL     1     -21.926 -50.264 -53.456  1.00  0.00     0.042 C 
ENDBRANCH  28  29
ENDBRANCH   8  28
BRANCH   1  33
HETATM   33  O2  UNL     1     -15.706 -44.156 -52.734  1.00  0.00    -0.309 OA
BRANCH  33  34
HETATM   34  C8  UNL     1     -14.966 -43.004 -52.531  1.00  0.00     0.259 C 
HETATM   35  O1  UNL     1     -14.264 -42.971 -51.471  1.00  0.00    -0.265 OA
BRANCH  34  36
HETATM   36  C7  UNL     1     -14.947 -41.861 -53.441  1.00  0.00     0.111 C 
BRANCH  36  37
HETATM   37  C6  UNL     1     -14.339 -42.233 -54.760  1.00  0.00     0.010 C 
BRANCH  37  38
HETATM   38  C5  UNL     1     -15.320 -42.045 -55.911  1.00  0.00     0.001 C 
BRANCH  38  39
HETATM   39  C4  UNL     1     -15.780 -43.422 -56.319  1.00  0.00     0.004 C 
BRANCH  39  40
HETATM   40  C3  UNL     1     -16.654 -43.468 -57.518  1.00  0.00     0.026 C 
BRANCH  40  41
HETATM   41  C2  UNL     1     -17.935 -44.156 -57.320  1.00  0.00    -0.037 C 
HETATM   42  C1  UNL     1     -19.075 -43.781 -57.829  1.00  0.00     0.007 C 
ENDBRANCH  40  41
ENDBRANCH  39  40
ENDBRANCH  38  39
ENDBRANCH  37  38
ENDBRANCH  36  37
ENDBRANCH  34  36
ENDBRANCH  33  34
ENDBRANCH   1  33
TORSDOF 12
ENDMDL
MODEL 2
REMARK VINA RESULT: -7.645590237      1.867      3.762
REMARK  12 active torsions:
REMARK  status: ('A' for Active; 'I' for Inactive)
REMARK    1  A    between atoms: C2_2  and  C3_3 
REMARK    2  A    between atoms: C3_3  and  C4_4 
REMARK    3  A    between atoms: C4_4  and  C5_5 
REMARK    4  A    between atoms: C5_5  and  C6_6 
REMARK    5  A    between atoms: C6_6  and  C7_7 
REMARK    6  A    between atoms: C7_7  and  C8_8 
REMARK    7  A    between atoms: C8_8  and  O2_10 
REMARK    8  A    between atoms: O2_10  and  C9_11 
REMARK    9  A    between atoms: C15_18  and  C16_19 
REMARK   10  A    between atoms: C16_19  and  C17_20 
REMARK   11  A    between atoms: C32_36  and  O5_38 
REMARK   12  A    between atoms: C34_40  and  O6_41 
ROOT
HETATM    1  C9  UNL     1     -18.735 -45.520 -51.467  1.00  0.00     0.193 C 
HETATM    2  C10 UNL     1     -19.937 -46.080 -50.918  1.00  0.00    -0.047 C 
HETATM    3  C11 UNL     1     -20.750 -45.435 -49.802  1.00  0.00     0.046 C 
HETATM    4  C12 UNL     1     -20.281 -47.220 -51.475  1.00  0.00    -0.039 C 
HETATM    5  C13 UNL     1     -21.536 -47.997 -51.039  1.00  0.00     0.047 C 
HETATM    6  C14 UNL     1     -19.312 -47.601 -52.540  1.00  0.00     0.145 C 
HETATM    7  O3  UNL     1     -19.174 -48.901 -52.531  1.00  0.00    -0.349 OA
HETATM    8  C15 UNL     1     -18.248 -49.783 -52.596  1.00  0.00     0.140 C 
HETATM    9  C21 UNL     1     -17.457 -49.996 -51.307  1.00  0.00     0.190 C 
HETATM   10  O4  UNL     1     -17.691 -49.581 -50.158  1.00  0.00    -0.289 OA
HETATM   11  C22 UNL     1     -16.347 -50.818 -51.735  1.00  0.00    -0.016 C 
HETATM   12  C23 UNL     1     -15.510 -51.672 -50.812  1.00  0.00     0.052 C 
HETATM   13  C24 UNL     1     -16.153 -50.731 -53.025  1.00  0.00    -0.004 C 
HETATM   14  C25 UNL     1     -17.165 -49.796 -53.599  1.00  0.00     0.074 C 
HETATM   15  C26 UNL     1     -17.511 -50.289 -54.955  1.00  0.00    -0.012 C 
HETATM   16  C27 UNL     1     -18.467 -49.953 -55.756  1.00  0.00    -0.086 C 
HETATM   17  C28 UNL     1     -18.507 -50.689 -57.095  1.00  0.00     0.043 C 
HETATM   18  C29 UNL     1     -19.544 -48.968 -55.594  1.00  0.00     0.040 C 
HETATM   19  C30 UNL     1     -19.166 -47.630 -55.074  1.00  0.00     0.023 C 
HETATM   20  C31 UNL     1     -19.418 -46.647 -56.240  1.00  0.00     0.013 C 
HETATM   21  C32 UNL     1     -20.022 -47.223 -53.869  1.00  0.00     0.096 C 
HETATM   22  C33 UNL     1     -21.375 -47.787 -54.033  1.00  0.00     0.050 C 
HETATM   23  C34 UNL     1     -18.254 -46.606 -52.409  1.00  0.00     0.194 C 
ENDROOT
BRANCH  21  24
HETATM   24  O5  UNL     1     -20.175 -45.838 -53.954  1.00  0.00    -0.386 OA
ATOM     25  H5  UNL     1     -19.327 -45.422 -54.049  1.00  0.00     0.210 HD
ENDBRANCH  21  24
BRANCH  23  26
HETATM   26  O6  UNL     1     -17.010 -46.927 -51.943  1.00  0.00    -0.389 OA
ATOM     27  H6  UNL     1     -16.496 -47.069 -52.730  1.00  0.00     0.210 HD
ENDBRANCH  23  26
BRANCH   8  28
HETATM   28  C16 UNL     1     -18.869 -51.202 -52.702  1.00  0.00     0.075 C 
BRANCH  28  29
HETATM   29  C17 UNL     1     -20.325 -51.234 -52.794  1.00  0.00    -0.021 C 
HETATM   30  C18 UNL     1     -21.022 -51.952 -53.659  1.00  0.00    -0.091 C 
HETATM   31  C19 UNL     1     -22.506 -51.901 -53.655  1.00  0.00     0.042 C 
HETATM   32  C20 UNL     1     -20.354 -52.828 -54.655  1.00  0.00     0.042 C 
ENDBRANCH  28  29
ENDBRANCH   8  28
BRANCH   1  33
HETATM   33  O2  UNL     1     -18.821 -44.247 -52.027  1.00  0.00    -0.309 OA
BRANCH  33  34
HETATM   34  C8  UNL     1     -17.771 -43.637 -52.691  1.00  0.00     0.259 C 
HETATM   35  O1  UNL     1     -16.766 -43.325 -51.977  1.00  0.00    -0.265 OA
BRANCH  34  36
HETATM   36  C7  UNL     1     -17.755 -43.343 -54.121  1.00  0.00     0.111 C 
BRANCH  36  37
HETATM   37  C6  UNL     1     -16.885 -44.315 -54.862  1.00  0.00     0.010 C 
BRANCH  37  38
HETATM   38  C5  UNL     1     -16.018 -43.622 -55.906  1.00  0.00     0.001 C 
BRANCH  38  39
HETATM   39  C4  UNL     1     -16.881 -42.570 -56.558  1.00  0.00     0.004 C 
BRANCH  39  40
HETATM   40  C3  UNL     1     -17.248 -42.841 -57.971  1.00  0.00     0.026 C 
BRANCH  40  41
HETATM   41  C2  UNL     1     -18.522 -43.547 -58.151  1.00  0.00    -0.037 C 
HETATM   42  C1  UNL     1     -19.605 -43.329 -57.460  1.00  0.00     0.007 C 
ENDBRANCH  40  41
ENDBRANCH  39  40
ENDBRANCH  38  39
ENDBRANCH  37  38
ENDBRANCH  36  37
ENDBRANCH  34  36
ENDBRANCH  33  34
ENDBRANCH   1  33
TORSDOF 12
ENDMDL
MODEL 3
REMARK VINA RESULT: -7.596160960      1.629      4.219
REMARK  12 active torsions:
REMARK  status: ('A' for Active; 'I' for Inactive)
REMARK    1  A    between atoms: C2_2  and  C3_3 
REMARK    2  A    between atoms: C3_3  and  C4_4 
REMARK    3  A    between atoms: C4_4  and  C5_5 
REMARK    4  A    between atoms: C5_5  and  C6_6 
REMARK    5  A    between atoms: C6_6  and  C7_7 
REMARK    6  A    between atoms: C7_7  and  C8_8 
REMARK    7  A    between atoms: C8_8  and  O2_10 
REMARK    8  A    between atoms: O2_10  and  C9_11 
REMARK    9  A    between atoms: C15_18  and  C16_19 
REMARK   10  A    between atoms: C16_19  and  C17_20 
REMARK   11  A    between atoms: C32_36  and  O5_38 
REMARK   12  A    between atoms: C34_40  and  O6_41 
ROOT
HETATM    1  C9  UNL     1     -16.321 -43.848 -53.451  1.00  0.00     0.193 C 
HETATM    2  C10 UNL     1     -16.442 -44.128 -52.049  1.00  0.00    -0.047 C 
HETATM    3  C11 UNL     1     -15.674 -43.389 -50.959  1.00  0.00     0.046 C 
HETATM    4  C12 UNL     1     -17.292 -45.095 -51.782  1.00  0.00    -0.039 C 
HETATM    5  C13 UNL     1     -17.576 -45.561 -50.343  1.00  0.00     0.047 C 
HETATM    6  C14 UNL     1     -17.900 -45.623 -53.035  1.00  0.00     0.145 C 
HETATM    7  O3  UNL     1     -18.074 -46.912 -52.903  1.00  0.00    -0.349 OA
HETATM    8  C15 UNL     1     -17.905 -47.991 -53.569  1.00  0.00     0.140 C 
HETATM    9  C21 UNL     1     -16.467 -48.501 -53.635  1.00  0.00     0.190 C 
HETATM   10  O4  UNL     1     -15.467 -48.133 -52.991  1.00  0.00    -0.289 OA
HETATM   11  C22 UNL     1     -16.531 -49.540 -54.637  1.00  0.00    -0.016 C 
HETATM   12  C23 UNL     1     -15.517 -50.649 -54.785  1.00  0.00     0.052 C 
HETATM   13  C24 UNL     1     -17.579 -49.402 -55.406  1.00  0.00    -0.004 C 
HETATM   14  C25 UNL     1     -18.342 -48.198 -54.964  1.00  0.00     0.074 C 
HETATM   15  C26 UNL     1     -19.784 -48.477 -55.182  1.00  0.00    -0.012 C 
HETATM   16  C27 UNL     1     -20.835 -47.847 -54.776  1.00  0.00    -0.086 C 
HETATM   17  C28 UNL     1     -22.177 -48.439 -55.205  1.00  0.00     0.043 C 
HETATM   18  C29 UNL     1     -20.963 -46.637 -53.953  1.00  0.00     0.040 C 
HETATM   19  C30 UNL     1     -20.095 -45.484 -54.303  1.00  0.00     0.023 C 
HETATM   20  C31 UNL     1     -21.056 -44.380 -54.799  1.00  0.00     0.013 C 
HETATM   21  C32 UNL     1     -19.310 -44.972 -53.090  1.00  0.00     0.096 C 
HETATM   22  C33 UNL     1     -20.129 -45.159 -51.878  1.00  0.00     0.050 C 
HETATM   23  C34 UNL     1     -17.155 -44.942 -54.089  1.00  0.00     0.194 C 
ENDROOT
BRANCH  21  24
HETATM   24  O5  UNL     1     -19.194 -43.591 -53.261  1.00  0.00    -0.386 OA
ATOM     25  H5  UNL     1     -18.451 -43.263 -52.769  1.00  0.00     0.210 HD
ENDBRANCH  21  24
BRANCH  23  26
HETATM   26  O6  UNL     1     -16.278 -45.604 -54.899  1.00  0.00    -0.389 OA
ATOM     27  H6  UNL     1     -16.627 -46.487 -54.950  1.00  0.00     0.210 HD
ENDBRANCH  23  26
BRANCH   8  28
HETATM   28  C16 UNL     1     -18.522 -49.193 -52.805  1.00  0.00     0.075 C 
BRANCH  28  29
HETATM   29  C17 UNL     1     -18.651 -49.008 -51.363  1.00  0.00    -0.021 C 
HETATM   30  C18 UNL     1     -19.789 -49.012 -50.689  1.00  0.00    -0.091 C 
HETATM   31  C19 UNL     1     -19.793 -48.812 -49.218  1.00  0.00     0.042 C 
HETATM   32  C20 UNL     1     -21.093 -49.217 -51.371  1.00  0.00     0.042 C 
ENDBRANCH  28  29
ENDBRANCH   8  28
BRANCH   1  33
HETATM   33  O2  UNL     1     -16.619 -42.555 -53.873  1.00  0.00    -0.309 OA
BRANCH  33  34
HETATM   34  C8  UNL     1     -15.658 -41.576 -54.060  1.00  0.00     0.259 C 
HETATM   35  O1  UNL     1     -15.491 -40.767 -53.093  1.00  0.00    -0.265 OA
BRANCH  34  36
HETATM   36  C7  UNL     1     -14.850 -41.427 -55.267  1.00  0.00     0.111 C 
BRANCH  36  37
HETATM   37  C6  UNL     1     -15.309 -42.366 -56.342  1.00  0.00     0.010 C 
BRANCH  37  38
HETATM   38  C5  UNL     1     -15.739 -41.624 -57.602  1.00  0.00     0.001 C 
BRANCH  38  39
HETATM   39  C4  UNL     1     -16.847 -42.435 -58.227  1.00  0.00     0.004 C 
BRANCH  39  40
HETATM   40  C3  UNL     1     -16.989 -43.818 -57.708  1.00  0.00     0.026 C 
BRANCH  40  41
HETATM   41  C2  UNL     1     -18.374 -44.277 -57.551  1.00  0.00    -0.037 C 
HETATM   42  C1  UNL     1     -19.433 -43.535 -57.713  1.00  0.00     0.007 C 
ENDBRANCH  40  41
ENDBRANCH  39  40
ENDBRANCH  38  39
ENDBRANCH  37  38
ENDBRANCH  36  37
ENDBRANCH  34  36
ENDBRANCH  33  34
ENDBRANCH   1  33
TORSDOF 12
ENDMDL
MODEL 4
REMARK VINA RESULT: -7.355916674      3.590      8.390
REMARK  12 active torsions:
REMARK  status: ('A' for Active; 'I' for Inactive)
REMARK    1  A    between atoms: C2_2  and  C3_3 
REMARK    2  A    between atoms: C3_3  and  C4_4 
REMARK    3  A    between atoms: C4_4  and  C5_5 
REMARK    4  A    between atoms: C5_5  and  C6_6 
REMARK    5  A    between atoms: C6_6  and  C7_7 
REMARK    6  A    between atoms: C7_7  and  C8_8 
REMARK    7  A    between atoms: C8_8  and  O2_10 
REMARK    8  A    between atoms: O2_10  and  C9_11 
REMARK    9  A    between atoms: C15_18  and  C16_19 
REMARK   10  A    between atoms: C16_19  and  C17_20 
REMARK   11  A    between atoms: C32_36  and  O5_38 
REMARK   12  A    between atoms: C34_40  and  O6_41 
ROOT
HETATM    1  C9  UNL     1     -23.432 -47.099 -51.972  1.00  0.00     0.193 C 
HETATM    2  C10 UNL     1     -22.515 -47.101 -50.868  1.00  0.00    -0.047 C 
HETATM    3  C11 UNL     1     -22.872 -46.645 -49.459  1.00  0.00     0.046 C 
HETATM    4  C12 UNL     1     -21.318 -47.540 -51.187  1.00  0.00    -0.039 C 
HETATM    5  C13 UNL     1     -20.177 -47.626 -50.157  1.00  0.00     0.047 C 
HETATM    6  C14 UNL     1     -21.262 -47.925 -52.625  1.00  0.00     0.145 C 
HETATM    7  O3  UNL     1     -20.080 -47.619 -53.093  1.00  0.00    -0.349 OA
HETATM    8  C15 UNL     1     -19.551 -47.074 -54.123  1.00  0.00     0.140 C 
HETATM    9  C21 UNL     1     -19.628 -45.550 -54.169  1.00  0.00     0.190 C 
HETATM   10  O4  UNL     1     -19.959 -44.747 -53.278  1.00  0.00    -0.289 OA
HETATM   11  C22 UNL     1     -19.210 -45.240 -55.518  1.00  0.00    -0.016 C 
HETATM   12  C23 UNL     1     -18.692 -43.894 -55.965  1.00  0.00     0.052 C 
HETATM   13  C24 UNL     1     -19.339 -46.272 -56.310  1.00  0.00    -0.004 C 
HETATM   14  C25 UNL     1     -19.882 -47.417 -55.521  1.00  0.00     0.074 C 
HETATM   15  C26 UNL     1     -19.284 -48.661 -56.067  1.00  0.00    -0.012 C 
HETATM   16  C27 UNL     1     -19.276 -49.866 -55.604  1.00  0.00    -0.086 C 
HETATM   17  C28 UNL     1     -18.549 -50.906 -56.457  1.00  0.00     0.043 C 
HETATM   18  C29 UNL     1     -19.854 -50.418 -54.372  1.00  0.00     0.040 C 
HETATM   19  C30 UNL     1     -21.249 -50.030 -54.044  1.00  0.00     0.023 C 
HETATM   20  C31 UNL     1     -22.078 -51.329 -54.162  1.00  0.00     0.013 C 
HETATM   21  C32 UNL     1     -21.368 -49.475 -52.620  1.00  0.00     0.096 C 
HETATM   22  C33 UNL     1     -20.388 -50.162 -51.758  1.00  0.00     0.050 C 
HETATM   23  C34 UNL     1     -22.552 -47.484 -53.145  1.00  0.00     0.194 C 
ENDROOT
BRANCH  21  24
HETATM   24  O5  UNL     1     -22.624 -49.868 -52.157  1.00  0.00    -0.386 OA
ATOM     25  H5  UNL     1     -23.288 -49.667 -52.804  1.00  0.00     0.210 HD
ENDBRANCH  21  24
BRANCH  23  26
HETATM   26  O6  UNL     1     -22.664 -46.432 -54.009  1.00  0.00    -0.389 OA
ATOM     27  H6  UNL     1     -23.238 -45.822 -53.561  1.00  0.00     0.210 HD
ENDBRANCH  23  26
BRANCH   8  28
HETATM   28  C16 UNL     1     -18.006 -47.209 -54.064  1.00  0.00     0.075 C 
BRANCH  28  29
HETATM   29  C17 UNL     1     -17.491 -47.904 -52.888  1.00  0.00    -0.021 C 
HETATM   30  C18 UNL     1     -16.591 -48.873 -52.906  1.00  0.00    -0.091 C 
HETATM   31  C19 UNL     1     -16.143 -49.506 -51.639  1.00  0.00     0.042 C 
HETATM   32  C20 UNL     1     -15.999 -49.359 -54.178  1.00  0.00     0.042 C 
ENDBRANCH  28  29
ENDBRANCH   8  28
BRANCH   1  33
HETATM   33  O2  UNL     1     -24.598 -47.848 -51.836  1.00  0.00    -0.309 OA
BRANCH  33  34
HETATM   34  C8  UNL     1     -25.462 -48.106 -52.886  1.00  0.00     0.259 C 
HETATM   35  O1  UNL     1     -25.250 -49.180 -53.533  1.00  0.00    -0.265 OA
BRANCH  34  36
HETATM   36  C7  UNL     1     -26.571 -47.240 -53.279  1.00  0.00     0.111 C 
BRANCH  36  37
HETATM   37  C6  UNL     1     -27.782 -47.496 -52.432  1.00  0.00     0.010 C 
BRANCH  37  38
HETATM   38  C5  UNL     1     -28.621 -48.646 -52.973  1.00  0.00     0.001 C 
BRANCH  38  39
HETATM   39  C4  UNL     1     -29.090 -49.441 -51.780  1.00  0.00     0.004 C 
BRANCH  39  40
HETATM   40  C3  UNL     1     -28.717 -48.876 -50.458  1.00  0.00     0.026 C 
BRANCH  40  41
HETATM   41  C2  UNL     1     -29.093 -49.704 -49.307  1.00  0.00    -0.037 C 
HETATM   42  C1  UNL     1     -29.035 -51.006 -49.268  1.00  0.00     0.007 C 
ENDBRANCH  40  41
ENDBRANCH  39  40
ENDBRANCH  38  39
ENDBRANCH  37  38
ENDBRANCH  36  37
ENDBRANCH  34  36
ENDBRANCH  33  34
ENDBRANCH   1  33
TORSDOF 12
ENDMDL
MODEL 5
REMARK VINA RESULT: -7.280227699      3.923      8.808
REMARK  12 active torsions:
REMARK  status: ('A' for Active; 'I' for Inactive)
REMARK    1  A    between atoms: C2_2  and  C3_3 
REMARK    2  A    between atoms: C3_3  and  C4_4 
REMARK    3  A    between atoms: C4_4  and  C5_5 
REMARK    4  A    between atoms: C5_5  and  C6_6 
REMARK    5  A    between atoms: C6_6  and  C7_7 
REMARK    6  A    between atoms: C7_7  and  C8_8 
REMARK    7  A    between atoms: C8_8  and  O2_10 
REMARK    8  A    between atoms: O2_10  and  C9_11 
REMARK    9  A    between atoms: C15_18  and  C16_19 
REMARK   10  A    between atoms: C16_19  and  C17_20 
REMARK   11  A    between atoms: C32_36  and  O5_38 
REMARK   12  A    between atoms: C34_40  and  O6_41 
ROOT
HETATM    1  C9  UNL     1     -23.977 -47.109 -52.275  1.00  0.00     0.193 C 
HETATM    2  C10 UNL     1     -23.200 -47.097 -51.069  1.00  0.00    -0.047 C 
HETATM    3  C11 UNL     1     -23.708 -46.580 -49.728  1.00  0.00     0.046 C 
HETATM    4  C12 UNL     1     -21.988 -47.580 -51.226  1.00  0.00    -0.039 C 
HETATM    5  C13 UNL     1     -20.982 -47.660 -50.064  1.00  0.00     0.047 C 
HETATM    6  C14 UNL     1     -21.772 -48.018 -52.633  1.00  0.00     0.145 C 
HETATM    7  O3  UNL     1     -20.534 -47.762 -52.965  1.00  0.00    -0.349 OA
HETATM    8  C15 UNL     1     -19.868 -47.270 -53.941  1.00  0.00     0.140 C 
HETATM    9  C21 UNL     1     -19.890 -45.747 -54.046  1.00  0.00     0.190 C 
HETATM   10  O4  UNL     1     -20.299 -44.904 -53.227  1.00  0.00    -0.289 OA
HETATM   11  C22 UNL     1     -19.304 -45.498 -55.344  1.00  0.00    -0.016 C 
HETATM   12  C23 UNL     1     -18.693 -44.184 -55.769  1.00  0.00     0.052 C 
HETATM   13  C24 UNL     1     -19.370 -46.554 -56.111  1.00  0.00    -0.004 C 
HETATM   14  C25 UNL     1     -20.040 -47.654 -55.356  1.00  0.00     0.074 C 
HETATM   15  C26 UNL     1     -19.421 -48.933 -55.786  1.00  0.00    -0.012 C 
HETATM   16  C27 UNL     1     -19.506 -50.121 -55.286  1.00  0.00    -0.086 C 
HETATM   17  C28 UNL     1     -18.717 -51.210 -56.011  1.00  0.00     0.043 C 
HETATM   18  C29 UNL     1     -20.245 -50.611 -54.115  1.00  0.00     0.040 C 
HETATM   19  C30 UNL     1     -21.657 -50.172 -53.972  1.00  0.00     0.023 C 
HETATM   20  C31 UNL     1     -22.507 -51.451 -54.147  1.00  0.00     0.013 C 
HETATM   21  C32 UNL     1     -21.927 -49.563 -52.591  1.00  0.00     0.096 C 
HETATM   22  C33 UNL     1     -21.080 -50.246 -51.595  1.00  0.00     0.050 C 
HETATM   23  C34 UNL     1     -22.976 -47.561 -53.320  1.00  0.00     0.194 C 
ENDROOT
BRANCH  21  24
HETATM   24  O5  UNL     1     -23.242 -49.905 -52.270  1.00  0.00    -0.386 OA
ATOM     25  H5  UNL     1     -23.365 -50.843 -52.353  1.00  0.00     0.210 HD
ENDBRANCH  21  24
BRANCH  23  26
HETATM   26  O6  UNL     1     -22.950 -46.538 -54.225  1.00  0.00    -0.389 OA
ATOM     27  H6  UNL     1     -22.165 -46.698 -54.735  1.00  0.00     0.210 HD
ENDBRANCH  23  26
BRANCH   8  28
HETATM   28  C16 UNL     1     -18.346 -47.445 -53.691  1.00  0.00     0.075 C 
BRANCH  28  29
HETATM   29  C17 UNL     1     -17.997 -48.106 -52.437  1.00  0.00    -0.021 C 
HETATM   30  C18 UNL     1     -17.582 -47.497 -51.340  1.00  0.00    -0.091 C 
HETATM   31  C19 UNL     1     -17.256 -48.281 -50.122  1.00  0.00     0.042 C 
HETATM   32  C20 UNL     1     -17.427 -46.021 -51.284  1.00  0.00     0.042 C 
ENDBRANCH  28  29
ENDBRANCH   8  28
BRANCH   1  33
HETATM   33  O2  UNL     1     -25.175 -47.821 -52.256  1.00  0.00    -0.309 OA
BRANCH  33  34
HETATM   34  C8  UNL     1     -26.382 -47.287 -52.673  1.00  0.00     0.259 C 
HETATM   35  O1  UNL     1     -26.360 -46.064 -53.021  1.00  0.00    -0.265 OA
BRANCH  34  36
HETATM   36  C7  UNL     1     -27.639 -48.029 -52.734  1.00  0.00     0.111 C 
BRANCH  36  37
HETATM   37  C6  UNL     1     -28.195 -48.260 -51.362  1.00  0.00     0.010 C 
BRANCH  37  38
HETATM   38  C5  UNL     1     -29.058 -49.515 -51.302  1.00  0.00     0.001 C 
BRANCH  38  39
HETATM   39  C4  UNL     1     -29.043 -49.984 -49.868  1.00  0.00     0.004 C 
BRANCH  39  40
HETATM   40  C3  UNL     1     -28.256 -51.218 -49.615  1.00  0.00     0.026 C 
BRANCH  40  41
HETATM   41  C2  UNL     1     -28.986 -52.279 -48.910  1.00  0.00    -0.037 C 
HETATM   42  C1  UNL     1     -28.998 -53.536 -49.254  1.00  0.00     0.007 C 
ENDBRANCH  40  41
ENDBRANCH  39  40
ENDBRANCH  38  39
ENDBRANCH  37  38
ENDBRANCH  36  37
ENDBRANCH  34  36
ENDBRANCH  33  34
ENDBRANCH   1  33
TORSDOF 12
ENDMDL
