MODEL 1
REMARK VINA RESULT: -7.179850101      0.000      0.000
REMARK  14 active torsions:
REMARK  status: ('A' for Active; 'I' for Inactive)
REMARK    1  A    between atoms: C2_2  and  C4_4 
REMARK    2  A    between atoms: C7_7  and  C8_8 
REMARK    3  A    between atoms: C8_8  and  C10_10 
REMARK    4  A    between atoms: C10_10  and  C11_11 
REMARK    5  A    between atoms: C11_11  and  O2_13 
REMARK    6  A    between atoms: C16_18  and  O3_19 
REMARK    7  A    between atoms: O3_19  and  C17_20 
REMARK    8  A    between atoms: C17_20  and  O4_21 
REMARK    9  A    between atoms: C17_20  and  C18_23 
REMARK   10  A    between atoms: C18_23  and  C19_24 
REMARK   11  A    between atoms: C21_26  and  O5_27 
REMARK   12  A    between atoms: C25_32  and  C26_33 
REMARK   13  A    between atoms: C26_33  and  O6_36 
REMARK   14  A    between atoms: C29_38  and  C31_40 
ROOT
HETATM    1  C4  UNL     1     -24.880 -46.812 -48.139  1.00  0.00     0.019 C 
HETATM    2  C5  UNL     1     -23.966 -48.101 -48.292  1.00  0.00     0.010 C 
HETATM    3  C6  UNL     1     -24.519 -49.128 -47.422  1.00  0.00     0.010 C 
HETATM    4  C7  UNL     1     -24.498 -48.578 -46.054  1.00  0.00     0.023 C 
HETATM    5  C13 UNL     1     -25.283 -47.273 -45.824  1.00  0.00    -0.029 C 
HETATM    6  C14 UNL     1     -26.677 -47.645 -46.273  1.00  0.00     0.016 C 
HETATM    7  C15 UNL     1     -25.098 -47.107 -44.406  1.00  0.00     0.045 C 
HETATM    8  C16 UNL     1     -25.129 -45.845 -43.582  1.00  0.00     0.164 C 
HETATM    9  C21 UNL     1     -26.070 -44.900 -44.032  1.00  0.00     0.114 C 
HETATM   10  C22 UNL     1     -25.849 -44.461 -45.472  1.00  0.00    -0.038 C 
HETATM   11  C23 UNL     1     -26.829 -43.593 -45.680  1.00  0.00    -0.019 C 
HETATM   12  C24 UNL     1     -27.693 -43.412 -44.455  1.00  0.00     0.038 C 
HETATM   13  C25 UNL     1     -26.564 -43.680 -43.410  1.00  0.00     0.064 C 
HETATM   14  C29 UNL     1     -24.770 -44.839 -46.479  1.00  0.00    -0.010 C 
HETATM   15  C30 UNL     1     -25.099 -43.935 -47.690  1.00  0.00     0.021 C 
HETATM   16  C34 UNL     1     -24.635 -46.258 -46.797  1.00  0.00     0.015 C 
ENDROOT
BRANCH   4  17
HETATM   17  C8  UNL     1     -24.723 -49.681 -45.116  1.00  0.00    -0.075 C 
HETATM   18  C9  UNL     1     -23.666 -50.315 -44.612  1.00  0.00     0.015 C 
BRANCH  17  19
HETATM   19  C10 UNL     1     -26.038 -50.248 -44.747  1.00  0.00     0.144 C 
BRANCH  19  20
HETATM   20  C11 UNL     1     -26.188 -51.662 -45.169  1.00  0.00     0.262 C 
HETATM   21  O1  UNL     1     -26.204 -51.976 -46.363  1.00  0.00    -0.265 OA
BRANCH  20  22
HETATM   22  O2  UNL     1     -26.320 -52.720 -44.234  1.00  0.00    -0.326 OA
HETATM   23  C12 UNL     1     -26.934 -52.460 -42.973  1.00  0.00     0.213 C 
ENDBRANCH  20  22
ENDBRANCH  19  20
ENDBRANCH  17  19
ENDBRANCH   4  17
BRANCH   1  24
HETATM   24  C2  UNL     1     -24.519 -46.271 -49.417  1.00  0.00    -0.088 C 
HETATM   25  C1  UNL     1     -25.386 -46.136 -50.401  1.00  0.00     0.014 C 
HETATM   26  C3  UNL     1     -23.110 -45.912 -49.884  1.00  0.00     0.043 C 
ENDBRANCH   1  24
BRANCH   8  27
HETATM   27  O3  UNL     1     -25.624 -46.347 -42.307  1.00  0.00    -0.353 OA
BRANCH  27  28
HETATM   28  C17 UNL     1     -24.899 -46.749 -41.274  1.00  0.00     0.257 C 
BRANCH  28  29
HETATM   29  O4  UNL     1     -24.702 -45.907 -40.300  1.00  0.00    -0.371 OA
ATOM     30  H4  UNL     1     -24.766 -46.231 -39.410  1.00  0.00     0.212 HD
ENDBRANCH  28  29
BRANCH  28  31
HETATM   31  C18 UNL     1     -24.267 -48.056 -41.067  1.00  0.00     0.060 C 
BRANCH  31  32
HETATM   32  C19 UNL     1     -25.255 -49.219 -41.173  1.00  0.00     0.000 C 
HETATM   33  C20 UNL     1     -24.702 -50.531 -40.730  1.00  0.00     0.005 C 
ENDBRANCH  31  32
ENDBRANCH  28  31
ENDBRANCH  27  28
ENDBRANCH   8  27
BRANCH  14  34
HETATM   34  C31 UNL     1     -23.513 -44.158 -45.937  1.00  0.00    -0.010 C 
HETATM   35  C32 UNL     1     -22.241 -44.395 -46.678  1.00  0.00     0.010 C 
HETATM   36  C33 UNL     1     -23.614 -42.644 -45.894  1.00  0.00     0.010 C 
ENDBRANCH  14  34
BRANCH   9  37
HETATM   37  O5  UNL     1     -27.335 -45.676 -44.062  1.00  0.00    -0.382 OA
ATOM     38  H5  UNL     1     -27.786 -45.378 -43.281  1.00  0.00     0.211 HD
ENDBRANCH   9  37
BRANCH  13  39
HETATM   39  C26 UNL     1     -27.111 -43.551 -42.080  1.00  0.00     0.058 C 
HETATM   40  C27 UNL     1     -28.403 -44.232 -41.756  1.00  0.00     0.046 C 
HETATM   41  C28 UNL     1     -27.505 -42.028 -41.984  1.00  0.00     0.046 C 
BRANCH  39  42
HETATM   42  O6  UNL     1     -26.255 -43.669 -40.998  1.00  0.00    -0.390 OA
ATOM     43  H6  UNL     1     -26.611 -43.964 -40.168  1.00  0.00     0.210 HD
ENDBRANCH  39  42
ENDBRANCH  13  39
TORSDOF 14
ENDMDL
MODEL 2
REMARK VINA RESULT: -7.132714035      6.846     10.604
REMARK  14 active torsions:
REMARK  status: ('A' for Active; 'I' for Inactive)
REMARK    1  A    between atoms: C2_2  and  C4_4 
REMARK    2  A    between atoms: C7_7  and  C8_8 
REMARK    3  A    between atoms: C8_8  and  C10_10 
REMARK    4  A    between atoms: C10_10  and  C11_11 
REMARK    5  A    between atoms: C11_11  and  O2_13 
REMARK    6  A    between atoms: C16_18  and  O3_19 
REMARK    7  A    between atoms: O3_19  and  C17_20 
REMARK    8  A    between atoms: C17_20  and  O4_21 
REMARK    9  A    between atoms: C17_20  and  C18_23 
REMARK   10  A    between atoms: C18_23  and  C19_24 
REMARK   11  A    between atoms: C21_26  and  O5_27 
REMARK   12  A    between atoms: C25_32  and  C26_33 
REMARK   13  A    between atoms: C26_33  and  O6_36 
REMARK   14  A    between atoms: C29_38  and  C31_40 
ROOT
HETATM    1  C4  UNL     1     -19.788 -50.072 -54.904  1.00  0.00     0.019 C 
HETATM    2  C5  UNL     1     -21.044 -50.960 -54.507  1.00  0.00     0.010 C 
HETATM    3  C6  UNL     1     -22.186 -50.065 -54.393  1.00  0.00     0.010 C 
HETATM    4  C7  UNL     1     -21.844 -49.073 -53.357  1.00  0.00     0.023 C 
HETATM    5  C13 UNL     1     -20.584 -48.223 -53.607  1.00  0.00    -0.029 C 
HETATM    6  C14 UNL     1     -20.881 -47.581 -54.942  1.00  0.00     0.016 C 
HETATM    7  C15 UNL     1     -20.629 -47.352 -52.462  1.00  0.00     0.045 C 
HETATM    8  C16 UNL     1     -19.502 -46.630 -51.768  1.00  0.00     0.164 C 
HETATM    9  C21 UNL     1     -18.498 -46.177 -52.645  1.00  0.00     0.114 C 
HETATM   10  C22 UNL     1     -17.853 -47.290 -53.456  1.00  0.00    -0.038 C 
HETATM   11  C23 UNL     1     -16.960 -46.650 -54.198  1.00  0.00    -0.019 C 
HETATM   12  C24 UNL     1     -16.959 -45.165 -53.924  1.00  0.00     0.038 C 
HETATM   13  C25 UNL     1     -17.382 -45.269 -52.424  1.00  0.00     0.064 C 
HETATM   14  C29 UNL     1     -18.081 -48.797 -53.448  1.00  0.00    -0.010 C 
HETATM   15  C30 UNL     1     -17.008 -49.313 -54.435  1.00  0.00     0.021 C 
HETATM   16  C34 UNL     1     -19.439 -49.258 -53.728  1.00  0.00     0.015 C 
ENDROOT
BRANCH   4  17
HETATM   17  C8  UNL     1     -23.072 -48.373 -52.973  1.00  0.00    -0.075 C 
HETATM   18  C9  UNL     1     -23.486 -48.459 -51.710  1.00  0.00     0.015 C 
BRANCH  17  19
HETATM   19  C10 UNL     1     -23.980 -47.653 -53.891  1.00  0.00     0.144 C 
BRANCH  19  20
HETATM   20  C11 UNL     1     -25.311 -47.395 -53.291  1.00  0.00     0.262 C 
HETATM   21  O1  UNL     1     -25.609 -46.280 -52.851  1.00  0.00    -0.265 OA
BRANCH  20  22
HETATM   22  O2  UNL     1     -26.304 -48.402 -53.190  1.00  0.00    -0.326 OA
HETATM   23  C12 UNL     1     -27.619 -48.040 -52.774  1.00  0.00     0.213 C 
ENDBRANCH  20  22
ENDBRANCH  19  20
ENDBRANCH  17  19
ENDBRANCH   4  17
BRANCH   1  24
HETATM   24  C2  UNL     1     -19.066 -51.162 -55.492  1.00  0.00    -0.088 C 
HETATM   25  C1  UNL     1     -18.622 -51.132 -56.732  1.00  0.00     0.014 C 
HETATM   26  C3  UNL     1     -18.827 -52.535 -54.865  1.00  0.00     0.043 C 
ENDBRANCH   1  24
BRANCH   8  27
HETATM   27  O3  UNL     1     -20.185 -45.443 -51.273  1.00  0.00    -0.353 OA
BRANCH  27  28
HETATM   28  C17 UNL     1     -20.758 -45.290 -50.089  1.00  0.00     0.257 C 
BRANCH  28  29
HETATM   29  O4  UNL     1     -20.036 -44.817 -49.114  1.00  0.00    -0.371 OA
ATOM     30  H4  UNL     1     -19.616 -43.974 -49.237  1.00  0.00     0.212 HD
ENDBRANCH  28  29
BRANCH  28  31
HETATM   31  C18 UNL     1     -22.144 -45.588 -49.711  1.00  0.00     0.060 C 
BRANCH  31  32
HETATM   32  C19 UNL     1     -22.454 -45.234 -48.256  1.00  0.00     0.000 C 
HETATM   33  C20 UNL     1     -23.881 -44.881 -48.005  1.00  0.00     0.005 C 
ENDBRANCH  31  32
ENDBRANCH  28  31
ENDBRANCH  27  28
ENDBRANCH   8  27
BRANCH  14  34
HETATM   34  C31 UNL     1     -17.491 -49.246 -52.111  1.00  0.00    -0.010 C 
HETATM   35  C32 UNL     1     -18.174 -50.373 -51.413  1.00  0.00     0.010 C 
HETATM   36  C33 UNL     1     -16.052 -49.718 -52.211  1.00  0.00     0.010 C 
ENDBRANCH  14  34
BRANCH   9  37
HETATM   37  O5  UNL     1     -19.257 -45.376 -53.637  1.00  0.00    -0.382 OA
ATOM     38  H5  UNL     1     -18.912 -45.682 -54.467  1.00  0.00     0.211 HD
ENDBRANCH   9  37
BRANCH  13  39
HETATM   39  C26 UNL     1     -17.448 -43.942 -51.859  1.00  0.00     0.058 C 
HETATM   40  C27 UNL     1     -16.450 -42.917 -52.292  1.00  0.00     0.046 C 
HETATM   41  C28 UNL     1     -17.064 -44.161 -50.346  1.00  0.00     0.046 C 
BRANCH  39  42
HETATM   42  O6  UNL     1     -18.688 -43.340 -51.729  1.00  0.00    -0.390 OA
ATOM     43  H6  UNL     1     -19.127 -43.031 -52.513  1.00  0.00     0.210 HD
ENDBRANCH  39  42
ENDBRANCH  13  39
TORSDOF 14
ENDMDL
MODEL 3
REMARK VINA RESULT: -6.977812981      2.032      5.938
REMARK  14 active torsions:
REMARK  status: ('A' for Active; 'I' for Inactive)
REMARK    1  A    between atoms: C2_2  and  C4_4 
REMARK    2  A    between atoms: C7_7  and  C8_8 
REMARK    3  A    between atoms: C8_8  and  C10_10 
REMARK    4  A    between atoms: C10_10  and  C11_11 
REMARK    5  A    between atoms: C11_11  and  O2_13 
REMARK    6  A    between atoms: C16_18  and  O3_19 
REMARK    7  A    between atoms: O3_19  and  C17_20 
REMARK    8  A    between atoms: C17_20  and  O4_21 
REMARK    9  A    between atoms: C17_20  and  C18_23 
REMARK   10  A    between atoms: C18_23  and  C19_24 
REMARK   11  A    between atoms: C21_26  and  O5_27 
REMARK   12  A    between atoms: C25_32  and  C26_33 
REMARK   13  A    between atoms: C26_33  and  O6_36 
REMARK   14  A    between atoms: C29_38  and  C31_40 
ROOT
HETATM    1  C4  UNL     1     -24.774 -44.931 -47.169  1.00  0.00     0.019 C 
HETATM    2  C5  UNL     1     -25.760 -43.806 -47.702  1.00  0.00     0.010 C 
HETATM    3  C6  UNL     1     -26.127 -42.978 -46.563  1.00  0.00     0.010 C 
HETATM    4  C7  UNL     1     -26.766 -43.873 -45.580  1.00  0.00     0.023 C 
HETATM    5  C13 UNL     1     -25.919 -45.054 -45.070  1.00  0.00    -0.029 C 
HETATM    6  C14 UNL     1     -24.697 -44.362 -44.510  1.00  0.00     0.016 C 
HETATM    7  C15 UNL     1     -26.823 -45.622 -44.105  1.00  0.00     0.045 C 
HETATM    8  C16 UNL     1     -26.907 -47.039 -43.596  1.00  0.00     0.164 C 
HETATM    9  C21 UNL     1     -25.654 -47.670 -43.473  1.00  0.00     0.114 C 
HETATM   10  C22 UNL     1     -24.876 -47.733 -44.778  1.00  0.00    -0.038 C 
HETATM   11  C23 UNL     1     -23.754 -48.350 -44.435  1.00  0.00    -0.019 C 
HETATM   12  C24 UNL     1     -23.737 -48.718 -42.971  1.00  0.00     0.038 C 
HETATM   13  C25 UNL     1     -25.279 -48.920 -42.828  1.00  0.00     0.064 C 
HETATM   14  C29 UNL     1     -25.238 -47.270 -46.184  1.00  0.00    -0.010 C 
HETATM   15  C30 UNL     1     -24.034 -47.752 -47.027  1.00  0.00     0.021 C 
HETATM   16  C34 UNL     1     -25.569 -45.856 -46.346  1.00  0.00     0.015 C 
ENDROOT
BRANCH   4  17
HETATM   17  C8  UNL     1     -27.446 -43.043 -44.582  1.00  0.00    -0.075 C 
HETATM   18  C9  UNL     1     -28.777 -43.025 -44.569  1.00  0.00     0.015 C 
BRANCH  17  19
HETATM   19  C10 UNL     1     -26.789 -42.115 -43.637  1.00  0.00     0.144 C 
BRANCH  19  20
HETATM   20  C11 UNL     1     -27.463 -42.074 -42.317  1.00  0.00     0.262 C 
HETATM   21  O1  UNL     1     -28.167 -41.115 -41.988  1.00  0.00    -0.265 OA
BRANCH  20  22
HETATM   22  O2  UNL     1     -27.337 -43.122 -41.370  1.00  0.00    -0.326 OA
HETATM   23  C12 UNL     1     -26.093 -43.811 -41.259  1.00  0.00     0.213 C 
ENDBRANCH  20  22
ENDBRANCH  19  20
ENDBRANCH  17  19
ENDBRANCH   4  17
BRANCH   1  24
HETATM   24  C2  UNL     1     -24.165 -45.156 -48.448  1.00  0.00    -0.088 C 
HETATM   25  C1  UNL     1     -22.862 -45.096 -48.635  1.00  0.00     0.014 C 
HETATM   26  C3  UNL     1     -24.894 -45.352 -49.777  1.00  0.00     0.043 C 
ENDBRANCH   1  24
BRANCH   8  27
HETATM   27  O3  UNL     1     -27.399 -46.828 -42.241  1.00  0.00    -0.353 OA
BRANCH  27  28
HETATM   28  C17 UNL     1     -28.664 -46.788 -41.850  1.00  0.00     0.257 C 
BRANCH  28  29
HETATM   29  O4  UNL     1     -29.212 -47.893 -41.436  1.00  0.00    -0.371 OA
ATOM     30  H4  UNL     1     -29.609 -48.466 -42.082  1.00  0.00     0.212 HD
ENDBRANCH  28  29
BRANCH  28  31
HETATM   31  C18 UNL     1     -29.563 -45.630 -41.818  1.00  0.00     0.060 C 
BRANCH  31  32
HETATM   32  C19 UNL     1     -29.729 -45.044 -40.415  1.00  0.00     0.000 C 
HETATM   33  C20 UNL     1     -31.102 -45.191 -39.852  1.00  0.00     0.005 C 
ENDBRANCH  31  32
ENDBRANCH  28  31
ENDBRANCH  27  28
ENDBRANCH   8  27
BRANCH  14  34
HETATM   34  C31 UNL     1     -26.319 -48.259 -46.624  1.00  0.00    -0.010 C 
HETATM   35  C32 UNL     1     -26.795 -48.160 -48.034  1.00  0.00     0.010 C 
HETATM   36  C33 UNL     1     -25.899 -49.712 -46.500  1.00  0.00     0.010 C 
ENDBRANCH  14  34
BRANCH   9  37
HETATM   37  O5  UNL     1     -24.888 -46.728 -42.620  1.00  0.00    -0.382 OA
ATOM     38  H5  UNL     1     -24.333 -47.305 -42.110  1.00  0.00     0.211 HD
ENDBRANCH   9  37
BRANCH  13  39
HETATM   39  C26 UNL     1     -25.581 -49.316 -41.473  1.00  0.00     0.058 C 
HETATM   40  C27 UNL     1     -24.597 -50.159 -40.727  1.00  0.00     0.046 C 
HETATM   41  C28 UNL     1     -26.804 -50.296 -41.634  1.00  0.00     0.046 C 
BRANCH  39  42
HETATM   42  O6  UNL     1     -26.114 -48.372 -40.612  1.00  0.00    -0.390 OA
ATOM     43  H6  UNL     1     -25.663 -48.199 -39.793  1.00  0.00     0.210 HD
ENDBRANCH  39  42
ENDBRANCH  13  39
TORSDOF 14
ENDMDL
MODEL 4
REMARK VINA RESULT: -6.962388915      6.888     10.692
REMARK  14 active torsions:
REMARK  status: ('A' for Active; 'I' for Inactive)
REMARK    1  A    between atoms: C2_2  and  C4_4 
REMARK    2  A    between atoms: C7_7  and  C8_8 
REMARK    3  A    between atoms: C8_8  and  C10_10 
REMARK    4  A    between atoms: C10_10  and  C11_11 
REMARK    5  A    between atoms: C11_11  and  O2_13 
REMARK    6  A    between atoms: C16_18  and  O3_19 
REMARK    7  A    between atoms: O3_19  and  C17_20 
REMARK    8  A    between atoms: C17_20  and  O4_21 
REMARK    9  A    between atoms: C17_20  and  C18_23 
REMARK   10  A    between atoms: C18_23  and  C19_24 
REMARK   11  A    between atoms: C21_26  and  O5_27 
REMARK   12  A    between atoms: C25_32  and  C26_33 
REMARK   13  A    between atoms: C26_33  and  O6_36 
REMARK   14  A    between atoms: C29_38  and  C31_40 
ROOT
HETATM    1  C4  UNL     1     -19.548 -50.717 -54.947  1.00  0.00     0.019 C 
HETATM    2  C5  UNL     1     -20.589 -51.821 -54.479  1.00  0.00     0.010 C 
HETATM    3  C6  UNL     1     -21.890 -51.175 -54.387  1.00  0.00     0.010 C 
HETATM    4  C7  UNL     1     -21.749 -50.079 -53.410  1.00  0.00     0.023 C 
HETATM    5  C13 UNL     1     -20.695 -49.003 -53.730  1.00  0.00    -0.029 C 
HETATM    6  C14 UNL     1     -21.132 -48.509 -55.090  1.00  0.00     0.016 C 
HETATM    7  C15 UNL     1     -20.907 -48.099 -52.631  1.00  0.00     0.045 C 
HETATM    8  C16 UNL     1     -19.946 -47.124 -51.999  1.00  0.00     0.164 C 
HETATM    9  C21 UNL     1     -19.066 -46.523 -52.918  1.00  0.00     0.114 C 
HETATM   10  C22 UNL     1     -18.213 -47.522 -53.685  1.00  0.00    -0.038 C 
HETATM   11  C23 UNL     1     -17.479 -46.754 -54.477  1.00  0.00    -0.019 C 
HETATM   12  C24 UNL     1     -17.781 -45.288 -54.280  1.00  0.00     0.038 C 
HETATM   13  C25 UNL     1     -18.159 -45.394 -52.768  1.00  0.00     0.064 C 
HETATM   14  C29 UNL     1     -18.126 -49.041 -53.595  1.00  0.00    -0.010 C 
HETATM   15  C30 UNL     1     -16.979 -49.379 -54.576  1.00  0.00     0.021 C 
HETATM   16  C34 UNL     1     -19.362 -49.785 -53.823  1.00  0.00     0.015 C 
ENDROOT
BRANCH   4  17
HETATM   17  C8  UNL     1     -23.092 -49.626 -53.037  1.00  0.00    -0.075 C 
HETATM   18  C9  UNL     1     -23.469 -49.732 -51.765  1.00  0.00     0.015 C 
BRANCH  17  19
HETATM   19  C10 UNL     1     -24.136 -49.152 -53.971  1.00  0.00     0.144 C 
BRANCH  19  20
HETATM   20  C11 UNL     1     -24.626 -47.793 -53.638  1.00  0.00     0.262 C 
HETATM   21  O1  UNL     1     -23.951 -46.790 -53.889  1.00  0.00    -0.265 OA
BRANCH  20  22
HETATM   22  O2  UNL     1     -25.882 -47.573 -53.018  1.00  0.00    -0.326 OA
HETATM   23  C12 UNL     1     -26.556 -46.335 -53.237  1.00  0.00     0.213 C 
ENDBRANCH  20  22
ENDBRANCH  19  20
ENDBRANCH  17  19
ENDBRANCH   4  17
BRANCH   1  24
HETATM   24  C2  UNL     1     -18.623 -51.666 -55.494  1.00  0.00    -0.088 C 
HETATM   25  C1  UNL     1     -18.361 -51.740 -56.783  1.00  0.00     0.014 C 
HETATM   26  C3  UNL     1     -17.926 -52.794 -54.734  1.00  0.00     0.043 C 
ENDBRANCH   1  24
BRANCH   8  27
HETATM   27  O3  UNL     1     -20.854 -46.077 -51.551  1.00  0.00    -0.353 OA
BRANCH  27  28
HETATM   28  C17 UNL     1     -21.414 -45.966 -50.355  1.00  0.00     0.257 C 
BRANCH  28  29
HETATM   29  O4  UNL     1     -20.962 -45.048 -49.550  1.00  0.00    -0.371 OA
ATOM     30  H4  UNL     1     -20.219 -44.530 -49.834  1.00  0.00     0.212 HD
ENDBRANCH  28  29
BRANCH  28  31
HETATM   31  C18 UNL     1     -22.511 -46.761 -49.794  1.00  0.00     0.060 C 
BRANCH  31  32
HETATM   32  C19 UNL     1     -23.883 -46.337 -50.319  1.00  0.00     0.000 C 
HETATM   33  C20 UNL     1     -24.508 -45.217 -49.557  1.00  0.00     0.005 C 
ENDBRANCH  31  32
ENDBRANCH  28  31
ENDBRANCH  27  28
ENDBRANCH   8  27
BRANCH  14  34
HETATM   34  C31 UNL     1     -17.443 -49.286 -52.249  1.00  0.00    -0.010 C 
HETATM   35  C32 UNL     1     -17.914 -50.455 -51.452  1.00  0.00     0.010 C 
HETATM   36  C33 UNL     1     -15.948 -49.521 -52.361  1.00  0.00     0.010 C 
ENDBRANCH  14  34
BRANCH   9  37
HETATM   37  O5  UNL     1     -19.984 -45.950 -53.934  1.00  0.00    -0.382 OA
ATOM     38  H5  UNL     1     -19.632 -46.282 -54.751  1.00  0.00     0.211 HD
ENDBRANCH   9  37
BRANCH  13  39
HETATM   39  C26 UNL     1     -18.492 -44.081 -52.270  1.00  0.00     0.058 C 
HETATM   40  C27 UNL     1     -17.750 -42.894 -52.797  1.00  0.00     0.046 C 
HETATM   41  C28 UNL     1     -18.026 -44.123 -50.765  1.00  0.00     0.046 C 
BRANCH  39  42
HETATM   42  O6  UNL     1     -19.828 -43.749 -52.121  1.00  0.00    -0.390 OA
ATOM     43  H6  UNL     1     -20.143 -42.946 -52.520  1.00  0.00     0.210 HD
ENDBRANCH  39  42
ENDBRANCH  13  39
TORSDOF 14
ENDMDL
MODEL 5
REMARK VINA RESULT: -6.942294299      1.412      2.080
REMARK  14 active torsions:
REMARK  status: ('A' for Active; 'I' for Inactive)
REMARK    1  A    between atoms: C2_2  and  C4_4 
REMARK    2  A    between atoms: C7_7  and  C8_8 
REMARK    3  A    between atoms: C8_8  and  C10_10 
REMARK    4  A    between atoms: C10_10  and  C11_11 
REMARK    5  A    between atoms: C11_11  and  O2_13 
REMARK    6  A    between atoms: C16_18  and  O3_19 
REMARK    7  A    between atoms: O3_19  and  C17_20 
REMARK    8  A    between atoms: C17_20  and  O4_21 
REMARK    9  A    between atoms: C17_20  and  C18_23 
REMARK   10  A    between atoms: C18_23  and  C19_24 
REMARK   11  A    between atoms: C21_26  and  O5_27 
REMARK   12  A    between atoms: C25_32  and  C26_33 
REMARK   13  A    between atoms: C26_33  and  O6_36 
REMARK   14  A    between atoms: C29_38  and  C31_40 
ROOT
HETATM    1  C4  UNL     1     -24.752 -46.396 -48.051  1.00  0.00     0.019 C 
HETATM    2  C5  UNL     1     -23.714 -47.585 -48.229  1.00  0.00     0.010 C 
HETATM    3  C6  UNL     1     -24.180 -48.691 -47.406  1.00  0.00     0.010 C 
HETATM    4  C7  UNL     1     -24.237 -48.192 -46.020  1.00  0.00     0.023 C 
HETATM    5  C13 UNL     1     -25.150 -46.977 -45.763  1.00  0.00    -0.029 C 
HETATM    6  C14 UNL     1     -26.492 -47.466 -46.254  1.00  0.00     0.016 C 
HETATM    7  C15 UNL     1     -25.007 -46.846 -44.337  1.00  0.00     0.045 C 
HETATM    8  C16 UNL     1     -25.176 -45.623 -43.470  1.00  0.00     0.164 C 
HETATM    9  C21 UNL     1     -26.196 -44.757 -43.908  1.00  0.00     0.114 C 
HETATM   10  C22 UNL     1     -25.994 -44.248 -45.327  1.00  0.00    -0.038 C 
HETATM   11  C23 UNL     1     -27.049 -43.472 -45.527  1.00  0.00    -0.019 C 
HETATM   12  C24 UNL     1     -27.949 -43.419 -44.315  1.00  0.00     0.038 C 
HETATM   13  C25 UNL     1     -26.818 -43.615 -43.255  1.00  0.00     0.064 C 
HETATM   14  C29 UNL     1     -24.865 -44.483 -46.324  1.00  0.00    -0.010 C 
HETATM   15  C30 UNL     1     -25.258 -43.572 -47.510  1.00  0.00     0.021 C 
HETATM   16  C34 UNL     1     -24.587 -45.870 -46.687  1.00  0.00     0.015 C 
ENDROOT
BRANCH   4  17
HETATM   17  C8  UNL     1     -24.371 -49.344 -45.125  1.00  0.00    -0.075 C 
HETATM   18  C9  UNL     1     -25.463 -50.100 -45.218  1.00  0.00     0.015 C 
BRANCH  17  19
HETATM   19  C10 UNL     1     -23.445 -49.698 -44.027  1.00  0.00     0.144 C 
BRANCH  19  20
HETATM   20  C11 UNL     1     -22.030 -49.744 -44.468  1.00  0.00     0.262 C 
HETATM   21  O1  UNL     1     -21.524 -50.790 -44.887  1.00  0.00    -0.265 OA
BRANCH  20  22
HETATM   22  O2  UNL     1     -21.189 -48.603 -44.434  1.00  0.00    -0.326 OA
HETATM   23  C12 UNL     1     -20.509 -48.206 -45.623  1.00  0.00     0.213 C 
ENDBRANCH  20  22
ENDBRANCH  19  20
ENDBRANCH  17  19
ENDBRANCH   4  17
BRANCH   1  24
HETATM   24  C2  UNL     1     -24.423 -45.778 -49.302  1.00  0.00    -0.088 C 
HETATM   25  C1  UNL     1     -25.259 -45.748 -50.321  1.00  0.00     0.014 C 
HETATM   26  C3  UNL     1     -23.064 -45.203 -49.700  1.00  0.00     0.043 C 
ENDBRANCH   1  24
BRANCH   8  27
HETATM   27  O3  UNL     1     -25.642 -46.216 -42.225  1.00  0.00    -0.353 OA
BRANCH  27  28
HETATM   28  C17 UNL     1     -24.895 -46.666 -41.228  1.00  0.00     0.257 C 
BRANCH  28  29
HETATM   29  O4  UNL     1     -24.548 -45.826 -40.295  1.00  0.00    -0.371 OA
ATOM     30  H4  UNL     1     -24.781 -44.912 -40.406  1.00  0.00     0.212 HD
ENDBRANCH  28  29
BRANCH  28  31
HETATM   31  C18 UNL     1     -24.387 -48.026 -41.022  1.00  0.00     0.060 C 
BRANCH  31  32
HETATM   32  C19 UNL     1     -25.491 -49.084 -41.042  1.00  0.00     0.000 C 
HETATM   33  C20 UNL     1     -25.035 -50.448 -40.648  1.00  0.00     0.005 C 
ENDBRANCH  31  32
ENDBRANCH  28  31
ENDBRANCH  27  28
ENDBRANCH   8  27
BRANCH  14  34
HETATM   34  C31 UNL     1     -23.690 -43.704 -45.732  1.00  0.00    -0.010 C 
HETATM   35  C32 UNL     1     -22.335 -44.003 -46.277  1.00  0.00     0.010 C 
HETATM   36  C33 UNL     1     -23.811 -42.201 -45.905  1.00  0.00     0.010 C 
ENDBRANCH  14  34
BRANCH   9  37
HETATM   37  O5  UNL     1     -27.378 -45.651 -43.991  1.00  0.00    -0.382 OA
ATOM     38  H5  UNL     1     -27.649 -45.731 -43.084  1.00  0.00     0.211 HD
ENDBRANCH   9  37
BRANCH  13  39
HETATM   39  C26 UNL     1     -27.399 -43.587 -41.934  1.00  0.00     0.058 C 
HETATM   40  C27 UNL     1     -28.714 -44.261 -41.704  1.00  0.00     0.046 C 
HETATM   41  C28 UNL     1     -27.760 -42.069 -41.716  1.00  0.00     0.046 C 
BRANCH  39  42
HETATM   42  O6  UNL     1     -26.576 -43.818 -40.845  1.00  0.00    -0.390 OA
ATOM     43  H6  UNL     1     -26.752 -44.573 -40.295  1.00  0.00     0.210 HD
ENDBRANCH  39  42
ENDBRANCH  13  39
TORSDOF 14
ENDMDL
