MODEL 1
REMARK VINA RESULT: -9.749360313      0.000      0.000
REMARK  3 active torsions:
REMARK  status: ('A' for Active; 'I' for Inactive)
REMARK    1  A    between atoms: C2_2  and  C3_3 
REMARK    2  A    between atoms: N1_4  and  O1_6 
REMARK    3  A    between atoms: C17_24  and  C18_25 
ROOT
HETATM    1  C1  UNL     1     -13.026  24.525  22.123  1.00  0.00     0.055 C 
HETATM    2  C2  UNL     1     -14.113  25.488  21.652  1.00  0.00     0.129 C 
HETATM    3  O2  UNL     1     -15.328  24.860  22.023  1.00  0.00    -0.333 OA
HETATM    4  C4  UNL     1     -15.647  23.763  21.292  1.00  0.00     0.198 C 
HETATM    5  C5  UNL     1     -17.130  23.875  20.908  1.00  0.00     0.071 C 
HETATM    6  C6  UNL     1     -18.003  24.065  22.107  1.00  0.00     0.006 C 
HETATM    7  C7  UNL     1     -17.594  23.144  23.250  1.00  0.00     0.000 C 
HETATM    8  C8  UNL     1     -16.838  21.989  22.606  1.00  0.00     0.006 C 
HETATM    9  C9  UNL     1     -15.506  22.457  22.033  1.00  0.00     0.071 C 
HETATM   10  O3  UNL     1     -14.953  23.761  20.085  1.00  0.00    -0.200 OA
HETATM   11  O4  UNL     1     -15.062  24.988  19.623  1.00  0.00    -0.222 OA
HETATM   12  C10 UNL     1     -14.043  25.799  20.214  1.00  0.00     0.140 C 
HETATM   13  C11 UNL     1     -12.791  25.374  19.511  1.00  0.00     0.028 C 
HETATM   14  C12 UNL     1     -13.173  25.169  18.039  1.00  0.00     0.012 C 
HETATM   15  C13 UNL     1     -13.724  26.455  17.504  1.00  0.00    -0.013 C 
HETATM   16  C14 UNL     1     -12.564  27.435  17.499  1.00  0.00     0.010 C 
HETATM   17  C15 UNL     1     -12.187  27.734  18.897  1.00  0.00    -0.005 C 
HETATM   18  C16 UNL     1     -11.685  26.401  19.506  1.00  0.00     0.013 C 
HETATM   19  C17 UNL     1     -13.263  28.165  19.827  1.00  0.00     0.030 C 
HETATM   20  C24 UNL     1     -14.416  27.200  19.791  1.00  0.00     0.036 C 
HETATM   21  C25 UNL     1     -14.809  27.080  18.326  1.00  0.00     0.013 C 
ENDROOT
BRANCH   2  22
HETATM   22  C3  UNL     1     -14.050  26.651  22.577  1.00  0.00     0.127 C 
HETATM   23  N1  UNL     1     -15.075  27.263  23.018  1.00  0.00    -0.281 N 
ATOM     24  H1  UNL     1     -16.006  26.957  22.736  1.00  0.00     0.193 HD
BRANCH  23  25
HETATM   25  O1  UNL     1     -14.940  28.329  23.867  1.00  0.00    -0.290 OA
ATOM     26  H1  UNL     1     -15.695  28.682  24.324  1.00  0.00     0.244 HD
ENDBRANCH  23  25
ENDBRANCH   2  22
BRANCH  19  27
HETATM   27  C18 UNL     1     -13.777  29.534  19.628  1.00  0.00    -0.053 A 
HETATM   28  C19 UNL     1     -13.860  30.147  18.397  1.00  0.00     0.010 A 
HETATM   29  C20 UNL     1     -14.359  31.426  18.270  1.00  0.00     0.043 A 
HETATM   30  C21 UNL     1     -14.785  32.119  19.378  1.00  0.00     0.116 A 
HETATM   31  F1  UNL     1     -15.281  33.389  19.259  1.00  0.00    -0.206 F 
HETATM   32  C22 UNL     1     -14.720  31.548  20.626  1.00  0.00     0.043 A 
HETATM   33  C23 UNL     1     -14.210  30.252  20.716  1.00  0.00     0.010 A 
ENDBRANCH  19  27
TORSDOF 3
ENDMDL
MODEL 2
REMARK VINA RESULT: -9.265517543      0.547      1.006
REMARK  3 active torsions:
REMARK  status: ('A' for Active; 'I' for Inactive)
REMARK    1  A    between atoms: C2_2  and  C3_3 
REMARK    2  A    between atoms: N1_4  and  O1_6 
REMARK    3  A    between atoms: C17_24  and  C18_25 
ROOT
HETATM    1  C1  UNL     1     -13.183  24.385  22.129  1.00  0.00     0.055 C 
HETATM    2  C2  UNL     1     -14.229  25.334  21.551  1.00  0.00     0.129 C 
HETATM    3  O2  UNL     1     -15.470  24.785  21.961  1.00  0.00    -0.333 OA
HETATM    4  C4  UNL     1     -15.818  23.635  21.333  1.00  0.00     0.198 C 
HETATM    5  C5  UNL     1     -17.291  23.759  20.916  1.00  0.00     0.071 C 
HETATM    6  C6  UNL     1     -18.173  24.093  22.077  1.00  0.00     0.006 C 
HETATM    7  C7  UNL     1     -17.810  23.273  23.309  1.00  0.00     0.000 C 
HETATM    8  C8  UNL     1     -17.087  22.037  22.792  1.00  0.00     0.006 C 
HETATM    9  C9  UNL     1     -15.733  22.403  22.198  1.00  0.00     0.071 C 
HETATM   10  O3  UNL     1     -15.109  23.493  20.143  1.00  0.00    -0.200 OA
HETATM   11  O4  UNL     1     -15.169  24.673  19.564  1.00  0.00    -0.222 OA
HETATM   12  C10 UNL     1     -14.130  25.502  20.091  1.00  0.00     0.140 C 
HETATM   13  C11 UNL     1     -12.885  24.970  19.453  1.00  0.00     0.028 C 
HETATM   14  C12 UNL     1     -13.254  24.637  18.001  1.00  0.00     0.012 C 
HETATM   15  C13 UNL     1     -13.753  25.883  17.336  1.00  0.00    -0.013 C 
HETATM   16  C14 UNL     1     -12.559  26.818  17.255  1.00  0.00     0.010 C 
HETATM   17  C15 UNL     1     -12.189  27.238  18.625  1.00  0.00    -0.005 C 
HETATM   18  C16 UNL     1     -11.742  25.953  19.367  1.00  0.00     0.013 C 
HETATM   19  C17 UNL     1     -13.262  27.792  19.492  1.00  0.00     0.030 C 
HETATM   20  C24 UNL     1     -14.448  26.868  19.529  1.00  0.00     0.036 C 
HETATM   21  C25 UNL     1     -14.826  26.620  18.077  1.00  0.00     0.013 C 
ENDROOT
BRANCH   2  22
HETATM   22  C3  UNL     1     -14.137  26.578  22.361  1.00  0.00     0.127 C 
HETATM   23  N1  UNL     1     -15.143  27.171  22.867  1.00  0.00    -0.281 N 
ATOM     24  H1  UNL     1     -16.078  26.790  22.725  1.00  0.00     0.193 HD
BRANCH  23  25
HETATM   25  O1  UNL     1     -14.982  28.315  23.602  1.00  0.00    -0.290 OA
ATOM     26  H1  UNL     1     -14.572  28.287  24.458  1.00  0.00     0.244 HD
ENDBRANCH  23  25
ENDBRANCH   2  22
BRANCH  19  27
HETATM   27  C18 UNL     1     -13.725  29.152  19.154  1.00  0.00    -0.053 A 
HETATM   28  C19 UNL     1     -14.515  29.918  19.982  1.00  0.00     0.010 A 
HETATM   29  C20 UNL     1     -14.909  31.188  19.618  1.00  0.00     0.043 A 
HETATM   30  C21 UNL     1     -14.517  31.717  18.412  1.00  0.00     0.116 A 
HETATM   31  F1  UNL     1     -14.905  32.978  18.044  1.00  0.00    -0.206 F 
HETATM   32  C22 UNL     1     -13.730  30.990  17.553  1.00  0.00     0.043 A 
HETATM   33  C23 UNL     1     -13.350  29.709  17.955  1.00  0.00     0.010 A 
ENDBRANCH  19  27
TORSDOF 3
ENDMDL
MODEL 3
REMARK VINA RESULT: -8.762738278      2.028      2.420
REMARK  3 active torsions:
REMARK  status: ('A' for Active; 'I' for Inactive)
REMARK    1  A    between atoms: C2_2  and  C3_3 
REMARK    2  A    between atoms: N1_4  and  O1_6 
REMARK    3  A    between atoms: C17_24  and  C18_25 
ROOT
HETATM    1  C1  UNL     1     -11.152  24.464  20.972  1.00  0.00     0.055 C 
HETATM    2  C2  UNL     1     -12.266  25.436  21.346  1.00  0.00     0.129 C 
HETATM    3  O2  UNL     1     -12.782  24.933  22.567  1.00  0.00    -0.333 OA
HETATM    4  C4  UNL     1     -13.494  23.785  22.451  1.00  0.00     0.198 C 
HETATM    5  C5  UNL     1     -14.778  23.949  23.279  1.00  0.00     0.071 C 
HETATM    6  C6  UNL     1     -14.482  24.326  24.697  1.00  0.00     0.006 C 
HETATM    7  C7  UNL     1     -13.325  23.513  25.263  1.00  0.00     0.000 C 
HETATM    8  C8  UNL     1     -13.250  22.247  24.419  1.00  0.00     0.006 C 
HETATM    9  C9  UNL     1     -12.800  22.563  22.998  1.00  0.00     0.071 C 
HETATM   10  O3  UNL     1     -13.923  23.604  21.139  1.00  0.00    -0.200 OA
HETATM   11  O4  UNL     1     -14.387  24.777  20.764  1.00  0.00    -0.222 OA
HETATM   12  C10 UNL     1     -13.297  25.581  20.304  1.00  0.00     0.140 C 
HETATM   13  C11 UNL     1     -12.962  25.002  18.965  1.00  0.00     0.028 C 
HETATM   14  C12 UNL     1     -14.300  24.660  18.297  1.00  0.00     0.012 C 
HETATM   15  C13 UNL     1     -15.117  25.912  18.193  1.00  0.00    -0.013 C 
HETATM   16  C14 UNL     1     -14.382  26.809  17.213  1.00  0.00     0.010 C 
HETATM   17  C15 UNL     1     -13.104  27.235  17.823  1.00  0.00    -0.005 C 
HETATM   18  C16 UNL     1     -12.264  25.948  18.018  1.00  0.00     0.013 C 
HETATM   19  C17 UNL     1     -13.154  27.835  19.183  1.00  0.00     0.030 C 
HETATM   20  C24 UNL     1     -13.916  26.948  20.128  1.00  0.00     0.036 C 
HETATM   21  C25 UNL     1     -15.260  26.692  19.464  1.00  0.00     0.013 C 
ENDROOT
BRANCH   2  22
HETATM   22  C3  UNL     1     -11.585  26.689  21.771  1.00  0.00     0.127 C 
HETATM   23  N1  UNL     1     -10.451  27.064  21.331  1.00  0.00    -0.281 N 
ATOM     24  H1  UNL     1      -9.961  26.490  20.646  1.00  0.00     0.193 HD
BRANCH  23  25
HETATM   25  O1  UNL     1      -9.884  28.231  21.768  1.00  0.00    -0.290 OA
ATOM     26  H1  UNL     1      -8.954  28.388  21.656  1.00  0.00     0.244 HD
ENDBRANCH  23  25
ENDBRANCH   2  22
BRANCH  19  27
HETATM   27  C18 UNL     1     -13.699  29.203  19.264  1.00  0.00    -0.053 A 
HETATM   28  C19 UNL     1     -13.882  30.019  18.169  1.00  0.00     0.010 A 
HETATM   29  C20 UNL     1     -14.406  31.287  18.303  1.00  0.00     0.043 A 
HETATM   30  C21 UNL     1     -14.757  31.765  19.543  1.00  0.00     0.116 A 
HETATM   31  F1  UNL     1     -15.279  33.024  19.683  1.00  0.00    -0.206 F 
HETATM   32  C22 UNL     1     -14.592  30.988  20.663  1.00  0.00     0.043 A 
HETATM   33  C23 UNL     1     -14.059  29.710  20.488  1.00  0.00     0.010 A 
ENDBRANCH  19  27
TORSDOF 3
ENDMDL
MODEL 4
REMARK VINA RESULT: -8.530234153      1.699      2.400
REMARK  3 active torsions:
REMARK  status: ('A' for Active; 'I' for Inactive)
REMARK    1  A    between atoms: C2_2  and  C3_3 
REMARK    2  A    between atoms: N1_4  and  O1_6 
REMARK    3  A    between atoms: C17_24  and  C18_25 
ROOT
HETATM    1  C1  UNL     1     -13.890  24.946  23.351  1.00  0.00     0.055 C 
HETATM    2  C2  UNL     1     -14.436  25.424  22.009  1.00  0.00     0.129 C 
HETATM    3  O2  UNL     1     -15.772  24.952  21.981  1.00  0.00    -0.333 OA
HETATM    4  C4  UNL     1     -15.897  23.611  21.825  1.00  0.00     0.198 C 
HETATM    5  C5  UNL     1     -16.977  23.365  20.761  1.00  0.00     0.071 C 
HETATM    6  C6  UNL     1     -18.264  24.046  21.104  1.00  0.00     0.006 C 
HETATM    7  C7  UNL     1     -18.612  23.876  22.578  1.00  0.00     0.000 C 
HETATM    8  C8  UNL     1     -17.861  22.636  23.045  1.00  0.00     0.006 C 
HETATM    9  C9  UNL     1     -16.358  22.881  23.062  1.00  0.00     0.071 C 
HETATM   10  O3  UNL     1     -14.729  23.068  21.298  1.00  0.00    -0.200 OA
HETATM   11  O4  UNL     1     -14.387  23.875  20.316  1.00  0.00    -0.222 OA
HETATM   12  C10 UNL     1     -13.643  24.971  20.854  1.00  0.00     0.140 C 
HETATM   13  C11 UNL     1     -12.305  24.377  21.170  1.00  0.00     0.028 C 
HETATM   14  C12 UNL     1     -11.977  23.419  20.018  1.00  0.00     0.012 C 
HETATM   15  C13 UNL     1     -11.972  24.195  18.737  1.00  0.00    -0.013 C 
HETATM   16  C14 UNL     1     -10.794  25.148  18.831  1.00  0.00     0.010 C 
HETATM   17  C15 UNL     1     -11.074  26.148  19.884  1.00  0.00    -0.005 C 
HETATM   18  C16 UNL     1     -11.164  25.364  21.217  1.00  0.00     0.013 C 
HETATM   19  C17 UNL     1     -12.366  26.880  19.815  1.00  0.00     0.030 C 
HETATM   20  C24 UNL     1     -13.516  25.920  19.686  1.00  0.00     0.036 C 
HETATM   21  C25 UNL     1     -13.186  25.038  18.492  1.00  0.00     0.013 C 
ENDROOT
BRANCH   2  22
HETATM   22  C3  UNL     1     -14.611  26.895  22.145  1.00  0.00     0.127 C 
HETATM   23  N1  UNL     1     -14.751  27.493  23.259  1.00  0.00    -0.281 N 
ATOM     24  H1  UNL     1     -14.747  26.955  24.125  1.00  0.00     0.193 HD
BRANCH  23  25
HETATM   25  O1  UNL     1     -14.909  28.852  23.308  1.00  0.00    -0.290 OA
ATOM     26  H1  UNL     1     -15.773  29.242  23.250  1.00  0.00     0.244 HD
ENDBRANCH  23  25
ENDBRANCH   2  22
BRANCH  19  27
HETATM   27  C18 UNL     1     -12.472  27.902  18.756  1.00  0.00    -0.053 A 
HETATM   28  C19 UNL     1     -13.514  28.798  18.660  1.00  0.00     0.010 A 
HETATM   29  C20 UNL     1     -13.556  29.738  17.653  1.00  0.00     0.043 A 
HETATM   30  C21 UNL     1     -12.551  29.799  16.717  1.00  0.00     0.116 A 
HETATM   31  F1  UNL     1     -12.586  30.731  15.714  1.00  0.00    -0.206 F 
HETATM   32  C22 UNL     1     -11.493  28.925  16.772  1.00  0.00     0.043 A 
HETATM   33  C23 UNL     1     -11.484  27.987  17.806  1.00  0.00     0.010 A 
ENDBRANCH  19  27
TORSDOF 3
ENDMDL
MODEL 5
REMARK VINA RESULT: -8.373588829      3.395      5.428
REMARK  3 active torsions:
REMARK  status: ('A' for Active; 'I' for Inactive)
REMARK    1  A    between atoms: C2_2  and  C3_3 
REMARK    2  A    between atoms: N1_4  and  O1_6 
REMARK    3  A    between atoms: C17_24  and  C18_25 
ROOT
HETATM    1  C1  UNL     1     -13.739  24.545  25.244  1.00  0.00     0.055 C 
HETATM    2  C2  UNL     1     -13.898  23.819  23.911  1.00  0.00     0.129 C 
HETATM    3  O2  UNL     1     -13.182  22.607  24.080  1.00  0.00    -0.333 OA
HETATM    4  C4  UNL     1     -11.834  22.744  24.119  1.00  0.00     0.198 C 
HETATM    5  C5  UNL     1     -11.229  21.663  23.211  1.00  0.00     0.071 C 
HETATM    6  C6  UNL     1     -11.699  20.293  23.587  1.00  0.00     0.006 C 
HETATM    7  C7  UNL     1     -11.690  20.093  25.097  1.00  0.00     0.000 C 
HETATM    8  C8  UNL     1     -10.700  21.111  25.649  1.00  0.00     0.006 C 
HETATM    9  C9  UNL     1     -11.224  22.531  25.482  1.00  0.00     0.071 C 
HETATM   10  O3  UNL     1     -11.449  23.957  23.554  1.00  0.00    -0.200 OA
HETATM   11  O4  UNL     1     -12.148  24.057  22.444  1.00  0.00    -0.222 OA
HETATM   12  C10 UNL     1     -13.434  24.603  22.754  1.00  0.00     0.140 C 
HETATM   13  C11 UNL     1     -13.158  26.052  23.010  1.00  0.00     0.028 C 
HETATM   14  C12 UNL     1     -12.117  26.483  21.969  1.00  0.00     0.012 C 
HETATM   15  C13 UNL     1     -12.678  26.239  20.602  1.00  0.00    -0.013 C 
HETATM   16  C14 UNL     1     -13.840  27.204  20.450  1.00  0.00     0.010 C 
HETATM   17  C15 UNL     1     -14.916  26.804  21.381  1.00  0.00    -0.005 C 
HETATM   18  C16 UNL     1     -14.339  26.970  22.810  1.00  0.00     0.013 C 
HETATM   19  C17 UNL     1     -15.372  25.389  21.345  1.00  0.00     0.030 C 
HETATM   20  C24 UNL     1     -14.203  24.451  21.462  1.00  0.00     0.036 C 
HETATM   21  C25 UNL     1     -13.228  24.865  20.370  1.00  0.00     0.013 C 
ENDROOT
BRANCH   2  22
HETATM   22  C3  UNL     1     -15.312  23.360  23.866  1.00  0.00     0.127 C 
HETATM   23  N1  UNL     1     -16.306  24.093  24.174  1.00  0.00    -0.281 N 
ATOM     24  H1  UNL     1     -16.150  25.056  24.472  1.00  0.00     0.193 HD
BRANCH  23  25
HETATM   25  O1  UNL     1     -17.582  23.603  24.108  1.00  0.00    -0.290 OA
ATOM     26  H1  UNL     1     -18.212  23.798  24.793  1.00  0.00     0.244 HD
ENDBRANCH  23  25
ENDBRANCH   2  22
BRANCH  19  27
HETATM   27  C18 UNL     1     -16.182  25.003  20.175  1.00  0.00    -0.053 A 
HETATM   28  C19 UNL     1     -16.029  25.557  18.923  1.00  0.00     0.010 A 
HETATM   29  C20 UNL     1     -16.809  25.149  17.862  1.00  0.00     0.043 A 
HETATM   30  C21 UNL     1     -17.763  24.174  18.036  1.00  0.00     0.116 A 
HETATM   31  F1  UNL     1     -18.541  23.764  16.986  1.00  0.00    -0.206 F 
HETATM   32  C22 UNL     1     -17.951  23.594  19.266  1.00  0.00     0.043 A 
HETATM   33  C23 UNL     1     -17.143  24.032  20.316  1.00  0.00     0.010 A 
ENDBRANCH  19  27
TORSDOF 3
ENDMDL
