MODEL 1
REMARK VINA RESULT: -7.356052481      0.000      0.000
REMARK  3 active torsions:
REMARK  status: ('A' for Active; 'I' for Inactive)
REMARK    1  A    between atoms: C2_2  and  C3_3 
REMARK    2  A    between atoms: C3_3  and  N1_4 
REMARK    3  A    between atoms: C12_18  and  C13_19 
ROOT
HETATM    1  N1  UNL     1     -16.390  24.993  22.492  1.00  0.00    -0.365 N 
ATOM      2  H1  UNL     1     -17.132  25.638  22.761  1.00  0.00     0.162 HD
HETATM    3  C4  UNL     1     -15.549  25.284  21.577  1.00  0.00     0.178 C 
HETATM    4  O1  UNL     1     -15.557  26.506  20.854  1.00  0.00    -0.323 OA
HETATM    5  C5  UNL     1     -14.534  26.533  19.912  1.00  0.00     0.158 A 
HETATM    6  C6  UNL     1     -14.410  26.899  18.572  1.00  0.00     0.100 A 
HETATM    7  C7  UNL     1     -13.261  26.561  17.697  1.00  0.00     0.083 C 
HETATM    8  N2  UNL     1     -12.070  26.945  17.962  1.00  0.00    -0.378 N 
ATOM      9  H2  UNL     1     -11.795  27.501  18.772  1.00  0.00     0.160 HD
HETATM   10  C8  UNL     1     -11.186  26.470  16.944  1.00  0.00     0.141 C 
HETATM   11  C9  UNL     1     -12.056  25.825  15.884  1.00  0.00     0.144 C 
HETATM   12  N3  UNL     1     -13.358  25.800  16.508  1.00  0.00    -0.360 N 
HETATM   13  C10 UNL     1     -14.456  25.089  15.900  1.00  0.00     0.120 C 
HETATM   14  C11 UNL     1     -15.725  25.134  16.686  1.00  0.00     0.003 C 
HETATM   15  C12 UNL     1     -15.946  25.312  17.997  1.00  0.00    -0.069 C 
HETATM   16  C15 UNL     1     -14.912  25.517  18.961  1.00  0.00     0.036 A 
HETATM   17  C16 UNL     1     -14.085  24.336  19.217  1.00  0.00     0.077 C 
HETATM   18  C17 UNL     1     -14.490  23.052  18.589  1.00  0.00     0.067 C 
HETATM   19  C18 UNL     1     -13.459  22.623  17.620  1.00  0.00     0.010 C 
HETATM   20 CL1  UNL     1     -12.197  21.573  18.347  1.00  0.00    -0.089 Cl
HETATM   21  C19 UNL     1     -13.325  22.889  16.360  1.00  0.00     0.004 C 
HETATM   22  C20 UNL     1     -14.127  23.695  15.440  1.00  0.00    -0.005 C 
HETATM   23  C21 UNL     1     -13.411  23.768  14.067  1.00  0.00     0.021 C 
HETATM   24  C22 UNL     1     -15.416  22.964  15.148  1.00  0.00     0.021 C 
HETATM   25  S1  UNL     1     -14.214  24.169  21.062  1.00  0.00    -0.081 SA
ENDROOT
BRANCH   1  26
HETATM   26  C3  UNL     1     -16.239  23.700  23.129  1.00  0.00     0.122 C 
BRANCH  26  27
HETATM   27  C2  UNL     1     -17.561  22.925  23.061  1.00  0.00     0.015 C 
HETATM   28  C1  UNL     1     -18.383  23.411  21.889  1.00  0.00     0.006 C 
ENDBRANCH  26  27
ENDBRANCH   1  26
BRANCH  15  29
HETATM   29  C13 UNL     1     -17.377  25.286  18.367  1.00  0.00     0.030 C 
HETATM   30  C14 UNL     1     -18.311  24.911  17.248  1.00  0.00     0.010 C 
ENDBRANCH  15  29
TORSDOF 3
ENDMDL
MODEL 2
REMARK VINA RESULT: -7.259864932      2.607      4.054
REMARK  3 active torsions:
REMARK  status: ('A' for Active; 'I' for Inactive)
REMARK    1  A    between atoms: C2_2  and  C3_3 
REMARK    2  A    between atoms: C3_3  and  N1_4 
REMARK    3  A    between atoms: C12_18  and  C13_19 
ROOT
HETATM    1  N1  UNL     1     -16.117  23.859  23.901  1.00  0.00    -0.365 N 
ATOM      2  H1  UNL     1     -16.248  24.213  24.849  1.00  0.00     0.162 HD
HETATM    3  C4  UNL     1     -15.027  24.042  23.262  1.00  0.00     0.178 C 
HETATM    4  O1  UNL     1     -13.908  24.738  23.790  1.00  0.00    -0.323 OA
HETATM    5  C5  UNL     1     -12.873  24.791  22.861  1.00  0.00     0.158 A 
HETATM    6  C6  UNL     1     -11.994  25.766  22.390  1.00  0.00     0.100 A 
HETATM    7  C7  UNL     1     -11.157  25.644  21.172  1.00  0.00     0.083 C 
HETATM    8  N2  UNL     1     -10.281  24.721  21.040  1.00  0.00    -0.378 N 
ATOM      9  H2  UNL     1     -10.074  23.999  21.731  1.00  0.00     0.160 HD
HETATM   10  C8  UNL     1      -9.639  24.862  19.771  1.00  0.00     0.141 C 
HETATM   11  C9  UNL     1     -10.164  26.146  19.161  1.00  0.00     0.144 C 
HETATM   12  N3  UNL     1     -11.235  26.513  20.058  1.00  0.00    -0.360 N 
HETATM   13  C10 UNL     1     -12.132  27.595  19.735  1.00  0.00     0.120 C 
HETATM   14  C11 UNL     1     -13.203  27.827  20.749  1.00  0.00     0.003 C 
HETATM   15  C12 UNL     1     -13.763  27.002  21.646  1.00  0.00    -0.069 C 
HETATM   16  C15 UNL     1     -13.394  25.632  21.811  1.00  0.00     0.036 A 
HETATM   17  C16 UNL     1     -13.792  24.764  20.701  1.00  0.00     0.077 C 
HETATM   18  C17 UNL     1     -14.644  25.345  19.632  1.00  0.00     0.067 C 
HETATM   19  C18 UNL     1     -13.900  25.360  18.353  1.00  0.00     0.010 C 
HETATM   20 CL1  UNL     1     -14.140  23.871  17.378  1.00  0.00    -0.089 Cl
HETATM   21  C19 UNL     1     -13.116  26.256  17.845  1.00  0.00     0.004 C 
HETATM   22  C20 UNL     1     -12.680  27.563  18.334  1.00  0.00    -0.005 C 
HETATM   23  C21 UNL     1     -11.622  28.146  17.361  1.00  0.00     0.021 C 
HETATM   24  C22 UNL     1     -13.838  28.528  18.244  1.00  0.00     0.021 C 
HETATM   25  S1  UNL     1     -14.750  23.435  21.576  1.00  0.00    -0.081 SA
ENDROOT
BRANCH   1  26
HETATM   26  C3  UNL     1     -17.161  23.126  23.213  1.00  0.00     0.122 C 
BRANCH  26  27
HETATM   27  C2  UNL     1     -18.177  24.105  22.609  1.00  0.00     0.015 C 
HETATM   28  C1  UNL     1     -18.558  23.657  21.216  1.00  0.00     0.006 C 
ENDBRANCH  26  27
ENDBRANCH   1  26
BRANCH  15  29
HETATM   29  C13 UNL     1     -14.808  27.643  22.472  1.00  0.00     0.030 C 
HETATM   30  C14 UNL     1     -14.783  29.148  22.463  1.00  0.00     0.010 C 
ENDBRANCH  15  29
TORSDOF 3
ENDMDL
MODEL 3
REMARK VINA RESULT: -7.160394055      2.523      3.677
REMARK  3 active torsions:
REMARK  status: ('A' for Active; 'I' for Inactive)
REMARK    1  A    between atoms: C2_2  and  C3_3 
REMARK    2  A    between atoms: C3_3  and  N1_4 
REMARK    3  A    between atoms: C12_18  and  C13_19 
ROOT
HETATM    1  N1  UNL     1     -15.062  21.078  24.245  1.00  0.00    -0.365 N 
ATOM      2  H1  UNL     1     -15.605  21.232  25.093  1.00  0.00     0.162 HD
HETATM    3  C4  UNL     1     -14.731  22.042  23.477  1.00  0.00     0.178 C 
HETATM    4  O1  UNL     1     -15.075  23.398  23.716  1.00  0.00    -0.323 OA
HETATM    5  C5  UNL     1     -14.592  24.220  22.703  1.00  0.00     0.158 A 
HETATM    6  C6  UNL     1     -15.094  25.271  21.935  1.00  0.00     0.100 A 
HETATM    7  C7  UNL     1     -14.466  25.803  20.702  1.00  0.00     0.083 C 
HETATM    8  N2  UNL     1     -13.287  26.300  20.700  1.00  0.00    -0.378 N 
ATOM      9  H2  UNL     1     -12.678  26.380  21.515  1.00  0.00     0.160 HD
HETATM   10  C8  UNL     1     -12.959  26.726  19.375  1.00  0.00     0.141 C 
HETATM   11  C9  UNL     1     -14.211  26.544  18.541  1.00  0.00     0.144 C 
HETATM   12  N3  UNL     1     -15.087  25.817  19.430  1.00  0.00    -0.360 N 
HETATM   13  C10 UNL     1     -16.336  25.274  18.956  1.00  0.00     0.120 C 
HETATM   14  C11 UNL     1     -17.110  24.524  19.991  1.00  0.00     0.003 C 
HETATM   15  C12 UNL     1     -16.712  23.892  21.104  1.00  0.00    -0.069 C 
HETATM   16  C15 UNL     1     -15.354  23.824  21.544  1.00  0.00     0.036 A 
HETATM   17  C16 UNL     1     -14.493  22.985  20.709  1.00  0.00     0.077 C 
HETATM   18  C17 UNL     1     -15.129  22.195  19.624  1.00  0.00     0.067 C 
HETATM   19  C18 UNL     1     -14.648  22.673  18.309  1.00  0.00     0.010 C 
HETATM   20 CL1  UNL     1     -13.186  21.805  17.733  1.00  0.00    -0.089 Cl
HETATM   21  C19 UNL     1     -15.104  23.604  17.534  1.00  0.00     0.004 C 
HETATM   22  C20 UNL     1     -16.242  24.513  17.662  1.00  0.00    -0.005 C 
HETATM   23  C21 UNL     1     -16.229  25.519  16.481  1.00  0.00     0.021 C 
HETATM   24  C22 UNL     1     -17.518  23.728  17.467  1.00  0.00     0.021 C 
HETATM   25  S1  UNL     1     -13.768  21.816  21.957  1.00  0.00    -0.081 SA
ENDROOT
BRANCH   1  26
HETATM   26  C3  UNL     1     -14.628  19.752  23.851  1.00  0.00     0.122 C 
BRANCH  26  27
HETATM   27  C2  UNL     1     -15.835  18.809  23.770  1.00  0.00     0.015 C 
HETATM   28  C1  UNL     1     -15.533  17.520  24.501  1.00  0.00     0.006 C 
ENDBRANCH  26  27
ENDBRANCH   1  26
BRANCH  15  29
HETATM   29  C13 UNL     1     -17.818  23.266  21.860  1.00  0.00     0.030 C 
HETATM   30  C14 UNL     1     -18.443  24.147  22.908  1.00  0.00     0.010 C 
ENDBRANCH  15  29
TORSDOF 3
ENDMDL
MODEL 4
REMARK VINA RESULT: -7.106909170      3.473      5.455
REMARK  3 active torsions:
REMARK  status: ('A' for Active; 'I' for Inactive)
REMARK    1  A    between atoms: C2_2  and  C3_3 
REMARK    2  A    between atoms: C3_3  and  N1_4 
REMARK    3  A    between atoms: C12_18  and  C13_19 
ROOT
HETATM    1  N1  UNL     1     -14.654  19.986  24.273  1.00  0.00    -0.365 N 
ATOM      2  H1  UNL     1     -15.329  19.725  24.991  1.00  0.00     0.162 HD
HETATM    3  C4  UNL     1     -14.216  21.180  24.169  1.00  0.00     0.178 C 
HETATM    4  O1  UNL     1     -14.611  22.246  25.019  1.00  0.00    -0.323 OA
HETATM    5  C5  UNL     1     -13.981  23.432  24.657  1.00  0.00     0.158 A 
HETATM    6  C6  UNL     1     -14.366  24.760  24.477  1.00  0.00     0.100 A 
HETATM    7  C7  UNL     1     -13.554  25.800  23.799  1.00  0.00     0.083 C 
HETATM    8  N2  UNL     1     -12.397  26.142  24.225  1.00  0.00    -0.378 N 
ATOM      9  H2  UNL     1     -11.928  25.750  25.042  1.00  0.00     0.160 HD
HETATM   10  C8  UNL     1     -11.864  27.159  23.373  1.00  0.00     0.141 C 
HETATM   11  C9  UNL     1     -12.962  27.519  22.393  1.00  0.00     0.144 C 
HETATM   12  N3  UNL     1     -13.961  26.506  22.643  1.00  0.00    -0.360 N 
HETATM   13  C10 UNL     1     -15.110  26.372  21.781  1.00  0.00     0.120 C 
HETATM   14  C11 UNL     1     -16.031  25.258  22.157  1.00  0.00     0.003 C 
HETATM   15  C12 UNL     1     -15.810  24.119  22.830  1.00  0.00    -0.069 C 
HETATM   16  C15 UNL     1     -14.541  23.739  23.363  1.00  0.00     0.036 A 
HETATM   17  C16 UNL     1     -13.545  23.383  22.351  1.00  0.00     0.077 C 
HETATM   18  C17 UNL     1     -13.988  23.305  20.935  1.00  0.00     0.067 C 
HETATM   19  C18 UNL     1     -13.307  24.351  20.140  1.00  0.00     0.010 C 
HETATM   20 CL1  UNL     1     -11.760  23.795  19.418  1.00  0.00    -0.089 Cl
HETATM   21  C19 UNL     1     -13.643  25.577  19.898  1.00  0.00     0.004 C 
HETATM   22  C20 UNL     1     -14.798  26.374  20.310  1.00  0.00    -0.005 C 
HETATM   23  C21 UNL     1     -14.608  27.836  19.831  1.00  0.00     0.021 C 
HETATM   24  C22 UNL     1     -16.016  25.893  19.555  1.00  0.00     0.021 C 
HETATM   25  S1  UNL     1     -13.016  21.693  22.908  1.00  0.00    -0.081 SA
ENDROOT
BRANCH   1  26
HETATM   26  C3  UNL     1     -14.145  19.019  23.321  1.00  0.00     0.122 C 
BRANCH  26  27
HETATM   27  C2  UNL     1     -14.112  17.624  23.959  1.00  0.00     0.015 C 
HETATM   28  C1  UNL     1     -15.442  17.326  24.614  1.00  0.00     0.006 C 
ENDBRANCH  26  27
ENDBRANCH   1  26
BRANCH  15  29
HETATM   29  C13 UNL     1     -17.016  23.277  22.985  1.00  0.00     0.030 C 
HETATM   30  C14 UNL     1     -18.307  23.947  22.597  1.00  0.00     0.010 C 
ENDBRANCH  15  29
TORSDOF 3
ENDMDL
MODEL 5
REMARK VINA RESULT: -7.104184116      2.569      6.072
REMARK  3 active torsions:
REMARK  status: ('A' for Active; 'I' for Inactive)
REMARK    1  A    between atoms: C2_2  and  C3_3 
REMARK    2  A    between atoms: C3_3  and  N1_4 
REMARK    3  A    between atoms: C12_18  and  C13_19 
ROOT
HETATM    1  N1  UNL     1     -14.036  27.299  16.684  1.00  0.00    -0.365 N 
ATOM      2  H1  UNL     1     -14.366  27.318  15.719  1.00  0.00     0.162 HD
HETATM    3  C4  UNL     1     -14.000  26.216  17.358  1.00  0.00     0.178 C 
HETATM    4  O1  UNL     1     -14.406  24.954  16.850  1.00  0.00    -0.323 OA
HETATM    5  C5  UNL     1     -14.269  23.962  17.816  1.00  0.00     0.158 A 
HETATM    6  C6  UNL     1     -15.044  22.902  18.286  1.00  0.00     0.100 A 
HETATM    7  C7  UNL     1     -14.795  22.151  19.540  1.00  0.00     0.083 C 
HETATM    8  N2  UNL     1     -13.707  21.509  19.741  1.00  0.00    -0.378 N 
ATOM      9  H2  UNL     1     -12.927  21.448  19.087  1.00  0.00     0.160 HD
HETATM   10  C8  UNL     1     -13.759  20.890  21.029  1.00  0.00     0.141 C 
HETATM   11  C9  UNL     1     -15.153  21.133  21.569  1.00  0.00     0.144 C 
HETATM   12  N3  UNL     1     -15.709  22.067  20.617  1.00  0.00    -0.360 N 
HETATM   13  C10 UNL     1     -16.976  22.708  20.863  1.00  0.00     0.120 C 
HETATM   14  C11 UNL     1     -17.395  23.668  19.799  1.00  0.00     0.003 C 
HETATM   15  C12 UNL     1     -16.675  24.371  18.912  1.00  0.00    -0.069 C 
HETATM   16  C15 UNL     1     -15.251  24.314  18.813  1.00  0.00     0.036 A 
HETATM   17  C16 UNL     1     -14.545  24.929  19.938  1.00  0.00     0.077 C 
HETATM   18  C17 UNL     1     -15.349  25.661  20.950  1.00  0.00     0.067 C 
HETATM   19  C18 UNL     1     -15.256  24.973  22.256  1.00  0.00     0.010 C 
HETATM   20 CL1  UNL     1     -13.903  25.570  23.275  1.00  0.00    -0.089 Cl
HETATM   21  C19 UNL     1     -15.977  24.024  22.761  1.00  0.00     0.004 C 
HETATM   22  C20 UNL     1     -17.131  23.291  22.241  1.00  0.00    -0.005 C 
HETATM   23  C21 UNL     1     -17.508  22.160  23.233  1.00  0.00     0.021 C 
HETATM   24  C22 UNL     1     -18.333  24.207  22.249  1.00  0.00     0.021 C 
HETATM   25  S1  UNL     1     -13.424  26.134  19.076  1.00  0.00    -0.081 SA
ENDROOT
BRANCH   1  26
HETATM   26  C3  UNL     1     -13.586  28.501  17.356  1.00  0.00     0.122 C 
BRANCH  26  27
HETATM   27  C2  UNL     1     -12.249  28.964  16.761  1.00  0.00     0.015 C 
HETATM   28  C1  UNL     1     -12.334  30.426  16.380  1.00  0.00     0.006 C 
ENDBRANCH  26  27
ENDBRANCH   1  26
BRANCH  15  29
HETATM   29  C13 UNL     1     -17.495  25.220  18.021  1.00  0.00     0.030 C 
HETATM   30  C14 UNL     1     -18.170  24.484  16.895  1.00  0.00     0.010 C 
ENDBRANCH  15  29
TORSDOF 3
ENDMDL
