MODEL 1
REMARK VINA RESULT: -4.695009831      0.000      0.000
REMARK  3 active torsions:
REMARK  status: ('A' for Active; 'I' for Inactive)
REMARK    1  A    between atoms: C2_2  and  O1_3 
REMARK    2  A    between atoms: C3_6  and  O3_7 
REMARK    3  A    between atoms: C6_11  and  O4_12 
ROOT
HETATM    1  C1  UNL     1       4.596   2.483 -53.902  1.00  0.00     0.082 C 
HETATM    2  C2  UNL     1       3.852   1.974 -52.701  1.00  0.00     0.187 C 
HETATM    3  O2  UNL     1       2.609   1.470 -52.977  1.00  0.00    -0.323 OA
HETATM    4  C3  UNL     1       1.556   2.239 -52.558  1.00  0.00     0.260 C 
HETATM    5  C4  UNL     1       1.521   2.470 -51.066  1.00  0.00     0.063 C 
HETATM    6  C5  UNL     1       2.938   2.467 -50.513  1.00  0.00     0.042 C 
HETATM    7  C6  UNL     1       3.830   3.026 -51.592  1.00  0.00     0.180 C 
ENDROOT
BRANCH   2   8
HETATM    8  O1  UNL     1       4.616   0.907 -52.167  1.00  0.00    -0.363 OA
ATOM      9  H1  UNL     1       5.336   1.299 -51.686  1.00  0.00     0.213 HD
ENDBRANCH   2   8
BRANCH   7  10
HETATM   10  O4  UNL     1       3.447   4.259 -52.050  1.00  0.00    -0.390 OA
ATOM     11  H4  UNL     1       3.738   4.963 -51.482  1.00  0.00     0.210 HD
ENDBRANCH   7  10
BRANCH   4  12
HETATM   12  O3  UNL     1       0.376   1.534 -52.872  1.00  0.00    -0.371 OA
ATOM     13  H3  UNL     1      -0.210   2.145 -53.303  1.00  0.00     0.212 HD
ENDBRANCH   4  12
TORSDOF 3
ENDMDL
MODEL 2
REMARK VINA RESULT: -4.653567170      1.447      2.955
REMARK  3 active torsions:
REMARK  status: ('A' for Active; 'I' for Inactive)
REMARK    1  A    between atoms: C2_2  and  O1_3 
REMARK    2  A    between atoms: C3_6  and  O3_7 
REMARK    3  A    between atoms: C6_11  and  O4_12 
ROOT
HETATM    1  C1  UNL     1       2.449   2.761 -50.625  1.00  0.00     0.082 C 
HETATM    2  C2  UNL     1       2.724   3.184 -52.039  1.00  0.00     0.187 C 
HETATM    3  O2  UNL     1       1.624   3.634 -52.719  1.00  0.00    -0.323 OA
HETATM    4  C3  UNL     1       1.152   2.797 -53.694  1.00  0.00     0.260 C 
HETATM    5  C4  UNL     1       2.150   2.507 -54.789  1.00  0.00     0.063 C 
HETATM    6  C5  UNL     1       3.562   2.562 -54.225  1.00  0.00     0.042 C 
HETATM    7  C6  UNL     1       3.479   2.090 -52.795  1.00  0.00     0.180 C 
ENDROOT
BRANCH   2   8
HETATM    8  O1  UNL     1       3.635   4.267 -51.972  1.00  0.00    -0.363 OA
ATOM      9  H1  UNL     1       3.665   4.654 -52.839  1.00  0.00     0.213 HD
ENDBRANCH   2   8
BRANCH   7  10
HETATM   10  O4  UNL     1       2.899   0.858 -52.646  1.00  0.00    -0.390 OA
ATOM     11  H4  UNL     1       3.455   0.156 -52.962  1.00  0.00     0.210 HD
ENDBRANCH   7  10
BRANCH   4  12
HETATM   12  O3  UNL     1       0.070   3.453 -54.316  1.00  0.00    -0.371 OA
ATOM     13  H3  UNL     1      -0.584   2.792 -54.511  1.00  0.00     0.212 HD
ENDBRANCH   4  12
TORSDOF 3
ENDMDL
MODEL 3
REMARK VINA RESULT: -4.594816312      1.165      2.706
REMARK  3 active torsions:
REMARK  status: ('A' for Active; 'I' for Inactive)
REMARK    1  A    between atoms: C2_2  and  O1_3 
REMARK    2  A    between atoms: C3_6  and  O3_7 
REMARK    3  A    between atoms: C6_11  and  O4_12 
ROOT
HETATM    1  C1  UNL     1       3.393   2.601 -50.470  1.00  0.00     0.082 C 
HETATM    2  C2  UNL     1       2.778   2.843 -51.818  1.00  0.00     0.187 C 
HETATM    3  O2  UNL     1       1.429   2.611 -51.874  1.00  0.00    -0.323 OA
HETATM    4  C3  UNL     1       1.054   1.491 -52.567  1.00  0.00     0.260 C 
HETATM    5  C4  UNL     1       1.472   1.499 -54.018  1.00  0.00     0.063 C 
HETATM    6  C5  UNL     1       2.760   2.293 -54.177  1.00  0.00     0.042 C 
HETATM    7  C6  UNL     1       3.551   2.100 -52.908  1.00  0.00     0.180 C 
ENDROOT
BRANCH   2   8
HETATM    8  O1  UNL     1       2.969   4.215 -52.115  1.00  0.00    -0.363 OA
ATOM      9  H1  UNL     1       3.559   4.256 -52.858  1.00  0.00     0.213 HD
ENDBRANCH   2   8
BRANCH   7  10
HETATM   10  O4  UNL     1       3.778   0.788 -52.585  1.00  0.00    -0.390 OA
ATOM     11  H4  UNL     1       3.810   0.227 -53.351  1.00  0.00     0.210 HD
ENDBRANCH   7  10
BRANCH   4  12
HETATM   12  O3  UNL     1      -0.356   1.456 -52.568  1.00  0.00    -0.371 OA
ATOM     13  H3  UNL     1      -0.628   1.129 -51.718  1.00  0.00     0.212 HD
ENDBRANCH   4  12
TORSDOF 3
ENDMDL
MODEL 4
REMARK VINA RESULT: -4.456763782      1.489      3.214
REMARK  3 active torsions:
REMARK  status: ('A' for Active; 'I' for Inactive)
REMARK    1  A    between atoms: C2_2  and  O1_3 
REMARK    2  A    between atoms: C3_6  and  O3_7 
REMARK    3  A    between atoms: C6_11  and  O4_12 
ROOT
HETATM    1  C1  UNL     1       2.057   2.596 -54.602  1.00  0.00     0.082 C 
HETATM    2  C2  UNL     1       2.559   3.121 -53.288  1.00  0.00     0.187 C 
HETATM    3  O2  UNL     1       3.906   3.372 -53.257  1.00  0.00    -0.323 OA
HETATM    4  C3  UNL     1       4.650   2.497 -52.511  1.00  0.00     0.260 C 
HETATM    5  C4  UNL     1       4.265   2.452 -51.052  1.00  0.00     0.063 C 
HETATM    6  C5  UNL     1       2.783   2.761 -50.903  1.00  0.00     0.042 C 
HETATM    7  C6  UNL     1       2.099   2.227 -52.136  1.00  0.00     0.180 C 
ENDROOT
BRANCH   2   8
HETATM    8  O1  UNL     1       1.907   4.358 -53.064  1.00  0.00    -0.363 OA
ATOM      9  H1  UNL     1       2.482   5.036 -53.400  1.00  0.00     0.213 HD
ENDBRANCH   2   8
BRANCH   7  10
HETATM   10  O4  UNL     1       2.338   0.900 -52.377  1.00  0.00    -0.390 OA
ATOM     11  H4  UNL     1       3.139   0.760 -52.868  1.00  0.00     0.210 HD
ENDBRANCH   7  10
BRANCH   4  12
HETATM   12  O3  UNL     1       5.985   2.951 -52.549  1.00  0.00    -0.371 OA
ATOM     13  H3  UNL     1       6.517   2.230 -52.866  1.00  0.00     0.212 HD
ENDBRANCH   4  12
TORSDOF 3
ENDMDL
MODEL 5
REMARK VINA RESULT: -4.368833498      1.289      2.935
REMARK  3 active torsions:
REMARK  status: ('A' for Active; 'I' for Inactive)
REMARK    1  A    between atoms: C2_2  and  O1_3 
REMARK    2  A    between atoms: C3_6  and  O3_7 
REMARK    3  A    between atoms: C6_11  and  O4_12 
ROOT
HETATM    1  C1  UNL     1       2.626   2.667 -50.252  1.00  0.00     0.082 C 
HETATM    2  C2  UNL     1       3.215   2.830 -51.623  1.00  0.00     0.187 C 
HETATM    3  O2  UNL     1       2.542   2.162 -52.612  1.00  0.00    -0.323 OA
HETATM    4  C3  UNL     1       3.182   1.063 -53.119  1.00  0.00     0.260 C 
HETATM    5  C4  UNL     1       4.520   1.369 -53.748  1.00  0.00     0.063 C 
HETATM    6  C5  UNL     1       5.153   2.565 -53.052  1.00  0.00     0.042 C 
HETATM    7  C6  UNL     1       4.712   2.515 -51.611  1.00  0.00     0.180 C 
ENDROOT
BRANCH   2   8
HETATM    8  O1  UNL     1       3.142   4.209 -51.939  1.00  0.00    -0.363 OA
ATOM      9  H1  UNL     1       2.326   4.340 -52.409  1.00  0.00     0.213 HD
ENDBRANCH   2   8
BRANCH   7  10
HETATM   10  O4  UNL     1       4.990   1.331 -50.981  1.00  0.00    -0.390 OA
ATOM     11  H4  UNL     1       4.885   1.389 -50.039  1.00  0.00     0.210 HD
ENDBRANCH   7  10
BRANCH   4  12
HETATM   12  O3  UNL     1       2.372   0.553 -54.155  1.00  0.00    -0.371 OA
ATOM     13  H3  UNL     1       1.948  -0.229 -53.820  1.00  0.00     0.212 HD
ENDBRANCH   4  12
TORSDOF 3
ENDMDL
