MODEL 1
REMARK VINA RESULT: -3.816200296      0.000      0.000
REMARK  8 active torsions:
REMARK  status: ('A' for Active; 'I' for Inactive)
REMARK    1  A    between atoms: C2_2  and  N1_3 
REMARK    2  A    between atoms: N1_3  and  C3_6 
REMARK    3  A    between atoms: C3_6  and  C4_7 
REMARK    4  A    between atoms: C4_7  and  N2_8 
REMARK    5  A    between atoms: C4_7  and  C5_12 
REMARK    6  A    between atoms: C5_12  and  C6_13 
REMARK    7  A    between atoms: C8_15  and  N3_16 
REMARK    8  A    between atoms: C10_21  and  N4_22 
ROOT
HETATM    1  C6  UNL     1      10.036   9.644  -1.191  1.00  0.00     0.020 C 
HETATM    2  C7  UNL     1       9.826  10.365   0.147  1.00  0.00     0.039 C 
HETATM    3  C8  UNL     1       8.467  10.974  -0.089  1.00  0.00     0.185 C 
HETATM    4  C9  UNL     1       8.646  11.580  -1.471  1.00  0.00     0.066 C 
HETATM    5  C10 UNL     1       9.646  10.690  -2.174  1.00  0.00     0.189 C 
ENDROOT
BRANCH   1   6
HETATM    6  C5  UNL     1      11.486   9.241  -1.286  1.00  0.00     0.041 C 
BRANCH   6   7
HETATM    7  C4  UNL     1      11.642   7.761  -1.369  1.00  0.00     0.209 C 
BRANCH   7   8
HETATM    8  C3  UNL     1      12.269   7.188  -0.122  1.00  0.00     0.264 C 
BRANCH   8   9
HETATM    9  N1  UNL     1      11.283   6.434   0.646  1.00  0.00    -0.073 N 
ATOM     10  H12 UNL     1      11.586   5.484   0.858  1.00  0.00     0.277 HD
ATOM     11  H11 UNL     1      10.455   6.192   0.101  1.00  0.00     0.277 HD
BRANCH   9  12
HETATM   12  C2  UNL     1      10.970   7.215   1.842  1.00  0.00     0.228 C 
HETATM   13  C1  UNL     1      12.165   8.089   2.207  1.00  0.00     0.034 C 
ENDBRANCH   9  12
ENDBRANCH   8   9
ENDBRANCH   7   8
BRANCH   7  14
HETATM   14  N2  UNL     1      12.464   7.391  -2.521  1.00  0.00    -0.073 N 
ATOM     15  H23 UNL     1      12.837   8.204  -3.011  1.00  0.00     0.274 HD
ATOM     16  H22 UNL     1      13.353   6.971  -2.248  1.00  0.00     0.274 HD
ATOM     17  H21 UNL     1      11.918   6.785  -3.133  1.00  0.00     0.274 HD
ENDBRANCH   7  14
ENDBRANCH   6   7
ENDBRANCH   1   6
BRANCH   5  18
HETATM   18  N4  UNL     1      10.788  11.510  -2.599  1.00  0.00    -0.075 N 
ATOM     19  H43 UNL     1      11.592  11.368  -1.988  1.00  0.00     0.274 HD
ATOM     20  H42 UNL     1      11.184  11.165  -3.473  1.00  0.00     0.274 HD
ATOM     21  H41 UNL     1      10.550  12.500  -2.668  1.00  0.00     0.274 HD
ENDBRANCH   5  18
BRANCH   3  22
HETATM   22  N3  UNL     1       8.160  12.033   0.837  1.00  0.00    -0.075 N 
ATOM     23  H33 UNL     1       7.966  11.659   1.767  1.00  0.00     0.274 HD
ATOM     24  H32 UNL     1       8.990  12.585   1.050  1.00  0.00     0.274 HD
ATOM     25  H31 UNL     1       7.397  12.630   0.518  1.00  0.00     0.274 HD
ENDBRANCH   3  22
TORSDOF 8
ENDMDL
MODEL 2
REMARK VINA RESULT: -3.622194029      1.890      5.360
REMARK  8 active torsions:
REMARK  status: ('A' for Active; 'I' for Inactive)
REMARK    1  A    between atoms: C2_2  and  N1_3 
REMARK    2  A    between atoms: N1_3  and  C3_6 
REMARK    3  A    between atoms: C3_6  and  C4_7 
REMARK    4  A    between atoms: C4_7  and  N2_8 
REMARK    5  A    between atoms: C4_7  and  C5_12 
REMARK    6  A    between atoms: C5_12  and  C6_13 
REMARK    7  A    between atoms: C8_15  and  N3_16 
REMARK    8  A    between atoms: C10_21  and  N4_22 
ROOT
HETATM    1  C6  UNL     1      10.066   9.853  -0.346  1.00  0.00     0.020 C 
HETATM    2  C7  UNL     1       9.665   8.620   0.475  1.00  0.00     0.039 C 
HETATM    3  C8  UNL     1      11.021   8.000   0.702  1.00  0.00     0.185 C 
HETATM    4  C9  UNL     1      11.615   8.053  -0.695  1.00  0.00     0.066 C 
HETATM    5  C10 UNL     1      11.001   9.272  -1.346  1.00  0.00     0.189 C 
ENDROOT
BRANCH   1   6
HETATM    6  C5  UNL     1       8.818  10.437  -0.958  1.00  0.00     0.041 C 
BRANCH   6   7
HETATM    7  C4  UNL     1       8.626  11.862  -0.564  1.00  0.00     0.209 C 
BRANCH   7   8
HETATM    8  C3  UNL     1       9.860  12.691  -0.823  1.00  0.00     0.264 C 
BRANCH   8   9
HETATM    9  N1  UNL     1       9.996  12.973  -2.248  1.00  0.00    -0.073 N 
ATOM     10  H12 UNL     1       9.100  13.016  -2.732  1.00  0.00     0.277 HD
ATOM     11  H11 UNL     1      10.393  12.194  -2.773  1.00  0.00     0.277 HD
BRANCH   9  12
HETATM   12  C2  UNL     1      10.775  14.204  -2.379  1.00  0.00     0.228 C 
HETATM   13  C1  UNL     1      10.123  15.309  -1.554  1.00  0.00     0.034 C 
ENDBRANCH   9  12
ENDBRANCH   8   9
ENDBRANCH   7   8
BRANCH   7  14
HETATM   14  N2  UNL     1       8.279  11.965   0.853  1.00  0.00    -0.073 N 
ATOM     15  H23 UNL     1       9.096  12.121   1.444  1.00  0.00     0.274 HD
ATOM     16  H22 UNL     1       7.780  12.828   1.071  1.00  0.00     0.274 HD
ATOM     17  H21 UNL     1       7.756  11.133   1.124  1.00  0.00     0.274 HD
ENDBRANCH   7  14
ENDBRANCH   6   7
ENDBRANCH   1   6
BRANCH   5  18
HETATM   18  N4  UNL     1      10.315   8.854  -2.575  1.00  0.00    -0.075 N 
ATOM     19  H43 UNL     1       9.304   8.840  -2.446  1.00  0.00     0.274 HD
ATOM     20  H42 UNL     1      10.377   9.575  -3.294  1.00  0.00     0.274 HD
ATOM     21  H41 UNL     1      10.654   7.957  -2.922  1.00  0.00     0.274 HD
ENDBRANCH   5  18
BRANCH   3  22
HETATM   22  N3  UNL     1      10.944   6.622   1.114  1.00  0.00    -0.075 N 
ATOM     23  H33 UNL     1      10.543   6.542   2.048  1.00  0.00     0.274 HD
ATOM     24  H32 UNL     1      10.231   6.122   0.584  1.00  0.00     0.274 HD
ATOM     25  H31 UNL     1      11.842   6.142   1.060  1.00  0.00     0.274 HD
ENDBRANCH   3  22
TORSDOF 8
ENDMDL
MODEL 3
REMARK VINA RESULT: -3.556160252      1.595      4.422
REMARK  8 active torsions:
REMARK  status: ('A' for Active; 'I' for Inactive)
REMARK    1  A    between atoms: C2_2  and  N1_3 
REMARK    2  A    between atoms: N1_3  and  C3_6 
REMARK    3  A    between atoms: C3_6  and  C4_7 
REMARK    4  A    between atoms: C4_7  and  N2_8 
REMARK    5  A    between atoms: C4_7  and  C5_12 
REMARK    6  A    between atoms: C5_12  and  C6_13 
REMARK    7  A    between atoms: C8_15  and  N3_16 
REMARK    8  A    between atoms: C10_21  and  N4_22 
ROOT
HETATM    1  C6  UNL     1      10.984   8.420   0.022  1.00  0.00     0.020 C 
HETATM    2  C7  UNL     1      11.684   7.751   1.212  1.00  0.00     0.039 C 
HETATM    3  C8  UNL     1      10.506   7.078   1.870  1.00  0.00     0.185 C 
HETATM    4  C9  UNL     1       9.487   8.205   1.886  1.00  0.00     0.066 C 
HETATM    5  C10 UNL     1       9.800   9.046   0.670  1.00  0.00     0.189 C 
ENDROOT
BRANCH   1   6
HETATM    6  C5  UNL     1      11.936   9.420  -0.583  1.00  0.00     0.041 C 
BRANCH   6   7
HETATM    7  C4  UNL     1      11.873   9.409  -2.073  1.00  0.00     0.209 C 
BRANCH   7   8
HETATM    8  C3  UNL     1      11.047  10.550  -2.612  1.00  0.00     0.264 C 
BRANCH   8   9
HETATM    9  N1  UNL     1      11.334  11.779  -1.880  1.00  0.00    -0.073 N 
ATOM     10  H12 UNL     1      12.154  12.271  -2.235  1.00  0.00     0.277 HD
ATOM     11  H11 UNL     1      11.681  11.608  -0.936  1.00  0.00     0.277 HD
BRANCH   9  12
HETATM   12  C2  UNL     1      10.122  12.597  -1.902  1.00  0.00     0.228 C 
HETATM   13  C1  UNL     1       8.897  11.690  -1.959  1.00  0.00     0.034 C 
ENDBRANCH   9  12
ENDBRANCH   8   9
ENDBRANCH   7   8
BRANCH   7  14
HETATM   14  N2  UNL     1      11.308   8.149  -2.557  1.00  0.00    -0.073 N 
ATOM     15  H23 UNL     1      10.961   7.561  -1.800  1.00  0.00     0.274 HD
ATOM     16  H22 UNL     1      10.424   8.282  -3.049  1.00  0.00     0.274 HD
ATOM     17  H21 UNL     1      12.005   7.675  -3.130  1.00  0.00     0.274 HD
ENDBRANCH   7  14
ENDBRANCH   6   7
ENDBRANCH   1   6
BRANCH   5  18
HETATM   18  N4  UNL     1      10.065  10.424   1.105  1.00  0.00    -0.075 N 
ATOM     19  H43 UNL     1       9.938  11.083   0.339  1.00  0.00     0.274 HD
ATOM     20  H42 UNL     1       9.333  10.759   1.731  1.00  0.00     0.274 HD
ATOM     21  H41 UNL     1      10.987  10.525   1.529  1.00  0.00     0.274 HD
ENDBRANCH   5  18
BRANCH   3  22
HETATM   22  N3  UNL     1      10.775   6.686   3.230  1.00  0.00    -0.075 N 
ATOM     23  H33 UNL     1      11.566   7.204   3.610  1.00  0.00     0.274 HD
ATOM     24  H32 UNL     1      10.042   7.016   3.857  1.00  0.00     0.274 HD
ATOM     25  H31 UNL     1      10.915   5.680   3.331  1.00  0.00     0.274 HD
ENDBRANCH   3  22
TORSDOF 8
ENDMDL
MODEL 4
REMARK VINA RESULT: -3.519468977      1.802      5.231
REMARK  8 active torsions:
REMARK  status: ('A' for Active; 'I' for Inactive)
REMARK    1  A    between atoms: C2_2  and  N1_3 
REMARK    2  A    between atoms: N1_3  and  C3_6 
REMARK    3  A    between atoms: C3_6  and  C4_7 
REMARK    4  A    between atoms: C4_7  and  N2_8 
REMARK    5  A    between atoms: C4_7  and  C5_12 
REMARK    6  A    between atoms: C5_12  and  C6_13 
REMARK    7  A    between atoms: C8_15  and  N3_16 
REMARK    8  A    between atoms: C10_21  and  N4_22 
ROOT
HETATM    1  C6  UNL     1      10.951   8.724   0.289  1.00  0.00     0.020 C 
HETATM    2  C7  UNL     1      12.094   9.319   1.122  1.00  0.00     0.039 C 
HETATM    3  C8  UNL     1      13.282   8.782   0.365  1.00  0.00     0.185 C 
HETATM    4  C9  UNL     1      12.896   7.322   0.195  1.00  0.00     0.066 C 
HETATM    5  C10 UNL     1      11.386   7.311   0.125  1.00  0.00     0.189 C 
ENDROOT
BRANCH   1   6
HETATM    6  C5  UNL     1       9.671   8.872   1.073  1.00  0.00     0.041 C 
BRANCH   6   7
HETATM    7  C4  UNL     1       8.647   9.646   0.315  1.00  0.00     0.209 C 
BRANCH   7   8
HETATM    8  C3  UNL     1       9.131  10.025  -1.063  1.00  0.00     0.264 C 
BRANCH   8   9
HETATM    9  N1  UNL     1       8.520  11.277  -1.493  1.00  0.00    -0.073 N 
ATOM     10  H12 UNL     1       7.954  11.714  -0.765  1.00  0.00     0.277 HD
ATOM     11  H11 UNL     1       7.775  11.143  -2.177  1.00  0.00     0.277 HD
BRANCH   9  12
HETATM   12  C2  UNL     1       9.592  12.144  -1.981  1.00  0.00     0.228 C 
HETATM   13  C1  UNL     1      10.808  11.296  -2.340  1.00  0.00     0.034 C 
ENDBRANCH   9  12
ENDBRANCH   8   9
ENDBRANCH   7   8
BRANCH   7  14
HETATM   14  N2  UNL     1       8.282  10.866   1.037  1.00  0.00    -0.073 N 
ATOM     15  H23 UNL     1       8.882  11.035   1.844  1.00  0.00     0.274 HD
ATOM     16  H22 UNL     1       8.508  11.711   0.512  1.00  0.00     0.274 HD
ATOM     17  H21 UNL     1       7.296  10.815   1.289  1.00  0.00     0.274 HD
ENDBRANCH   7  14
ENDBRANCH   6   7
ENDBRANCH   1   6
BRANCH   5  18
HETATM   18  N4  UNL     1      10.872   6.441   1.191  1.00  0.00    -0.075 N 
ATOM     19  H43 UNL     1      10.010   6.815   1.587  1.00  0.00     0.274 HD
ATOM     20  H42 UNL     1      10.510   5.568   0.809  1.00  0.00     0.274 HD
ATOM     21  H41 UNL     1      11.565   6.267   1.917  1.00  0.00     0.274 HD
ENDBRANCH   5  18
BRANCH   3  22
HETATM   22  N3  UNL     1      14.505   8.847   1.123  1.00  0.00    -0.075 N 
ATOM     23  H33 UNL     1      14.895   9.789   1.106  1.00  0.00     0.274 HD
ATOM     24  H32 UNL     1      14.320   8.761   2.122  1.00  0.00     0.274 HD
ATOM     25  H31 UNL     1      15.196   8.160   0.820  1.00  0.00     0.274 HD
ENDBRANCH   3  22
TORSDOF 8
ENDMDL
MODEL 5
REMARK VINA RESULT: -3.456765971      2.053      4.851
REMARK  8 active torsions:
REMARK  status: ('A' for Active; 'I' for Inactive)
REMARK    1  A    between atoms: C2_2  and  N1_3 
REMARK    2  A    between atoms: N1_3  and  C3_6 
REMARK    3  A    between atoms: C3_6  and  C4_7 
REMARK    4  A    between atoms: C4_7  and  N2_8 
REMARK    5  A    between atoms: C4_7  and  C5_12 
REMARK    6  A    between atoms: C5_12  and  C6_13 
REMARK    7  A    between atoms: C8_15  and  N3_16 
REMARK    8  A    between atoms: C10_21  and  N4_22 
ROOT
HETATM    1  C6  UNL     1      10.103  10.024   0.178  1.00  0.00     0.020 C 
HETATM    2  C7  UNL     1       9.728   8.731   0.915  1.00  0.00     0.039 C 
HETATM    3  C8  UNL     1      11.037   7.988   0.832  1.00  0.00     0.185 C 
HETATM    4  C9  UNL     1      11.396   8.170  -0.633  1.00  0.00     0.066 C 
HETATM    5  C10 UNL     1      10.802   9.503  -1.028  1.00  0.00     0.189 C 
ENDROOT
BRANCH   1   6
HETATM    6  C5  UNL     1       8.832  10.770  -0.139  1.00  0.00     0.041 C 
BRANCH   6   7
HETATM    7  C4  UNL     1       8.935  12.212   0.227  1.00  0.00     0.209 C 
BRANCH   7   8
HETATM    8  C3  UNL     1      10.279  12.548   0.825  1.00  0.00     0.264 C 
BRANCH   8   9
HETATM    9  N1  UNL     1      10.114  13.328   2.047  1.00  0.00    -0.073 N 
ATOM     10  H12 UNL     1       9.341  13.000   2.626  1.00  0.00     0.277 HD
ATOM     11  H11 UNL     1       9.761  14.269   1.874  1.00  0.00     0.277 HD
BRANCH   9  12
HETATM   12  C2  UNL     1      11.396  13.320   2.750  1.00  0.00     0.228 C 
HETATM   13  C1  UNL     1      12.190  12.081   2.345  1.00  0.00     0.034 C 
ENDBRANCH   9  12
ENDBRANCH   8   9
ENDBRANCH   7   8
BRANCH   7  14
HETATM   14  N2  UNL     1       7.890  12.579   1.183  1.00  0.00    -0.073 N 
ATOM     15  H23 UNL     1       7.812  11.912   1.950  1.00  0.00     0.274 HD
ATOM     16  H22 UNL     1       8.137  13.401   1.734  1.00  0.00     0.274 HD
ATOM     17  H21 UNL     1       7.011  12.696   0.679  1.00  0.00     0.274 HD
ENDBRANCH   7  14
ENDBRANCH   6   7
ENDBRANCH   1   6
BRANCH   5  18
HETATM   18  N4  UNL     1       9.886   9.294  -2.157  1.00  0.00    -0.075 N 
ATOM     19  H43 UNL     1       9.338   8.443  -2.034  1.00  0.00     0.274 HD
ATOM     20  H42 UNL     1       9.129   9.977  -2.148  1.00  0.00     0.274 HD
ATOM     21  H41 UNL     1      10.371   9.293  -3.054  1.00  0.00     0.274 HD
ENDBRANCH   5  18
BRANCH   3  22
HETATM   22  N3  UNL     1      10.899   6.579   1.097  1.00  0.00    -0.075 N 
ATOM     23  H33 UNL     1      11.204   6.354   2.044  1.00  0.00     0.274 HD
ATOM     24  H32 UNL     1       9.916   6.317   1.173  1.00  0.00     0.274 HD
ATOM     25  H31 UNL     1      11.380   5.998   0.411  1.00  0.00     0.274 HD
ENDBRANCH   3  22
TORSDOF 8
ENDMDL
