MODEL 1
REMARK VINA RESULT: -6.441142352      0.000      0.000
REMARK  3 active torsions:
REMARK  status: ('A' for Active; 'I' for Inactive)
REMARK       I    between atoms: C1_4  and  N2_5 
REMARK       I    between atoms: C1_4  and  N3_12 
REMARK    1  A    between atoms: N2_5  and  C2_7 
REMARK    2  A    between atoms: C2_7  and  C3_8 
REMARK    3  A    between atoms: N3_12  and  C6_14 
ROOT
HETATM    1  N1  UNL     1       6.692 -71.988 -15.953  1.00  0.00    -0.235 N 
ATOM      2  H11 UNL     1       6.388 -71.296 -16.638  1.00  0.00     0.174 HD
ATOM      3  H12 UNL     1       6.684 -72.984 -16.177  1.00  0.00     0.174 HD
HETATM    4  C1  UNL     1       7.085 -71.563 -14.809  1.00  0.00     0.667 C 
HETATM    5  N2  UNL     1       7.511 -72.531 -13.853  1.00  0.00    -0.224 N 
ATOM      6  H2  UNL     1       8.401 -72.384 -13.377  1.00  0.00     0.177 HD
HETATM    7  N3  UNL     1       7.096 -70.169 -14.495  1.00  0.00    -0.222 N 
ATOM      8  H3  UNL     1       7.715 -69.851 -13.749  1.00  0.00     0.178 HD
ENDROOT
BRANCH   5   9
HETATM    9  C2  UNL     1       6.746 -73.704 -13.529  1.00  0.00     0.170 C 
BRANCH   9  10
HETATM   10  C3  UNL     1       5.644 -73.412 -12.567  1.00  0.00     0.141 C 
HETATM   11  C4  UNL     1       4.294 -73.416 -13.245  1.00  0.00     0.060 C 
HETATM   12  C5  UNL     1       4.064 -72.389 -12.132  1.00  0.00     0.170 C 
HETATM   13  O1  UNL     1       5.441 -72.091 -12.237  1.00  0.00    -0.384 OA
ENDBRANCH   9  10
ENDBRANCH   5   9
BRANCH   7  14
HETATM   14  C6  UNL     1       6.297 -69.198 -15.157  1.00  0.00     0.099 C 
HETATM   15  C7  UNL     1       6.379 -67.820 -14.541  1.00  0.00     0.026 C 
HETATM   16  C8  UNL     1       5.063 -67.122 -14.817  1.00  0.00     0.002 C 
HETATM   17  C9  UNL     1       4.503 -67.478 -16.177  1.00  0.00     0.000 C 
HETATM   18  C10 UNL     1       4.008 -68.890 -16.115  1.00  0.00     0.002 C 
HETATM   19  C11 UNL     1       4.848 -69.626 -15.086  1.00  0.00     0.026 C 
ENDBRANCH   7  14
TORSDOF 3
ENDMDL
MODEL 2
REMARK VINA RESULT: -6.421702008      1.528      2.208
REMARK  3 active torsions:
REMARK  status: ('A' for Active; 'I' for Inactive)
REMARK       I    between atoms: C1_4  and  N2_5 
REMARK       I    between atoms: C1_4  and  N3_12 
REMARK    1  A    between atoms: N2_5  and  C2_7 
REMARK    2  A    between atoms: C2_7  and  C3_8 
REMARK    3  A    between atoms: N3_12  and  C6_14 
ROOT
HETATM    1  N1  UNL     1       4.582 -71.870 -13.782  1.00  0.00    -0.235 N 
ATOM      2  H11 UNL     1       3.914 -71.170 -14.105  1.00  0.00     0.174 HD
ATOM      3  H12 UNL     1       4.263 -72.720 -13.315  1.00  0.00     0.174 HD
HETATM    4  C1  UNL     1       5.828 -71.645 -13.984  1.00  0.00     0.667 C 
HETATM    5  N2  UNL     1       6.760 -72.624 -13.533  1.00  0.00    -0.224 N 
ATOM      6  H2  UNL     1       7.481 -72.943 -14.180  1.00  0.00     0.177 HD
HETATM    7  N3  UNL     1       6.274 -70.454 -14.638  1.00  0.00    -0.222 N 
ATOM      8  H3  UNL     1       7.193 -70.467 -15.081  1.00  0.00     0.178 HD
ENDROOT
BRANCH   5   9
HETATM    9  C2  UNL     1       6.732 -73.182 -12.209  1.00  0.00     0.170 C 
BRANCH   9  10
HETATM   10  C3  UNL     1       6.146 -74.555 -12.187  1.00  0.00     0.141 C 
HETATM   11  C4  UNL     1       6.371 -75.279 -13.494  1.00  0.00     0.060 C 
HETATM   12  C5  UNL     1       5.040 -75.888 -13.041  1.00  0.00     0.170 C 
HETATM   13  O1  UNL     1       4.790 -74.655 -12.399  1.00  0.00    -0.384 OA
ENDBRANCH   9  10
ENDBRANCH   5   9
BRANCH   7  14
HETATM   14  C6  UNL     1       5.517 -69.254 -14.708  1.00  0.00     0.099 C 
HETATM   15  C7  UNL     1       4.508 -69.236 -15.832  1.00  0.00     0.026 C 
HETATM   16  C8  UNL     1       4.314 -67.790 -16.242  1.00  0.00     0.002 C 
HETATM   17  C9  UNL     1       4.372 -66.849 -15.059  1.00  0.00     0.000 C 
HETATM   18  C10 UNL     1       5.796 -66.771 -14.604  1.00  0.00     0.002 C 
HETATM   19  C11 UNL     1       6.459 -68.095 -14.944  1.00  0.00     0.026 C 
ENDBRANCH   7  14
TORSDOF 3
ENDMDL
MODEL 3
REMARK VINA RESULT: -6.373264477      1.329      1.508
REMARK  3 active torsions:
REMARK  status: ('A' for Active; 'I' for Inactive)
REMARK       I    between atoms: C1_4  and  N2_5 
REMARK       I    between atoms: C1_4  and  N3_12 
REMARK    1  A    between atoms: N2_5  and  C2_7 
REMARK    2  A    between atoms: C2_7  and  C3_8 
REMARK    3  A    between atoms: N3_12  and  C6_14 
ROOT
HETATM    1  N1  UNL     1       7.440 -71.684 -15.835  1.00  0.00    -0.235 N 
ATOM      2  H11 UNL     1       7.429 -70.811 -16.363  1.00  0.00     0.174 HD
ATOM      3  H12 UNL     1       7.801 -72.543 -16.252  1.00  0.00     0.174 HD
HETATM    4  C1  UNL     1       6.987 -71.662 -14.636  1.00  0.00     0.667 C 
HETATM    5  N2  UNL     1       7.002 -72.881 -13.899  1.00  0.00    -0.224 N 
ATOM      6  H2  UNL     1       7.388 -72.874 -12.955  1.00  0.00     0.177 HD
HETATM    7  N3  UNL     1       6.480 -70.459 -14.052  1.00  0.00    -0.222 N 
ATOM      8  H3  UNL     1       6.460 -70.393 -13.035  1.00  0.00     0.178 HD
ENDROOT
BRANCH   5   9
HETATM    9  C2  UNL     1       6.498 -74.121 -14.423  1.00  0.00     0.170 C 
BRANCH   9  10
HETATM   10  C3  UNL     1       5.008 -74.192 -14.373  1.00  0.00     0.141 C 
HETATM   11  C4  UNL     1       4.486 -73.986 -12.971  1.00  0.00     0.060 C 
HETATM   12  C5  UNL     1       3.420 -74.920 -13.550  1.00  0.00     0.170 C 
HETATM   13  O1  UNL     1       4.446 -75.448 -14.366  1.00  0.00    -0.384 OA
ENDBRANCH   9  10
ENDBRANCH   5   9
BRANCH   7  14
HETATM   14  C6  UNL     1       6.004 -69.350 -14.802  1.00  0.00     0.099 C 
HETATM   15  C7  UNL     1       6.056 -68.040 -14.050  1.00  0.00     0.026 C 
HETATM   16  C8  UNL     1       4.948 -67.161 -14.597  1.00  0.00     0.002 C 
HETATM   17  C9  UNL     1       4.756 -67.347 -16.086  1.00  0.00     0.000 C 
HETATM   18  C10 UNL     1       4.118 -68.684 -16.304  1.00  0.00     0.002 C 
HETATM   19  C11 UNL     1       4.557 -69.591 -15.167  1.00  0.00     0.026 C 
ENDBRANCH   7  14
TORSDOF 3
ENDMDL
MODEL 4
REMARK VINA RESULT: -6.270149767      1.544      2.384
REMARK  3 active torsions:
REMARK  status: ('A' for Active; 'I' for Inactive)
REMARK       I    between atoms: C1_4  and  N2_5 
REMARK       I    between atoms: C1_4  and  N3_12 
REMARK    1  A    between atoms: N2_5  and  C2_7 
REMARK    2  A    between atoms: C2_7  and  C3_8 
REMARK    3  A    between atoms: N3_12  and  C6_14 
ROOT
HETATM    1  N1  UNL     1       4.222 -71.843 -14.067  1.00  0.00    -0.235 N 
ATOM      2  H11 UNL     1       3.834 -70.917 -13.886  1.00  0.00     0.174 HD
ATOM      3  H12 UNL     1       3.783 -72.678 -13.678  1.00  0.00     0.174 HD
HETATM    4  C1  UNL     1       5.274 -71.918 -14.797  1.00  0.00     0.667 C 
HETATM    5  N2  UNL     1       5.814 -73.212 -15.049  1.00  0.00    -0.224 N 
ATOM      6  H2  UNL     1       6.039 -73.466 -16.011  1.00  0.00     0.177 HD
HETATM    7  N3  UNL     1       5.889 -70.748 -15.341  1.00  0.00    -0.222 N 
ATOM      8  H3  UNL     1       6.480 -70.857 -16.165  1.00  0.00     0.178 HD
ENDROOT
BRANCH   5   9
HETATM    9  C2  UNL     1       6.059 -74.177 -14.012  1.00  0.00     0.170 C 
BRANCH   9  10
HETATM   10  C3  UNL     1       6.964 -73.647 -12.950  1.00  0.00     0.141 C 
HETATM   11  C4  UNL     1       7.427 -74.740 -12.015  1.00  0.00     0.060 C 
HETATM   12  C5  UNL     1       7.413 -73.530 -11.075  1.00  0.00     0.170 C 
HETATM   13  O1  UNL     1       6.366 -73.024 -11.878  1.00  0.00    -0.384 OA
ENDBRANCH   9  10
ENDBRANCH   5   9
BRANCH   7  14
HETATM   14  C6  UNL     1       5.728 -69.442 -14.804  1.00  0.00     0.099 C 
HETATM   15  C7  UNL     1       4.728 -68.594 -15.556  1.00  0.00     0.026 C 
HETATM   16  C8  UNL     1       5.146 -67.147 -15.390  1.00  0.00     0.002 C 
HETATM   17  C9  UNL     1       5.718 -66.874 -14.016  1.00  0.00     0.000 C 
HETATM   18  C10 UNL     1       7.069 -67.514 -13.944  1.00  0.00     0.002 C 
HETATM   19  C11 UNL     1       7.054 -68.719 -14.869  1.00  0.00     0.026 C 
ENDBRANCH   7  14
TORSDOF 3
ENDMDL
MODEL 5
REMARK VINA RESULT: -6.181903169      1.693      2.307
REMARK  3 active torsions:
REMARK  status: ('A' for Active; 'I' for Inactive)
REMARK       I    between atoms: C1_4  and  N2_5 
REMARK       I    between atoms: C1_4  and  N3_12 
REMARK    1  A    between atoms: N2_5  and  C2_7 
REMARK    2  A    between atoms: C2_7  and  C3_8 
REMARK    3  A    between atoms: N3_12  and  C6_14 
ROOT
HETATM    1  N1  UNL     1       4.680 -71.633 -13.371  1.00  0.00    -0.235 N 
ATOM      2  H11 UNL     1       4.387 -70.718 -13.028  1.00  0.00     0.174 HD
ATOM      3  H12 UNL     1       4.709 -72.440 -12.747  1.00  0.00     0.174 HD
HETATM    4  C1  UNL     1       5.007 -71.730 -14.607  1.00  0.00     0.667 C 
HETATM    5  N2  UNL     1       5.416 -73.009 -15.085  1.00  0.00    -0.224 N 
ATOM      6  H2  UNL     1       4.994 -73.364 -15.943  1.00  0.00     0.177 HD
HETATM    7  N3  UNL     1       4.968 -70.599 -15.480  1.00  0.00    -0.222 N 
ATOM      8  H3  UNL     1       4.892 -70.771 -16.483  1.00  0.00     0.178 HD
ENDROOT
BRANCH   5   9
HETATM    9  C2  UNL     1       6.395 -73.821 -14.416  1.00  0.00     0.170 C 
BRANCH   9  10
HETATM   10  C3  UNL     1       5.768 -74.875 -13.565  1.00  0.00     0.141 C 
HETATM   11  C4  UNL     1       4.351 -75.172 -13.998  1.00  0.00     0.060 C 
HETATM   12  C5  UNL     1       4.267 -75.451 -12.494  1.00  0.00     0.170 C 
HETATM   13  O1  UNL     1       5.279 -74.477 -12.342  1.00  0.00    -0.384 OA
ENDBRANCH   9  10
ENDBRANCH   5   9
BRANCH   7  14
HETATM   14  C6  UNL     1       5.027 -69.250 -15.038  1.00  0.00     0.099 C 
HETATM   15  C7  UNL     1       4.329 -68.277 -15.960  1.00  0.00     0.026 C 
HETATM   16  C8  UNL     1       5.024 -66.938 -15.814  1.00  0.00     0.002 C 
HETATM   17  C9  UNL     1       5.472 -66.681 -14.391  1.00  0.00     0.000 C 
HETATM   18  C10 UNL     1       6.636 -67.578 -14.107  1.00  0.00     0.002 C 
HETATM   19  C11 UNL     1       6.475 -68.823 -14.962  1.00  0.00     0.026 C 
ENDBRANCH   7  14
TORSDOF 3
ENDMDL
