MODEL 1
REMARK VINA RESULT: -3.958901683      0.000      0.000
REMARK  2 active torsions:
REMARK  status: ('A' for Active; 'I' for Inactive)
REMARK    1  A    between atoms: N1_1  and  N2_4 
REMARK       I    between atoms: N2_4  and  C1_5 
REMARK    2  A    between atoms: C1_5  and  C2_7 
ROOT
HETATM    1  C2  UNL     1      20.012  16.458  23.625  1.00  0.00     0.151 A 
HETATM    2  N3  UNL     1      20.117  15.205  24.061  1.00  0.00    -0.301 N 
ATOM      3  H3  UNL     1      19.359  14.792  24.604  1.00  0.00     0.171 HD
HETATM    4  C3  UNL     1      21.236  14.470  23.784  1.00  0.00     0.327 A 
HETATM    5  O2  UNL     1      21.360  13.279  24.186  1.00  0.00    -0.247 OA
HETATM    6  N4  UNL     1      22.242  14.987  23.071  1.00  0.00    -0.274 N 
ATOM      7  H4  UNL     1      23.073  14.432  22.867  1.00  0.00     0.173 HD
HETATM    8  C4  UNL     1      22.139  16.268  22.623  1.00  0.00     0.276 A 
HETATM    9  O3  UNL     1      23.093  16.743  21.959  1.00  0.00    -0.266 OA
HETATM   10  C5  UNL     1      21.026  17.018  22.893  1.00  0.00     0.147 A 
HETATM   11  N5  UNL     1      20.940  18.369  22.424  1.00  0.00    -0.094 NA
ENDROOT
BRANCH   1  12
HETATM   12  C1  UNL     1      18.805  17.284  23.891  1.00  0.00     0.363 C 
HETATM   13  N2  UNL     1      18.941  18.348  24.758  1.00  0.00    -0.287 NA
HETATM   14  O1  UNL     1      17.732  16.936  23.288  1.00  0.00    -0.247 OA
BRANCH  13  15
HETATM   15  N1  UNL     1      19.070  19.350  25.573  1.00  0.00    -0.276 N 
ATOM     16  H12 UNL     1      18.952  18.573  24.923  1.00  0.00     0.191 HD
ATOM     17  H11 UNL     1      19.171  20.137  26.214  1.00  0.00     0.191 HD
ENDBRANCH  13  15
ENDBRANCH   1  12
TORSDOF 2
ENDMDL
MODEL 2
REMARK VINA RESULT: -3.949519176      2.708      3.905
REMARK  2 active torsions:
REMARK  status: ('A' for Active; 'I' for Inactive)
REMARK    1  A    between atoms: N1_1  and  N2_4 
REMARK       I    between atoms: N2_4  and  C1_5 
REMARK    2  A    between atoms: C1_5  and  C2_7 
ROOT
HETATM    1  C2  UNL     1      19.958  19.138  24.278  1.00  0.00     0.151 A 
HETATM    2  N3  UNL     1      19.154  19.078  25.337  1.00  0.00    -0.301 N 
ATOM      3  H3  UNL     1      18.795  19.938  25.751  1.00  0.00     0.171 HD
HETATM    4  C3  UNL     1      18.807  17.868  25.871  1.00  0.00     0.327 A 
HETATM    5  O2  UNL     1      18.045  17.783  26.876  1.00  0.00    -0.247 OA
HETATM    6  N4  UNL     1      19.261  16.725  25.345  1.00  0.00    -0.274 N 
ATOM      7  H4  UNL     1      18.996  15.826  25.748  1.00  0.00     0.173 HD
HETATM    8  C4  UNL     1      20.083  16.783  24.263  1.00  0.00     0.276 A 
HETATM    9  O3  UNL     1      20.506  15.702  23.782  1.00  0.00    -0.266 OA
HETATM   10  C5  UNL     1      20.441  17.986  23.717  1.00  0.00     0.147 A 
HETATM   11  N5  UNL     1      21.319  18.027  22.584  1.00  0.00    -0.094 NA
ENDROOT
BRANCH   1  12
HETATM   12  C1  UNL     1      20.346  20.432  23.658  1.00  0.00     0.363 C 
HETATM   13  N2  UNL     1      19.679  20.814  22.513  1.00  0.00    -0.287 NA
HETATM   14  O1  UNL     1      21.273  21.089  24.245  1.00  0.00    -0.247 OA
BRANCH  13  15
HETATM   15  N1  UNL     1      19.050  21.173  21.436  1.00  0.00    -0.276 N 
ATOM     16  H12 UNL     1      19.539  20.910  22.292  1.00  0.00     0.191 HD
ATOM     17  H11 UNL     1      18.557  21.455  20.589  1.00  0.00     0.191 HD
ENDBRANCH  13  15
ENDBRANCH   1  12
TORSDOF 2
ENDMDL
MODEL 3
REMARK VINA RESULT: -3.841539282      1.939      3.465
REMARK  2 active torsions:
REMARK  status: ('A' for Active; 'I' for Inactive)
REMARK    1  A    between atoms: N1_1  and  N2_4 
REMARK       I    between atoms: N2_4  and  C1_5 
REMARK    2  A    between atoms: C1_5  and  C2_7 
ROOT
HETATM    1  C2  UNL     1      19.639  17.978  23.098  1.00  0.00     0.151 A 
HETATM    2  N3  UNL     1      19.530  19.191  22.562  1.00  0.00    -0.301 N 
ATOM      3  H3  UNL     1      18.640  19.688  22.606  1.00  0.00     0.171 HD
HETATM    4  C3  UNL     1      20.606  19.775  21.953  1.00  0.00     0.327 A 
HETATM    5  O2  UNL     1      20.529  20.925  21.435  1.00  0.00    -0.247 OA
HETATM    6  N4  UNL     1      21.785  19.147  21.884  1.00  0.00    -0.274 N 
ATOM      7  H4  UNL     1      22.584  19.589  21.429  1.00  0.00     0.173 HD
HETATM    8  C4  UNL     1      21.900  17.907  22.431  1.00  0.00     0.276 A 
HETATM    9  O3  UNL     1      23.011  17.326  22.356  1.00  0.00    -0.266 OA
HETATM   10  C5  UNL     1      20.832  17.308  23.044  1.00  0.00     0.147 A 
HETATM   11  N5  UNL     1      20.968  15.995  23.604  1.00  0.00    -0.094 NA
ENDROOT
BRANCH   1  12
HETATM   12  C1  UNL     1      18.497  17.317  23.784  1.00  0.00     0.363 C 
HETATM   13  N2  UNL     1      18.496  17.319  25.163  1.00  0.00    -0.287 NA
HETATM   14  O1  UNL     1      17.603  16.798  23.030  1.00  0.00    -0.247 OA
BRANCH  13  15
HETATM   15  N1  UNL     1      18.495  17.321  26.461  1.00  0.00    -0.276 N 
ATOM     16  H12 UNL     1      18.475  17.314  25.441  1.00  0.00     0.191 HD
ATOM     17  H11 UNL     1      18.495  17.322  27.481  1.00  0.00     0.191 HD
ENDBRANCH  13  15
ENDBRANCH   1  12
TORSDOF 2
ENDMDL
MODEL 4
REMARK VINA RESULT: -3.837846095      2.816      4.963
REMARK  2 active torsions:
REMARK  status: ('A' for Active; 'I' for Inactive)
REMARK    1  A    between atoms: N1_1  and  N2_4 
REMARK       I    between atoms: N2_4  and  C1_5 
REMARK    2  A    between atoms: C1_5  and  C2_7 
ROOT
HETATM    1  C2  UNL     1      19.234  18.262  24.350  1.00  0.00     0.151 A 
HETATM    2  N3  UNL     1      19.865  19.172  23.612  1.00  0.00    -0.301 N 
ATOM      3  H3  UNL     1      20.054  18.985  22.627  1.00  0.00     0.171 HD
HETATM    4  C3  UNL     1      20.261  20.356  24.169  1.00  0.00     0.327 A 
HETATM    5  O2  UNL     1      20.863  21.237  23.491  1.00  0.00    -0.247 OA
HETATM    6  N4  UNL     1      20.023  20.628  25.457  1.00  0.00    -0.274 N 
ATOM      7  H4  UNL     1      20.320  21.514  25.864  1.00  0.00     0.173 HD
HETATM    8  C4  UNL     1      19.378  19.700  26.213  1.00  0.00     0.276 A 
HETATM    9  O3  UNL     1      19.165  19.965  27.423  1.00  0.00    -0.266 OA
HETATM   10  C5  UNL     1      18.976  18.509  25.672  1.00  0.00     0.147 A 
HETATM   11  N5  UNL     1      18.308  17.538  26.488  1.00  0.00    -0.094 NA
ENDROOT
BRANCH   1  12
HETATM   12  C1  UNL     1      18.773  16.970  23.777  1.00  0.00     0.363 C 
HETATM   13  N2  UNL     1      19.571  15.864  23.979  1.00  0.00    -0.287 NA
HETATM   14  O1  UNL     1      17.663  16.992  23.142  1.00  0.00    -0.247 OA
BRANCH  13  15
HETATM   15  N1  UNL     1      20.323  14.823  24.169  1.00  0.00    -0.276 N 
ATOM     16  H12 UNL     1      19.716  15.631  24.030  1.00  0.00     0.191 HD
ATOM     17  H11 UNL     1      20.914  14.005  24.318  1.00  0.00     0.191 HD
ENDBRANCH  13  15
ENDBRANCH   1  12
TORSDOF 2
ENDMDL
MODEL 5
REMARK VINA RESULT: -3.775236189      3.132      4.241
REMARK  2 active torsions:
REMARK  status: ('A' for Active; 'I' for Inactive)
REMARK    1  A    between atoms: N1_1  and  N2_4 
REMARK       I    between atoms: N2_4  and  C1_5 
REMARK    2  A    between atoms: C1_5  and  C2_7 
ROOT
HETATM    1  C2  UNL     1      19.521  19.588  25.560  1.00  0.00     0.151 A 
HETATM    2  N3  UNL     1      18.960  19.032  26.630  1.00  0.00    -0.301 N 
ATOM      3  H3  UNL     1      18.715  19.611  27.434  1.00  0.00     0.171 HD
HETATM    4  C3  UNL     1      18.710  17.688  26.658  1.00  0.00     0.327 A 
HETATM    5  O2  UNL     1      18.179  17.135  27.662  1.00  0.00    -0.247 OA
HETATM    6  N4  UNL     1      19.019  16.907  25.617  1.00  0.00    -0.274 N 
ATOM      7  H4  UNL     1      18.827  15.906  25.644  1.00  0.00     0.173 HD
HETATM    8  C4  UNL     1      19.592  17.473  24.520  1.00  0.00     0.276 A 
HETATM    9  O3  UNL     1      19.881  16.728  23.551  1.00  0.00    -0.266 OA
HETATM   10  C5  UNL     1      19.850  18.816  24.477  1.00  0.00     0.147 A 
HETATM   11  N5  UNL     1      20.466  19.393  23.319  1.00  0.00    -0.094 NA
ENDROOT
BRANCH   1  12
HETATM   12  C1  UNL     1      19.794  21.048  25.485  1.00  0.00     0.363 C 
HETATM   13  N2  UNL     1      18.913  21.823  24.760  1.00  0.00    -0.287 NA
HETATM   14  O1  UNL     1      20.831  21.466  26.105  1.00  0.00    -0.247 OA
BRANCH  13  15
HETATM   15  N1  UNL     1      18.083  22.552  24.078  1.00  0.00    -0.276 N 
ATOM     16  H12 UNL     1      18.719  21.973  24.627  1.00  0.00     0.191 HD
ATOM     17  H11 UNL     1      17.432  23.125  23.542  1.00  0.00     0.191 HD
ENDBRANCH  13  15
ENDBRANCH   1  12
TORSDOF 2
ENDMDL
