MODEL 1
REMARK VINA RESULT: -7.449630876      0.000      0.000
REMARK  10 active torsions:
REMARK  status: ('A' for Active; 'I' for Inactive)
REMARK    1  A    between atoms: C2_2  and  O1_4 
REMARK    2  A    between atoms: C2_2  and  C4_6 
REMARK    3  A    between atoms: C4_6  and  N1_7 
REMARK    4  A    between atoms: C5_8  and  N2_9 
REMARK    5  A    between atoms: C7_11  and  O2_12 
REMARK    6  A    between atoms: N3_14  and  N4_15 
REMARK       I    between atoms: N4_15  and  C8_17 
REMARK    7  A    between atoms: C8_17  and  C9_19 
REMARK    8  A    between atoms: C9_19  and  N6_23 
REMARK    9  A    between atoms: N6_23  and  N7_25 
REMARK   10  A    between atoms: N7_25  and  C10_27 
ROOT
HETATM    1  N2  UNL     1      -4.709  26.426  40.309  1.00  0.00    -0.099 N 
HETATM    2  C6  UNL     1      -4.070  27.183  41.203  1.00  0.00     0.178 A 
HETATM    3  C7  UNL     1      -4.257  26.656  42.463  1.00  0.00     0.183 A 
HETATM    4  N3  UNL     1      -5.013  25.572  42.352  1.00  0.00    -0.177 N 
HETATM    5  C16 UNL     1      -5.277  25.452  41.011  1.00  0.00     0.368 A 
HETATM    6  O4  UNL     1      -5.966  24.549  40.500  1.00  0.00    -0.243 OA
ENDROOT
BRANCH   4   7
HETATM    7  N4  UNL     1      -5.506  24.666  43.272  1.00  0.00    -0.250 N 
HETATM    8  C8  UNL     1      -6.749  24.694  43.897  1.00  0.00     0.305 C 
HETATM    9  O3  UNL     1      -7.608  25.576  43.696  1.00  0.00    -0.263 OA
ATOM     10  H4  UNL     1      -4.890  23.891  43.521  1.00  0.00     0.191 HD
BRANCH   8  11
HETATM   11  C9  UNL     1      -7.057  23.603  44.858  1.00  0.00     0.184 C 
HETATM   12  N5  UNL     1      -6.357  22.546  44.843  1.00  0.00    -0.380 N 
ATOM     13  H52 UNL     1      -5.588  22.436  44.182  1.00  0.00     0.158 HD
ATOM     14  H51 UNL     1      -6.569  21.798  45.503  1.00  0.00     0.158 HD
BRANCH  11  15
HETATM   15  N6  UNL     1      -8.109  23.755  45.763  1.00  0.00    -0.281 N 
ATOM     16  H6  UNL     1      -8.904  23.117  45.721  1.00  0.00     0.188 HD
BRANCH  15  17
HETATM   17  N7  UNL     1      -8.090  24.770  46.726  1.00  0.00    -0.299 N 
ATOM     18  H7  UNL     1      -7.661  25.676  46.535  1.00  0.00     0.187 HD
BRANCH  17  19
HETATM   19  C10 UNL     1      -8.698  24.481  47.988  1.00  0.00     0.048 A 
HETATM   20  C11 UNL     1      -9.215  25.495  48.784  1.00  0.00     0.031 A 
HETATM   21  C12 UNL     1      -9.802  25.215  50.004  1.00  0.00     0.002 A 
HETATM   22  C13 UNL     1      -9.898  23.924  50.475  1.00  0.00     0.000 A 
HETATM   23  C14 UNL     1      -9.389  22.907  49.693  1.00  0.00     0.002 A 
HETATM   24  C15 UNL     1      -8.807  23.200  48.483  1.00  0.00     0.031 A 
ENDBRANCH  17  19
ENDBRANCH  15  17
ENDBRANCH  11  15
ENDBRANCH   8  11
ENDBRANCH   4   7
BRANCH   3  25
HETATM   25  O2  UNL     1      -3.705  27.244  43.577  1.00  0.00    -0.344 OA
ATOM     26  H2  UNL     1      -4.122  27.183  44.429  1.00  0.00     0.219 HD
ENDBRANCH   3  25
BRANCH   1  27
HETATM   27  C5  UNL     1      -4.728  26.709  38.901  1.00  0.00     0.714 A 
HETATM   28  N1  UNL     1      -3.739  26.985  38.048  1.00  0.00    -0.127 N 
HETATM   29  C17 UNL     1      -4.263  27.156  36.790  1.00  0.00     0.355 A 
HETATM   30  N9  UNL     1      -5.583  26.980  36.904  1.00  0.00    -0.236 N 
HETATM   31  O5  UNL     1      -3.661  27.423  35.721  1.00  0.00    -0.244 OA
HETATM   32  N8  UNL     1      -5.878  26.713  38.154  1.00  0.00    -0.127 N 
ATOM     33  H9  UNL     1      -6.255  27.044  36.140  1.00  0.00     0.192 HD
ATOM     34  H8  UNL     1      -6.816  26.536  38.514  1.00  0.00     0.205 HD
BRANCH  28  35
HETATM   35  C4  UNL     1      -2.340  27.121  38.306  1.00  0.00     0.189 C 
BRANCH  35  36
HETATM   36  C2  UNL     1      -1.804  28.494  38.473  1.00  0.00     0.068 C 
HETATM   37  C1  UNL     1      -2.825  29.595  38.418  1.00  0.00     0.047 C 
HETATM   38  C3  UNL     1      -0.704  28.856  37.494  1.00  0.00     0.047 C 
BRANCH  36  39
HETATM   39  O1  UNL     1      -1.194  28.531  39.757  1.00  0.00    -0.389 OA
ATOM     40  H1  UNL     1      -0.262  28.383  39.640  1.00  0.00     0.210 HD
ENDBRANCH  36  39
ENDBRANCH  35  36
ENDBRANCH  28  35
ENDBRANCH   1  27
TORSDOF 10
ENDMDL
MODEL 2
REMARK VINA RESULT: -7.213731286      2.934     10.292
REMARK  10 active torsions:
REMARK  status: ('A' for Active; 'I' for Inactive)
REMARK    1  A    between atoms: C2_2  and  O1_4 
REMARK    2  A    between atoms: C2_2  and  C4_6 
REMARK    3  A    between atoms: C4_6  and  N1_7 
REMARK    4  A    between atoms: C5_8  and  N2_9 
REMARK    5  A    between atoms: C7_11  and  O2_12 
REMARK    6  A    between atoms: N3_14  and  N4_15 
REMARK       I    between atoms: N4_15  and  C8_17 
REMARK    7  A    between atoms: C8_17  and  C9_19 
REMARK    8  A    between atoms: C9_19  and  N6_23 
REMARK    9  A    between atoms: N6_23  and  N7_25 
REMARK   10  A    between atoms: N7_25  and  C10_27 
ROOT
HETATM    1  N2  UNL     1      -8.372  23.196  45.361  1.00  0.00    -0.099 N 
HETATM    2  C6  UNL     1      -7.244  23.366  46.055  1.00  0.00     0.178 A 
HETATM    3  C7  UNL     1      -6.270  23.876  45.224  1.00  0.00     0.183 A 
HETATM    4  N3  UNL     1      -6.792  24.024  44.014  1.00  0.00    -0.177 N 
HETATM    5  C16 UNL     1      -8.091  23.597  44.127  1.00  0.00     0.368 A 
HETATM    6  O4  UNL     1      -8.918  23.579  43.194  1.00  0.00    -0.243 OA
ENDROOT
BRANCH   4   7
HETATM    7  N4  UNL     1      -6.282  24.486  42.815  1.00  0.00    -0.250 N 
HETATM    8  C8  UNL     1      -5.331  25.486  42.636  1.00  0.00     0.305 C 
HETATM    9  O3  UNL     1      -4.799  26.115  43.574  1.00  0.00    -0.263 OA
ATOM     10  H4  UNL     1      -6.642  24.046  41.968  1.00  0.00     0.191 HD
BRANCH   8  11
HETATM   11  C9  UNL     1      -4.935  25.813  41.242  1.00  0.00     0.184 C 
HETATM   12  N5  UNL     1      -5.743  25.575  40.295  1.00  0.00    -0.380 N 
ATOM     13  H52 UNL     1      -6.658  25.162  40.477  1.00  0.00     0.158 HD
ATOM     14  H51 UNL     1      -5.471  25.800  39.338  1.00  0.00     0.158 HD
BRANCH  11  15
HETATM   15  N6  UNL     1      -3.683  26.378  40.993  1.00  0.00    -0.281 N 
ATOM     16  H6  UNL     1      -3.210  26.897  41.733  1.00  0.00     0.188 HD
BRANCH  15  17
HETATM   17  N7  UNL     1      -3.067  26.242  39.744  1.00  0.00    -0.299 N 
ATOM     18  H7  UNL     1      -2.663  25.355  39.444  1.00  0.00     0.187 HD
BRANCH  17  19
HETATM   19  C10 UNL     1      -3.029  27.402  38.906  1.00  0.00     0.048 A 
HETATM   20  C11 UNL     1      -2.217  28.484  39.217  1.00  0.00     0.031 A 
HETATM   21  C12 UNL     1      -2.181  29.605  38.406  1.00  0.00     0.002 A 
HETATM   22  C13 UNL     1      -2.946  29.689  37.264  1.00  0.00     0.000 A 
HETATM   23  C14 UNL     1      -3.758  28.619  36.944  1.00  0.00     0.002 A 
HETATM   24  C15 UNL     1      -3.784  27.512  37.759  1.00  0.00     0.031 A 
ENDBRANCH  17  19
ENDBRANCH  15  17
ENDBRANCH  11  15
ENDBRANCH   8  11
ENDBRANCH   4   7
BRANCH   3  25
HETATM   25  O2  UNL     1      -5.002  24.147  45.684  1.00  0.00    -0.344 OA
ATOM     26  H2  UNL     1      -4.382  24.645  45.164  1.00  0.00     0.219 HD
ENDBRANCH   3  25
BRANCH   1  27
HETATM   27  C5  UNL     1      -9.578  22.663  45.929  1.00  0.00     0.714 A 
HETATM   28  N1  UNL     1     -10.193  21.493  45.744  1.00  0.00    -0.127 N 
HETATM   29  C17 UNL     1     -11.310  21.439  46.542  1.00  0.00     0.355 A 
HETATM   30  N9  UNL     1     -11.354  22.597  47.207  1.00  0.00    -0.236 N 
HETATM   31  O5  UNL     1     -12.146  20.509  46.656  1.00  0.00    -0.244 OA
HETATM   32  N8  UNL     1     -10.331  23.338  46.855  1.00  0.00    -0.127 N 
ATOM     33  H9  UNL     1     -12.071  22.863  47.882  1.00  0.00     0.192 HD
ATOM     34  H8  UNL     1     -10.127  24.271  47.214  1.00  0.00     0.205 HD
BRANCH  28  35
HETATM   35  C4  UNL     1      -9.840  20.419  44.869  1.00  0.00     0.189 C 
BRANCH  35  36
HETATM   36  C2  UNL     1      -8.662  19.597  45.234  1.00  0.00     0.068 C 
HETATM   37  C1  UNL     1      -8.804  18.122  44.986  1.00  0.00     0.047 C 
HETATM   38  C3  UNL     1      -8.204  19.765  46.670  1.00  0.00     0.047 C 
BRANCH  36  39
HETATM   39  O1  UNL     1      -7.583  20.069  44.437  1.00  0.00    -0.389 OA
ATOM     40  H1  UNL     1      -7.567  21.017  44.502  1.00  0.00     0.210 HD
ENDBRANCH  36  39
ENDBRANCH  35  36
ENDBRANCH  28  35
ENDBRANCH   1  27
TORSDOF 10
ENDMDL
MODEL 3
REMARK VINA RESULT: -7.167191918      2.479     10.455
REMARK  10 active torsions:
REMARK  status: ('A' for Active; 'I' for Inactive)
REMARK    1  A    between atoms: C2_2  and  O1_4 
REMARK    2  A    between atoms: C2_2  and  C4_6 
REMARK    3  A    between atoms: C4_6  and  N1_7 
REMARK    4  A    between atoms: C5_8  and  N2_9 
REMARK    5  A    between atoms: C7_11  and  O2_12 
REMARK    6  A    between atoms: N3_14  and  N4_15 
REMARK       I    between atoms: N4_15  and  C8_17 
REMARK    7  A    between atoms: C8_17  and  C9_19 
REMARK    8  A    between atoms: C9_19  and  N6_23 
REMARK    9  A    between atoms: N6_23  and  N7_25 
REMARK   10  A    between atoms: N7_25  and  C10_27 
ROOT
HETATM    1  N2  UNL     1      -8.410  23.174  45.411  1.00  0.00    -0.099 N 
HETATM    2  C6  UNL     1      -7.277  23.330  46.100  1.00  0.00     0.178 A 
HETATM    3  C7  UNL     1      -6.301  23.830  45.264  1.00  0.00     0.183 A 
HETATM    4  N3  UNL     1      -6.827  23.985  44.057  1.00  0.00    -0.177 N 
HETATM    5  C16 UNL     1      -8.130  23.573  44.175  1.00  0.00     0.368 A 
HETATM    6  O4  UNL     1      -8.961  23.565  43.247  1.00  0.00    -0.243 OA
ENDROOT
BRANCH   4   7
HETATM    7  N4  UNL     1      -6.317  24.443  42.856  1.00  0.00    -0.250 N 
HETATM    8  C8  UNL     1      -5.375  25.451  42.673  1.00  0.00     0.305 C 
HETATM    9  O3  UNL     1      -4.854  26.093  43.607  1.00  0.00    -0.263 OA
ATOM     10  H4  UNL     1      -6.669  23.991  42.012  1.00  0.00     0.191 HD
BRANCH   8  11
HETATM   11  C9  UNL     1      -4.978  25.771  41.277  1.00  0.00     0.184 C 
HETATM   12  N5  UNL     1      -5.796  25.555  40.334  1.00  0.00    -0.380 N 
ATOM     13  H52 UNL     1      -6.721  25.166  40.520  1.00  0.00     0.158 HD
ATOM     14  H51 UNL     1      -5.523  25.775  39.376  1.00  0.00     0.158 HD
BRANCH  11  15
HETATM   15  N6  UNL     1      -3.713  26.303  41.024  1.00  0.00    -0.281 N 
ATOM     16  H6  UNL     1      -3.220  26.802  41.765  1.00  0.00     0.188 HD
BRANCH  15  17
HETATM   17  N7  UNL     1      -3.111  26.163  39.769  1.00  0.00    -0.299 N 
ATOM     18  H7  UNL     1      -2.723  25.271  39.461  1.00  0.00     0.187 HD
BRANCH  17  19
HETATM   19  C10 UNL     1      -3.063  27.326  38.936  1.00  0.00     0.048 A 
HETATM   20  C11 UNL     1      -2.260  28.410  39.262  1.00  0.00     0.031 A 
HETATM   21  C12 UNL     1      -2.215  29.533  38.456  1.00  0.00     0.002 A 
HETATM   22  C13 UNL     1      -2.962  29.619  37.302  1.00  0.00     0.000 A 
HETATM   23  C14 UNL     1      -3.765  28.547  36.966  1.00  0.00     0.002 A 
HETATM   24  C15 UNL     1      -3.801  27.438  37.777  1.00  0.00     0.031 A 
ENDBRANCH  17  19
ENDBRANCH  15  17
ENDBRANCH  11  15
ENDBRANCH   8  11
ENDBRANCH   4   7
BRANCH   3  25
HETATM   25  O2  UNL     1      -5.028  24.086  45.719  1.00  0.00    -0.344 OA
ATOM     26  H2  UNL     1      -4.377  23.397  45.782  1.00  0.00     0.219 HD
ENDBRANCH   3  25
BRANCH   1  27
HETATM   27  C5  UNL     1      -9.619  22.654  45.984  1.00  0.00     0.714 A 
HETATM   28  N1  UNL     1     -10.045  22.615  47.249  1.00  0.00    -0.127 N 
HETATM   29  C17 UNL     1     -11.291  22.038  47.288  1.00  0.00     0.355 A 
HETATM   30  N9  UNL     1     -11.604  21.731  46.026  1.00  0.00    -0.236 N 
HETATM   31  O5  UNL     1     -12.023  21.824  48.285  1.00  0.00    -0.244 OA
HETATM   32  N8  UNL     1     -10.621  22.091  45.236  1.00  0.00    -0.127 N 
ATOM     33  H9  UNL     1     -12.471  21.286  45.724  1.00  0.00     0.192 HD
ATOM     34  H8  UNL     1     -10.604  21.971  44.223  1.00  0.00     0.205 HD
BRANCH  28  35
HETATM   35  C4  UNL     1      -9.380  23.054  48.436  1.00  0.00     0.189 C 
BRANCH  35  36
HETATM   36  C2  UNL     1      -9.780  24.365  49.000  1.00  0.00     0.068 C 
HETATM   37  C1  UNL     1      -9.005  25.548  48.492  1.00  0.00     0.047 C 
HETATM   38  C3  UNL     1      -9.748  24.428  50.515  1.00  0.00     0.047 C 
BRANCH  36  39
HETATM   39  O1  UNL     1     -11.144  24.555  48.644  1.00  0.00    -0.389 OA
ATOM     40  H1  UNL     1     -11.348  25.476  48.758  1.00  0.00     0.210 HD
ENDBRANCH  36  39
ENDBRANCH  35  36
ENDBRANCH  28  35
ENDBRANCH   1  27
TORSDOF 10
ENDMDL
MODEL 4
REMARK VINA RESULT: -6.872851445      8.137     13.609
REMARK  10 active torsions:
REMARK  status: ('A' for Active; 'I' for Inactive)
REMARK    1  A    between atoms: C2_2  and  O1_4 
REMARK    2  A    between atoms: C2_2  and  C4_6 
REMARK    3  A    between atoms: C4_6  and  N1_7 
REMARK    4  A    between atoms: C5_8  and  N2_9 
REMARK    5  A    between atoms: C7_11  and  O2_12 
REMARK    6  A    between atoms: N3_14  and  N4_15 
REMARK       I    between atoms: N4_15  and  C8_17 
REMARK    7  A    between atoms: C8_17  and  C9_19 
REMARK    8  A    between atoms: C9_19  and  N6_23 
REMARK    9  A    between atoms: N6_23  and  N7_25 
REMARK   10  A    between atoms: N7_25  and  C10_27 
ROOT
HETATM    1  N2  UNL     1     -12.709  25.793  52.950  1.00  0.00    -0.099 N 
HETATM    2  C6  UNL     1     -12.402  24.494  52.999  1.00  0.00     0.178 A 
HETATM    3  C7  UNL     1     -11.415  24.225  52.075  1.00  0.00     0.183 A 
HETATM    4  N3  UNL     1     -11.108  25.355  51.453  1.00  0.00    -0.177 N 
HETATM    5  C16 UNL     1     -11.921  26.307  52.013  1.00  0.00     0.368 A 
HETATM    6  O4  UNL     1     -11.933  27.511  51.691  1.00  0.00    -0.243 OA
ENDROOT
BRANCH   4   7
HETATM    7  N4  UNL     1     -10.205  25.667  50.454  1.00  0.00    -0.250 N 
HETATM    8  C8  UNL     1     -10.042  25.018  49.234  1.00  0.00     0.305 C 
HETATM    9  O3  UNL     1     -10.719  24.032  48.876  1.00  0.00    -0.263 OA
ATOM     10  H4  UNL     1      -9.590  26.462  50.630  1.00  0.00     0.191 HD
BRANCH   8  11
HETATM   11  C9  UNL     1      -8.998  25.539  48.315  1.00  0.00     0.184 C 
HETATM   12  N5  UNL     1      -8.735  26.779  48.313  1.00  0.00    -0.380 N 
ATOM     13  H52 UNL     1      -9.230  27.421  48.932  1.00  0.00     0.158 HD
ATOM     14  H51 UNL     1      -8.018  27.136  47.682  1.00  0.00     0.158 HD
BRANCH  11  15
HETATM   15  N6  UNL     1      -8.322  24.660  47.468  1.00  0.00    -0.281 N 
ATOM     16  H6  UNL     1      -7.301  24.659  47.456  1.00  0.00     0.188 HD
BRANCH  15  17
HETATM   17  N7  UNL     1      -9.021  23.780  46.635  1.00  0.00    -0.299 N 
ATOM     18  H7  UNL     1      -9.823  24.091  46.086  1.00  0.00     0.187 HD
BRANCH  17  19
HETATM   19  C10 UNL     1      -8.563  22.425  46.587  1.00  0.00     0.048 A 
HETATM   20  C11 UNL     1      -8.379  21.688  47.749  1.00  0.00     0.031 A 
HETATM   21  C12 UNL     1      -7.936  20.379  47.701  1.00  0.00     0.002 A 
HETATM   22  C13 UNL     1      -7.662  19.757  46.503  1.00  0.00     0.000 A 
HETATM   23  C14 UNL     1      -7.842  20.479  45.340  1.00  0.00     0.002 A 
HETATM   24  C15 UNL     1      -8.282  21.779  45.402  1.00  0.00     0.031 A 
ENDBRANCH  17  19
ENDBRANCH  15  17
ENDBRANCH  11  15
ENDBRANCH   8  11
ENDBRANCH   4   7
BRANCH   3  25
HETATM   25  O2  UNL     1     -10.910  22.955  51.913  1.00  0.00    -0.344 OA
ATOM     26  H2  UNL     1     -10.038  22.727  52.214  1.00  0.00     0.219 HD
ENDBRANCH   3  25
BRANCH   1  27
HETATM   27  C5  UNL     1     -13.715  26.400  53.776  1.00  0.00     0.714 A 
HETATM   28  N1  UNL     1     -14.987  26.714  53.521  1.00  0.00    -0.127 N 
HETATM   29  C17 UNL     1     -15.553  27.254  54.650  1.00  0.00     0.355 A 
HETATM   30  N9  UNL     1     -14.598  27.261  55.584  1.00  0.00    -0.236 N 
HETATM   31  O5  UNL     1     -16.726  27.670  54.814  1.00  0.00    -0.244 OA
HETATM   32  N8  UNL     1     -13.497  26.755  55.082  1.00  0.00    -0.127 N 
ATOM     33  H9  UNL     1     -14.708  27.605  56.538  1.00  0.00     0.192 HD
ATOM     34  H8  UNL     1     -12.616  26.644  55.584  1.00  0.00     0.205 HD
BRANCH  28  35
HETATM   35  C4  UNL     1     -15.723  26.570  52.304  1.00  0.00     0.189 C 
BRANCH  35  36
HETATM   36  C2  UNL     1     -15.591  27.645  51.292  1.00  0.00     0.068 C 
HETATM   37  C1  UNL     1     -15.147  28.978  51.822  1.00  0.00     0.047 C 
HETATM   38  C3  UNL     1     -16.844  27.885  50.471  1.00  0.00     0.047 C 
BRANCH  36  39
HETATM   39  O1  UNL     1     -14.612  27.199  50.362  1.00  0.00    -0.389 OA
ATOM     40  H1  UNL     1     -15.065  26.914  49.577  1.00  0.00     0.210 HD
ENDBRANCH  36  39
ENDBRANCH  35  36
ENDBRANCH  28  35
ENDBRANCH   1  27
TORSDOF 10
ENDMDL
MODEL 5
REMARK VINA RESULT: -6.863947967      1.349      2.741
REMARK  10 active torsions:
REMARK  status: ('A' for Active; 'I' for Inactive)
REMARK    1  A    between atoms: C2_2  and  O1_4 
REMARK    2  A    between atoms: C2_2  and  C4_6 
REMARK    3  A    between atoms: C4_6  and  N1_7 
REMARK    4  A    between atoms: C5_8  and  N2_9 
REMARK    5  A    between atoms: C7_11  and  O2_12 
REMARK    6  A    between atoms: N3_14  and  N4_15 
REMARK       I    between atoms: N4_15  and  C8_17 
REMARK    7  A    between atoms: C8_17  and  C9_19 
REMARK    8  A    between atoms: C9_19  and  N6_23 
REMARK    9  A    between atoms: N6_23  and  N7_25 
REMARK   10  A    between atoms: N7_25  and  C10_27 
ROOT
HETATM    1  N2  UNL     1      -4.275  26.287  40.417  1.00  0.00    -0.099 N 
HETATM    2  C6  UNL     1      -5.443  25.812  39.976  1.00  0.00     0.178 A 
HETATM    3  C7  UNL     1      -6.115  25.215  41.021  1.00  0.00     0.183 A 
HETATM    4  N3  UNL     1      -5.366  25.319  42.110  1.00  0.00    -0.177 N 
HETATM    5  C16 UNL     1      -4.236  25.985  41.709  1.00  0.00     0.368 A 
HETATM    6  O4  UNL     1      -3.281  26.277  42.454  1.00  0.00    -0.243 OA
ENDROOT
BRANCH   4   7
HETATM    7  N4  UNL     1      -5.540  24.906  43.418  1.00  0.00    -0.250 N 
HETATM    8  C8  UNL     1      -6.704  24.406  43.994  1.00  0.00     0.305 C 
HETATM    9  O3  UNL     1      -7.779  24.263  43.377  1.00  0.00    -0.263 OA
ATOM     10  H4  UNL     1      -4.725  24.975  44.028  1.00  0.00     0.191 HD
BRANCH   8  11
HETATM   11  C9  UNL     1      -6.649  24.026  45.430  1.00  0.00     0.184 C 
HETATM   12  N5  UNL     1      -5.630  23.414  45.871  1.00  0.00    -0.380 N 
ATOM     13  H52 UNL     1      -4.851  23.179  45.255  1.00  0.00     0.158 HD
ATOM     14  H51 UNL     1      -5.592  23.153  46.856  1.00  0.00     0.158 HD
BRANCH  11  15
HETATM   15  N6  UNL     1      -7.715  24.347  46.272  1.00  0.00    -0.281 N 
ATOM     16  H6  UNL     1      -8.196  25.238  46.154  1.00  0.00     0.188 HD
BRANCH  15  17
HETATM   17  N7  UNL     1      -8.132  23.464  47.274  1.00  0.00    -0.299 N 
ATOM     18  H7  UNL     1      -7.957  22.461  47.206  1.00  0.00     0.187 HD
BRANCH  17  19
HETATM   19  C10 UNL     1      -8.813  24.030  48.398  1.00  0.00     0.048 A 
HETATM   20  C11 UNL     1      -9.237  23.235  49.454  1.00  0.00     0.031 A 
HETATM   21  C12 UNL     1      -9.895  23.783  50.540  1.00  0.00     0.002 A 
HETATM   22  C13 UNL     1     -10.154  25.134  50.616  1.00  0.00     0.000 A 
HETATM   23  C14 UNL     1      -9.737  25.935  49.572  1.00  0.00     0.002 A 
HETATM   24  C15 UNL     1      -9.085  25.377  48.499  1.00  0.00     0.031 A 
ENDBRANCH  17  19
ENDBRANCH  15  17
ENDBRANCH  11  15
ENDBRANCH   8  11
ENDBRANCH   4   7
BRANCH   3  25
HETATM   25  O2  UNL     1      -7.351  24.638  40.843  1.00  0.00    -0.344 OA
ATOM     26  H2  UNL     1      -7.964  24.969  40.197  1.00  0.00     0.219 HD
ENDBRANCH   3  25
BRANCH   1  27
HETATM   27  C5  UNL     1      -3.324  26.955  39.574  1.00  0.00     0.714 A 
HETATM   28  N1  UNL     1      -3.410  27.364  38.306  1.00  0.00    -0.127 N 
HETATM   29  C17 UNL     1      -2.236  27.983  37.951  1.00  0.00     0.355 A 
HETATM   30  N9  UNL     1      -1.444  27.934  39.026  1.00  0.00    -0.236 N 
HETATM   31  O5  UNL     1      -1.926  28.501  36.850  1.00  0.00    -0.244 OA
HETATM   32  N8  UNL     1      -2.076  27.327  40.002  1.00  0.00    -0.127 N 
ATOM     33  H9  UNL     1      -0.498  28.310  39.080  1.00  0.00     0.192 HD
ATOM     34  H8  UNL     1      -1.697  27.157  40.934  1.00  0.00     0.205 HD
BRANCH  28  35
HETATM   35  C4  UNL     1      -4.491  27.214  37.383  1.00  0.00     0.189 C 
BRANCH  35  36
HETATM   36  C2  UNL     1      -5.061  28.447  36.788  1.00  0.00     0.068 C 
HETATM   37  C1  UNL     1      -4.576  29.736  37.389  1.00  0.00     0.047 C 
HETATM   38  C3  UNL     1      -6.577  28.496  36.789  1.00  0.00     0.047 C 
BRANCH  36  39
HETATM   39  O1  UNL     1      -4.685  28.439  35.417  1.00  0.00    -0.389 OA
ATOM     40  H1  UNL     1      -4.746  29.331  35.094  1.00  0.00     0.210 HD
ENDBRANCH  36  39
ENDBRANCH  35  36
ENDBRANCH  28  35
ENDBRANCH   1  27
TORSDOF 10
ENDMDL
