MODEL 1
REMARK VINA RESULT: -7.222560900      0.000      0.000
REMARK  9 active torsions:
REMARK  status: ('A' for Active; 'I' for Inactive)
REMARK    1  A    between atoms: C3_4  and  N2_5 
REMARK       I    between atoms: N2_5  and  C4_7 
REMARK    2  A    between atoms: C4_7  and  C5_9 
REMARK    3  A    between atoms: C7_11  and  N3_12 
REMARK    4  A    between atoms: N3_12  and  C8_14 
REMARK    5  A    between atoms: C8_14  and  N4_15 
REMARK    6  A    between atoms: N6_21  and  N7_22 
REMARK       I    between atoms: N7_22  and  C11_24 
REMARK    7  A    between atoms: C11_24  and  C12_26 
REMARK    8  A    between atoms: C13_37  and  C14_38 
REMARK    9  A    between atoms: C14_38  and  O3_41 
ROOT
HETATM    1  C8  UNL     1     -10.138  24.288  49.799  1.00  0.00     0.182 C 
HETATM    2  C9  UNL     1      -9.965  25.705  50.078  1.00  0.00     0.136 C 
HETATM    3  N5  UNL     1      -9.817  26.843  50.285  1.00  0.00    -0.188 NA
ENDROOT
BRANCH   1   4
HETATM    4  N3  UNL     1      -9.024  23.491  49.444  1.00  0.00    -0.333 N 
ATOM      5  H3  UNL     1      -8.389  23.154  50.167  1.00  0.00     0.168 HD
BRANCH   4   6
HETATM    6  C7  UNL     1      -8.787  23.159  48.093  1.00  0.00     0.054 A 
HETATM    7  C6  UNL     1      -8.969  21.961  47.459  1.00  0.00     0.068 A 
HETATM    8  C5  UNL     1      -8.595  22.083  46.118  1.00  0.00     0.126 A 
HETATM    9  N6  UNL     1      -8.187  23.347  45.927  1.00  0.00    -0.257 N 
HETATM   10  C10 UNL     1      -8.294  24.019  47.112  1.00  0.00     0.146 A 
BRANCH   8  11
HETATM   11  C4  UNL     1      -8.628  20.990  45.172  1.00  0.00     0.275 C 
HETATM   12  N2  UNL     1      -8.042  19.725  45.482  1.00  0.00    -0.306 N 
ATOM     13  H2  UNL     1      -7.619  19.598  46.402  1.00  0.00     0.170 HD
HETATM   14  O1  UNL     1      -9.176  21.132  44.053  1.00  0.00    -0.266 OA
BRANCH  12  15
HETATM   15  C3  UNL     1      -8.018  18.634  44.572  1.00  0.00     0.125 A 
HETATM   16  C2  UNL     1      -7.298  17.473  44.588  1.00  0.00     0.140 A 
HETATM   17  N1  UNL     1      -7.605  16.735  43.478  1.00  0.00    -0.345 N 
HETATM   18  C1  UNL     1      -7.002  15.435  43.228  1.00  0.00     0.157 C 
HETATM   19  C13 UNL     1      -8.492  17.411  42.781  1.00  0.00     0.119 A 
HETATM   20  N12 UNL     1      -8.752  18.560  43.429  1.00  0.00    -0.328 N 
ATOM     21  H12 UNL     1      -9.407  19.274  43.110  1.00  0.00     0.169 HD
BRANCH  19  22
HETATM   22  C14 UNL     1      -9.145  17.072  41.494  1.00  0.00     0.109 C 
HETATM   23  C15 UNL     1      -9.917  18.351  41.113  1.00  0.00     0.054 C 
HETATM   24  C16 UNL     1      -8.242  16.800  40.358  1.00  0.00     0.054 C 
BRANCH  22  25
HETATM   25  O3  UNL     1     -10.104  16.065  41.688  1.00  0.00    -0.383 OA
ATOM     26  H3  UNL     1     -10.218  15.563  40.889  1.00  0.00     0.211 HD
ENDBRANCH  22  25
ENDBRANCH  19  22
ENDBRANCH  12  15
ENDBRANCH   8  11
BRANCH   9  27
HETATM   27  N7  UNL     1      -7.756  23.916  44.738  1.00  0.00    -0.256 N 
HETATM   28  C11 UNL     1      -6.427  24.241  44.430  1.00  0.00     0.307 C 
HETATM   29  O2  UNL     1      -5.410  24.086  45.132  1.00  0.00    -0.262 OA
ATOM     30  H7  UNL     1      -8.463  24.115  44.030  1.00  0.00     0.191 HD
BRANCH  28  31
HETATM   31  C12 UNL     1      -6.185  24.854  43.087  1.00  0.00     0.208 A 
HETATM   32  N8  UNL     1      -5.125  25.567  42.681  1.00  0.00    -0.264 N 
HETATM   33  N9  UNL     1      -5.356  25.914  41.409  1.00  0.00    -0.226 N 
ATOM     34  H8  UNL     1      -4.301  25.801  43.234  1.00  0.00     0.190 HD
HETATM   35  N10 UNL     1      -6.519  25.443  41.013  1.00  0.00    -0.226 N 
ATOM     36  H9  UNL     1      -4.721  26.465  40.830  1.00  0.00     0.210 HD
HETATM   37  N11 UNL     1      -7.026  24.794  42.041  1.00  0.00    -0.264 N 
ATOM     38  H10 UNL     1      -6.945  25.558  40.093  1.00  0.00     0.210 HD
ATOM     39  H11 UNL     1      -7.926  24.315  42.042  1.00  0.00     0.190 HD
ENDBRANCH  28  31
ENDBRANCH   9  27
ENDBRANCH   4   6
ENDBRANCH   1   4
BRANCH   1  40
HETATM   40  N4  UNL     1     -11.327  23.812  49.890  1.00  0.00    -0.377 N 
ATOM     41  H42 UNL     1     -11.893  23.804  49.040  1.00  0.00     0.158 HD
ATOM     42  H41 UNL     1     -11.709  23.452  50.765  1.00  0.00     0.158 HD
ENDBRANCH   1  40
TORSDOF 9
ENDMDL
MODEL 2
REMARK VINA RESULT: -6.820382805      1.284      1.838
REMARK  9 active torsions:
REMARK  status: ('A' for Active; 'I' for Inactive)
REMARK    1  A    between atoms: C3_4  and  N2_5 
REMARK       I    between atoms: N2_5  and  C4_7 
REMARK    2  A    between atoms: C4_7  and  C5_9 
REMARK    3  A    between atoms: C7_11  and  N3_12 
REMARK    4  A    between atoms: N3_12  and  C8_14 
REMARK    5  A    between atoms: C8_14  and  N4_15 
REMARK    6  A    between atoms: N6_21  and  N7_22 
REMARK       I    between atoms: N7_22  and  C11_24 
REMARK    7  A    between atoms: C11_24  and  C12_26 
REMARK    8  A    between atoms: C13_37  and  C14_38 
REMARK    9  A    between atoms: C14_38  and  O3_41 
ROOT
HETATM    1  C8  UNL     1     -10.368  24.560  49.980  1.00  0.00     0.182 C 
HETATM    2  C9  UNL     1     -10.322  25.881  50.587  1.00  0.00     0.136 C 
HETATM    3  N5  UNL     1     -10.272  26.945  51.061  1.00  0.00    -0.188 NA
ENDROOT
BRANCH   1   4
HETATM    4  N3  UNL     1      -9.169  23.867  49.688  1.00  0.00    -0.333 N 
ATOM      5  H3  UNL     1      -8.503  23.670  50.434  1.00  0.00     0.168 HD
BRANCH   4   6
HETATM    6  C7  UNL     1      -8.891  23.448  48.370  1.00  0.00     0.054 A 
HETATM    7  C6  UNL     1      -8.997  22.198  47.826  1.00  0.00     0.068 A 
HETATM    8  C5  UNL     1      -8.607  22.240  46.485  1.00  0.00     0.126 A 
HETATM    9  N6  UNL     1      -8.263  23.506  46.204  1.00  0.00    -0.257 N 
HETATM   10  C10 UNL     1      -8.428  24.258  47.333  1.00  0.00     0.146 A 
BRANCH   8  11
HETATM   11  C4  UNL     1      -8.563  21.079  45.625  1.00  0.00     0.275 C 
HETATM   12  N2  UNL     1      -9.595  20.091  45.659  1.00  0.00    -0.306 N 
ATOM     13  H2  UNL     1     -10.383  20.236  46.290  1.00  0.00     0.170 HD
HETATM   14  O1  UNL     1      -7.612  20.915  44.823  1.00  0.00    -0.266 OA
BRANCH  12  15
HETATM   15  C3  UNL     1      -9.576  18.918  44.859  1.00  0.00     0.125 A 
HETATM   16  C2  UNL     1     -10.565  18.318  44.130  1.00  0.00     0.140 A 
HETATM   17  N1  UNL     1     -10.069  17.189  43.537  1.00  0.00    -0.345 N 
HETATM   18  C1  UNL     1     -10.890  16.347  42.682  1.00  0.00     0.157 C 
HETATM   19  C13 UNL     1      -8.805  17.078  43.883  1.00  0.00     0.119 A 
HETATM   20  N12 UNL     1      -8.493  18.115  44.681  1.00  0.00    -0.328 N 
ATOM     21  H12 UNL     1      -7.574  18.277  45.093  1.00  0.00     0.169 HD
BRANCH  19  22
HETATM   22  C14 UNL     1      -7.813  16.035  43.529  1.00  0.00     0.109 C 
HETATM   23  C15 UNL     1      -6.487  16.559  44.117  1.00  0.00     0.054 C 
HETATM   24  C16 UNL     1      -8.020  14.707  44.140  1.00  0.00     0.054 C 
BRANCH  22  25
HETATM   25  O3  UNL     1      -7.644  15.980  42.137  1.00  0.00    -0.383 OA
ATOM     26  H3  UNL     1      -6.765  15.686  41.925  1.00  0.00     0.211 HD
ENDBRANCH  22  25
ENDBRANCH  19  22
ENDBRANCH  12  15
ENDBRANCH   8  11
BRANCH   9  27
HETATM   27  N7  UNL     1      -7.843  24.007  44.981  1.00  0.00    -0.256 N 
HETATM   28  C11 UNL     1      -6.508  24.204  44.603  1.00  0.00     0.307 C 
HETATM   29  O2  UNL     1      -5.475  23.974  45.259  1.00  0.00    -0.262 OA
ATOM     30  H7  UNL     1      -8.564  24.253  44.302  1.00  0.00     0.191 HD
BRANCH  28  31
HETATM   31  C12 UNL     1      -6.278  24.762  43.233  1.00  0.00     0.208 A 
HETATM   32  N8  UNL     1      -5.201  25.415  42.775  1.00  0.00    -0.264 N 
HETATM   33  N9  UNL     1      -5.453  25.731  41.499  1.00  0.00    -0.226 N 
ATOM     34  H8  UNL     1      -4.352  25.630  43.297  1.00  0.00     0.190 HD
HETATM   35  N10 UNL     1      -6.647  25.298  41.151  1.00  0.00    -0.226 N 
ATOM     36  H9  UNL     1      -4.813  26.234  40.884  1.00  0.00     0.210 HD
HETATM   37  N11 UNL     1      -7.151  24.705  42.213  1.00  0.00    -0.264 N 
ATOM     38  H10 UNL     1      -7.093  25.402  40.239  1.00  0.00     0.210 HD
ATOM     39  H11 UNL     1      -8.070  24.266  42.256  1.00  0.00     0.190 HD
ENDBRANCH  28  31
ENDBRANCH   9  27
ENDBRANCH   4   6
ENDBRANCH   1   4
BRANCH   1  40
HETATM   40  N4  UNL     1     -11.529  24.070  49.728  1.00  0.00    -0.377 N 
ATOM     41  H42 UNL     1     -12.072  23.726  50.520  1.00  0.00     0.158 HD
ATOM     42  H41 UNL     1     -11.910  24.019  48.783  1.00  0.00     0.158 HD
ENDBRANCH   1  40
TORSDOF 9
ENDMDL
MODEL 3
REMARK VINA RESULT: -6.800501454      3.057      7.984
REMARK  9 active torsions:
REMARK  status: ('A' for Active; 'I' for Inactive)
REMARK    1  A    between atoms: C3_4  and  N2_5 
REMARK       I    between atoms: N2_5  and  C4_7 
REMARK    2  A    between atoms: C4_7  and  C5_9 
REMARK    3  A    between atoms: C7_11  and  N3_12 
REMARK    4  A    between atoms: N3_12  and  C8_14 
REMARK    5  A    between atoms: C8_14  and  N4_15 
REMARK    6  A    between atoms: N6_21  and  N7_22 
REMARK       I    between atoms: N7_22  and  C11_24 
REMARK    7  A    between atoms: C11_24  and  C12_26 
REMARK    8  A    between atoms: C13_37  and  C14_38 
REMARK    9  A    between atoms: C14_38  and  O3_41 
ROOT
HETATM    1  C8  UNL     1      -6.753  16.712  47.698  1.00  0.00     0.182 C 
HETATM    2  C9  UNL     1      -7.374  15.624  48.437  1.00  0.00     0.136 C 
HETATM    3  N5  UNL     1      -7.875  14.743  49.012  1.00  0.00    -0.188 NA
ENDROOT
BRANCH   1   4
HETATM    4  N3  UNL     1      -7.423  17.301  46.599  1.00  0.00    -0.333 N 
ATOM      5  H3  UNL     1      -7.725  16.718  45.818  1.00  0.00     0.168 HD
BRANCH   4   6
HETATM    6  C7  UNL     1      -7.673  18.689  46.577  1.00  0.00     0.054 A 
HETATM    7  C6  UNL     1      -8.278  19.468  47.524  1.00  0.00     0.068 A 
HETATM    8  C5  UNL     1      -8.324  20.791  47.079  1.00  0.00     0.126 A 
HETATM    9  N6  UNL     1      -7.752  20.828  45.865  1.00  0.00    -0.257 N 
HETATM   10  C10 UNL     1      -7.350  19.563  45.539  1.00  0.00     0.146 A 
BRANCH   8  11
HETATM   11  C4  UNL     1      -8.934  21.869  47.825  1.00  0.00     0.275 C 
HETATM   12  N2  UNL     1      -8.866  21.915  49.251  1.00  0.00    -0.306 N 
ATOM     13  H2  UNL     1      -8.351  21.179  49.735  1.00  0.00     0.170 HD
HETATM   14  O1  UNL     1      -9.538  22.793  47.230  1.00  0.00    -0.266 OA
BRANCH  12  15
HETATM   15  C3  UNL     1      -9.479  22.934  50.027  1.00  0.00     0.125 A 
HETATM   16  C2  UNL     1     -10.042  22.891  51.272  1.00  0.00     0.140 A 
HETATM   17  N1  UNL     1     -10.523  24.132  51.593  1.00  0.00    -0.345 N 
HETATM   18  C1  UNL     1     -11.167  24.399  52.870  1.00  0.00     0.157 C 
HETATM   19  C13 UNL     1     -10.272  24.933  50.581  1.00  0.00     0.119 A 
HETATM   20  N12 UNL     1      -9.641  24.224  49.628  1.00  0.00    -0.328 N 
ATOM     21  H12 UNL     1      -9.328  24.600  48.732  1.00  0.00     0.169 HD
BRANCH  19  22
HETATM   22  C14 UNL     1     -10.591  26.370  50.406  1.00  0.00     0.109 C 
HETATM   23  C15 UNL     1      -9.776  26.791  49.168  1.00  0.00     0.054 C 
HETATM   24  C16 UNL     1     -11.997  26.688  50.083  1.00  0.00     0.054 C 
BRANCH  22  25
HETATM   25  O3  UNL     1     -10.094  27.111  51.489  1.00  0.00    -0.383 OA
ATOM     26  H3  UNL     1      -9.535  27.813  51.177  1.00  0.00     0.211 HD
ENDBRANCH  22  25
ENDBRANCH  19  22
ENDBRANCH  12  15
ENDBRANCH   8  11
BRANCH   9  27
HETATM   27  N7  UNL     1      -7.556  21.945  45.067  1.00  0.00    -0.256 N 
HETATM   28  C11 UNL     1      -6.587  22.935  45.284  1.00  0.00     0.307 C 
HETATM   29  O2  UNL     1      -5.742  23.005  46.196  1.00  0.00    -0.262 OA
ATOM     30  H7  UNL     1      -8.165  22.055  44.256  1.00  0.00     0.191 HD
BRANCH  28  31
HETATM   31  C12 UNL     1      -6.552  24.061  44.299  1.00  0.00     0.208 A 
HETATM   32  N8  UNL     1      -7.585  24.730  43.768  1.00  0.00    -0.264 N 
HETATM   33  N9  UNL     1      -7.069  25.639  42.932  1.00  0.00    -0.226 N 
ATOM     34  H8  UNL     1      -8.574  24.576  43.964  1.00  0.00     0.190 HD
HETATM   35  N10 UNL     1      -5.756  25.556  42.924  1.00  0.00    -0.226 N 
ATOM     36  H9  UNL     1      -7.616  26.300  42.379  1.00  0.00     0.210 HD
HETATM   37  N11 UNL     1      -5.440  24.590  43.761  1.00  0.00    -0.264 N 
ATOM     38  H10 UNL     1      -5.110  26.127  42.378  1.00  0.00     0.210 HD
ATOM     39  H11 UNL     1      -4.489  24.288  43.972  1.00  0.00     0.190 HD
ENDBRANCH  28  31
ENDBRANCH   9  27
ENDBRANCH   4   6
ENDBRANCH   1   4
BRANCH   1  40
HETATM   40  N4  UNL     1      -5.592  17.100  48.088  1.00  0.00    -0.377 N 
ATOM     41  H42 UNL     1      -5.554  17.713  48.903  1.00  0.00     0.158 HD
ATOM     42  H41 UNL     1      -4.733  16.817  47.617  1.00  0.00     0.158 HD
ENDBRANCH   1  40
TORSDOF 9
ENDMDL
MODEL 4
REMARK VINA RESULT: -6.792160581      1.098      1.836
REMARK  9 active torsions:
REMARK  status: ('A' for Active; 'I' for Inactive)
REMARK    1  A    between atoms: C3_4  and  N2_5 
REMARK       I    between atoms: N2_5  and  C4_7 
REMARK    2  A    between atoms: C4_7  and  C5_9 
REMARK    3  A    between atoms: C7_11  and  N3_12 
REMARK    4  A    between atoms: N3_12  and  C8_14 
REMARK    5  A    between atoms: C8_14  and  N4_15 
REMARK    6  A    between atoms: N6_21  and  N7_22 
REMARK       I    between atoms: N7_22  and  C11_24 
REMARK    7  A    between atoms: C11_24  and  C12_26 
REMARK    8  A    between atoms: C13_37  and  C14_38 
REMARK    9  A    between atoms: C14_38  and  O3_41 
ROOT
HETATM    1  C8  UNL     1     -10.316  24.454  49.704  1.00  0.00     0.182 C 
HETATM    2  C9  UNL     1     -10.149  25.805  50.216  1.00  0.00     0.136 C 
HETATM    3  N5  UNL     1     -10.004  26.892  50.612  1.00  0.00    -0.188 NA
ENDROOT
BRANCH   1   4
HETATM    4  N3  UNL     1      -9.183  23.660  49.407  1.00  0.00    -0.333 N 
ATOM      5  H3  UNL     1      -8.599  23.305  50.164  1.00  0.00     0.168 HD
BRANCH   4   6
HETATM    6  C7  UNL     1      -8.856  23.356  48.069  1.00  0.00     0.054 A 
HETATM    7  C6  UNL     1      -8.962  22.163  47.408  1.00  0.00     0.068 A 
HETATM    8  C5  UNL     1      -8.515  22.317  46.094  1.00  0.00     0.126 A 
HETATM    9  N6  UNL     1      -8.135  23.596  45.944  1.00  0.00    -0.257 N 
HETATM   10  C10 UNL     1      -8.334  24.246  47.130  1.00  0.00     0.146 A 
BRANCH   8  11
HETATM   11  C4  UNL     1      -8.456  21.238  45.134  1.00  0.00     0.275 C 
HETATM   12  N2  UNL     1      -9.629  20.784  44.456  1.00  0.00    -0.306 N 
ATOM     13  H2  UNL     1     -10.512  21.259  44.645  1.00  0.00     0.170 HD
HETATM   14  O1  UNL     1      -7.366  20.675  44.873  1.00  0.00    -0.266 OA
BRANCH  12  15
HETATM   15  C3  UNL     1      -9.626  19.706  43.532  1.00  0.00     0.125 A 
HETATM   16  C2  UNL     1     -10.284  19.545  42.344  1.00  0.00     0.140 A 
HETATM   17  N1  UNL     1      -9.976  18.320  41.819  1.00  0.00    -0.345 N 
HETATM   18  C1  UNL     1     -10.519  17.872  40.546  1.00  0.00     0.157 C 
HETATM   19  C13 UNL     1      -9.150  17.724  42.650  1.00  0.00     0.119 A 
HETATM   20  N12 UNL     1      -8.928  18.549  43.689  1.00  0.00    -0.328 N 
ATOM     21  H12 UNL     1      -8.322  18.338  44.482  1.00  0.00     0.169 HD
BRANCH  19  22
HETATM   22  C14 UNL     1      -8.523  16.384  42.567  1.00  0.00     0.109 C 
HETATM   23  C15 UNL     1      -7.411  16.418  43.635  1.00  0.00     0.054 C 
HETATM   24  C16 UNL     1      -9.385  15.240  42.928  1.00  0.00     0.054 C 
BRANCH  22  25
HETATM   25  O3  UNL     1      -7.887  16.223  41.327  1.00  0.00    -0.383 OA
ATOM     26  H3  UNL     1      -7.767  15.299  41.136  1.00  0.00     0.211 HD
ENDBRANCH  22  25
ENDBRANCH  19  22
ENDBRANCH  12  15
ENDBRANCH   8  11
BRANCH   9  27
HETATM   27  N7  UNL     1      -7.654  24.196  44.791  1.00  0.00    -0.256 N 
HETATM   28  C11 UNL     1      -6.306  24.249  44.408  1.00  0.00     0.307 C 
HETATM   29  O2  UNL     1      -5.314  23.784  45.000  1.00  0.00    -0.262 OA
ATOM     30  H7  UNL     1      -8.335  24.634  44.171  1.00  0.00     0.191 HD
BRANCH  28  31
HETATM   31  C12 UNL     1      -6.006  24.953  43.122  1.00  0.00     0.208 A 
HETATM   32  N8  UNL     1      -5.068  25.881  42.885  1.00  0.00    -0.264 N 
HETATM   33  N9  UNL     1      -5.182  26.226  41.597  1.00  0.00    -0.226 N 
ATOM     34  H8  UNL     1      -4.397  26.253  43.557  1.00  0.00     0.190 HD
HETATM   35  N10 UNL     1      -6.156  25.547  41.028  1.00  0.00    -0.226 N 
ATOM     36  H9  UNL     1      -4.599  26.917  41.124  1.00  0.00     0.210 HD
HETATM   37  N11 UNL     1      -6.659  24.768  41.962  1.00  0.00    -0.264 N 
ATOM     38  H10 UNL     1      -6.460  25.611  40.056  1.00  0.00     0.210 HD
ATOM     39  H11 UNL     1      -7.433  24.117  41.826  1.00  0.00     0.190 HD
ENDBRANCH  28  31
ENDBRANCH   9  27
ENDBRANCH   4   6
ENDBRANCH   1   4
BRANCH   1  40
HETATM   40  N4  UNL     1     -11.518  24.032  49.539  1.00  0.00    -0.377 N 
ATOM     41  H42 UNL     1     -11.654  23.022  49.482  1.00  0.00     0.158 HD
ATOM     42  H41 UNL     1     -12.316  24.663  49.467  1.00  0.00     0.158 HD
ENDBRANCH   1  40
TORSDOF 9
ENDMDL
MODEL 5
REMARK VINA RESULT: -6.691427805      2.126      2.925
REMARK  9 active torsions:
REMARK  status: ('A' for Active; 'I' for Inactive)
REMARK    1  A    between atoms: C3_4  and  N2_5 
REMARK       I    between atoms: N2_5  and  C4_7 
REMARK    2  A    between atoms: C4_7  and  C5_9 
REMARK    3  A    between atoms: C7_11  and  N3_12 
REMARK    4  A    between atoms: N3_12  and  C8_14 
REMARK    5  A    between atoms: C8_14  and  N4_15 
REMARK    6  A    between atoms: N6_21  and  N7_22 
REMARK       I    between atoms: N7_22  and  C11_24 
REMARK    7  A    between atoms: C11_24  and  C12_26 
REMARK    8  A    between atoms: C13_37  and  C14_38 
REMARK    9  A    between atoms: C14_38  and  O3_41 
ROOT
HETATM    1  C8  UNL     1     -11.386  25.460  51.418  1.00  0.00     0.182 C 
HETATM    2  C9  UNL     1     -12.111  26.652  51.008  1.00  0.00     0.136 C 
HETATM    3  N5  UNL     1     -12.686  27.606  50.662  1.00  0.00    -0.188 NA
ENDROOT
BRANCH   1   4
HETATM    4  N3  UNL     1     -10.018  25.310  51.088  1.00  0.00    -0.333 N 
ATOM      5  H3  UNL     1      -9.302  25.700  51.700  1.00  0.00     0.168 HD
BRANCH   4   6
HETATM    6  C7  UNL     1      -9.640  24.622  49.916  1.00  0.00     0.054 A 
HETATM    7  C6  UNL     1      -9.730  23.286  49.636  1.00  0.00     0.068 A 
HETATM    8  C5  UNL     1      -9.227  23.043  48.356  1.00  0.00     0.126 A 
HETATM    9  N6  UNL     1      -8.828  24.220  47.849  1.00  0.00    -0.257 N 
HETATM   10  C10 UNL     1      -9.069  25.193  48.778  1.00  0.00     0.146 A 
BRANCH   8  11
HETATM   11  C4  UNL     1      -9.140  21.727  47.764  1.00  0.00     0.275 C 
HETATM   12  N2  UNL     1      -8.013  20.881  47.999  1.00  0.00    -0.306 N 
ATOM     13  H2  UNL     1      -7.276  21.217  48.619  1.00  0.00     0.170 HD
HETATM   14  O1  UNL     1     -10.060  21.298  47.027  1.00  0.00    -0.266 OA
BRANCH  12  15
HETATM   15  C3  UNL     1      -7.868  19.596  47.411  1.00  0.00     0.125 A 
HETATM   16  C2  UNL     1      -7.693  18.367  47.982  1.00  0.00     0.140 A 
HETATM   17  N1  UNL     1      -7.585  17.422  46.998  1.00  0.00    -0.345 N 
HETATM   18  C1  UNL     1      -7.405  16.012  47.305  1.00  0.00     0.157 C 
HETATM   19  C13 UNL     1      -7.687  18.037  45.840  1.00  0.00     0.119 A 
HETATM   20  N12 UNL     1      -7.859  19.350  46.073  1.00  0.00    -0.328 N 
ATOM     21  H12 UNL     1      -7.968  20.061  45.349  1.00  0.00     0.169 HD
BRANCH  19  22
HETATM   22  C14 UNL     1      -7.625  17.486  44.465  1.00  0.00     0.109 C 
HETATM   23  C15 UNL     1      -6.174  16.986  44.323  1.00  0.00     0.054 C 
HETATM   24  C16 UNL     1      -8.479  16.312  44.197  1.00  0.00     0.054 C 
BRANCH  22  25
HETATM   25  O3  UNL     1      -7.792  18.514  43.524  1.00  0.00    -0.383 OA
ATOM     26  H3  UNL     1      -7.680  18.174  42.644  1.00  0.00     0.211 HD
ENDBRANCH  22  25
ENDBRANCH  19  22
ENDBRANCH  12  15
ENDBRANCH   8  11
BRANCH   9  27
HETATM   27  N7  UNL     1      -8.293  24.451  46.591  1.00  0.00    -0.256 N 
HETATM   28  C11 UNL     1      -7.142  23.838  46.077  1.00  0.00     0.307 C 
HETATM   29  O2  UNL     1      -6.403  22.997  46.621  1.00  0.00    -0.262 OA
ATOM     30  H7  UNL     1      -8.776  25.120  45.991  1.00  0.00     0.191 HD
BRANCH  28  31
HETATM   31  C12 UNL     1      -6.736  24.237  44.692  1.00  0.00     0.208 A 
HETATM   32  N8  UNL     1      -7.515  24.683  43.697  1.00  0.00    -0.264 N 
HETATM   33  N9  UNL     1      -6.716  24.901  42.646  1.00  0.00    -0.226 N 
ATOM     34  H8  UNL     1      -8.524  24.830  43.733  1.00  0.00     0.190 HD
HETATM   35  N10 UNL     1      -5.470  24.605  42.954  1.00  0.00    -0.226 N 
ATOM     36  H9  UNL     1      -7.026  25.246  41.738  1.00  0.00     0.210 HD
HETATM   37  N11 UNL     1      -5.484  24.199  44.206  1.00  0.00    -0.264 N 
ATOM     38  H10 UNL     1      -4.656  24.676  42.343  1.00  0.00     0.210 HD
ATOM     39  H11 UNL     1      -4.663  23.899  44.732  1.00  0.00     0.190 HD
ENDBRANCH  28  31
ENDBRANCH   9  27
ENDBRANCH   4   6
ENDBRANCH   1   4
BRANCH   1  40
HETATM   40  N4  UNL     1     -12.039  24.573  52.079  1.00  0.00    -0.377 N 
ATOM     41  H42 UNL     1     -11.938  23.602  51.782  1.00  0.00     0.158 HD
ATOM     42  H41 UNL     1     -12.638  24.808  52.870  1.00  0.00     0.158 HD
ENDBRANCH   1  40
TORSDOF 9
ENDMDL
