MODEL 1
REMARK VINA RESULT: -5.864855926      0.000      0.000
REMARK  6 active torsions:
REMARK  status: ('A' for Active; 'I' for Inactive)
REMARK    1  A    between atoms: C3_3  and  O1_4 
REMARK    2  A    between atoms: O1_4  and  C4_5 
REMARK    3  A    between atoms: C4_5  and  C5_6 
REMARK    4  A    between atoms: C11_18  and  C12_19 
REMARK    5  A    between atoms: C11_18  and  N3_25 
REMARK    6  A    between atoms: C12_19  and  C14_21 
ROOT
HETATM    1  C1  UNL     1      31.338  21.482  95.437  1.00  0.00     0.055 C 
HETATM    2  C2  UNL     1      31.540  20.721  96.726  1.00  0.00     0.024 C 
HETATM    3  C3  UNL     1      30.906  19.568  96.807  1.00  0.00     0.126 C 
HETATM    4  C9  UNL     1      31.082  18.829  98.024  1.00  0.00     0.204 C 
HETATM    5  O2  UNL     1      30.282  17.841  98.205  1.00  0.00    -0.288 OA
HETATM    6  C10 UNL     1      32.102  19.165  99.008  1.00  0.00     0.195 C 
HETATM    7 CL1  UNL     1      33.504  18.147  98.491  1.00  0.00    -0.113 Cl
HETATM    8  C11 UNL     1      32.495  20.628  99.146  1.00  0.00     0.121 C 
HETATM    9  C20 UNL     1      32.391  21.228  97.797  1.00  0.00     0.188 C 
HETATM   10  O3  UNL     1      33.052  22.267  97.435  1.00  0.00    -0.290 OA
ENDROOT
BRANCH   3  11
HETATM   11  O1  UNL     1      30.098  19.087  95.755  1.00  0.00    -0.341 OA
BRANCH  11  12
HETATM   12  C4  UNL     1      28.815  19.652  95.554  1.00  0.00     0.234 C 
BRANCH  12  13
HETATM   13  C5  UNL     1      27.739  18.713  95.889  1.00  0.00     0.049 A 
HETATM   14  C6  UNL     1      26.425  19.115  95.969  1.00  0.00     0.114 A 
HETATM   15  N1  UNL     1      25.512  18.173  96.285  1.00  0.00    -0.372 N 
HETATM   16  C7  UNL     1      25.838  16.883  96.520  1.00  0.00     0.104 A 
ATOM     17  H1  UNL     1      24.532  18.447  96.350  1.00  0.00     0.164 HD
HETATM   18  C8  UNL     1      27.143  16.497  96.437  1.00  0.00     0.105 A 
HETATM   19  N2  UNL     1      28.068  17.426  96.122  1.00  0.00    -0.365 N 
ATOM     20  H2  UNL     1      29.048  17.147  96.058  1.00  0.00     0.165 HD
ENDBRANCH  12  13
ENDBRANCH  11  12
ENDBRANCH   3  11
BRANCH   8  21
HETATM   21  C12 UNL     1      31.652  21.250 100.192  1.00  0.00     0.027 C 
HETATM   22  C13 UNL     1      30.858  20.149 100.934  1.00  0.00     0.014 C 
BRANCH  21  23
HETATM   23  C14 UNL     1      30.681  22.302  99.956  1.00  0.00    -0.045 C 
HETATM   24  C15 UNL     1      29.551  22.036  98.990  1.00  0.00     0.015 C 
HETATM   25  C16 UNL     1      30.044  22.663 101.301  1.00  0.00     0.015 C 
HETATM   26  C17 UNL     1      31.206  23.647  99.487  1.00  0.00     0.015 C 
ENDBRANCH  21  23
ENDBRANCH   8  21
BRANCH   8  27
HETATM   27  N3  UNL     1      33.898  20.603  99.489  1.00  0.00    -0.404 N 
HETATM   28  C18 UNL     1      34.871  20.729  98.499  1.00  0.00     0.144 C 
HETATM   29  C19 UNL     1      34.301  21.111 100.733  1.00  0.00     0.144 C 
ENDBRANCH   8  27
TORSDOF 6
ENDMDL
MODEL 2
REMARK VINA RESULT: -5.766950583      4.580      6.870
REMARK  6 active torsions:
REMARK  status: ('A' for Active; 'I' for Inactive)
REMARK    1  A    between atoms: C3_3  and  O1_4 
REMARK    2  A    between atoms: O1_4  and  C4_5 
REMARK    3  A    between atoms: C4_5  and  C5_6 
REMARK    4  A    between atoms: C11_18  and  C12_19 
REMARK    5  A    between atoms: C11_18  and  N3_25 
REMARK    6  A    between atoms: C12_19  and  C14_21 
ROOT
HETATM    1  C1  UNL     1      36.188  16.750  95.062  1.00  0.00     0.055 C 
HETATM    2  C2  UNL     1      36.607  17.521  96.291  1.00  0.00     0.024 C 
HETATM    3  C3  UNL     1      35.698  18.338  96.784  1.00  0.00     0.126 C 
HETATM    4  C9  UNL     1      36.076  19.083  97.950  1.00  0.00     0.204 C 
HETATM    5  O2  UNL     1      35.296  20.048  98.280  1.00  0.00    -0.288 OA
HETATM    6  C10 UNL     1      37.271  18.777  98.726  1.00  0.00     0.195 C 
HETATM    7 CL1  UNL     1      36.649  17.629  99.977  1.00  0.00    -0.113 Cl
HETATM    8  C11 UNL     1      38.466  18.200  97.983  1.00  0.00     0.121 C 
HETATM    9  C20 UNL     1      37.926  17.356  96.894  1.00  0.00     0.188 C 
HETATM   10  O3  UNL     1      38.576  16.382  96.367  1.00  0.00    -0.290 OA
ENDROOT
BRANCH   3  11
HETATM   11  O1  UNL     1      34.423  18.474  96.195  1.00  0.00    -0.341 OA
BRANCH  11  12
HETATM   12  C4  UNL     1      33.290  17.958  96.870  1.00  0.00     0.234 C 
BRANCH  12  13
HETATM   13  C5  UNL     1      32.048  18.194  96.126  1.00  0.00     0.049 A 
HETATM   14  C6  UNL     1      32.020  18.970  94.989  1.00  0.00     0.114 A 
HETATM   15  N1  UNL     1      30.826  19.125  94.380  1.00  0.00    -0.372 N 
HETATM   16  C7  UNL     1      29.688  18.559  94.838  1.00  0.00     0.104 A 
ATOM     17  H1  UNL     1      30.780  19.696  93.536  1.00  0.00     0.164 HD
HETATM   18  C8  UNL     1      29.728  17.793  95.965  1.00  0.00     0.105 A 
HETATM   19  N2  UNL     1      30.914  17.627  96.587  1.00  0.00    -0.365 N 
ATOM     20  H2  UNL     1      30.954  17.056  97.431  1.00  0.00     0.165 HD
ENDBRANCH  12  13
ENDBRANCH  11  12
ENDBRANCH   3  11
BRANCH   8  21
HETATM   21  C12 UNL     1      39.344  19.313  97.557  1.00  0.00     0.027 C 
HETATM   22  C13 UNL     1      38.706  20.659  97.974  1.00  0.00     0.014 C 
BRANCH  21  23
HETATM   23  C14 UNL     1      39.802  19.535  96.199  1.00  0.00    -0.045 C 
HETATM   24  C15 UNL     1      38.770  19.755  95.118  1.00  0.00     0.015 C 
HETATM   25  C16 UNL     1      40.713  20.765  96.204  1.00  0.00     0.015 C 
HETATM   26  C17 UNL     1      40.704  18.479  95.584  1.00  0.00     0.015 C 
ENDBRANCH  21  23
ENDBRANCH   8  21
BRANCH   8  27
HETATM   27  N3  UNL     1      39.096  17.311  98.931  1.00  0.00    -0.404 N 
HETATM   28  C18 UNL     1      39.121  15.936  98.704  1.00  0.00     0.144 C 
HETATM   29  C19 UNL     1      40.199  17.774  99.664  1.00  0.00     0.144 C 
ENDBRANCH   8  27
TORSDOF 6
ENDMDL
MODEL 3
REMARK VINA RESULT: -5.663893260      1.811      3.507
REMARK  6 active torsions:
REMARK  status: ('A' for Active; 'I' for Inactive)
REMARK    1  A    between atoms: C3_3  and  O1_4 
REMARK    2  A    between atoms: O1_4  and  C4_5 
REMARK    3  A    between atoms: C4_5  and  C5_6 
REMARK    4  A    between atoms: C11_18  and  C12_19 
REMARK    5  A    between atoms: C11_18  and  N3_25 
REMARK    6  A    between atoms: C12_19  and  C14_21 
ROOT
HETATM    1  C1  UNL     1      30.597  17.400  98.701  1.00  0.00     0.055 C 
HETATM    2  C2  UNL     1      31.280  18.711  98.391  1.00  0.00     0.024 C 
HETATM    3  C3  UNL     1      31.520  18.936  97.115  1.00  0.00     0.126 C 
HETATM    4  C9  UNL     1      32.170  20.175  96.798  1.00  0.00     0.204 C 
HETATM    5  O2  UNL     1      32.623  20.284  95.601  1.00  0.00    -0.288 OA
HETATM    6  C10 UNL     1      32.317  21.256  97.763  1.00  0.00     0.195 C 
HETATM    7 CL1  UNL     1      30.838  22.254  97.469  1.00  0.00    -0.113 Cl
HETATM    8  C11 UNL     1      32.453  20.879  99.230  1.00  0.00     0.121 C 
HETATM    9  C20 UNL     1      31.632  19.665  99.438  1.00  0.00     0.188 C 
HETATM   10  O3  UNL     1      31.143  19.331 100.577  1.00  0.00    -0.290 OA
ENDROOT
BRANCH   3  11
HETATM   11  O1  UNL     1      31.159  18.008  96.115  1.00  0.00    -0.341 OA
BRANCH  11  12
HETATM   12  C4  UNL     1      30.233  18.392  95.115  1.00  0.00     0.234 C 
BRANCH  12  13
HETATM   13  C5  UNL     1      28.844  18.201  95.547  1.00  0.00     0.049 A 
HETATM   14  C6  UNL     1      27.980  19.263  95.701  1.00  0.00     0.114 A 
HETATM   15  N1  UNL     1      26.723  18.979  96.103  1.00  0.00    -0.372 N 
HETATM   16  C7  UNL     1      26.297  17.722  96.351  1.00  0.00     0.104 A 
ATOM     17  H1  UNL     1      26.066  19.749  96.224  1.00  0.00     0.164 HD
HETATM   18  C8  UNL     1      27.161  16.679  96.194  1.00  0.00     0.105 A 
HETATM   19  N2  UNL     1      28.421  16.944  95.793  1.00  0.00    -0.365 N 
ATOM     20  H2  UNL     1      29.075  16.171  95.673  1.00  0.00     0.165 HD
ENDBRANCH  12  13
ENDBRANCH  11  12
ENDBRANCH   3  11
BRANCH   8  21
HETATM   21  C12 UNL     1      33.891  20.744  99.554  1.00  0.00     0.027 C 
HETATM   22  C13 UNL     1      34.731  20.991  98.279  1.00  0.00     0.014 C 
BRANCH  21  23
HETATM   23  C14 UNL     1      34.497  19.576 100.167  1.00  0.00    -0.045 C 
HETATM   24  C15 UNL     1      34.360  18.244  99.469  1.00  0.00     0.015 C 
HETATM   25  C16 UNL     1      35.996  19.850 100.319  1.00  0.00     0.015 C 
HETATM   26  C17 UNL     1      34.093  19.246 101.593  1.00  0.00     0.015 C 
ENDBRANCH  21  23
ENDBRANCH   8  21
BRANCH   8  27
HETATM   27  N3  UNL     1      31.808  21.952  99.950  1.00  0.00    -0.404 N 
HETATM   28  C18 UNL     1      30.558  21.760 100.535  1.00  0.00     0.144 C 
HETATM   29  C19 UNL     1      32.603  22.887 100.628  1.00  0.00     0.144 C 
ENDBRANCH   8  27
TORSDOF 6
ENDMDL
MODEL 4
REMARK VINA RESULT: -5.544094148      1.287      1.449
REMARK  6 active torsions:
REMARK  status: ('A' for Active; 'I' for Inactive)
REMARK    1  A    between atoms: C3_3  and  O1_4 
REMARK    2  A    between atoms: O1_4  and  C4_5 
REMARK    3  A    between atoms: C4_5  and  C5_6 
REMARK    4  A    between atoms: C11_18  and  C12_19 
REMARK    5  A    between atoms: C11_18  and  N3_25 
REMARK    6  A    between atoms: C12_19  and  C14_21 
ROOT
HETATM    1  C1  UNL     1      30.498  20.752  94.522  1.00  0.00     0.055 C 
HETATM    2  C2  UNL     1      31.087  20.054  95.725  1.00  0.00     0.024 C 
HETATM    3  C3  UNL     1      30.688  18.811  95.909  1.00  0.00     0.126 C 
HETATM    4  C9  UNL     1      31.233  18.129  97.047  1.00  0.00     0.204 C 
HETATM    5  O2  UNL     1      30.666  17.022  97.366  1.00  0.00    -0.288 OA
HETATM    6  C10 UNL     1      32.363  18.647  97.808  1.00  0.00     0.195 C 
HETATM    7 CL1  UNL     1      33.779  17.875  96.991  1.00  0.00    -0.113 Cl
HETATM    8  C11 UNL     1      32.522  20.157  97.894  1.00  0.00     0.121 C 
HETATM    9  C20 UNL     1      32.043  20.712  96.609  1.00  0.00     0.188 C 
HETATM   10  O3  UNL     1      32.429  21.844  96.141  1.00  0.00    -0.290 OA
ENDROOT
BRANCH   3  11
HETATM   11  O1  UNL     1      29.774  18.186  95.035  1.00  0.00    -0.341 OA
BRANCH  11  12
HETATM   12  C4  UNL     1      28.999  17.097  95.504  1.00  0.00     0.234 C 
BRANCH  12  13
HETATM   13  C5  UNL     1      27.626  17.496  95.831  1.00  0.00     0.049 A 
HETATM   14  C6  UNL     1      27.213  18.808  95.754  1.00  0.00     0.114 A 
HETATM   15  N1  UNL     1      25.930  19.068  96.077  1.00  0.00    -0.372 N 
HETATM   16  C7  UNL     1      25.060  18.110  96.463  1.00  0.00     0.104 A 
ATOM     17  H1  UNL     1      25.601  20.033  96.027  1.00  0.00     0.164 HD
HETATM   18  C8  UNL     1      25.479  16.814  96.536  1.00  0.00     0.105 A 
HETATM   19  N2  UNL     1      26.760  16.536  96.216  1.00  0.00    -0.365 N 
ATOM     20  H2  UNL     1      27.084  15.570  96.267  1.00  0.00     0.165 HD
ENDBRANCH  12  13
ENDBRANCH  11  12
ENDBRANCH   3  11
BRANCH   8  21
HETATM   21  C12 UNL     1      31.820  20.641  99.104  1.00  0.00     0.027 C 
HETATM   22  C13 UNL     1      31.286  19.431  99.907  1.00  0.00     0.014 C 
BRANCH  21  23
HETATM   23  C14 UNL     1      30.721  21.588  99.102  1.00  0.00    -0.045 C 
HETATM   24  C15 UNL     1      29.505  21.277  98.262  1.00  0.00     0.015 C 
HETATM   25  C16 UNL     1      30.238  21.751 100.545  1.00  0.00     0.015 C 
HETATM   26  C17 UNL     1      31.033  23.022  98.712  1.00  0.00     0.015 C 
ENDBRANCH  21  23
ENDBRANCH   8  21
BRANCH   8  27
HETATM   27  N3  UNL     1      33.950  20.376  97.941  1.00  0.00    -0.404 N 
HETATM   28  C18 UNL     1      34.465  21.667  98.035  1.00  0.00     0.144 C 
HETATM   29  C19 UNL     1      34.764  19.406  98.543  1.00  0.00     0.144 C 
ENDBRANCH   8  27
TORSDOF 6
ENDMDL
MODEL 5
REMARK VINA RESULT: -5.471989125      0.959      1.167
REMARK  6 active torsions:
REMARK  status: ('A' for Active; 'I' for Inactive)
REMARK    1  A    between atoms: C3_3  and  O1_4 
REMARK    2  A    between atoms: O1_4  and  C4_5 
REMARK    3  A    between atoms: C4_5  and  C5_6 
REMARK    4  A    between atoms: C11_18  and  C12_19 
REMARK    5  A    between atoms: C11_18  and  N3_25 
REMARK    6  A    between atoms: C12_19  and  C14_21 
ROOT
HETATM    1  C1  UNL     1      31.338  21.650  95.603  1.00  0.00     0.055 C 
HETATM    2  C2  UNL     1      31.797  20.579  96.564  1.00  0.00     0.024 C 
HETATM    3  C3  UNL     1      31.247  19.393  96.395  1.00  0.00     0.126 C 
HETATM    4  C9  UNL     1      31.667  18.362  97.299  1.00  0.00     0.204 C 
HETATM    5  O2  UNL     1      30.961  17.289  97.297  1.00  0.00    -0.288 OA
HETATM    6  C10 UNL     1      32.823  18.505  98.174  1.00  0.00     0.195 C 
HETATM    7 CL1  UNL     1      34.164  17.819  97.175  1.00  0.00    -0.113 Cl
HETATM    8  C11 UNL     1      33.158  19.900  98.677  1.00  0.00     0.121 C 
HETATM    9  C20 UNL     1      32.793  20.844  97.597  1.00  0.00     0.188 C 
HETATM   10  O3  UNL     1      33.327  22.004  97.463  1.00  0.00    -0.290 OA
ENDROOT
BRANCH   3  11
HETATM   11  O1  UNL     1      30.296  19.153  95.381  1.00  0.00    -0.341 OA
BRANCH  11  12
HETATM   12  C4  UNL     1      29.013  19.745  95.479  1.00  0.00     0.234 C 
BRANCH  12  13
HETATM   13  C5  UNL     1      27.975  18.765  95.814  1.00  0.00     0.049 A 
HETATM   14  C6  UNL     1      26.652  19.125  95.946  1.00  0.00     0.114 A 
HETATM   15  N1  UNL     1      25.777  18.146  96.258  1.00  0.00    -0.372 N 
HETATM   16  C7  UNL     1      26.146  16.860  96.438  1.00  0.00     0.104 A 
ATOM     17  H1  UNL     1      24.792  18.389  96.361  1.00  0.00     0.164 HD
HETATM   18  C8  UNL     1      27.459  16.514  96.304  1.00  0.00     0.105 A 
HETATM   19  N2  UNL     1      28.348  17.481  95.993  1.00  0.00    -0.365 N 
ATOM     20  H2  UNL     1      29.332  17.233  95.891  1.00  0.00     0.165 HD
ENDBRANCH  12  13
ENDBRANCH  11  12
ENDBRANCH   3  11
BRANCH   8  21
HETATM   21  C12 UNL     1      32.477  20.115  99.974  1.00  0.00     0.027 C 
HETATM   22  C13 UNL     1      31.183  19.267 100.020  1.00  0.00     0.014 C 
BRANCH  21  23
HETATM   23  C14 UNL     1      32.082  21.408 100.499  1.00  0.00    -0.045 C 
HETATM   24  C15 UNL     1      30.980  22.165  99.797  1.00  0.00     0.015 C 
HETATM   25  C16 UNL     1      31.635  21.210 101.949  1.00  0.00     0.015 C 
HETATM   26  C17 UNL     1      33.165  22.463 100.647  1.00  0.00     0.015 C 
ENDBRANCH  21  23
ENDBRANCH   8  21
BRANCH   8  27
HETATM   27  N3  UNL     1      34.599  19.919  98.783  1.00  0.00    -0.404 N 
HETATM   28  C18 UNL     1      35.341  20.922  98.164  1.00  0.00     0.144 C 
HETATM   29  C19 UNL     1      35.198  19.421  99.950  1.00  0.00     0.144 C 
ENDBRANCH   8  27
TORSDOF 6
ENDMDL
