MODEL 1
REMARK VINA RESULT: -6.939265731      0.000      0.000
REMARK  8 active torsions:
REMARK  status: ('A' for Active; 'I' for Inactive)
REMARK    1  A    between atoms: N1_2  and  C2_5 
REMARK    2  A    between atoms: C2_5  and  C3_6 
REMARK    3  A    between atoms: C2_5  and  C12_22 
REMARK    4  A    between atoms: C3_6  and  C4_7 
REMARK    5  A    between atoms: C4_7  and  C5_8 
REMARK    6  A    between atoms: C4_7  and  N2_10 
REMARK    7  A    between atoms: N2_10  and  N3_12 
REMARK    8  A    between atoms: C6_14  and  C7_15 
ROOT
HETATM    1  C4  UNL     1     -11.376  40.820 -24.883  1.00  0.00     0.163 C 
ENDROOT
BRANCH   1   2
HETATM    2  C3  UNL     1     -11.141  41.686 -23.701  1.00  0.00     0.076 C 
BRANCH   2   3
HETATM    3  C2  UNL     1     -10.003  41.332 -22.809  1.00  0.00     0.276 C 
BRANCH   3   4
HETATM    4  N1  UNL     1     -10.062  42.233 -21.658  1.00  0.00    -0.067 N 
HETATM    5  C1  UNL     1     -11.002  43.296 -21.838  1.00  0.00     0.267 C 
ATOM      6  H12 UNL     1      -9.137  42.598 -21.430  1.00  0.00     0.277 HD
ATOM      7  H11 UNL     1     -10.252  41.717 -20.799  1.00  0.00     0.277 HD
ENDBRANCH   3   4
BRANCH   3   8
HETATM    8  C12 UNL     1     -10.002  39.963 -22.289  1.00  0.00     0.262 C 
HETATM    9  N5  UNL     1      -9.124  38.991 -22.809  1.00  0.00    -0.060 NA
HETATM   10  O2  UNL     1     -10.784  39.636 -21.369  1.00  0.00    -0.275 OA
ENDBRANCH   3   8
ENDBRANCH   2   3
ENDBRANCH   1   2
BRANCH   1  11
HETATM   11  C5  UNL     1     -12.339  41.364 -25.851  1.00  0.00     0.257 C 
HETATM   12  O1  UNL     1     -13.431  40.866 -26.019  1.00  0.00    -0.305 OA
ENDBRANCH   1  11
BRANCH   1  13
HETATM   13  N2  UNL     1     -11.887  39.539 -24.347  1.00  0.00    -0.325 N 
ATOM     14  H2  UNL     1     -12.333  39.544 -23.429  1.00  0.00     0.181 HD
BRANCH  13  15
HETATM   15  N3  UNL     1     -11.794  38.342 -25.018  1.00  0.00    -0.315 N 
HETATM   16  C6  UNL     1     -10.953  38.109 -25.957  1.00  0.00     0.119 C 
ATOM     17  H3  UNL     1     -12.433  37.593 -24.752  1.00  0.00     0.185 HD
BRANCH  16  18
HETATM   18  C7  UNL     1     -10.926  36.817 -26.608  1.00  0.00    -0.004 A 
HETATM   19  C8  UNL     1      -9.768  36.078 -26.576  1.00  0.00     0.015 A 
HETATM   20  C9  UNL     1      -9.714  34.833 -27.195  1.00  0.00     0.018 A 
HETATM   21  C10 UNL     1     -10.834  34.356 -27.835  1.00  0.00     0.087 A 
HETATM   22  N4  UNL     1     -11.947  35.110 -27.842  1.00  0.00    -0.374 N 
HETATM   23  C11 UNL     1     -12.019  36.316 -27.250  1.00  0.00     0.100 A 
ATOM     24  H4  UNL     1     -12.775  34.751 -28.317  1.00  0.00     0.164 HD
ENDBRANCH  16  18
ENDBRANCH  13  15
ENDBRANCH   1  13
TORSDOF 8
ENDMDL
MODEL 2
REMARK VINA RESULT: -6.782797757      0.700      1.102
REMARK  8 active torsions:
REMARK  status: ('A' for Active; 'I' for Inactive)
REMARK    1  A    between atoms: N1_2  and  C2_5 
REMARK    2  A    between atoms: C2_5  and  C3_6 
REMARK    3  A    between atoms: C2_5  and  C12_22 
REMARK    4  A    between atoms: C3_6  and  C4_7 
REMARK    5  A    between atoms: C4_7  and  C5_8 
REMARK    6  A    between atoms: C4_7  and  N2_10 
REMARK    7  A    between atoms: N2_10  and  N3_12 
REMARK    8  A    between atoms: C6_14  and  C7_15 
ROOT
HETATM    1  C4  UNL     1     -11.413  40.762 -24.957  1.00  0.00     0.163 C 
ENDROOT
BRANCH   1   2
HETATM    2  C3  UNL     1     -11.169  41.609 -23.763  1.00  0.00     0.076 C 
BRANCH   2   3
HETATM    3  C2  UNL     1      -9.980  41.286 -22.926  1.00  0.00     0.276 C 
BRANCH   3   4
HETATM    4  N1  UNL     1      -9.956  42.247 -21.824  1.00  0.00    -0.067 N 
HETATM    5  C1  UNL     1     -11.036  43.182 -21.883  1.00  0.00     0.267 C 
ATOM      6  H12 UNL     1      -9.058  42.728 -21.777  1.00  0.00     0.277 HD
ATOM      7  H11 UNL     1      -9.934  41.769 -20.923  1.00  0.00     0.277 HD
ENDBRANCH   3   4
BRANCH   3   8
HETATM    8  C12 UNL     1      -9.962  39.946 -22.336  1.00  0.00     0.262 C 
HETATM    9  N5  UNL     1      -9.081  38.955 -22.815  1.00  0.00    -0.060 NA
HETATM   10  O2  UNL     1     -10.730  39.661 -21.391  1.00  0.00    -0.275 OA
ENDBRANCH   3   8
ENDBRANCH   2   3
ENDBRANCH   1   2
BRANCH   1  11
HETATM   11  C5  UNL     1     -12.381  41.324 -25.910  1.00  0.00     0.257 C 
HETATM   12  O1  UNL     1     -13.511  40.896 -26.005  1.00  0.00    -0.305 OA
ENDBRANCH   1  11
BRANCH   1  13
HETATM   13  N2  UNL     1     -11.925  39.474 -24.437  1.00  0.00    -0.325 N 
ATOM     14  H2  UNL     1     -12.479  39.486 -23.580  1.00  0.00     0.181 HD
BRANCH  13  15
HETATM   15  N3  UNL     1     -11.693  38.263 -25.046  1.00  0.00    -0.315 N 
HETATM   16  C6  UNL     1     -10.806  38.072 -25.952  1.00  0.00     0.119 C 
ATOM     17  H3  UNL     1     -12.262  37.467 -24.760  1.00  0.00     0.185 HD
BRANCH  16  18
HETATM   18  C7  UNL     1     -10.632  36.760 -26.537  1.00  0.00    -0.004 A 
HETATM   19  C8  UNL     1     -11.628  36.250 -27.335  1.00  0.00     0.015 A 
HETATM   20  C9  UNL     1     -11.487  34.991 -27.911  1.00  0.00     0.018 A 
HETATM   21  C10 UNL     1     -10.342  34.270 -27.670  1.00  0.00     0.087 A 
HETATM   22  N4  UNL     1      -9.392  34.806 -26.884  1.00  0.00    -0.374 N 
HETATM   23  C11 UNL     1      -9.509  36.021 -26.318  1.00  0.00     0.100 A 
ATOM     24  H4  UNL     1      -8.544  34.267 -26.709  1.00  0.00     0.164 HD
ENDBRANCH  16  18
ENDBRANCH  13  15
ENDBRANCH   1  13
TORSDOF 8
ENDMDL
MODEL 3
REMARK VINA RESULT: -6.703847530      2.895      6.909
REMARK  8 active torsions:
REMARK  status: ('A' for Active; 'I' for Inactive)
REMARK    1  A    between atoms: N1_2  and  C2_5 
REMARK    2  A    between atoms: C2_5  and  C3_6 
REMARK    3  A    between atoms: C2_5  and  C12_22 
REMARK    4  A    between atoms: C3_6  and  C4_7 
REMARK    5  A    between atoms: C4_7  and  C5_8 
REMARK    6  A    between atoms: C4_7  and  N2_10 
REMARK    7  A    between atoms: N2_10  and  N3_12 
REMARK    8  A    between atoms: C6_14  and  C7_15 
ROOT
HETATM    1  C4  UNL     1     -10.726  36.142 -26.511  1.00  0.00     0.163 C 
ENDROOT
BRANCH   1   2
HETATM    2  C3  UNL     1      -9.732  35.147 -26.988  1.00  0.00     0.076 C 
BRANCH   2   3
HETATM    3  C2  UNL     1      -9.080  34.287 -25.962  1.00  0.00     0.276 C 
BRANCH   3   4
HETATM    4  N1  UNL     1      -9.089  32.919 -26.480  1.00  0.00    -0.067 N 
HETATM    5  C1  UNL     1      -9.994  32.749 -27.574  1.00  0.00     0.267 C 
ATOM      6  H12 UNL     1      -9.283  32.247 -25.737  1.00  0.00     0.277 HD
ATOM      7  H11 UNL     1      -8.148  32.617 -26.733  1.00  0.00     0.277 HD
ENDBRANCH   3   4
BRANCH   3   8
HETATM    8  C12 UNL     1      -7.691  34.620 -25.640  1.00  0.00     0.262 C 
HETATM    9  N5  UNL     1      -6.684  33.634 -25.664  1.00  0.00    -0.060 NA
HETATM   10  O2  UNL     1      -7.376  35.793 -25.340  1.00  0.00    -0.275 OA
ENDBRANCH   3   8
ENDBRANCH   2   3
ENDBRANCH   1   2
BRANCH   1  11
HETATM   11  C5  UNL     1     -11.961  36.191 -27.306  1.00  0.00     0.257 C 
HETATM   12  O1  UNL     1     -12.538  35.185 -27.658  1.00  0.00    -0.305 OA
ENDBRANCH   1  11
BRANCH   1  13
HETATM   13  N2  UNL     1     -10.043  37.454 -26.580  1.00  0.00    -0.325 N 
ATOM     14  H2  UNL     1      -9.586  37.715 -27.454  1.00  0.00     0.181 HD
BRANCH  13  15
HETATM   15  N3  UNL     1      -9.993  38.339 -25.528  1.00  0.00    -0.315 N 
HETATM   16  C6  UNL     1     -11.015  38.952 -25.055  1.00  0.00     0.119 C 
ATOM     17  H3  UNL     1      -9.086  38.519 -25.098  1.00  0.00     0.185 HD
BRANCH  16  18
HETATM   18  C7  UNL     1     -10.866  39.868 -23.945  1.00  0.00    -0.004 A 
HETATM   19  C8  UNL     1     -10.349  39.400 -22.760  1.00  0.00     0.015 A 
HETATM   20  C9  UNL     1     -10.197  40.258 -21.676  1.00  0.00     0.018 A 
HETATM   21  C10 UNL     1     -10.568  41.576 -21.808  1.00  0.00     0.087 A 
HETATM   22  N4  UNL     1     -11.068  41.992 -22.985  1.00  0.00    -0.374 N 
HETATM   23  C11 UNL     1     -11.224  41.178 -24.045  1.00  0.00     0.100 A 
ATOM     24  H4  UNL     1     -11.341  42.971 -23.078  1.00  0.00     0.164 HD
ENDBRANCH  16  18
ENDBRANCH  13  15
ENDBRANCH   1  13
TORSDOF 8
ENDMDL
MODEL 4
REMARK VINA RESULT: -6.693173260      1.815      2.157
REMARK  8 active torsions:
REMARK  status: ('A' for Active; 'I' for Inactive)
REMARK    1  A    between atoms: N1_2  and  C2_5 
REMARK    2  A    between atoms: C2_5  and  C3_6 
REMARK    3  A    between atoms: C2_5  and  C12_22 
REMARK    4  A    between atoms: C3_6  and  C4_7 
REMARK    5  A    between atoms: C4_7  and  C5_8 
REMARK    6  A    between atoms: C4_7  and  N2_10 
REMARK    7  A    between atoms: N2_10  and  N3_12 
REMARK    8  A    between atoms: C6_14  and  C7_15 
ROOT
HETATM    1  C4  UNL     1     -11.614  40.078 -25.942  1.00  0.00     0.163 C 
ENDROOT
BRANCH   1   2
HETATM    2  C3  UNL     1     -11.301  39.721 -24.535  1.00  0.00     0.076 C 
BRANCH   2   3
HETATM    3  C2  UNL     1      -9.924  40.008 -24.047  1.00  0.00     0.276 C 
BRANCH   3   4
HETATM    4  N1  UNL     1      -9.847  41.448 -23.799  1.00  0.00    -0.067 N 
HETATM    5  C1  UNL     1      -8.502  41.935 -23.793  1.00  0.00     0.267 C 
ATOM      6  H12 UNL     1     -10.329  41.697 -22.935  1.00  0.00     0.277 HD
ATOM      7  H11 UNL     1     -10.421  41.965 -24.464  1.00  0.00     0.277 HD
ENDBRANCH   3   4
BRANCH   3   8
HETATM    8  C12 UNL     1      -9.533  39.332 -22.808  1.00  0.00     0.262 C 
HETATM    9  N5  UNL     1     -10.259  39.527 -21.615  1.00  0.00    -0.060 NA
HETATM   10  O2  UNL     1      -8.546  38.565 -22.791  1.00  0.00    -0.275 OA
ENDBRANCH   3   8
ENDBRANCH   2   3
ENDBRANCH   1   2
BRANCH   1  11
HETATM   11  C5  UNL     1     -12.605  41.154 -26.087  1.00  0.00     0.257 C 
HETATM   12  O1  UNL     1     -13.797  40.937 -26.057  1.00  0.00    -0.305 OA
ENDBRANCH   1  11
BRANCH   1  13
HETATM   13  N2  UNL     1     -12.136  38.840 -26.562  1.00  0.00    -0.325 N 
ATOM     14  H2  UNL     1     -12.991  38.901 -27.116  1.00  0.00     0.181 HD
BRANCH  13  15
HETATM   15  N3  UNL     1     -11.531  37.611 -26.432  1.00  0.00    -0.315 N 
HETATM   16  C6  UNL     1     -10.791  37.076 -27.332  1.00  0.00     0.119 C 
ATOM     17  H3  UNL     1     -11.681  37.094 -25.566  1.00  0.00     0.185 HD
BRANCH  16  18
HETATM   18  C7  UNL     1     -10.195  35.777 -27.107  1.00  0.00    -0.004 A 
HETATM   19  C8  UNL     1     -10.689  34.691 -27.789  1.00  0.00     0.015 A 
HETATM   20  C9  UNL     1     -10.134  33.429 -27.591  1.00  0.00     0.018 A 
HETATM   21  C10 UNL     1      -9.089  33.289 -26.709  1.00  0.00     0.087 A 
HETATM   22  N4  UNL     1      -8.636  34.378 -26.064  1.00  0.00    -0.374 N 
HETATM   23  C11 UNL     1      -9.158  35.606 -26.240  1.00  0.00     0.100 A 
ATOM     24  H4  UNL     1      -7.860  34.269 -25.410  1.00  0.00     0.164 HD
ENDBRANCH  16  18
ENDBRANCH  13  15
ENDBRANCH   1  13
TORSDOF 8
ENDMDL
MODEL 5
REMARK VINA RESULT: -6.686905695      1.527      2.181
REMARK  8 active torsions:
REMARK  status: ('A' for Active; 'I' for Inactive)
REMARK    1  A    between atoms: N1_2  and  C2_5 
REMARK    2  A    between atoms: C2_5  and  C3_6 
REMARK    3  A    between atoms: C2_5  and  C12_22 
REMARK    4  A    between atoms: C3_6  and  C4_7 
REMARK    5  A    between atoms: C4_7  and  C5_8 
REMARK    6  A    between atoms: C4_7  and  N2_10 
REMARK    7  A    between atoms: N2_10  and  N3_12 
REMARK    8  A    between atoms: C6_14  and  C7_15 
ROOT
HETATM    1  C4  UNL     1     -11.154  41.562 -25.422  1.00  0.00     0.163 C 
ENDROOT
BRANCH   1   2
HETATM    2  C3  UNL     1     -10.371  42.083 -24.273  1.00  0.00     0.076 C 
BRANCH   2   3
HETATM    3  C2  UNL     1     -11.029  42.077 -22.938  1.00  0.00     0.276 C 
BRANCH   3   4
HETATM    4  N1  UNL     1     -10.079  41.491 -21.992  1.00  0.00    -0.067 N 
HETATM    5  C1  UNL     1     -10.195  40.068 -21.906  1.00  0.00     0.267 C 
ATOM      6  H12 UNL     1     -10.166  41.921 -21.072  1.00  0.00     0.277 HD
ATOM      7  H11 UNL     1      -9.123  41.768 -22.215  1.00  0.00     0.277 HD
ENDBRANCH   3   4
BRANCH   3   8
HETATM    8  C12 UNL     1     -11.412  43.389 -22.411  1.00  0.00     0.262 C 
HETATM    9  N5  UNL     1     -10.758  43.940 -21.291  1.00  0.00    -0.060 NA
HETATM   10  O2  UNL     1     -12.330  44.043 -22.952  1.00  0.00    -0.275 OA
ENDBRANCH   3   8
ENDBRANCH   2   3
ENDBRANCH   1   2
BRANCH   1  11
HETATM   11  C5  UNL     1     -12.129  42.515 -25.970  1.00  0.00     0.257 C 
HETATM   12  O1  UNL     1     -13.200  42.155 -26.409  1.00  0.00    -0.305 OA
ENDBRANCH   1  11
BRANCH   1  13
HETATM   13  N2  UNL     1     -11.864  40.367 -24.914  1.00  0.00    -0.325 N 
ATOM     14  H2  UNL     1     -12.330  40.431 -24.008  1.00  0.00     0.181 HD
BRANCH  13  15
HETATM   15  N3  UNL     1     -11.930  39.175 -25.597  1.00  0.00    -0.315 N 
HETATM   16  C6  UNL     1     -10.935  38.382 -25.757  1.00  0.00     0.119 C 
ATOM     17  H3  UNL     1     -12.826  38.904 -26.001  1.00  0.00     0.185 HD
BRANCH  16  18
HETATM   18  C7  UNL     1     -11.098  37.147 -26.491  1.00  0.00    -0.004 A 
HETATM   19  C8  UNL     1      -9.984  36.405 -26.804  1.00  0.00     0.015 A 
HETATM   20  C9  UNL     1     -10.112  35.213 -27.511  1.00  0.00     0.018 A 
HETATM   21  C10 UNL     1     -11.365  34.791 -27.888  1.00  0.00     0.087 A 
HETATM   22  N4  UNL     1     -12.429  35.546 -27.561  1.00  0.00    -0.374 N 
HETATM   23  C11 UNL     1     -12.326  36.701 -26.879  1.00  0.00     0.100 A 
ATOM     24  H4  UNL     1     -13.356  35.227 -27.843  1.00  0.00     0.164 HD
ENDBRANCH  16  18
ENDBRANCH  13  15
ENDBRANCH   1  13
TORSDOF 8
ENDMDL
