MODEL 1
REMARK VINA RESULT: -4.433372002      0.000      0.000
REMARK  15 active torsions:
REMARK  status: ('A' for Active; 'I' for Inactive)
REMARK    1  A    between atoms: C2_2  and  C3_3 
REMARK    2  A    between atoms: C3_3  and  O1_4 
REMARK    3  A    between atoms: O1_4  and  C4_5 
REMARK    4  A    between atoms: C7_8  and  C8_9 
REMARK    5  A    between atoms: C8_9  and  C9_10 
REMARK    6  A    between atoms: C10_11  and  O2_12 
REMARK    7  A    between atoms: C11_14  and  N1_15 
REMARK    8  A    between atoms: N1_15  and  C12_17 
REMARK    9  A    between atoms: C12_17  and  C14_19 
REMARK   10  A    between atoms: N2_22  and  C17_23 
REMARK   11  A    between atoms: C17_23  and  C18_24 
REMARK   12  A    between atoms: C18_24  and  C19_25 
REMARK   13  A    between atoms: C18_24  and  C21_27 
REMARK   14  A    between atoms: C21_27  and  C22_28 
REMARK   15  A    between atoms: C25_31  and  O3_32 
ROOT
HETATM    1  C9  UNL     1      -3.296  -8.269  42.389  1.00  0.00     0.257 C 
HETATM    2  C10 UNL     1      -4.674  -8.825  42.691  1.00  0.00     0.175 C 
HETATM    3  C11 UNL     1      -5.568  -7.859  41.938  1.00  0.00     0.136 C 
HETATM    4  C16 UNL     1      -4.689  -7.359  40.854  1.00  0.00     0.300 C 
HETATM    5  N2  UNL     1      -3.415  -8.037  40.989  1.00  0.00     0.098 N 
ENDROOT
BRANCH   1   6
HETATM    6  C8  UNL     1      -2.920  -7.056  43.156  1.00  0.00     0.077 C 
BRANCH   6   7
HETATM    7  C7  UNL     1      -1.760  -7.220  44.052  1.00  0.00    -0.053 A 
HETATM    8  C6  UNL     1      -0.528  -7.499  43.514  1.00  0.00     0.010 A 
HETATM    9  C5  UNL     1       0.545  -7.645  44.364  1.00  0.00     0.040 A 
HETATM   10  C4  UNL     1       0.386  -7.515  45.728  1.00  0.00     0.102 A 
HETATM   11  C25 UNL     1      -0.830  -7.237  46.309  1.00  0.00     0.102 A 
HETATM   12  C24 UNL     1      -1.887  -7.095  45.436  1.00  0.00     0.046 A 
BRANCH  10  13
HETATM   13  O1  UNL     1       1.473  -7.663  46.579  1.00  0.00    -0.345 OA
BRANCH  13  14
HETATM   14  C3  UNL     1       2.647  -8.315  46.158  1.00  0.00     0.202 C 
BRANCH  14  15
HETATM   15  C2  UNL     1       3.779  -7.928  47.035  1.00  0.00    -0.011 C 
HETATM   16  C1  UNL     1       5.056  -8.021  46.629  1.00  0.00     0.009 C 
ENDBRANCH  14  15
ENDBRANCH  13  14
ENDBRANCH  10  13
BRANCH  11  17
HETATM   17  O3  UNL     1      -0.985  -7.106  47.686  1.00  0.00    -0.353 OA
HETATM   18  C26 UNL     1      -2.132  -7.540  48.354  1.00  0.00     0.210 C 
ENDBRANCH  11  17
ENDBRANCH   6   7
ENDBRANCH   1   6
BRANCH   2  19
HETATM   19  O2  UNL     1      -4.720 -10.079  42.055  1.00  0.00    -0.391 OA
ATOM     20  H2  UNL     1      -5.549 -10.098  41.591  1.00  0.00     0.210 HD
ENDBRANCH   2  19
BRANCH   5  21
HETATM   21  C17 UNL     1      -2.337  -7.330  40.380  1.00  0.00     0.281 C 
BRANCH  21  22
HETATM   22  C18 UNL     1      -2.085  -7.875  38.999  1.00  0.00     0.036 C 
BRANCH  22  23
HETATM   23  C19 UNL     1      -0.960  -8.844  39.070  1.00  0.00    -0.030 C 
HETATM   24  C20 UNL     1       0.086  -8.608  39.840  1.00  0.00     0.007 C 
ENDBRANCH  22  23
BRANCH  22  25
HETATM   25  C21 UNL     1      -1.752  -6.763  38.024  1.00  0.00     0.010 C 
BRANCH  25  26
HETATM   26  C22 UNL     1      -2.717  -6.680  36.887  1.00  0.00    -0.004 C 
HETATM   27  C23 UNL     1      -4.019  -7.415  37.146  1.00  0.00     0.005 C 
ENDBRANCH  25  26
ENDBRANCH  22  25
ENDBRANCH  21  22
ENDBRANCH   5  21
BRANCH   3  28
HETATM   28  N1  UNL     1      -6.878  -8.215  41.717  1.00  0.00    -0.409 N 
ATOM     29  H1  UNL     1      -7.501  -8.184  42.523  1.00  0.00     0.154 HD
BRANCH  28  30
HETATM   30  C12 UNL     1      -7.444  -8.612  40.512  1.00  0.00     0.072 C 
HETATM   31  C13 UNL     1      -8.056  -7.527  39.693  1.00  0.00     0.031 C 
BRANCH  30  32
HETATM   32  C14 UNL     1      -8.488  -9.700  40.845  1.00  0.00     0.020 C 
HETATM   33  C15 UNL     1      -8.541 -10.031  42.298  1.00  0.00     0.007 C 
ENDBRANCH  30  32
ENDBRANCH  28  30
ENDBRANCH   3  28
TORSDOF 15
ENDMDL
MODEL 2
REMARK VINA RESULT: -4.419619017      5.891      8.132
REMARK  15 active torsions:
REMARK  status: ('A' for Active; 'I' for Inactive)
REMARK    1  A    between atoms: C2_2  and  C3_3 
REMARK    2  A    between atoms: C3_3  and  O1_4 
REMARK    3  A    between atoms: O1_4  and  C4_5 
REMARK    4  A    between atoms: C7_8  and  C8_9 
REMARK    5  A    between atoms: C8_9  and  C9_10 
REMARK    6  A    between atoms: C10_11  and  O2_12 
REMARK    7  A    between atoms: C11_14  and  N1_15 
REMARK    8  A    between atoms: N1_15  and  C12_17 
REMARK    9  A    between atoms: C12_17  and  C14_19 
REMARK   10  A    between atoms: N2_22  and  C17_23 
REMARK   11  A    between atoms: C17_23  and  C18_24 
REMARK   12  A    between atoms: C18_24  and  C19_25 
REMARK   13  A    between atoms: C18_24  and  C21_27 
REMARK   14  A    between atoms: C21_27  and  C22_28 
REMARK   15  A    between atoms: C25_31  and  O3_32 
ROOT
HETATM    1  C9  UNL     1       0.939  -6.963  37.103  1.00  0.00     0.257 C 
HETATM    2  C10 UNL     1      -0.144  -7.201  38.138  1.00  0.00     0.175 C 
HETATM    3  C11 UNL     1      -1.264  -6.321  37.620  1.00  0.00     0.136 C 
HETATM    4  C16 UNL     1      -0.994  -6.248  36.165  1.00  0.00     0.300 C 
HETATM    5  N2  UNL     1       0.175  -7.066  35.905  1.00  0.00     0.098 N 
ENDROOT
BRANCH   1   6
HETATM    6  C8  UNL     1       1.664  -5.674  37.229  1.00  0.00     0.077 C 
BRANCH   6   7
HETATM    7  C7  UNL     1       3.119  -5.795  37.435  1.00  0.00    -0.053 A 
HETATM    8  C6  UNL     1       3.970  -5.018  36.689  1.00  0.00     0.010 A 
HETATM    9  C5  UNL     1       5.326  -5.140  36.895  1.00  0.00     0.040 A 
HETATM   10  C4  UNL     1       5.819  -6.024  37.831  1.00  0.00     0.102 A 
HETATM   11  C25 UNL     1       5.002  -6.822  38.599  1.00  0.00     0.102 A 
HETATM   12  C24 UNL     1       3.650  -6.681  38.373  1.00  0.00     0.046 A 
BRANCH  10  13
HETATM   13  O1  UNL     1       7.188  -6.141  38.034  1.00  0.00    -0.345 OA
BRANCH  13  14
HETATM   14  C3  UNL     1       8.074  -5.121  37.641  1.00  0.00     0.202 C 
BRANCH  14  15
HETATM   15  C2  UNL     1       9.051  -5.655  36.661  1.00  0.00    -0.011 C 
HETATM   16  C1  UNL     1       8.770  -5.732  35.349  1.00  0.00     0.009 C 
ENDBRANCH  14  15
ENDBRANCH  13  14
ENDBRANCH  10  13
BRANCH  11  17
HETATM   17  O3  UNL     1       5.505  -7.713  39.542  1.00  0.00    -0.353 OA
HETATM   18  C26 UNL     1       5.509  -9.095  39.338  1.00  0.00     0.210 C 
ENDBRANCH  11  17
ENDBRANCH   6   7
ENDBRANCH   1   6
BRANCH   2  19
HETATM   19  O2  UNL     1      -0.517  -8.550  37.986  1.00  0.00    -0.391 OA
ATOM     20  H2  UNL     1      -1.311  -8.652  38.496  1.00  0.00     0.210 HD
ENDBRANCH   2  19
BRANCH   5  21
HETATM   21  C17 UNL     1       0.851  -6.711  34.702  1.00  0.00     0.281 C 
BRANCH  21  22
HETATM   22  C18 UNL     1       1.163  -7.950  33.907  1.00  0.00     0.036 C 
BRANCH  22  23
HETATM   23  C19 UNL     1       2.570  -7.868  33.433  1.00  0.00    -0.030 C 
HETATM   24  C20 UNL     1       3.574  -7.913  34.289  1.00  0.00     0.007 C 
ENDBRANCH  22  23
BRANCH  22  25
HETATM   25  C21 UNL     1       0.226  -8.093  32.724  1.00  0.00     0.010 C 
BRANCH  25  26
HETATM   26  C22 UNL     1       0.663  -7.301  31.537  1.00  0.00    -0.004 C 
HETATM   27  C23 UNL     1      -0.072  -7.670  30.261  1.00  0.00     0.005 C 
ENDBRANCH  25  26
ENDBRANCH  22  25
ENDBRANCH  21  22
ENDBRANCH   5  21
BRANCH   3  28
HETATM   28  N1  UNL     1      -2.531  -6.508  38.124  1.00  0.00    -0.409 N 
ATOM     29  H1  UNL     1      -2.597  -6.973  39.029  1.00  0.00     0.154 HD
BRANCH  28  30
HETATM   30  C12 UNL     1      -3.729  -6.131  37.532  1.00  0.00     0.072 C 
HETATM   31  C13 UNL     1      -4.736  -5.512  38.442  1.00  0.00     0.031 C 
BRANCH  30  32
HETATM   32  C14 UNL     1      -4.309  -7.389  36.852  1.00  0.00     0.020 C 
HETATM   33  C15 UNL     1      -4.729  -7.147  35.442  1.00  0.00     0.007 C 
ENDBRANCH  30  32
ENDBRANCH  28  30
ENDBRANCH   3  28
TORSDOF 15
ENDMDL
MODEL 3
REMARK VINA RESULT: -4.406425863      3.072      6.025
REMARK  15 active torsions:
REMARK  status: ('A' for Active; 'I' for Inactive)
REMARK    1  A    between atoms: C2_2  and  C3_3 
REMARK    2  A    between atoms: C3_3  and  O1_4 
REMARK    3  A    between atoms: O1_4  and  C4_5 
REMARK    4  A    between atoms: C7_8  and  C8_9 
REMARK    5  A    between atoms: C8_9  and  C9_10 
REMARK    6  A    between atoms: C10_11  and  O2_12 
REMARK    7  A    between atoms: C11_14  and  N1_15 
REMARK    8  A    between atoms: N1_15  and  C12_17 
REMARK    9  A    between atoms: C12_17  and  C14_19 
REMARK   10  A    between atoms: N2_22  and  C17_23 
REMARK   11  A    between atoms: C17_23  and  C18_24 
REMARK   12  A    between atoms: C18_24  and  C19_25 
REMARK   13  A    between atoms: C18_24  and  C21_27 
REMARK   14  A    between atoms: C21_27  and  C22_28 
REMARK   15  A    between atoms: C25_31  and  O3_32 
ROOT
HETATM    1  C9  UNL     1      -0.279  -6.569  43.828  1.00  0.00     0.257 C 
HETATM    2  C10 UNL     1      -0.317  -6.235  42.349  1.00  0.00     0.175 C 
HETATM    3  C11 UNL     1      -1.359  -7.210  41.840  1.00  0.00     0.136 C 
HETATM    4  C16 UNL     1      -2.202  -7.461  43.033  1.00  0.00     0.300 C 
HETATM    5  N2  UNL     1      -1.672  -6.646  44.109  1.00  0.00     0.098 N 
ENDROOT
BRANCH   1   6
HETATM    6  C8  UNL     1       0.461  -7.807  44.179  1.00  0.00     0.077 C 
BRANCH   6   7
HETATM    7  C7  UNL     1       1.621  -7.609  45.067  1.00  0.00    -0.053 A 
HETATM    8  C6  UNL     1       1.756  -8.396  46.184  1.00  0.00     0.010 A 
HETATM    9  C5  UNL     1       2.847  -8.201  47.001  1.00  0.00     0.040 A 
HETATM   10  C4  UNL     1       3.785  -7.235  46.704  1.00  0.00     0.102 A 
HETATM   11  C25 UNL     1       3.689  -6.424  45.596  1.00  0.00     0.102 A 
HETATM   12  C24 UNL     1       2.588  -6.640  44.796  1.00  0.00     0.046 A 
BRANCH  10  13
HETATM   13  O1  UNL     1       4.883  -7.045  47.532  1.00  0.00    -0.345 OA
BRANCH  13  14
HETATM   14  C3  UNL     1       5.742  -8.110  47.863  1.00  0.00     0.202 C 
BRANCH  14  15
HETATM   15  C2  UNL     1       6.281  -8.724  46.625  1.00  0.00    -0.011 C 
HETATM   16  C1  UNL     1       7.542  -8.504  46.215  1.00  0.00     0.009 C 
ENDBRANCH  14  15
ENDBRANCH  13  14
ENDBRANCH  10  13
BRANCH  11  17
HETATM   17  O3  UNL     1       4.639  -5.451  45.302  1.00  0.00    -0.353 OA
HETATM   18  C26 UNL     1       5.667  -5.665  44.382  1.00  0.00     0.210 C 
ENDBRANCH  11  17
ENDBRANCH   6   7
ENDBRANCH   1   6
BRANCH   2  19
HETATM   19  O2  UNL     1      -0.838  -4.929  42.274  1.00  0.00    -0.391 OA
ATOM     20  H2  UNL     1      -0.385  -4.518  41.548  1.00  0.00     0.210 HD
ENDBRANCH   2  19
BRANCH   5  21
HETATM   21  C17 UNL     1      -2.022  -7.130  45.403  1.00  0.00     0.281 C 
BRANCH  21  22
HETATM   22  C18 UNL     1      -1.364  -6.284  46.460  1.00  0.00     0.036 C 
BRANCH  22  23
HETATM   23  C19 UNL     1      -1.395  -7.026  47.748  1.00  0.00    -0.030 C 
HETATM   24  C20 UNL     1      -2.162  -8.090  47.895  1.00  0.00     0.007 C 
ENDBRANCH  22  23
BRANCH  22  25
HETATM   25  C21 UNL     1      -2.070  -4.951  46.612  1.00  0.00     0.010 C 
BRANCH  25  26
HETATM   26  C22 UNL     1      -1.181  -3.787  46.324  1.00  0.00    -0.004 C 
HETATM   27  C23 UNL     1       0.296  -4.105  46.471  1.00  0.00     0.005 C 
ENDBRANCH  25  26
ENDBRANCH  22  25
ENDBRANCH  21  22
ENDBRANCH   5  21
BRANCH   3  28
HETATM   28  N1  UNL     1      -1.897  -7.001  40.591  1.00  0.00    -0.409 N 
ATOM     29  H1  UNL     1      -2.192  -6.049  40.376  1.00  0.00     0.154 HD
BRANCH  28  30
HETATM   30  C12 UNL     1      -2.081  -7.947  39.591  1.00  0.00     0.072 C 
HETATM   31  C13 UNL     1      -0.939  -8.876  39.358  1.00  0.00     0.031 C 
BRANCH  30  32
HETATM   32  C14 UNL     1      -2.428  -7.174  38.301  1.00  0.00     0.020 C 
HETATM   33  C15 UNL     1      -3.895  -7.093  38.046  1.00  0.00     0.007 C 
ENDBRANCH  30  32
ENDBRANCH  28  30
ENDBRANCH   3  28
TORSDOF 15
ENDMDL
MODEL 4
REMARK VINA RESULT: -4.368400838      5.844      7.682
REMARK  15 active torsions:
REMARK  status: ('A' for Active; 'I' for Inactive)
REMARK    1  A    between atoms: C2_2  and  C3_3 
REMARK    2  A    between atoms: C3_3  and  O1_4 
REMARK    3  A    between atoms: O1_4  and  C4_5 
REMARK    4  A    between atoms: C7_8  and  C8_9 
REMARK    5  A    between atoms: C8_9  and  C9_10 
REMARK    6  A    between atoms: C10_11  and  O2_12 
REMARK    7  A    between atoms: C11_14  and  N1_15 
REMARK    8  A    between atoms: N1_15  and  C12_17 
REMARK    9  A    between atoms: C12_17  and  C14_19 
REMARK   10  A    between atoms: N2_22  and  C17_23 
REMARK   11  A    between atoms: C17_23  and  C18_24 
REMARK   12  A    between atoms: C18_24  and  C19_25 
REMARK   13  A    between atoms: C18_24  and  C21_27 
REMARK   14  A    between atoms: C21_27  and  C22_28 
REMARK   15  A    between atoms: C25_31  and  O3_32 
ROOT
HETATM    1  C9  UNL     1      -1.348  -6.309  35.204  1.00  0.00     0.257 C 
HETATM    2  C10 UNL     1      -2.681  -6.201  35.919  1.00  0.00     0.175 C 
HETATM    3  C11 UNL     1      -3.374  -5.115  35.119  1.00  0.00     0.136 C 
HETATM    4  C16 UNL     1      -2.735  -5.217  33.786  1.00  0.00     0.300 C 
HETATM    5  N2  UNL     1      -1.785  -6.310  33.849  1.00  0.00     0.098 N 
ENDROOT
BRANCH   1   6
HETATM    6  C8  UNL     1      -0.377  -5.228  35.508  1.00  0.00     0.077 C 
BRANCH   6   7
HETATM    7  C7  UNL     1       0.702  -5.604  36.440  1.00  0.00    -0.053 A 
HETATM    8  C6  UNL     1       1.961  -5.090  36.253  1.00  0.00     0.010 A 
HETATM    9  C5  UNL     1       2.958  -5.448  37.134  1.00  0.00     0.040 A 
HETATM   10  C4  UNL     1       2.696  -6.306  38.181  1.00  0.00     0.102 A 
HETATM   11  C25 UNL     1       1.449  -6.844  38.405  1.00  0.00     0.102 A 
HETATM   12  C24 UNL     1       0.471  -6.470  37.510  1.00  0.00     0.046 A 
BRANCH  10  13
HETATM   13  O1  UNL     1       3.705  -6.661  39.067  1.00  0.00    -0.345 OA
BRANCH  13  14
HETATM   14  C3  UNL     1       4.939  -7.158  38.606  1.00  0.00     0.202 C 
BRANCH  14  15
HETATM   15  C2  UNL     1       4.932  -8.640  38.653  1.00  0.00    -0.011 C 
HETATM   16  C1  UNL     1       5.682  -9.326  39.532  1.00  0.00     0.009 C 
ENDBRANCH  14  15
ENDBRANCH  13  14
ENDBRANCH  10  13
BRANCH  11  17
HETATM   17  O3  UNL     1       1.191  -7.709  39.464  1.00  0.00    -0.353 OA
HETATM   18  C26 UNL     1       0.029  -8.481  39.533  1.00  0.00     0.210 C 
ENDBRANCH  11  17
ENDBRANCH   6   7
ENDBRANCH   1   6
BRANCH   2  19
HETATM   19  O2  UNL     1      -3.332  -7.426  35.684  1.00  0.00    -0.391 OA
ATOM     20  H2  UNL     1      -4.218  -7.197  35.428  1.00  0.00     0.210 HD
ENDBRANCH   2  19
BRANCH   5  21
HETATM   21  C17 UNL     1      -0.759  -6.218  32.863  1.00  0.00     0.281 C 
BRANCH  21  22
HETATM   22  C18 UNL     1      -0.266  -7.596  32.510  1.00  0.00     0.036 C 
BRANCH  22  23
HETATM   23  C19 UNL     1       1.192  -7.665  32.794  1.00  0.00    -0.030 C 
HETATM   24  C20 UNL     1       1.641  -8.282  33.871  1.00  0.00     0.007 C 
ENDBRANCH  22  23
BRANCH  22  25
HETATM   25  C21 UNL     1      -0.526  -7.914  31.050  1.00  0.00     0.010 C 
BRANCH  25  26
HETATM   26  C22 UNL     1      -1.906  -8.427  30.805  1.00  0.00    -0.004 C 
HETATM   27  C23 UNL     1      -1.940  -9.876  30.354  1.00  0.00     0.005 C 
ENDBRANCH  25  26
ENDBRANCH  22  25
ENDBRANCH  21  22
ENDBRANCH   5  21
BRANCH   3  28
HETATM   28  N1  UNL     1      -4.731  -4.952  35.273  1.00  0.00    -0.409 N 
ATOM     29  H1  UNL     1      -5.044  -4.553  36.157  1.00  0.00     0.154 HD
BRANCH  28  30
HETATM   30  C12 UNL     1      -5.721  -5.272  34.352  1.00  0.00     0.072 C 
HETATM   31  C13 UNL     1      -6.548  -4.131  33.865  1.00  0.00     0.031 C 
BRANCH  30  32
HETATM   32  C14 UNL     1      -6.610  -6.351  35.008  1.00  0.00     0.020 C 
HETATM   33  C15 UNL     1      -7.045  -7.408  34.051  1.00  0.00     0.007 C 
ENDBRANCH  30  32
ENDBRANCH  28  30
ENDBRANCH   3  28
TORSDOF 15
ENDMDL
MODEL 5
REMARK VINA RESULT: -4.339005402      6.388     11.675
REMARK  15 active torsions:
REMARK  status: ('A' for Active; 'I' for Inactive)
REMARK    1  A    between atoms: C2_2  and  C3_3 
REMARK    2  A    between atoms: C3_3  and  O1_4 
REMARK    3  A    between atoms: O1_4  and  C4_5 
REMARK    4  A    between atoms: C7_8  and  C8_9 
REMARK    5  A    between atoms: C8_9  and  C9_10 
REMARK    6  A    between atoms: C10_11  and  O2_12 
REMARK    7  A    between atoms: C11_14  and  N1_15 
REMARK    8  A    between atoms: N1_15  and  C12_17 
REMARK    9  A    between atoms: C12_17  and  C14_19 
REMARK   10  A    between atoms: N2_22  and  C17_23 
REMARK   11  A    between atoms: C17_23  and  C18_24 
REMARK   12  A    between atoms: C18_24  and  C19_25 
REMARK   13  A    between atoms: C18_24  and  C21_27 
REMARK   14  A    between atoms: C21_27  and  C22_28 
REMARK   15  A    between atoms: C25_31  and  O3_32 
ROOT
HETATM    1  C9  UNL     1       4.381  -6.578  37.723  1.00  0.00     0.257 C 
HETATM    2  C10 UNL     1       5.607  -6.736  38.601  1.00  0.00     0.175 C 
HETATM    3  C11 UNL     1       5.644  -5.402  39.321  1.00  0.00     0.136 C 
HETATM    4  C16 UNL     1       4.226  -4.971  39.311  1.00  0.00     0.300 C 
HETATM    5  N2  UNL     1       3.465  -6.020  38.660  1.00  0.00     0.098 N 
ENDROOT
BRANCH   1   6
HETATM    6  C8  UNL     1       4.570  -5.737  36.515  1.00  0.00     0.077 C 
BRANCH   6   7
HETATM    7  C7  UNL     1       3.810  -6.171  35.328  1.00  0.00    -0.053 A 
HETATM    8  C6  UNL     1       3.815  -7.498  34.975  1.00  0.00     0.010 A 
HETATM    9  C5  UNL     1       3.097  -7.888  33.866  1.00  0.00     0.040 A 
HETATM   10  C4  UNL     1       2.389  -6.965  33.126  1.00  0.00     0.102 A 
HETATM   11  C25 UNL     1       2.358  -5.626  33.444  1.00  0.00     0.102 A 
HETATM   12  C24 UNL     1       3.084  -5.263  34.557  1.00  0.00     0.046 A 
BRANCH  10  13
HETATM   13  O1  UNL     1       1.666  -7.366  32.010  1.00  0.00    -0.345 OA
BRANCH  13  14
HETATM   14  C3  UNL     1       0.327  -7.784  32.118  1.00  0.00     0.202 C 
BRANCH  14  15
HETATM   15  C2  UNL     1      -0.321  -7.743  30.784  1.00  0.00    -0.011 C 
HETATM   16  C1  UNL     1      -1.357  -8.541  30.474  1.00  0.00     0.009 C 
ENDBRANCH  14  15
ENDBRANCH  13  14
ENDBRANCH  10  13
BRANCH  11  17
HETATM   17  O3  UNL     1       1.640  -4.699  32.693  1.00  0.00    -0.353 OA
HETATM   18  C26 UNL     1       0.432  -4.156  33.134  1.00  0.00     0.210 C 
ENDBRANCH  11  17
ENDBRANCH   6   7
ENDBRANCH   1   6
BRANCH   2  19
HETATM   19  O2  UNL     1       5.278  -7.745  39.526  1.00  0.00    -0.391 OA
ATOM     20  H2  UNL     1       5.504  -7.390  40.378  1.00  0.00     0.210 HD
ENDBRANCH   2  19
BRANCH   5  21
HETATM   21  C17 UNL     1       2.226  -5.563  38.125  1.00  0.00     0.281 C 
BRANCH  21  22
HETATM   22  C18 UNL     1       1.286  -6.726  37.949  1.00  0.00     0.036 C 
BRANCH  22  23
HETATM   23  C19 UNL     1       0.334  -6.404  36.854  1.00  0.00    -0.030 C 
HETATM   24  C20 UNL     1       0.065  -7.289  35.912  1.00  0.00     0.007 C 
ENDBRANCH  22  23
BRANCH  22  25
HETATM   25  C21 UNL     1       0.526  -7.015  39.229  1.00  0.00     0.010 C 
BRANCH  25  26
HETATM   26  C22 UNL     1       0.328  -8.475  39.469  1.00  0.00    -0.004 C 
HETATM   27  C23 UNL     1      -1.113  -8.924  39.307  1.00  0.00     0.005 C 
ENDBRANCH  25  26
ENDBRANCH  22  25
ENDBRANCH  21  22
ENDBRANCH   5  21
BRANCH   3  28
HETATM   28  N1  UNL     1       6.441  -5.282  40.437  1.00  0.00    -0.409 N 
ATOM     29  H1  UNL     1       7.284  -5.854  40.458  1.00  0.00     0.154 HD
BRANCH  28  30
HETATM   30  C12 UNL     1       6.220  -4.464  41.537  1.00  0.00     0.072 C 
HETATM   31  C13 UNL     1       7.405  -3.707  42.032  1.00  0.00     0.031 C 
BRANCH  30  32
HETATM   32  C14 UNL     1       5.640  -5.360  42.652  1.00  0.00     0.020 C 
HETATM   33  C15 UNL     1       6.000  -4.893  44.021  1.00  0.00     0.007 C 
ENDBRANCH  30  32
ENDBRANCH  28  30
ENDBRANCH   3  28
TORSDOF 15
ENDMDL
