MODEL 1
REMARK VINA RESULT: -5.000878620      0.000      0.000
REMARK  14 active torsions:
REMARK  status: ('A' for Active; 'I' for Inactive)
REMARK    1  A    between atoms: C2_2  and  C3_3 
REMARK    2  A    between atoms: C2_2  and  C21_26 
REMARK    3  A    between atoms: C4_4  and  C5_5 
REMARK    4  A    between atoms: C11_12  and  C12_13 
REMARK    5  A    between atoms: C12_13  and  C13_14 
REMARK    6  A    between atoms: C14_15  and  C15_16 
REMARK    7  A    between atoms: C15_16  and  C16_17 
REMARK    8  A    between atoms: C16_17  and  C17_18 
REMARK    9  A    between atoms: C17_18  and  C18_19 
REMARK       I    between atoms: C18_19  and  N1_21 
REMARK   10  A    between atoms: N1_21  and  C19_23 
REMARK   11  A    between atoms: C21_26  and  C22_27 
REMARK   12  A    between atoms: C22_27  and  C23_28 
REMARK   13  A    between atoms: C23_28  and  O3_29 
REMARK   14  A    between atoms: C23_28  and  C24_31 
ROOT
HETATM    1  C19 UNL     1      -1.783  -8.432  39.801  1.00  0.00     0.247 C 
HETATM    2  C20 UNL     1      -0.334  -8.499  39.728  1.00  0.00     0.078 C 
HETATM    3  N2  UNL     1       0.827  -8.544  39.667  1.00  0.00    -0.196 NA
ENDROOT
BRANCH   1   4
HETATM    4  N1  UNL     1      -2.370  -8.233  38.494  1.00  0.00    -0.349 N 
HETATM    5  C18 UNL     1      -3.514  -7.361  38.415  1.00  0.00     0.218 C 
HETATM    6  O2  UNL     1      -3.956  -6.814  39.457  1.00  0.00    -0.274 OA
ATOM      7  H1  UNL     1      -1.990  -8.690  37.665  1.00  0.00     0.163 HD
BRANCH   5   8
HETATM    8  C17 UNL     1      -4.094  -7.175  37.070  1.00  0.00     0.103 C 
BRANCH   8   9
HETATM    9  C16 UNL     1      -3.053  -6.754  36.087  1.00  0.00     0.013 C 
BRANCH   9  10
HETATM   10  C15 UNL     1      -3.745  -6.322  34.786  1.00  0.00     0.027 C 
BRANCH  10  11
HETATM   11  C14 UNL     1      -3.035  -5.156  34.206  1.00  0.00    -0.031 C 
HETATM   12  C13 UNL     1      -2.128  -5.254  33.289  1.00  0.00    -0.030 C 
BRANCH  12  13
HETATM   13  C12 UNL     1      -1.665  -6.520  32.680  1.00  0.00     0.034 C 
BRANCH  13  14
HETATM   14  C11 UNL     1      -0.179  -6.619  32.932  1.00  0.00     0.026 C 
HETATM   15  C5  UNL     1       0.510  -7.509  31.847  1.00  0.00     0.021 C 
HETATM   16  C6  UNL     1       1.931  -7.450  32.270  1.00  0.00     0.019 C 
HETATM   17  C7  UNL     1       2.432  -6.001  32.323  1.00  0.00     0.013 C 
HETATM   18  C8  UNL     1       1.957  -7.887  33.737  1.00  0.00     0.128 C 
HETATM   19  C9  UNL     1       0.757  -8.586  34.231  1.00  0.00     0.064 C 
HETATM   20  O1  UNL     1       1.527  -6.774  34.519  1.00  0.00    -0.380 OA
HETATM   21  C10 UNL     1       0.199  -7.198  34.246  1.00  0.00     0.129 C 
BRANCH  15  22
HETATM   22  C4  UNL     1       0.106  -7.168  30.504  1.00  0.00    -0.025 C 
HETATM   23  C3  UNL     1      -0.366  -7.691  29.450  1.00  0.00    -0.026 C 
BRANCH  23  24
HETATM   24  C2  UNL     1      -0.753  -9.050  29.133  1.00  0.00     0.004 C 
HETATM   25  C1  UNL     1      -1.164  -9.134  27.678  1.00  0.00     0.014 C 
BRANCH  24  26
HETATM   26  C21 UNL     1      -1.923  -9.565  30.025  1.00  0.00     0.010 C 
BRANCH  26  27
HETATM   27  C22 UNL     1      -3.149  -9.816  29.257  1.00  0.00     0.033 C 
BRANCH  27  28
HETATM   28  C23 UNL     1      -4.289  -8.911  29.549  1.00  0.00     0.121 C 
BRANCH  28  29
HETATM   29  O3  UNL     1      -5.387  -9.761  29.906  1.00  0.00    -0.395 OA
ATOM     30  H3  UNL     1      -5.144 -10.171  30.727  1.00  0.00     0.210 HD
ENDBRANCH  28  29
BRANCH  28  31
HETATM   31  C24 UNL     1      -4.141  -7.875  30.582  1.00  0.00     0.006 C 
HETATM   32  C25 UNL     1      -4.287  -6.451  30.203  1.00  0.00     0.012 C 
HETATM   33  C26 UNL     1      -5.135  -8.212  31.717  1.00  0.00     0.012 C 
ENDBRANCH  28  31
ENDBRANCH  27  28
ENDBRANCH  26  27
ENDBRANCH  24  26
ENDBRANCH  23  24
ENDBRANCH  15  22
ENDBRANCH  13  14
ENDBRANCH  12  13
ENDBRANCH  10  11
ENDBRANCH   9  10
ENDBRANCH   8   9
ENDBRANCH   5   8
ENDBRANCH   1   4
TORSDOF 14
ENDMDL
MODEL 2
REMARK VINA RESULT: -4.814866496      2.883      6.053
REMARK  14 active torsions:
REMARK  status: ('A' for Active; 'I' for Inactive)
REMARK    1  A    between atoms: C2_2  and  C3_3 
REMARK    2  A    between atoms: C2_2  and  C21_26 
REMARK    3  A    between atoms: C4_4  and  C5_5 
REMARK    4  A    between atoms: C11_12  and  C12_13 
REMARK    5  A    between atoms: C12_13  and  C13_14 
REMARK    6  A    between atoms: C14_15  and  C15_16 
REMARK    7  A    between atoms: C15_16  and  C16_17 
REMARK    8  A    between atoms: C16_17  and  C17_18 
REMARK    9  A    between atoms: C17_18  and  C18_19 
REMARK       I    between atoms: C18_19  and  N1_21 
REMARK   10  A    between atoms: N1_21  and  C19_23 
REMARK   11  A    between atoms: C21_26  and  C22_27 
REMARK   12  A    between atoms: C22_27  and  C23_28 
REMARK   13  A    between atoms: C23_28  and  O3_29 
REMARK   14  A    between atoms: C23_28  and  C24_31 
ROOT
HETATM    1  C19 UNL     1      -4.368  -9.385  29.990  1.00  0.00     0.247 C 
HETATM    2  C20 UNL     1      -3.135 -10.008  30.439  1.00  0.00     0.078 C 
HETATM    3  N2  UNL     1      -2.151 -10.508  30.806  1.00  0.00    -0.196 NA
ENDROOT
BRANCH   1   4
HETATM    4  N1  UNL     1      -4.677  -8.204  30.766  1.00  0.00    -0.349 N 
HETATM    5  C18 UNL     1      -5.153  -8.409  32.110  1.00  0.00     0.218 C 
HETATM    6  O2  UNL     1      -5.282  -9.578  32.556  1.00  0.00    -0.274 OA
ATOM      7  H1  UNL     1      -4.563  -7.267  30.379  1.00  0.00     0.163 HD
BRANCH   5   8
HETATM    8  C17 UNL     1      -5.461  -7.188  32.881  1.00  0.00     0.103 C 
BRANCH   8   9
HETATM    9  C16 UNL     1      -5.574  -7.485  34.339  1.00  0.00     0.013 C 
BRANCH   9  10
HETATM   10  C15 UNL     1      -4.614  -6.566  35.109  1.00  0.00     0.027 C 
BRANCH  10  11
HETATM   11  C14 UNL     1      -4.553  -6.985  36.530  1.00  0.00    -0.031 C 
HETATM   12  C13 UNL     1      -3.462  -7.001  37.225  1.00  0.00    -0.030 C 
BRANCH  12  13
HETATM   13  C12 UNL     1      -2.127  -6.607  36.724  1.00  0.00     0.034 C 
BRANCH  13  14
HETATM   14  C11 UNL     1      -1.166  -6.716  37.885  1.00  0.00     0.026 C 
HETATM   15  C5  UNL     1       0.231  -7.223  37.403  1.00  0.00     0.021 C 
HETATM   16  C6  UNL     1       1.000  -7.235  38.673  1.00  0.00     0.019 C 
HETATM   17  C7  UNL     1       1.012  -5.845  39.323  1.00  0.00     0.013 C 
HETATM   18  C8  UNL     1       0.185  -8.079  39.656  1.00  0.00     0.128 C 
HETATM   19  C9  UNL     1      -0.859  -8.938  39.070  1.00  0.00     0.064 C 
HETATM   20  O1  UNL     1      -0.879  -7.260  40.138  1.00  0.00    -0.380 OA
HETATM   21  C10 UNL     1      -1.592  -7.637  38.969  1.00  0.00     0.129 C 
BRANCH  15  22
HETATM   22  C4  UNL     1       0.710  -6.523  36.235  1.00  0.00    -0.025 C 
HETATM   23  C3  UNL     1       1.177  -6.735  35.076  1.00  0.00    -0.026 C 
BRANCH  23  24
HETATM   24  C2  UNL     1       1.450  -7.958  34.351  1.00  0.00     0.004 C 
HETATM   25  C1  UNL     1       2.777  -7.837  33.633  1.00  0.00     0.014 C 
BRANCH  24  26
HETATM   26  C21 UNL     1       0.337  -8.305  33.316  1.00  0.00     0.010 C 
BRANCH  26  27
HETATM   27  C22 UNL     1       0.465  -7.533  32.073  1.00  0.00     0.033 C 
BRANCH  27  28
HETATM   28  C23 UNL     1      -0.749  -6.792  31.649  1.00  0.00     0.121 C 
BRANCH  28  29
HETATM   29  O3  UNL     1      -1.865  -7.545  32.142  1.00  0.00    -0.395 OA
ATOM     30  H3  UNL     1      -2.627  -6.988  32.030  1.00  0.00     0.210 HD
ENDBRANCH  28  29
BRANCH  28  31
HETATM   31  C24 UNL     1      -0.915  -5.388  32.053  1.00  0.00     0.006 C 
HETATM   32  C25 UNL     1      -1.618  -5.078  33.319  1.00  0.00     0.012 C 
HETATM   33  C26 UNL     1       0.492  -4.745  32.074  1.00  0.00     0.012 C 
ENDBRANCH  28  31
ENDBRANCH  27  28
ENDBRANCH  26  27
ENDBRANCH  24  26
ENDBRANCH  23  24
ENDBRANCH  15  22
ENDBRANCH  13  14
ENDBRANCH  12  13
ENDBRANCH  10  11
ENDBRANCH   9  10
ENDBRANCH   8   9
ENDBRANCH   5   8
ENDBRANCH   1   4
TORSDOF 14
ENDMDL
MODEL 3
REMARK VINA RESULT: -4.694648407      2.878      3.890
REMARK  14 active torsions:
REMARK  status: ('A' for Active; 'I' for Inactive)
REMARK    1  A    between atoms: C2_2  and  C3_3 
REMARK    2  A    between atoms: C2_2  and  C21_26 
REMARK    3  A    between atoms: C4_4  and  C5_5 
REMARK    4  A    between atoms: C11_12  and  C12_13 
REMARK    5  A    between atoms: C12_13  and  C13_14 
REMARK    6  A    between atoms: C14_15  and  C15_16 
REMARK    7  A    between atoms: C15_16  and  C16_17 
REMARK    8  A    between atoms: C16_17  and  C17_18 
REMARK    9  A    between atoms: C17_18  and  C18_19 
REMARK       I    between atoms: C18_19  and  N1_21 
REMARK   10  A    between atoms: N1_21  and  C19_23 
REMARK   11  A    between atoms: C21_26  and  C22_27 
REMARK   12  A    between atoms: C22_27  and  C23_28 
REMARK   13  A    between atoms: C23_28  and  O3_29 
REMARK   14  A    between atoms: C23_28  and  C24_31 
ROOT
HETATM    1  C19 UNL     1      -6.892  -7.468  33.896  1.00  0.00     0.247 C 
HETATM    2  C20 UNL     1      -7.803  -6.595  34.616  1.00  0.00     0.078 C 
HETATM    3  N2  UNL     1      -8.534  -5.891  35.185  1.00  0.00    -0.196 NA
ENDROOT
BRANCH   1   4
HETATM    4  N1  UNL     1      -5.799  -6.724  33.310  1.00  0.00    -0.349 N 
HETATM    5  C18 UNL     1      -4.528  -6.784  33.986  1.00  0.00     0.218 C 
HETATM    6  O2  UNL     1      -4.412  -7.464  35.038  1.00  0.00    -0.274 OA
ATOM      7  H1  UNL     1      -5.922  -6.181  32.455  1.00  0.00     0.163 HD
BRANCH   5   8
HETATM    8  C17 UNL     1      -3.429  -6.017  33.368  1.00  0.00     0.103 C 
BRANCH   8   9
HETATM    9  C16 UNL     1      -2.916  -4.967  34.295  1.00  0.00     0.013 C 
BRANCH   9  10
HETATM   10  C15 UNL     1      -1.380  -4.984  34.263  1.00  0.00     0.027 C 
BRANCH  10  11
HETATM   11  C14 UNL     1      -0.855  -5.261  35.622  1.00  0.00    -0.031 C 
HETATM   12  C13 UNL     1      -0.211  -6.338  35.934  1.00  0.00    -0.030 C 
BRANCH  12  13
HETATM   13  C12 UNL     1       0.103  -7.444  35.002  1.00  0.00     0.034 C 
BRANCH  13  14
HETATM   14  C11 UNL     1       1.166  -6.941  34.055  1.00  0.00     0.026 C 
HETATM   15  C5  UNL     1       1.115  -7.717  32.700  1.00  0.00     0.021 C 
HETATM   16  C6  UNL     1       2.205  -7.060  31.936  1.00  0.00     0.019 C 
HETATM   17  C7  UNL     1       1.964  -5.550  31.819  1.00  0.00     0.013 C 
HETATM   18  C8  UNL     1       3.455  -7.153  32.815  1.00  0.00     0.128 C 
HETATM   19  C9  UNL     1       3.405  -8.126  33.920  1.00  0.00     0.064 C 
HETATM   20  O1  UNL     1       3.348  -6.141  33.815  1.00  0.00    -0.380 OA
HETATM   21  C10 UNL     1       2.561  -7.065  34.552  1.00  0.00     0.129 C 
BRANCH  15  22
HETATM   22  C4  UNL     1      -0.222  -7.825  32.167  1.00  0.00    -0.025 C 
HETATM   23  C3  UNL     1      -0.843  -7.963  31.071  1.00  0.00    -0.026 C 
BRANCH  23  24
HETATM   24  C2  UNL     1      -0.379  -8.094  29.705  1.00  0.00     0.004 C 
HETATM   25  C1  UNL     1      -0.719  -6.839  28.931  1.00  0.00     0.014 C 
BRANCH  24  26
HETATM   26  C21 UNL     1      -0.996  -9.327  28.977  1.00  0.00     0.010 C 
BRANCH  26  27
HETATM   27  C22 UNL     1      -2.162  -9.872  29.682  1.00  0.00     0.033 C 
BRANCH  27  28
HETATM   28  C23 UNL     1      -3.482  -9.566  29.076  1.00  0.00     0.121 C 
BRANCH  28  29
HETATM   29  O3  UNL     1      -3.958 -10.800  28.520  1.00  0.00    -0.395 OA
ATOM     30  H3  UNL     1      -4.708 -10.573  27.983  1.00  0.00     0.210 HD
ENDBRANCH  28  29
BRANCH  28  31
HETATM   31  C24 UNL     1      -4.544  -8.989  29.913  1.00  0.00     0.006 C 
HETATM   32  C25 UNL     1      -4.738  -9.501  31.289  1.00  0.00     0.012 C 
HETATM   33  C26 UNL     1      -4.314  -7.460  29.960  1.00  0.00     0.012 C 
ENDBRANCH  28  31
ENDBRANCH  27  28
ENDBRANCH  26  27
ENDBRANCH  24  26
ENDBRANCH  23  24
ENDBRANCH  15  22
ENDBRANCH  13  14
ENDBRANCH  12  13
ENDBRANCH  10  11
ENDBRANCH   9  10
ENDBRANCH   8   9
ENDBRANCH   5   8
ENDBRANCH   1   4
TORSDOF 14
ENDMDL
MODEL 4
REMARK VINA RESULT: -4.677556305      3.487      4.674
REMARK  14 active torsions:
REMARK  status: ('A' for Active; 'I' for Inactive)
REMARK    1  A    between atoms: C2_2  and  C3_3 
REMARK    2  A    between atoms: C2_2  and  C21_26 
REMARK    3  A    between atoms: C4_4  and  C5_5 
REMARK    4  A    between atoms: C11_12  and  C12_13 
REMARK    5  A    between atoms: C12_13  and  C13_14 
REMARK    6  A    between atoms: C14_15  and  C15_16 
REMARK    7  A    between atoms: C15_16  and  C16_17 
REMARK    8  A    between atoms: C16_17  and  C17_18 
REMARK    9  A    between atoms: C17_18  and  C18_19 
REMARK       I    between atoms: C18_19  and  N1_21 
REMARK   10  A    between atoms: N1_21  and  C19_23 
REMARK   11  A    between atoms: C21_26  and  C22_27 
REMARK   12  A    between atoms: C22_27  and  C23_28 
REMARK   13  A    between atoms: C23_28  and  O3_29 
REMARK   14  A    between atoms: C23_28  and  C24_31 
ROOT
HETATM    1  C19 UNL     1       5.857  -5.190  40.496  1.00  0.00     0.247 C 
HETATM    2  C20 UNL     1       7.149  -4.794  39.963  1.00  0.00     0.078 C 
HETATM    3  N2  UNL     1       8.180  -4.469  39.532  1.00  0.00    -0.196 NA
ENDROOT
BRANCH   1   4
HETATM    4  N1  UNL     1       4.906  -5.452  39.438  1.00  0.00    -0.349 N 
HETATM    5  C18 UNL     1       4.735  -6.824  39.035  1.00  0.00     0.218 C 
HETATM    6  O2  UNL     1       5.401  -7.729  39.602  1.00  0.00    -0.274 OA
ATOM      7  H1  UNL     1       4.380  -4.698  38.997  1.00  0.00     0.163 HD
BRANCH   5   8
HETATM    8  C17 UNL     1       3.759  -7.065  37.954  1.00  0.00     0.103 C 
BRANCH   8   9
HETATM    9  C16 UNL     1       2.615  -6.111  38.038  1.00  0.00     0.013 C 
BRANCH   9  10
HETATM   10  C15 UNL     1       1.305  -6.888  37.837  1.00  0.00     0.027 C 
BRANCH  10  11
HETATM   11  C14 UNL     1       0.334  -6.046  37.098  1.00  0.00    -0.031 C 
HETATM   12  C13 UNL     1      -0.072  -6.308  35.898  1.00  0.00    -0.030 C 
BRANCH  12  13
HETATM   13  C12 UNL     1       0.356  -7.470  35.088  1.00  0.00     0.034 C 
BRANCH  13  14
HETATM   14  C11 UNL     1       1.350  -6.961  34.070  1.00  0.00     0.026 C 
HETATM   15  C5  UNL     1       1.232  -7.759  32.732  1.00  0.00     0.021 C 
HETATM   16  C6  UNL     1       2.261  -7.093  31.894  1.00  0.00     0.019 C 
HETATM   17  C7  UNL     1       1.982  -5.590  31.770  1.00  0.00     0.013 C 
HETATM   18  C8  UNL     1       3.563  -7.147  32.696  1.00  0.00     0.128 C 
HETATM   19  C9  UNL     1       3.600  -8.104  33.817  1.00  0.00     0.064 C 
HETATM   20  O1  UNL     1       3.495  -6.122  33.686  1.00  0.00    -0.380 OA
HETATM   21  C10 UNL     1       2.774  -7.049  34.483  1.00  0.00     0.129 C 
BRANCH  15  22
HETATM   22  C4  UNL     1      -0.132  -7.902  32.283  1.00  0.00    -0.025 C 
HETATM   23  C3  UNL     1      -0.818  -8.032  31.225  1.00  0.00    -0.026 C 
BRANCH  23  24
HETATM   24  C2  UNL     1      -0.440  -8.108  29.830  1.00  0.00     0.004 C 
HETATM   25  C1  UNL     1      -0.874  -6.845  29.117  1.00  0.00     0.014 C 
BRANCH  24  26
HETATM   26  C21 UNL     1      -1.059  -9.342  29.105  1.00  0.00     0.010 C 
BRANCH  26  27
HETATM   27  C22 UNL     1      -2.240  -9.869  29.800  1.00  0.00     0.033 C 
BRANCH  27  28
HETATM   28  C23 UNL     1      -3.551  -9.507  29.206  1.00  0.00     0.121 C 
BRANCH  28  29
HETATM   29  O3  UNL     1      -4.040 -10.697  28.571  1.00  0.00    -0.395 OA
ATOM     30  H3  UNL     1      -4.272 -10.445  27.685  1.00  0.00     0.210 HD
ENDBRANCH  28  29
BRANCH  28  31
HETATM   31  C24 UNL     1      -4.611  -8.967  30.071  1.00  0.00     0.006 C 
HETATM   32  C25 UNL     1      -4.791  -9.529  31.429  1.00  0.00     0.012 C 
HETATM   33  C26 UNL     1      -4.391  -7.440  30.170  1.00  0.00     0.012 C 
ENDBRANCH  28  31
ENDBRANCH  27  28
ENDBRANCH  26  27
ENDBRANCH  24  26
ENDBRANCH  23  24
ENDBRANCH  15  22
ENDBRANCH  13  14
ENDBRANCH  12  13
ENDBRANCH  10  11
ENDBRANCH   9  10
ENDBRANCH   8   9
ENDBRANCH   5   8
ENDBRANCH   1   4
TORSDOF 14
ENDMDL
MODEL 5
REMARK VINA RESULT: -4.594090558      6.387     12.248
REMARK  14 active torsions:
REMARK  status: ('A' for Active; 'I' for Inactive)
REMARK    1  A    between atoms: C2_2  and  C3_3 
REMARK    2  A    between atoms: C2_2  and  C21_26 
REMARK    3  A    between atoms: C4_4  and  C5_5 
REMARK    4  A    between atoms: C11_12  and  C12_13 
REMARK    5  A    between atoms: C12_13  and  C13_14 
REMARK    6  A    between atoms: C14_15  and  C15_16 
REMARK    7  A    between atoms: C15_16  and  C16_17 
REMARK    8  A    between atoms: C16_17  and  C17_18 
REMARK    9  A    between atoms: C17_18  and  C18_19 
REMARK       I    between atoms: C18_19  and  N1_21 
REMARK   10  A    between atoms: N1_21  and  C19_23 
REMARK   11  A    between atoms: C21_26  and  C22_27 
REMARK   12  A    between atoms: C22_27  and  C23_28 
REMARK   13  A    between atoms: C23_28  and  O3_29 
REMARK   14  A    between atoms: C23_28  and  C24_31 
ROOT
HETATM    1  C19 UNL     1       3.804  -3.775  41.971  1.00  0.00     0.247 C 
HETATM    2  C20 UNL     1       2.530  -4.472  41.976  1.00  0.00     0.078 C 
HETATM    3  N2  UNL     1       1.507  -5.026  41.987  1.00  0.00    -0.196 NA
ENDROOT
BRANCH   1   4
HETATM    4  N1  UNL     1       4.534  -3.999  43.199  1.00  0.00    -0.349 N 
HETATM    5  C18 UNL     1       5.373  -5.169  43.259  1.00  0.00     0.218 C 
HETATM    6  O2  UNL     1       5.442  -5.939  42.267  1.00  0.00    -0.274 OA
ATOM      7  H1  UNL     1       4.459  -3.357  43.988  1.00  0.00     0.163 HD
BRANCH   5   8
HETATM    8  C17 UNL     1       6.107  -5.375  44.522  1.00  0.00     0.103 C 
BRANCH   8   9
HETATM    9  C16 UNL     1       5.201  -5.872  45.598  1.00  0.00     0.013 C 
BRANCH   9  10
HETATM   10  C15 UNL     1       5.476  -7.365  45.829  1.00  0.00     0.027 C 
BRANCH  10  11
HETATM   11  C14 UNL     1       4.881  -7.789  47.120  1.00  0.00    -0.031 C 
HETATM   12  C13 UNL     1       3.657  -8.185  47.248  1.00  0.00    -0.030 C 
BRANCH  12  13
HETATM   13  C12 UNL     1       2.673  -8.282  46.147  1.00  0.00     0.034 C 
BRANCH  13  14
HETATM   14  C11 UNL     1       1.424  -7.566  46.602  1.00  0.00     0.026 C 
HETATM   15  C5  UNL     1       0.673  -6.931  45.387  1.00  0.00     0.021 C 
HETATM   16  C6  UNL     1      -0.502  -6.312  46.049  1.00  0.00     0.019 C 
HETATM   17  C7  UNL     1      -1.311  -7.359  46.826  1.00  0.00     0.013 C 
HETATM   18  C8  UNL     1       0.057  -5.409  47.151  1.00  0.00     0.128 C 
HETATM   19  C9  UNL     1       1.488  -5.070  47.054  1.00  0.00     0.064 C 
HETATM   20  O1  UNL     1       0.417  -6.248  48.247  1.00  0.00    -0.380 OA
HETATM   21  C10 UNL     1       1.648  -6.464  47.573  1.00  0.00     0.129 C 
BRANCH  15  22
HETATM   22  C4  UNL     1       0.524  -7.846  44.280  1.00  0.00    -0.025 C 
HETATM   23  C3  UNL     1      -0.163  -8.026  43.230  1.00  0.00    -0.026 C 
BRANCH  23  24
HETATM   24  C2  UNL     1      -1.232  -7.256  42.629  1.00  0.00     0.004 C 
HETATM   25  C1  UNL     1      -2.531  -7.540  43.352  1.00  0.00     0.014 C 
BRANCH  24  26
HETATM   26  C21 UNL     1      -1.413  -7.563  41.111  1.00  0.00     0.010 C 
BRANCH  26  27
HETATM   27  C22 UNL     1      -0.281  -8.310  40.549  1.00  0.00     0.033 C 
BRANCH  27  28
HETATM   28  C23 UNL     1      -0.396  -8.667  39.112  1.00  0.00     0.121 C 
BRANCH  28  29
HETATM   29  O3  UNL     1      -1.777  -8.986  38.893  1.00  0.00    -0.395 OA
ATOM     30  H3  UNL     1      -2.271  -8.230  39.188  1.00  0.00     0.210 HD
ENDBRANCH  28  29
BRANCH  28  31
HETATM   31  C24 UNL     1       0.029  -7.697  38.092  1.00  0.00     0.006 C 
HETATM   32  C25 UNL     1      -0.964  -6.743  37.544  1.00  0.00     0.012 C 
HETATM   33  C26 UNL     1       1.230  -6.913  38.672  1.00  0.00     0.012 C 
ENDBRANCH  28  31
ENDBRANCH  27  28
ENDBRANCH  26  27
ENDBRANCH  24  26
ENDBRANCH  23  24
ENDBRANCH  15  22
ENDBRANCH  13  14
ENDBRANCH  12  13
ENDBRANCH  10  11
ENDBRANCH   9  10
ENDBRANCH   8   9
ENDBRANCH   5   8
ENDBRANCH   1   4
TORSDOF 14
ENDMDL
