MODEL 1
REMARK VINA RESULT: -7.236402001      0.000      0.000
REMARK  9 active torsions:
REMARK  status: ('A' for Active; 'I' for Inactive)
REMARK    1  A    between atoms: C2_2  and  C3_3 
REMARK    2  A    between atoms: C3_3  and  C4_4 
REMARK    3  A    between atoms: C4_4  and  N1_5 
REMARK    4  A    between atoms: C4_4  and  C12_14 
REMARK    5  A    between atoms: N1_5  and  C5_7 
REMARK    6  A    between atoms: C12_14  and  N2_15 
REMARK    7  A    between atoms: C12_14  and  C13_19 
REMARK    8  A    between atoms: C13_19  and  N3_20 
REMARK    9  A    between atoms: C13_19  and  C16_27 
REMARK       I    between atoms: N3_20  and  C14_22 
REMARK       I    between atoms: C14_22  and  N4_24 
ROOT
HETATM    1  C12 UNL     1      93.334  44.390  64.338  1.00  0.00     0.261 C 
ENDROOT
BRANCH   1   2
HETATM    2  C4  UNL     1      92.494  44.973  65.392  1.00  0.00     0.019 C 
BRANCH   2   3
HETATM    3  C3  UNL     1      93.111  45.919  66.363  1.00  0.00     0.080 C 
BRANCH   3   4
HETATM    4  C2  UNL     1      93.503  45.359  67.676  1.00  0.00    -0.031 C 
HETATM    5  C1  UNL     1      93.117  45.933  68.798  1.00  0.00     0.007 C 
ENDBRANCH   3   4
ENDBRANCH   2   3
BRANCH   2   6
HETATM    6  N1  UNL     1      91.625  44.049  66.025  1.00  0.00    -0.389 N 
ATOM      7  H1  UNL     1      92.070  43.248  66.471  1.00  0.00     0.159 HD
BRANCH   6   8
HETATM    8  C5  UNL     1      90.271  44.105  66.107  1.00  0.00     0.085 C 
HETATM    9  C6  UNL     1      89.419  42.881  65.887  1.00  0.00     0.030 C 
HETATM   10  C7  UNL     1      88.439  42.882  67.082  1.00  0.00    -0.012 C 
HETATM   11  C8  UNL     1      87.590  44.099  67.098  1.00  0.00     0.005 C 
HETATM   12  C11 UNL     1      89.493  43.239  68.151  1.00  0.00     0.011 C 
HETATM   13  C9  UNL     1      88.533  45.231  67.489  1.00  0.00     0.007 C 
HETATM   14  C10 UNL     1      89.893  44.560  67.525  1.00  0.00     0.009 C 
ENDBRANCH   6   8
ENDBRANCH   2   6
ENDBRANCH   1   2
BRANCH   1  15
HETATM   15  N2  UNL     1      94.462  45.277  64.004  1.00  0.00    -0.067 N 
ATOM     16  H23 UNL     1      94.263  45.843  63.179  1.00  0.00     0.275 HD
ATOM     17  H22 UNL     1      94.564  46.028  64.687  1.00  0.00     0.275 HD
ATOM     18  H21 UNL     1      95.327  44.748  63.896  1.00  0.00     0.275 HD
ENDBRANCH   1  15
BRANCH   1  19
HETATM   19  C13 UNL     1      92.750  43.918  63.057  1.00  0.00     0.223 C 
BRANCH  19  20
HETATM   20  N3  UNL     1      91.642  44.876  62.735  1.00  0.00    -0.326 N 
HETATM   21  C14 UNL     1      90.393  44.416  62.278  1.00  0.00     0.316 C 
HETATM   22  O1  UNL     1      90.194  43.193  62.135  1.00  0.00    -0.247 OA
HETATM   23  N4  UNL     1      89.379  45.358  61.986  1.00  0.00    -0.347 N 
HETATM   24  C15 UNL     1      88.091  44.888  61.512  1.00  0.00     0.151 C 
ATOM     25  H4  UNL     1      89.551  46.356  62.108  1.00  0.00     0.163 HD
ATOM     26  H3  UNL     1      91.796  45.877  62.849  1.00  0.00     0.165 HD
ENDBRANCH  19  20
BRANCH  19  27
HETATM   27  C16 UNL     1      93.641  44.014  61.874  1.00  0.00     0.199 C 
HETATM   28  O2  UNL     1      93.342  44.595  60.801  1.00  0.00    -0.646 OA
HETATM   29  O3  UNL     1      94.883  43.429  61.936  1.00  0.00    -0.646 OA
ENDBRANCH  19  27
ENDBRANCH   1  19
TORSDOF 9
ENDMDL
MODEL 2
REMARK VINA RESULT: -7.145462196      4.056      6.278
REMARK  9 active torsions:
REMARK  status: ('A' for Active; 'I' for Inactive)
REMARK    1  A    between atoms: C2_2  and  C3_3 
REMARK    2  A    between atoms: C3_3  and  C4_4 
REMARK    3  A    between atoms: C4_4  and  N1_5 
REMARK    4  A    between atoms: C4_4  and  C12_14 
REMARK    5  A    between atoms: N1_5  and  C5_7 
REMARK    6  A    between atoms: C12_14  and  N2_15 
REMARK    7  A    between atoms: C12_14  and  C13_19 
REMARK    8  A    between atoms: C13_19  and  N3_20 
REMARK    9  A    between atoms: C13_19  and  C16_27 
REMARK       I    between atoms: N3_20  and  C14_22 
REMARK       I    between atoms: C14_22  and  N4_24 
ROOT
HETATM    1  C12 UNL     1      91.314  44.864  69.361  1.00  0.00     0.261 C 
ENDROOT
BRANCH   1   2
HETATM    2  C4  UNL     1      89.953  44.505  69.780  1.00  0.00     0.019 C 
BRANCH   2   3
HETATM    3  C3  UNL     1      89.395  43.188  69.366  1.00  0.00     0.080 C 
BRANCH   3   4
HETATM    4  C2  UNL     1      88.704  43.145  68.057  1.00  0.00    -0.031 C 
HETATM    5  C1  UNL     1      89.189  42.431  67.061  1.00  0.00     0.007 C 
ENDBRANCH   3   4
ENDBRANCH   2   3
BRANCH   2   6
HETATM    6  N1  UNL     1      89.007  45.551  69.649  1.00  0.00    -0.389 N 
ATOM      7  H1  UNL     1      88.926  45.971  68.724  1.00  0.00     0.159 HD
BRANCH   6   8
HETATM    8  C5  UNL     1      88.194  46.061  70.610  1.00  0.00     0.085 C 
HETATM    9  C6  UNL     1      87.265  45.179  71.404  1.00  0.00     0.030 C 
HETATM   10  C7  UNL     1      87.508  45.598  72.872  1.00  0.00    -0.012 C 
HETATM   11  C8  UNL     1      87.175  47.026  73.100  1.00  0.00     0.005 C 
HETATM   12  C11 UNL     1      89.046  45.663  72.766  1.00  0.00     0.011 C 
HETATM   13  C9  UNL     1      88.274  47.805  72.386  1.00  0.00     0.007 C 
HETATM   14  C10 UNL     1      89.072  46.723  71.683  1.00  0.00     0.009 C 
ENDBRANCH   6   8
ENDBRANCH   2   6
ENDBRANCH   1   2
BRANCH   1  15
HETATM   15  N2  UNL     1      92.175  45.136  70.525  1.00  0.00    -0.067 N 
ATOM     16  H23 UNL     1      93.160  45.175  70.262  1.00  0.00     0.275 HD
ATOM     17  H22 UNL     1      92.066  46.094  70.857  1.00  0.00     0.275 HD
ATOM     18  H21 UNL     1      92.012  44.460  71.271  1.00  0.00     0.275 HD
ENDBRANCH   1  15
BRANCH   1  19
HETATM   19  C13 UNL     1      91.560  45.939  68.369  1.00  0.00     0.223 C 
BRANCH  19  20
HETATM   20  N3  UNL     1      92.996  45.797  67.959  1.00  0.00    -0.326 N 
HETATM   21  C14 UNL     1      93.761  46.919  67.590  1.00  0.00     0.316 C 
HETATM   22  O1  UNL     1      93.247  48.055  67.600  1.00  0.00    -0.247 OA
HETATM   23  N4  UNL     1      95.112  46.734  67.210  1.00  0.00    -0.347 N 
HETATM   24  C15 UNL     1      95.903  47.887  66.826  1.00  0.00     0.151 C 
ATOM     25  H4  UNL     1      95.523  45.801  67.207  1.00  0.00     0.163 HD
ATOM     26  H3  UNL     1      93.424  44.872  67.947  1.00  0.00     0.165 HD
ENDBRANCH  19  20
BRANCH  19  27
HETATM   27  C16 UNL     1      90.823  45.808  67.087  1.00  0.00     0.199 C 
HETATM   28  O2  UNL     1      89.757  46.416  66.811  1.00  0.00    -0.646 OA
HETATM   29  O3  UNL     1      91.322  44.965  66.124  1.00  0.00    -0.646 OA
ENDBRANCH  19  27
ENDBRANCH   1  19
TORSDOF 9
ENDMDL
MODEL 3
REMARK VINA RESULT: -7.132624382      1.958      3.938
REMARK  9 active torsions:
REMARK  status: ('A' for Active; 'I' for Inactive)
REMARK    1  A    between atoms: C2_2  and  C3_3 
REMARK    2  A    between atoms: C3_3  and  C4_4 
REMARK    3  A    between atoms: C4_4  and  N1_5 
REMARK    4  A    between atoms: C4_4  and  C12_14 
REMARK    5  A    between atoms: N1_5  and  C5_7 
REMARK    6  A    between atoms: C12_14  and  N2_15 
REMARK    7  A    between atoms: C12_14  and  C13_19 
REMARK    8  A    between atoms: C13_19  and  N3_20 
REMARK    9  A    between atoms: C13_19  and  C16_27 
REMARK       I    between atoms: N3_20  and  C14_22 
REMARK       I    between atoms: C14_22  and  N4_24 
ROOT
HETATM    1  C12 UNL     1      89.749  44.872  63.773  1.00  0.00     0.261 C 
ENDROOT
BRANCH   1   2
HETATM    2  C4  UNL     1      90.092  43.868  64.789  1.00  0.00     0.019 C 
BRANCH   2   3
HETATM    3  C3  UNL     1      89.063  43.478  65.792  1.00  0.00     0.080 C 
BRANCH   3   4
HETATM    4  C2  UNL     1      89.502  42.561  66.868  1.00  0.00    -0.031 C 
HETATM    5  C1  UNL     1      89.331  42.877  68.136  1.00  0.00     0.007 C 
ENDBRANCH   3   4
ENDBRANCH   2   3
BRANCH   2   6
HETATM    6  N1  UNL     1      91.370  44.043  65.375  1.00  0.00    -0.389 N 
ATOM      7  H1  UNL     1      91.974  43.222  65.388  1.00  0.00     0.159 HD
BRANCH   6   8
HETATM    8  C5  UNL     1      91.886  45.173  65.922  1.00  0.00     0.085 C 
HETATM    9  C6  UNL     1      91.098  46.005  66.900  1.00  0.00     0.030 C 
HETATM   10  C7  UNL     1      92.082  46.253  68.067  1.00  0.00    -0.012 C 
HETATM   11  C8  UNL     1      93.288  46.994  67.622  1.00  0.00     0.005 C 
HETATM   12  C11 UNL     1      92.624  44.809  68.126  1.00  0.00     0.011 C 
HETATM   13  C9  UNL     1      94.074  45.997  66.779  1.00  0.00     0.007 C 
HETATM   14  C10 UNL     1      93.153  44.795  66.705  1.00  0.00     0.009 C 
ENDBRANCH   6   8
ENDBRANCH   2   6
ENDBRANCH   1   2
BRANCH   1  15
HETATM   15  N2  UNL     1      88.355  45.325  63.921  1.00  0.00    -0.067 N 
ATOM     16  H23 UNL     1      88.120  46.044  63.236  1.00  0.00     0.275 HD
ATOM     17  H22 UNL     1      87.694  44.606  63.626  1.00  0.00     0.275 HD
ATOM     18  H21 UNL     1      88.168  45.638  64.873  1.00  0.00     0.275 HD
ENDBRANCH   1  15
BRANCH   1  19
HETATM   19  C13 UNL     1      89.982  44.622  62.329  1.00  0.00     0.223 C 
BRANCH  19  20
HETATM   20  N3  UNL     1      88.666  44.875  61.654  1.00  0.00    -0.326 N 
HETATM   21  C14 UNL     1      88.259  44.112  60.544  1.00  0.00     0.316 C 
HETATM   22  O1  UNL     1      88.998  43.207  60.106  1.00  0.00    -0.247 OA
HETATM   23  N4  UNL     1      87.010  44.388  59.940  1.00  0.00    -0.347 N 
HETATM   24  C15 UNL     1      86.589  43.605  58.794  1.00  0.00     0.151 C 
ATOM     25  H4  UNL     1      86.413  45.129  60.307  1.00  0.00     0.163 HD
ATOM     26  H3  UNL     1      88.056  45.613  62.005  1.00  0.00     0.165 HD
ENDBRANCH  19  20
BRANCH  19  27
HETATM   27  C16 UNL     1      90.902  45.572  61.655  1.00  0.00     0.199 C 
HETATM   28  O2  UNL     1      90.651  46.788  61.456  1.00  0.00    -0.646 OA
HETATM   29  O3  UNL     1      92.114  45.108  61.206  1.00  0.00    -0.646 OA
ENDBRANCH  19  27
ENDBRANCH   1  19
TORSDOF 9
ENDMDL
MODEL 4
REMARK VINA RESULT: -7.093848492      1.981      2.554
REMARK  9 active torsions:
REMARK  status: ('A' for Active; 'I' for Inactive)
REMARK    1  A    between atoms: C2_2  and  C3_3 
REMARK    2  A    between atoms: C3_3  and  C4_4 
REMARK    3  A    between atoms: C4_4  and  N1_5 
REMARK    4  A    between atoms: C4_4  and  C12_14 
REMARK    5  A    between atoms: N1_5  and  C5_7 
REMARK    6  A    between atoms: C12_14  and  N2_15 
REMARK    7  A    between atoms: C12_14  and  C13_19 
REMARK    8  A    between atoms: C13_19  and  N3_20 
REMARK    9  A    between atoms: C13_19  and  C16_27 
REMARK       I    between atoms: N3_20  and  C14_22 
REMARK       I    between atoms: C14_22  and  N4_24 
ROOT
HETATM    1  C12 UNL     1      93.909  44.918  64.841  1.00  0.00     0.261 C 
ENDROOT
BRANCH   1   2
HETATM    2  C4  UNL     1      93.750  46.032  65.784  1.00  0.00     0.019 C 
BRANCH   2   3
HETATM    3  C3  UNL     1      94.655  47.210  65.668  1.00  0.00     0.080 C 
BRANCH   3   4
HETATM    4  C2  UNL     1      95.472  47.536  66.857  1.00  0.00    -0.031 C 
HETATM    5  C1  UNL     1      96.492  48.366  66.769  1.00  0.00     0.007 C 
ENDBRANCH   3   4
ENDBRANCH   2   3
BRANCH   2   6
HETATM    6  N1  UNL     1      93.562  45.635  67.131  1.00  0.00    -0.389 N 
ATOM      7  H1  UNL     1      94.340  45.142  67.568  1.00  0.00     0.159 HD
BRANCH   6   8
HETATM    8  C5  UNL     1      92.467  45.833  67.911  1.00  0.00     0.085 C 
HETATM    9  C6  UNL     1      91.194  46.407  67.347  1.00  0.00     0.030 C 
HETATM   10  C7  UNL     1      90.088  45.459  67.865  1.00  0.00    -0.012 C 
HETATM   11  C8  UNL     1      90.028  45.441  69.348  1.00  0.00     0.005 C 
HETATM   12  C11 UNL     1      90.856  44.151  67.581  1.00  0.00     0.011 C 
HETATM   13  C9  UNL     1      91.284  44.695  69.784  1.00  0.00     0.007 C 
HETATM   14  C10 UNL     1      92.031  44.474  68.482  1.00  0.00     0.009 C 
ENDBRANCH   6   8
ENDBRANCH   2   6
ENDBRANCH   1   2
BRANCH   1  15
HETATM   15  N2  UNL     1      95.027  45.162  63.913  1.00  0.00    -0.067 N 
ATOM     16  H23 UNL     1      95.198  46.159  63.785  1.00  0.00     0.275 HD
ATOM     17  H22 UNL     1      95.922  44.902  64.327  1.00  0.00     0.275 HD
ATOM     18  H21 UNL     1      94.875  44.690  63.022  1.00  0.00     0.275 HD
ENDBRANCH   1  15
BRANCH   1  19
HETATM   19  C13 UNL     1      92.767  44.418  64.035  1.00  0.00     0.223 C 
BRANCH  19  20
HETATM   20  N3  UNL     1      91.786  45.551  63.969  1.00  0.00    -0.326 N 
HETATM   21  C14 UNL     1      90.401  45.319  64.048  1.00  0.00     0.316 C 
HETATM   22  O1  UNL     1      89.971  44.155  64.175  1.00  0.00    -0.247 OA
HETATM   23  N4  UNL     1      89.515  46.420  63.981  1.00  0.00    -0.347 N 
HETATM   24  C15 UNL     1      88.086  46.184  64.058  1.00  0.00     0.151 C 
ATOM     25  H4  UNL     1      89.877  47.368  63.879  1.00  0.00     0.163 HD
ATOM     26  H3  UNL     1      92.130  46.506  63.866  1.00  0.00     0.165 HD
ENDBRANCH  19  20
BRANCH  19  27
HETATM   27  C16 UNL     1      93.065  44.139  62.608  1.00  0.00     0.199 C 
HETATM   28  O2  UNL     1      93.003  44.991  61.686  1.00  0.00    -0.646 OA
HETATM   29  O3  UNL     1      93.432  42.864  62.250  1.00  0.00    -0.646 OA
ENDBRANCH  19  27
ENDBRANCH   1  19
TORSDOF 9
ENDMDL
MODEL 5
REMARK VINA RESULT: -7.040735470      1.172      1.790
REMARK  9 active torsions:
REMARK  status: ('A' for Active; 'I' for Inactive)
REMARK    1  A    between atoms: C2_2  and  C3_3 
REMARK    2  A    between atoms: C3_3  and  C4_4 
REMARK    3  A    between atoms: C4_4  and  N1_5 
REMARK    4  A    between atoms: C4_4  and  C12_14 
REMARK    5  A    between atoms: N1_5  and  C5_7 
REMARK    6  A    between atoms: C12_14  and  N2_15 
REMARK    7  A    between atoms: C12_14  and  C13_19 
REMARK    8  A    between atoms: C13_19  and  N3_20 
REMARK    9  A    between atoms: C13_19  and  C16_27 
REMARK       I    between atoms: N3_20  and  C14_22 
REMARK       I    between atoms: C14_22  and  N4_24 
ROOT
HETATM    1  C12 UNL     1      93.775  44.608  64.465  1.00  0.00     0.261 C 
ENDROOT
BRANCH   1   2
HETATM    2  C4  UNL     1      93.096  45.503  65.411  1.00  0.00     0.019 C 
BRANCH   2   3
HETATM    3  C3  UNL     1      93.431  46.954  65.398  1.00  0.00     0.080 C 
BRANCH   3   4
HETATM    4  C2  UNL     1      94.174  47.472  66.570  1.00  0.00    -0.031 C 
HETATM    5  C1  UNL     1      95.440  47.823  66.465  1.00  0.00     0.007 C 
ENDBRANCH   3   4
ENDBRANCH   2   3
BRANCH   2   6
HETATM    6  N1  UNL     1      92.992  44.990  66.728  1.00  0.00    -0.389 N 
ATOM      7  H1  UNL     1      93.792  45.155  67.339  1.00  0.00     0.159 HD
BRANCH   6   8
HETATM    8  C5  UNL     1      91.955  44.306  67.274  1.00  0.00     0.085 C 
HETATM    9  C6  UNL     1      91.487  44.576  68.681  1.00  0.00     0.030 C 
HETATM   10  C7  UNL     1      89.953  44.715  68.551  1.00  0.00    -0.012 C 
HETATM   11  C8  UNL     1      89.329  43.471  68.036  1.00  0.00     0.005 C 
HETATM   12  C11 UNL     1      89.980  45.585  67.276  1.00  0.00     0.011 C 
HETATM   13  C9  UNL     1      89.744  43.399  66.570  1.00  0.00     0.007 C 
HETATM   14  C10 UNL     1      90.704  44.564  66.420  1.00  0.00     0.009 C 
ENDBRANCH   6   8
ENDBRANCH   2   6
ENDBRANCH   1   2
BRANCH   1  15
HETATM   15  N2  UNL     1      95.036  45.200  63.985  1.00  0.00    -0.067 N 
ATOM     16  H23 UNL     1      94.869  46.038  63.427  1.00  0.00     0.275 HD
ATOM     17  H22 UNL     1      95.566  45.623  64.746  1.00  0.00     0.275 HD
ATOM     18  H21 UNL     1      95.594  44.515  63.475  1.00  0.00     0.275 HD
ENDBRANCH   1  15
BRANCH   1  19
HETATM   19  C13 UNL     1      93.070  44.053  63.284  1.00  0.00     0.223 C 
BRANCH  19  20
HETATM   20  N3  UNL     1      91.908  44.968  63.033  1.00  0.00    -0.326 N 
HETATM   21  C14 UNL     1      90.697  44.480  62.509  1.00  0.00     0.316 C 
HETATM   22  O1  UNL     1      90.577  43.267  62.245  1.00  0.00    -0.247 OA
HETATM   23  N4  UNL     1      89.630  45.383  62.290  1.00  0.00    -0.347 N 
HETATM   24  C15 UNL     1      88.381  44.883  61.747  1.00  0.00     0.151 C 
ATOM     25  H4  UNL     1      89.738  46.373  62.511  1.00  0.00     0.163 HD
ATOM     26  H3  UNL     1      91.998  45.962  63.247  1.00  0.00     0.165 HD
ENDBRANCH  19  20
BRANCH  19  27
HETATM   27  C16 UNL     1      93.825  44.100  62.007  1.00  0.00     0.199 C 
HETATM   28  O2  UNL     1      93.535  44.841  61.033  1.00  0.00    -0.646 OA
HETATM   29  O3  UNL     1      94.919  43.283  61.858  1.00  0.00    -0.646 OA
ENDBRANCH  19  27
ENDBRANCH   1  19
TORSDOF 9
ENDMDL
