MODEL 1
REMARK VINA RESULT: -7.958313995      0.000      0.000
REMARK  9 active torsions:
REMARK  status: ('A' for Active; 'I' for Inactive)
REMARK    1  A    between atoms: C2_2  and  O1_3 
REMARK    2  A    between atoms: C2_2  and  C17_27 
REMARK    3  A    between atoms: O1_3  and  C3_4 
REMARK    4  A    between atoms: C3_4  and  C4_5 
REMARK    5  A    between atoms: C4_5  and  C5_6 
REMARK    6  A    between atoms: C4_5  and  S1_14 
REMARK    7  A    between atoms: C5_6  and  N1_7 
REMARK    8  A    between atoms: S1_14  and  C12_15 
REMARK    9  A    between atoms: C12_15  and  C13_16 
ROOT
HETATM    1  C4  UNL     1     -34.552  42.353  65.964  1.00  0.00     0.099 C 
ENDROOT
BRANCH   1   2
HETATM    2  C3  UNL     1     -35.110  41.119  66.715  1.00  0.00     0.185 C 
BRANCH   2   3
HETATM    3  O1  UNL     1     -34.024  40.387  67.144  1.00  0.00    -0.385 OA
BRANCH   3   4
HETATM    4  C2  UNL     1     -34.265  39.606  68.255  1.00  0.00     0.122 C 
HETATM    5  C1  UNL     1     -33.470  40.191  69.402  1.00  0.00     0.040 C 
BRANCH   4   6
HETATM    6  C17 UNL     1     -33.905  38.183  67.970  1.00  0.00     0.027 A 
HETATM    7  C18 UNL     1     -33.649  37.699  66.609  1.00  0.00    -0.003 A 
HETATM    8  C19 UNL     1     -32.647  36.612  66.324  1.00  0.00     0.011 C 
HETATM    9  C20 UNL     1     -34.862  37.230  67.392  1.00  0.00    -0.038 A 
HETATM   10  C21 UNL     1     -34.869  35.811  67.952  1.00  0.00     0.015 C 
HETATM   11  C22 UNL     1     -36.171  37.666  66.797  1.00  0.00     0.015 C 
ENDBRANCH   4   6
ENDBRANCH   3   4
ENDBRANCH   2   3
ENDBRANCH   1   2
BRANCH   1  12
HETATM   12  C5  UNL     1     -34.322  43.468  66.899  1.00  0.00     0.289 C 
BRANCH  12  13
HETATM   13  N1  UNL     1     -35.137  44.630  66.820  1.00  0.00     0.089 N 
HETATM   14  C6  UNL     1     -34.771  45.501  67.972  1.00  0.00     0.272 C 
HETATM   15  C7  UNL     1     -35.447  46.823  67.897  1.00  0.00     0.030 C 
HETATM   16  C8  UNL     1     -34.503  47.871  67.365  1.00  0.00     0.002 C 
HETATM   17  C9  UNL     1     -34.108  47.691  65.939  1.00  0.00     0.002 C 
HETATM   18  C10 UNL     1     -33.725  46.245  65.608  1.00  0.00     0.030 C 
HETATM   19  C11 UNL     1     -35.019  45.441  65.646  1.00  0.00     0.272 C 
ENDBRANCH  12  13
ENDBRANCH   1  12
BRANCH   1  20
HETATM   20  S1  UNL     1     -33.137  41.746  65.041  1.00  0.00    -0.154 SA
BRANCH  20  21
HETATM   21  C12 UNL     1     -32.630  43.023  63.859  1.00  0.00     0.133 C 
BRANCH  21  22
HETATM   22  C13 UNL     1     -31.366  43.653  64.304  1.00  0.00     0.054 A 
HETATM   23  C14 UNL     1     -30.809  44.814  63.750  1.00  0.00     0.161 A 
HETATM   24  N2  UNL     1     -29.673  45.104  64.393  1.00  0.00    -0.095 N 
HETATM   25  N3  UNL     1     -28.631  45.905  64.530  1.00  0.00    -0.275 N 
HETATM   26  C16 UNL     1     -29.512  44.160  65.327  1.00  0.00     0.704 A 
HETATM   27  C15 UNL     1     -27.816  45.505  65.512  1.00  0.00     0.215 A 
ATOM     28  H3  UNL     1     -28.468  46.731  63.954  1.00  0.00     0.189 HD
HETATM   29  N4  UNL     1     -28.382  44.390  66.019  1.00  0.00    -0.185 N 
ATOM     30  H4  UNL     1     -28.019  43.824  66.787  1.00  0.00     0.185 HD
HETATM   31  N5  UNL     1     -30.534  43.276  65.278  1.00  0.00    -0.191 N 
ATOM     32  H5  UNL     1     -30.650  42.462  65.881  1.00  0.00     0.184 HD
ENDBRANCH  21  22
ENDBRANCH  20  21
ENDBRANCH   1  20
TORSDOF 9
ENDMDL
MODEL 2
REMARK VINA RESULT: -7.956017176      3.597      8.225
REMARK  9 active torsions:
REMARK  status: ('A' for Active; 'I' for Inactive)
REMARK    1  A    between atoms: C2_2  and  O1_3 
REMARK    2  A    between atoms: C2_2  and  C17_27 
REMARK    3  A    between atoms: O1_3  and  C3_4 
REMARK    4  A    between atoms: C3_4  and  C4_5 
REMARK    5  A    between atoms: C4_5  and  C5_6 
REMARK    6  A    between atoms: C4_5  and  S1_14 
REMARK    7  A    between atoms: C5_6  and  N1_7 
REMARK    8  A    between atoms: S1_14  and  C12_15 
REMARK    9  A    between atoms: C12_15  and  C13_16 
ROOT
HETATM    1  C4  UNL     1     -34.350  41.165  66.352  1.00  0.00     0.099 C 
ENDROOT
BRANCH   1   2
HETATM    2  C3  UNL     1     -32.923  41.765  66.396  1.00  0.00     0.185 C 
BRANCH   2   3
HETATM    3  O1  UNL     1     -32.400  41.645  65.127  1.00  0.00    -0.385 OA
BRANCH   3   4
HETATM    4  C2  UNL     1     -32.857  42.588  64.230  1.00  0.00     0.122 C 
HETATM    5  C1  UNL     1     -33.405  41.845  63.030  1.00  0.00     0.040 C 
BRANCH   4   6
HETATM    6  C17 UNL     1     -31.752  43.531  63.870  1.00  0.00     0.027 A 
HETATM    7  C18 UNL     1     -30.880  44.136  64.883  1.00  0.00    -0.003 A 
HETATM    8  C19 UNL     1     -29.433  44.446  64.606  1.00  0.00     0.011 C 
HETATM    9  C20 UNL     1     -31.856  44.981  64.083  1.00  0.00    -0.038 A 
HETATM   10  C21 UNL     1     -31.310  45.894  62.991  1.00  0.00     0.015 C 
HETATM   11  C22 UNL     1     -32.946  45.595  64.916  1.00  0.00     0.015 C 
ENDBRANCH   4   6
ENDBRANCH   3   4
ENDBRANCH   2   3
ENDBRANCH   1   2
BRANCH   1  12
HETATM   12  C5  UNL     1     -34.297  39.721  66.063  1.00  0.00     0.289 C 
BRANCH  12  13
HETATM   13  N1  UNL     1     -34.103  38.799  67.127  1.00  0.00     0.089 N 
HETATM   14  C6  UNL     1     -35.107  37.711  66.953  1.00  0.00     0.272 C 
HETATM   15  C7  UNL     1     -34.889  36.603  67.920  1.00  0.00     0.030 C 
HETATM   16  C8  UNL     1     -34.173  35.455  67.255  1.00  0.00     0.002 C 
HETATM   17  C9  UNL     1     -32.766  35.742  66.855  1.00  0.00     0.002 C 
HETATM   18  C10 UNL     1     -32.614  37.095  66.152  1.00  0.00     0.030 C 
HETATM   19  C11 UNL     1     -32.826  38.159  67.223  1.00  0.00     0.272 C 
ENDBRANCH  12  13
ENDBRANCH   1  12
BRANCH   1  20
HETATM   20  S1  UNL     1     -35.124  41.671  67.891  1.00  0.00    -0.154 SA
BRANCH  20  21
HETATM   21  C12 UNL     1     -33.863  42.439  68.943  1.00  0.00     0.133 C 
BRANCH  21  22
HETATM   22  C13 UNL     1     -33.752  41.701  70.222  1.00  0.00     0.054 A 
HETATM   23  C14 UNL     1     -34.601  41.872  71.324  1.00  0.00     0.161 A 
HETATM   24  N2  UNL     1     -34.220  41.045  72.303  1.00  0.00    -0.095 N 
HETATM   25  N3  UNL     1     -34.413  40.586  73.526  1.00  0.00    -0.275 N 
HETATM   26  C16 UNL     1     -33.164  40.366  71.839  1.00  0.00     0.704 A 
HETATM   27  C15 UNL     1     -33.521  39.646  73.856  1.00  0.00     0.215 A 
ATOM     28  H3  UNL     1     -35.155  40.910  74.146  1.00  0.00     0.189 HD
HETATM   29  N4  UNL     1     -32.725  39.509  72.776  1.00  0.00    -0.185 N 
ATOM     30  H4  UNL     1     -31.934  38.870  72.687  1.00  0.00     0.185 HD
HETATM   31  N5  UNL     1     -32.874  40.760  70.578  1.00  0.00    -0.191 N 
ATOM     32  H5  UNL     1     -32.115  40.401  69.999  1.00  0.00     0.184 HD
ENDBRANCH  21  22
ENDBRANCH  20  21
ENDBRANCH   1  20
TORSDOF 9
ENDMDL
MODEL 3
REMARK VINA RESULT: -7.946597633      1.194      1.359
REMARK  9 active torsions:
REMARK  status: ('A' for Active; 'I' for Inactive)
REMARK    1  A    between atoms: C2_2  and  O1_3 
REMARK    2  A    between atoms: C2_2  and  C17_27 
REMARK    3  A    between atoms: O1_3  and  C3_4 
REMARK    4  A    between atoms: C3_4  and  C4_5 
REMARK    5  A    between atoms: C4_5  and  C5_6 
REMARK    6  A    between atoms: C4_5  and  S1_14 
REMARK    7  A    between atoms: C5_6  and  N1_7 
REMARK    8  A    between atoms: S1_14  and  C12_15 
REMARK    9  A    between atoms: C12_15  and  C13_16 
ROOT
HETATM    1  C4  UNL     1     -34.375  42.388  65.882  1.00  0.00     0.099 C 
ENDROOT
BRANCH   1   2
HETATM    2  C3  UNL     1     -34.823  40.944  66.215  1.00  0.00     0.185 C 
BRANCH   2   3
HETATM    3  O1  UNL     1     -33.820  40.379  66.972  1.00  0.00    -0.385 OA
BRANCH   3   4
HETATM    4  C2  UNL     1     -34.263  39.662  68.064  1.00  0.00     0.122 C 
HETATM    5  C1  UNL     1     -33.651  40.290  69.298  1.00  0.00     0.040 C 
BRANCH   4   6
HETATM    6  C17 UNL     1     -33.902  38.219  67.912  1.00  0.00     0.027 A 
HETATM    7  C18 UNL     1     -33.643  37.612  66.602  1.00  0.00    -0.003 A 
HETATM    8  C19 UNL     1     -32.640  36.503  66.421  1.00  0.00     0.011 C 
HETATM    9  C20 UNL     1     -34.858  37.216  67.422  1.00  0.00    -0.038 A 
HETATM   10  C21 UNL     1     -34.866  35.855  68.110  1.00  0.00     0.015 C 
HETATM   11  C22 UNL     1     -36.166  37.596  66.786  1.00  0.00     0.015 C 
ENDBRANCH   4   6
ENDBRANCH   3   4
ENDBRANCH   2   3
ENDBRANCH   1   2
BRANCH   1  12
HETATM   12  C5  UNL     1     -34.559  43.270  67.047  1.00  0.00     0.289 C 
BRANCH  12  13
HETATM   13  N1  UNL     1     -35.299  44.475  66.907  1.00  0.00     0.089 N 
HETATM   14  C6  UNL     1     -34.855  45.392  67.994  1.00  0.00     0.272 C 
HETATM   15  C7  UNL     1     -35.447  46.748  67.845  1.00  0.00     0.030 C 
HETATM   16  C8  UNL     1     -34.448  47.696  67.232  1.00  0.00     0.002 C 
HETATM   17  C9  UNL     1     -34.095  47.401  65.813  1.00  0.00     0.002 C 
HETATM   18  C10 UNL     1     -33.812  45.915  65.570  1.00  0.00     0.030 C 
HETATM   19  C11 UNL     1     -35.154  45.201  65.681  1.00  0.00     0.272 C 
ENDBRANCH  12  13
ENDBRANCH   1  12
BRANCH   1  20
HETATM   20  S1  UNL     1     -32.713  42.228  65.222  1.00  0.00    -0.154 SA
BRANCH  20  21
HETATM   21  C12 UNL     1     -32.752  42.645  63.458  1.00  0.00     0.133 C 
BRANCH  21  22
HETATM   22  C13 UNL     1     -31.561  43.449  63.101  1.00  0.00     0.054 A 
HETATM   23  C14 UNL     1     -31.430  44.215  61.934  1.00  0.00     0.161 A 
HETATM   24  N2  UNL     1     -30.235  44.814  61.936  1.00  0.00    -0.095 N 
HETATM   25  N3  UNL     1     -29.376  45.612  61.327  1.00  0.00    -0.275 N 
HETATM   26  C16 UNL     1     -29.624  44.443  63.067  1.00  0.00     0.704 A 
HETATM   27  C15 UNL     1     -28.245  45.760  62.027  1.00  0.00     0.215 A 
ATOM     28  H3  UNL     1     -29.554  46.062  60.429  1.00  0.00     0.189 HD
HETATM   29  N4  UNL     1     -28.408  45.012  63.137  1.00  0.00    -0.185 N 
ATOM     30  H4  UNL     1     -27.731  44.898  63.892  1.00  0.00     0.185 HD
HETATM   31  N5  UNL     1     -30.422  43.614  63.778  1.00  0.00    -0.191 N 
ATOM     32  H5  UNL     1     -30.193  43.188  64.676  1.00  0.00     0.184 HD
ENDBRANCH  21  22
ENDBRANCH  20  21
ENDBRANCH   1  20
TORSDOF 9
ENDMDL
MODEL 4
REMARK VINA RESULT: -7.913134975      3.603      8.363
REMARK  9 active torsions:
REMARK  status: ('A' for Active; 'I' for Inactive)
REMARK    1  A    between atoms: C2_2  and  O1_3 
REMARK    2  A    between atoms: C2_2  and  C17_27 
REMARK    3  A    between atoms: O1_3  and  C3_4 
REMARK    4  A    between atoms: C3_4  and  C4_5 
REMARK    5  A    between atoms: C4_5  and  C5_6 
REMARK    6  A    between atoms: C4_5  and  S1_14 
REMARK    7  A    between atoms: C5_6  and  N1_7 
REMARK    8  A    between atoms: S1_14  and  C12_15 
REMARK    9  A    between atoms: C12_15  and  C13_16 
ROOT
HETATM    1  C4  UNL     1     -33.667  41.096  66.624  1.00  0.00     0.099 C 
ENDROOT
BRANCH   1   2
HETATM    2  C3  UNL     1     -32.721  42.278  66.295  1.00  0.00     0.185 C 
BRANCH   2   3
HETATM    3  O1  UNL     1     -32.181  42.024  65.053  1.00  0.00    -0.385 OA
BRANCH   3   4
HETATM    4  C2  UNL     1     -32.720  42.777  64.032  1.00  0.00     0.122 C 
HETATM    5  C1  UNL     1     -33.399  41.823  63.073  1.00  0.00     0.040 C 
BRANCH   4   6
HETATM    6  C17 UNL     1     -31.651  43.592  63.375  1.00  0.00     0.027 A 
HETATM    7  C18 UNL     1     -30.490  44.099  64.115  1.00  0.00    -0.003 A 
HETATM    8  C19 UNL     1     -29.137  44.247  63.472  1.00  0.00     0.011 C 
HETATM    9  C20 UNL     1     -31.542  45.045  63.563  1.00  0.00    -0.038 A 
HETATM   10  C21 UNL     1     -31.199  45.890  62.341  1.00  0.00     0.015 C 
HETATM   11  C22 UNL     1     -32.311  45.778  64.626  1.00  0.00     0.015 C 
ENDBRANCH   4   6
ENDBRANCH   3   4
ENDBRANCH   2   3
ENDBRANCH   1   2
BRANCH   1  12
HETATM   12  C5  UNL     1     -32.892  39.878  66.918  1.00  0.00     0.289 C 
BRANCH  12  13
HETATM   13  N1  UNL     1     -33.199  38.669  66.239  1.00  0.00     0.089 N 
HETATM   14  C6  UNL     1     -32.351  37.600  66.838  1.00  0.00     0.272 C 
HETATM   15  C7  UNL     1     -32.708  36.256  66.314  1.00  0.00     0.030 C 
HETATM   16  C8  UNL     1     -33.575  35.517  67.300  1.00  0.00     0.002 C 
HETATM   17  C9  UNL     1     -34.934  36.097  67.497  1.00  0.00     0.002 C 
HETATM   18  C10 UNL     1     -34.910  37.619  67.669  1.00  0.00     0.030 C 
HETATM   19  C11 UNL     1     -34.550  38.197  66.305  1.00  0.00     0.272 C 
ENDBRANCH  12  13
ENDBRANCH   1  12
BRANCH   1  20
HETATM   20  S1  UNL     1     -34.761  41.708  67.909  1.00  0.00    -0.154 SA
BRANCH  20  21
HETATM   21  C12 UNL     1     -33.765  42.588  69.142  1.00  0.00     0.133 C 
BRANCH  21  22
HETATM   22  C13 UNL     1     -33.680  41.791  70.387  1.00  0.00     0.054 A 
HETATM   23  C14 UNL     1     -34.551  41.912  71.478  1.00  0.00     0.161 A 
HETATM   24  N2  UNL     1     -34.190  41.040  72.425  1.00  0.00    -0.095 N 
HETATM   25  N3  UNL     1     -34.409  40.525  73.622  1.00  0.00    -0.275 N 
HETATM   26  C16 UNL     1     -33.125  40.383  71.952  1.00  0.00     0.704 A 
HETATM   27  C15 UNL     1     -33.523  39.569  73.926  1.00  0.00     0.215 A 
ATOM     28  H3  UNL     1     -35.163  40.821  74.241  1.00  0.00     0.189 HD
HETATM   29  N4  UNL     1     -32.705  39.482  72.858  1.00  0.00    -0.185 N 
ATOM     30  H4  UNL     1     -31.912  38.848  72.755  1.00  0.00     0.185 HD
HETATM   31  N5  UNL     1     -32.809  40.834  70.717  1.00  0.00    -0.191 N 
ATOM     32  H5  UNL     1     -32.039  40.501  70.138  1.00  0.00     0.184 HD
ENDBRANCH  21  22
ENDBRANCH  20  21
ENDBRANCH   1  20
TORSDOF 9
ENDMDL
MODEL 5
REMARK VINA RESULT: -7.809048064      2.451      7.074
REMARK  9 active torsions:
REMARK  status: ('A' for Active; 'I' for Inactive)
REMARK    1  A    between atoms: C2_2  and  O1_3 
REMARK    2  A    between atoms: C2_2  and  C17_27 
REMARK    3  A    between atoms: O1_3  and  C3_4 
REMARK    4  A    between atoms: C3_4  and  C4_5 
REMARK    5  A    between atoms: C4_5  and  C5_6 
REMARK    6  A    between atoms: C4_5  and  S1_14 
REMARK    7  A    between atoms: C5_6  and  N1_7 
REMARK    8  A    between atoms: S1_14  and  C12_15 
REMARK    9  A    between atoms: C12_15  and  C13_16 
ROOT
HETATM    1  C4  UNL     1     -33.109  42.361  64.811  1.00  0.00     0.099 C 
ENDROOT
BRANCH   1   2
HETATM    2  C3  UNL     1     -34.226  43.377  65.159  1.00  0.00     0.185 C 
BRANCH   2   3
HETATM    3  O1  UNL     1     -33.616  44.441  65.787  1.00  0.00    -0.385 OA
BRANCH   3   4
HETATM    4  C2  UNL     1     -34.439  45.527  65.997  1.00  0.00     0.122 C 
HETATM    5  C1  UNL     1     -35.834  45.130  65.563  1.00  0.00     0.040 C 
BRANCH   4   6
HETATM    6  C17 UNL     1     -33.920  46.717  65.253  1.00  0.00     0.027 A 
HETATM    7  C18 UNL     1     -32.552  47.215  65.432  1.00  0.00    -0.003 A 
HETATM    8  C19 UNL     1     -31.779  47.844  64.304  1.00  0.00     0.011 C 
HETATM    9  C20 UNL     1     -33.748  48.029  65.889  1.00  0.00    -0.038 A 
HETATM   10  C21 UNL     1     -34.148  49.262  65.084  1.00  0.00     0.015 C 
HETATM   11  C22 UNL     1     -33.817  48.215  67.379  1.00  0.00     0.015 C 
ENDBRANCH   4   6
ENDBRANCH   3   4
ENDBRANCH   2   3
ENDBRANCH   1   2
BRANCH   1  12
HETATM   12  C5  UNL     1     -33.642  40.988  64.803  1.00  0.00     0.289 C 
BRANCH  12  13
HETATM   13  N1  UNL     1     -34.549  40.581  65.818  1.00  0.00     0.089 N 
HETATM   14  C6  UNL     1     -35.218  39.338  65.337  1.00  0.00     0.272 C 
HETATM   15  C7  UNL     1     -36.071  38.730  66.391  1.00  0.00     0.030 C 
HETATM   16  C8  UNL     1     -35.360  37.574  67.047  1.00  0.00     0.002 C 
HETATM   17  C9  UNL     1     -34.165  37.952  67.855  1.00  0.00     0.002 C 
HETATM   18  C10 UNL     1     -33.253  38.949  67.134  1.00  0.00     0.030 C 
HETATM   19  C11 UNL     1     -34.006  40.274  67.107  1.00  0.00     0.272 C 
ENDBRANCH  12  13
ENDBRANCH   1  12
BRANCH   1  20
HETATM   20  S1  UNL     1     -32.373  42.969  63.291  1.00  0.00    -0.154 SA
BRANCH  20  21
HETATM   21  C12 UNL     1     -30.794  43.765  63.696  1.00  0.00     0.133 C 
BRANCH  21  22
HETATM   22  C13 UNL     1     -30.487  44.818  62.700  1.00  0.00     0.054 A 
HETATM   23  C14 UNL     1     -29.279  45.525  62.627  1.00  0.00     0.161 A 
HETATM   24  N2  UNL     1     -29.341  46.391  61.610  1.00  0.00    -0.095 N 
HETATM   25  N3  UNL     1     -28.749  47.333  60.898  1.00  0.00    -0.275 N 
HETATM   26  C16 UNL     1     -30.547  46.240  61.053  1.00  0.00     0.704 A 
HETATM   27  C15 UNL     1     -29.533  47.785  59.913  1.00  0.00     0.215 A 
ATOM     28  H3  UNL     1     -27.805  47.676  61.079  1.00  0.00     0.189 HD
HETATM   29  N4  UNL     1     -30.680  47.084  60.015  1.00  0.00    -0.185 N 
ATOM     30  H4  UNL     1     -31.501  47.178  59.415  1.00  0.00     0.185 HD
HETATM   31  N5  UNL     1     -31.249  45.288  61.709  1.00  0.00    -0.191 N 
ATOM     32  H5  UNL     1     -32.196  44.982  61.486  1.00  0.00     0.184 HD
ENDBRANCH  21  22
ENDBRANCH  20  21
ENDBRANCH   1  20
TORSDOF 9
ENDMDL
