MODEL 1
REMARK VINA RESULT: -6.036017715      0.000      0.000
REMARK  9 active torsions:
REMARK  status: ('A' for Active; 'I' for Inactive)
REMARK    1  A    between atoms: C2_2  and  C3_3 
REMARK    2  A    between atoms: C6_6  and  O1_7 
REMARK    3  A    between atoms: C8_10  and  O2_11 
REMARK    4  A    between atoms: C12_16  and  N1_17 
REMARK    5  A    between atoms: N1_17  and  C13_20 
REMARK    6  A    between atoms: C13_20  and  C14_21 
REMARK    7  A    between atoms: C14_21  and  O3_22 
REMARK    8  A    between atoms: C18_26  and  O4_27 
REMARK    9  A    between atoms: C23_33  and  C24_34 
ROOT
HETATM    1  C3  UNL     1       5.313  -1.009 -21.410  1.00  0.00    -0.032 C 
HETATM    2  C4  UNL     1       6.861  -0.790 -21.290  1.00  0.00     0.016 C 
HETATM    3  C5  UNL     1       5.187  -1.638 -22.737  1.00  0.00     0.041 C 
HETATM    4  C6  UNL     1       3.987  -2.413 -23.098  1.00  0.00     0.121 C 
HETATM    5  C7  UNL     1       3.064  -1.606 -24.023  1.00  0.00     0.070 C 
HETATM    6  C8  UNL     1       1.864  -1.096 -23.317  1.00  0.00     0.072 C 
HETATM    7  C9  UNL     1       0.651  -1.933 -23.655  1.00  0.00     0.044 C 
HETATM    8  C10 UNL     1      -0.323  -1.132 -24.303  1.00  0.00    -0.003 C 
HETATM    9  C11 UNL     1      -1.676  -1.585 -24.757  1.00  0.00     0.038 C 
HETATM   10  C12 UNL     1      -2.180  -0.377 -25.531  1.00  0.00     0.193 C 
HETATM   11  C16 UNL     1      -1.245   0.783 -25.693  1.00  0.00     0.047 C 
HETATM   12  C17 UNL     1      -0.608   0.846 -27.070  1.00  0.00     0.015 C 
HETATM   13  C18 UNL     1      -0.386   1.152 -24.565  1.00  0.00     0.068 C 
HETATM   14  C19 UNL     1       1.110   0.882 -24.695  1.00  0.00     0.056 C 
HETATM   15  C20 UNL     1       1.672   0.412 -23.424  1.00  0.00     0.025 C 
HETATM   16  C21 UNL     1       0.433   0.530 -22.524  1.00  0.00     0.025 C 
HETATM   17  C22 UNL     1      -0.615   0.076 -23.487  1.00  0.00     0.026 C 
HETATM   18  C23 UNL     1       2.853   1.192 -22.923  1.00  0.00     0.002 C 
HETATM   19  C27 UNL     1       3.447   0.772 -21.628  1.00  0.00     0.161 C 
HETATM   20  O5  UNL     1       2.621   0.832 -20.674  1.00  0.00    -0.292 OA
HETATM   21  C28 UNL     1       4.731   0.316 -21.177  1.00  0.00     0.064 C 
HETATM   22  C29 UNL     1       4.879   0.538 -19.633  1.00  0.00     0.019 C 
ENDROOT
BRANCH  10  23
HETATM   23  N1  UNL     1      -3.481   0.006 -25.047  1.00  0.00    -0.069 N 
ATOM     24  H12 UNL     1      -4.049  -0.810 -24.819  1.00  0.00     0.277 HD
ATOM     25  H11 UNL     1      -3.425   0.424 -24.118  1.00  0.00     0.277 HD
BRANCH  23  26
HETATM   26  C13 UNL     1      -4.160   0.878 -25.977  1.00  0.00     0.258 C 
BRANCH  26  27
HETATM   27  C14 UNL     1      -5.373   1.563 -25.436  1.00  0.00     0.194 C 
BRANCH  27  28
HETATM   28  O3  UNL     1      -5.915   0.917 -24.367  1.00  0.00    -0.394 OA
HETATM   29  C15 UNL     1      -7.031   1.485 -23.842  1.00  0.00     0.201 C 
ENDBRANCH  27  28
ENDBRANCH  26  27
ENDBRANCH  23  26
ENDBRANCH  10  23
BRANCH  13  30
HETATM   30  O4  UNL     1      -0.662   2.351 -23.950  1.00  0.00    -0.389 OA
ATOM     31  H4  UNL     1      -0.516   2.390 -23.013  1.00  0.00     0.210 HD
ENDBRANCH  13  30
BRANCH   6  32
HETATM   32  O2  UNL     1       2.029  -1.382 -21.972  1.00  0.00    -0.389 OA
ATOM     33  H2  UNL     1       1.218  -1.150 -21.535  1.00  0.00     0.210 HD
ENDBRANCH   6  32
BRANCH  18  34
HETATM   34  C24 UNL     1       3.566   2.180 -23.732  1.00  0.00    -0.077 C 
HETATM   35  C25 UNL     1       3.873   3.560 -23.189  1.00  0.00     0.043 C 
HETATM   36  C26 UNL     1       4.737   1.878 -24.553  1.00  0.00     0.043 C 
ENDBRANCH  18  34
BRANCH   4  37
HETATM   37  O1  UNL     1       4.309  -3.576 -23.845  1.00  0.00    -0.395 OA
ATOM     38  H1  UNL     1       4.221  -3.435 -24.780  1.00  0.00     0.210 HD
ENDBRANCH   4  37
BRANCH   1  39
HETATM   39  C2  UNL     1       5.124  -1.982 -20.229  1.00  0.00     0.005 C 
HETATM   40  C1  UNL     1       6.361  -2.843 -20.097  1.00  0.00     0.006 C 
ENDBRANCH   1  39
TORSDOF 9
ENDMDL
MODEL 2
REMARK VINA RESULT: -5.692660255      3.055      5.053
REMARK  9 active torsions:
REMARK  status: ('A' for Active; 'I' for Inactive)
REMARK    1  A    between atoms: C2_2  and  C3_3 
REMARK    2  A    between atoms: C6_6  and  O1_7 
REMARK    3  A    between atoms: C8_10  and  O2_11 
REMARK    4  A    between atoms: C12_16  and  N1_17 
REMARK    5  A    between atoms: N1_17  and  C13_20 
REMARK    6  A    between atoms: C13_20  and  C14_21 
REMARK    7  A    between atoms: C14_21  and  O3_22 
REMARK    8  A    between atoms: C18_26  and  O4_27 
REMARK    9  A    between atoms: C23_33  and  C24_34 
ROOT
HETATM    1  C3  UNL     1       7.821  -2.959 -25.321  1.00  0.00    -0.032 C 
HETATM    2  C4  UNL     1       9.266  -2.635 -24.805  1.00  0.00     0.016 C 
HETATM    3  C5  UNL     1       7.361  -1.648 -25.810  1.00  0.00     0.041 C 
HETATM    4  C6  UNL     1       6.247  -1.543 -26.769  1.00  0.00     0.121 C 
HETATM    5  C7  UNL     1       4.954  -1.098 -26.069  1.00  0.00     0.070 C 
HETATM    6  C8  UNL     1       3.993  -2.214 -25.897  1.00  0.00     0.072 C 
HETATM    7  C9  UNL     1       2.885  -2.125 -26.921  1.00  0.00     0.044 C 
HETATM    8  C10 UNL     1       1.637  -1.954 -26.267  1.00  0.00    -0.003 C 
HETATM    9  C11 UNL     1       0.299  -1.865 -26.934  1.00  0.00     0.038 C 
HETATM   10  C12 UNL     1      -0.616  -1.502 -25.775  1.00  0.00     0.193 C 
HETATM   11  C16 UNL     1       0.016  -1.263 -24.438  1.00  0.00     0.047 C 
HETATM   12  C17 UNL     1       0.141   0.210 -24.093  1.00  0.00     0.015 C 
HETATM   13  C18 UNL     1       1.133  -2.120 -24.030  1.00  0.00     0.068 C 
HETATM   14  C19 UNL     1       2.523  -1.494 -23.973  1.00  0.00     0.056 C 
HETATM   15  C20 UNL     1       3.542  -2.432 -24.457  1.00  0.00     0.025 C 
HETATM   16  C21 UNL     1       2.671  -3.674 -24.696  1.00  0.00     0.025 C 
HETATM   17  C22 UNL     1       1.447  -3.015 -25.244  1.00  0.00     0.026 C 
HETATM   18  C23 UNL     1       4.685  -2.674 -23.513  1.00  0.00     0.002 C 
HETATM   19  C27 UNL     1       5.734  -3.632 -23.945  1.00  0.00     0.161 C 
HETATM   20  O5  UNL     1       5.274  -4.789 -24.162  1.00  0.00    -0.292 OA
HETATM   21  C28 UNL     1       7.149  -3.583 -24.177  1.00  0.00     0.064 C 
HETATM   22  C29 UNL     1       7.765  -5.021 -24.103  1.00  0.00     0.019 C 
ENDROOT
BRANCH  10  23
HETATM   23  N1  UNL     1      -1.726  -2.419 -25.723  1.00  0.00    -0.069 N 
ATOM     24  H12 UNL     1      -2.390  -2.244 -26.476  1.00  0.00     0.277 HD
ATOM     25  H11 UNL     1      -1.440  -3.364 -25.980  1.00  0.00     0.277 HD
BRANCH  23  26
HETATM   26  C13 UNL     1      -2.374  -2.398 -24.431  1.00  0.00     0.258 C 
BRANCH  26  27
HETATM   27  C14 UNL     1      -2.672  -3.741 -23.848  1.00  0.00     0.194 C 
BRANCH  27  28
HETATM   28  O3  UNL     1      -1.553  -4.407 -23.451  1.00  0.00    -0.394 OA
HETATM   29  C15 UNL     1      -1.288  -5.560 -24.118  1.00  0.00     0.201 C 
ENDBRANCH  27  28
ENDBRANCH  26  27
ENDBRANCH  23  26
ENDBRANCH  10  23
BRANCH  13  30
HETATM   30  O4  UNL     1       0.892  -2.986 -22.989  1.00  0.00    -0.389 OA
ATOM     31  H4  UNL     1       1.623  -3.524 -22.708  1.00  0.00     0.210 HD
ENDBRANCH  13  30
BRANCH   6  32
HETATM   32  O2  UNL     1       4.639  -3.374 -26.291  1.00  0.00    -0.389 OA
ATOM     33  H2  UNL     1       4.729  -3.920 -25.519  1.00  0.00     0.210 HD
ENDBRANCH   6  32
BRANCH  18  34
HETATM   34  C24 UNL     1       4.923  -1.867 -22.316  1.00  0.00    -0.077 C 
HETATM   35  C25 UNL     1       5.386  -2.506 -21.023  1.00  0.00     0.043 C 
HETATM   36  C26 UNL     1       5.617  -0.580 -22.318  1.00  0.00     0.043 C 
ENDBRANCH  18  34
BRANCH   4  37
HETATM   37  O1  UNL     1       6.480  -0.545 -27.751  1.00  0.00    -0.395 OA
ATOM     38  H1  UNL     1       5.689  -0.320 -28.225  1.00  0.00     0.210 HD
ENDBRANCH   4  37
BRANCH   1  39
HETATM   39  C2  UNL     1       8.191  -3.956 -26.437  1.00  0.00     0.005 C 
HETATM   40  C1  UNL     1       9.447  -3.476 -27.130  1.00  0.00     0.006 C 
ENDBRANCH   1  39
TORSDOF 9
ENDMDL
MODEL 3
REMARK VINA RESULT: -5.553160449      2.717      5.075
REMARK  9 active torsions:
REMARK  status: ('A' for Active; 'I' for Inactive)
REMARK    1  A    between atoms: C2_2  and  C3_3 
REMARK    2  A    between atoms: C6_6  and  O1_7 
REMARK    3  A    between atoms: C8_10  and  O2_11 
REMARK    4  A    between atoms: C12_16  and  N1_17 
REMARK    5  A    between atoms: N1_17  and  C13_20 
REMARK    6  A    between atoms: C13_20  and  C14_21 
REMARK    7  A    between atoms: C14_21  and  O3_22 
REMARK    8  A    between atoms: C18_26  and  O4_27 
REMARK    9  A    between atoms: C23_33  and  C24_34 
ROOT
HETATM    1  C3  UNL     1       4.010   2.567 -20.912  1.00  0.00    -0.032 C 
HETATM    2  C4  UNL     1       4.958   2.967 -19.729  1.00  0.00     0.016 C 
HETATM    3  C5  UNL     1       2.826   2.051 -20.205  1.00  0.00     0.041 C 
HETATM    4  C6  UNL     1       1.517   1.965 -20.877  1.00  0.00     0.121 C 
HETATM    5  C7  UNL     1       1.198   0.518 -21.285  1.00  0.00     0.070 C 
HETATM    6  C8  UNL     1       1.358   0.295 -22.742  1.00  0.00     0.072 C 
HETATM    7  C9  UNL     1       0.012   0.263 -23.427  1.00  0.00     0.044 C 
HETATM    8  C10 UNL     1      -0.195  -1.008 -24.024  1.00  0.00    -0.003 C 
HETATM    9  C11 UNL     1      -1.390  -1.418 -24.828  1.00  0.00     0.038 C 
HETATM   10  C12 UNL     1      -1.145  -2.905 -25.036  1.00  0.00     0.193 C 
HETATM   11  C16 UNL     1       0.051  -3.512 -24.369  1.00  0.00     0.047 C 
HETATM   12  C17 UNL     1      -0.299  -4.296 -23.117  1.00  0.00     0.015 C 
HETATM   13  C18 UNL     1       1.293  -2.735 -24.319  1.00  0.00     0.068 C 
HETATM   14  C19 UNL     1       1.737  -2.193 -22.964  1.00  0.00     0.056 C 
HETATM   15  C20 UNL     1       2.304  -0.847 -23.097  1.00  0.00     0.025 C 
HETATM   16  C21 UNL     1       2.261  -0.687 -24.623  1.00  0.00     0.025 C 
HETATM   17  C22 UNL     1       0.952  -1.351 -24.904  1.00  0.00     0.026 C 
HETATM   18  C23 UNL     1       3.678  -0.674 -22.515  1.00  0.00     0.002 C 
HETATM   19  C27 UNL     1       4.309   0.664 -22.642  1.00  0.00     0.161 C 
HETATM   20  O5  UNL     1       4.446   1.023 -23.845  1.00  0.00    -0.292 OA
HETATM   21  C28 UNL     1       4.812   1.661 -21.741  1.00  0.00     0.064 C 
HETATM   22  C29 UNL     1       5.822   2.604 -22.478  1.00  0.00     0.019 C 
ENDROOT
BRANCH  10  23
HETATM   23  N1  UNL     1      -1.236  -3.224 -26.437  1.00  0.00    -0.069 N 
ATOM     24  H12 UNL     1      -2.204  -3.371 -26.724  1.00  0.00     0.277 HD
ATOM     25  H11 UNL     1      -1.020  -2.414 -27.019  1.00  0.00     0.277 HD
BRANCH  23  26
HETATM   26  C13 UNL     1      -0.406  -4.357 -26.781  1.00  0.00     0.258 C 
BRANCH  26  27
HETATM   27  C14 UNL     1       0.450  -4.172 -27.992  1.00  0.00     0.194 C 
BRANCH  27  28
HETATM   28  O3  UNL     1       1.316  -3.128 -27.875  1.00  0.00    -0.394 OA
HETATM   29  C15 UNL     1       1.200  -2.161 -28.821  1.00  0.00     0.201 C 
ENDBRANCH  27  28
ENDBRANCH  26  27
ENDBRANCH  23  26
ENDBRANCH  10  23
BRANCH  13  30
HETATM   30  O4  UNL     1       2.341  -3.205 -25.076  1.00  0.00    -0.389 OA
ATOM     31  H4  UNL     1       3.197  -3.197 -24.666  1.00  0.00     0.210 HD
ENDBRANCH  13  30
BRANCH   6  32
HETATM   32  O2  UNL     1       1.910   1.448 -23.274  1.00  0.00    -0.389 OA
ATOM     33  H2  UNL     1       2.645   1.688 -22.723  1.00  0.00     0.210 HD
ENDBRANCH   6  32
BRANCH  18  34
HETATM   34  C24 UNL     1       4.318  -1.671 -21.657  1.00  0.00    -0.077 C 
HETATM   35  C25 UNL     1       5.668  -2.259 -22.016  1.00  0.00     0.043 C 
HETATM   36  C26 UNL     1       4.369  -1.589 -20.199  1.00  0.00     0.043 C 
ENDBRANCH  18  34
BRANCH   4  37
HETATM   37  O1  UNL     1       0.450   2.334 -20.017  1.00  0.00    -0.395 OA
ATOM     38  H1  UNL     1       0.321   1.705 -19.318  1.00  0.00     0.210 HD
ENDBRANCH   4  37
BRANCH   1  39
HETATM   39  C2  UNL     1       3.815   3.963 -21.536  1.00  0.00     0.005 C 
HETATM   40  C1  UNL     1       3.647   4.980 -20.427  1.00  0.00     0.006 C 
ENDBRANCH   1  39
TORSDOF 9
ENDMDL
MODEL 4
REMARK VINA RESULT: -5.534323143      1.962      2.952
REMARK  9 active torsions:
REMARK  status: ('A' for Active; 'I' for Inactive)
REMARK    1  A    between atoms: C2_2  and  C3_3 
REMARK    2  A    between atoms: C6_6  and  O1_7 
REMARK    3  A    between atoms: C8_10  and  O2_11 
REMARK    4  A    between atoms: C12_16  and  N1_17 
REMARK    5  A    between atoms: N1_17  and  C13_20 
REMARK    6  A    between atoms: C13_20  and  C14_21 
REMARK    7  A    between atoms: C14_21  and  O3_22 
REMARK    8  A    between atoms: C18_26  and  O4_27 
REMARK    9  A    between atoms: C23_33  and  C24_34 
ROOT
HETATM    1  C3  UNL     1       5.838  -1.104 -21.129  1.00  0.00    -0.032 C 
HETATM    2  C4  UNL     1       7.142  -1.119 -20.260  1.00  0.00     0.016 C 
HETATM    3  C5  UNL     1       6.164  -0.109 -22.166  1.00  0.00     0.041 C 
HETATM    4  C6  UNL     1       5.429  -0.074 -23.442  1.00  0.00     0.121 C 
HETATM    5  C7  UNL     1       4.412   1.078 -23.464  1.00  0.00     0.070 C 
HETATM    6  C8  UNL     1       3.018   0.603 -23.292  1.00  0.00     0.072 C 
HETATM    7  C9  UNL     1       2.291   0.592 -24.617  1.00  0.00     0.044 C 
HETATM    8  C10 UNL     1       1.190   1.485 -24.570  1.00  0.00    -0.003 C 
HETATM    9  C11 UNL     1       0.203   1.724 -25.671  1.00  0.00     0.038 C 
HETATM   10  C12 UNL     1      -0.611   2.889 -25.128  1.00  0.00     0.193 C 
HETATM   11  C16 UNL     1      -0.188   3.482 -23.818  1.00  0.00     0.047 C 
HETATM   12  C17 UNL     1       0.571   4.788 -23.972  1.00  0.00     0.015 C 
HETATM   13  C18 UNL     1       0.283   2.580 -22.763  1.00  0.00     0.068 C 
HETATM   14  C19 UNL     1       1.767   2.613 -22.412  1.00  0.00     0.056 C 
HETATM   15  C20 UNL     1       2.272   1.263 -22.139  1.00  0.00     0.025 C 
HETATM   16  C21 UNL     1       0.967   0.461 -22.246  1.00  0.00     0.025 C 
HETATM   17  C22 UNL     1       0.333   1.176 -23.395  1.00  0.00     0.026 C 
HETATM   18  C23 UNL     1       2.969   1.100 -20.818  1.00  0.00     0.002 C 
HETATM   19  C27 UNL     1       3.480  -0.253 -20.480  1.00  0.00     0.161 C 
HETATM   20  O5  UNL     1       2.565  -1.122 -20.446  1.00  0.00    -0.292 OA
HETATM   21  C28 UNL     1       4.759  -0.830 -20.175  1.00  0.00     0.064 C 
HETATM   22  C29 UNL     1       4.578  -2.178 -19.398  1.00  0.00     0.019 C 
ENDROOT
BRANCH  10  23
HETATM   23  N1  UNL     1      -2.015   2.572 -25.181  1.00  0.00    -0.069 N 
ATOM     24  H12 UNL     1      -2.354   2.234 -24.281  1.00  0.00     0.277 HD
ATOM     25  H11 UNL     1      -2.584   3.415 -25.260  1.00  0.00     0.277 HD
BRANCH  23  26
HETATM   26  C13 UNL     1      -2.309   1.635 -26.242  1.00  0.00     0.258 C 
BRANCH  26  27
HETATM   27  C14 UNL     1      -3.421   0.679 -25.953  1.00  0.00     0.194 C 
BRANCH  27  28
HETATM   28  O3  UNL     1      -3.033  -0.623 -26.023  1.00  0.00    -0.394 OA
HETATM   29  C15 UNL     1      -2.633  -1.180 -24.850  1.00  0.00     0.201 C 
ENDBRANCH  27  28
ENDBRANCH  26  27
ENDBRANCH  23  26
ENDBRANCH  10  23
BRANCH  13  30
HETATM   30  O4  UNL     1      -0.526   2.455 -21.657  1.00  0.00    -0.389 OA
ATOM     31  H4  UNL     1      -0.631   1.579 -21.306  1.00  0.00     0.210 HD
ENDBRANCH  13  30
BRANCH   6  32
HETATM   32  O2  UNL     1       3.080  -0.750 -23.002  1.00  0.00    -0.389 OA
ATOM     33  H2  UNL     1       3.586  -0.843 -22.204  1.00  0.00     0.210 HD
ENDBRANCH   6  32
BRANCH  18  34
HETATM   34  C24 UNL     1       3.353   2.226 -19.967  1.00  0.00    -0.077 C 
HETATM   35  C25 UNL     1       3.064   2.216 -18.480  1.00  0.00     0.043 C 
HETATM   36  C26 UNL     1       4.637   2.919 -20.051  1.00  0.00     0.043 C 
ENDBRANCH  18  34
BRANCH   4  37
HETATM   37  O1  UNL     1       6.284   0.188 -24.544  1.00  0.00    -0.395 OA
ATOM     38  H1  UNL     1       5.905  -0.099 -25.366  1.00  0.00     0.210 HD
ENDBRANCH   4  37
BRANCH   1  39
HETATM   39  C2  UNL     1       5.869  -2.564 -21.622  1.00  0.00     0.005 C 
HETATM   40  C1  UNL     1       7.300  -2.950 -21.930  1.00  0.00     0.006 C 
ENDBRANCH   1  39
TORSDOF 9
ENDMDL
MODEL 5
REMARK VINA RESULT: -5.527010237      2.748      3.691
REMARK  9 active torsions:
REMARK  status: ('A' for Active; 'I' for Inactive)
REMARK    1  A    between atoms: C2_2  and  C3_3 
REMARK    2  A    between atoms: C6_6  and  O1_7 
REMARK    3  A    between atoms: C8_10  and  O2_11 
REMARK    4  A    between atoms: C12_16  and  N1_17 
REMARK    5  A    between atoms: N1_17  and  C13_20 
REMARK    6  A    between atoms: C13_20  and  C14_21 
REMARK    7  A    between atoms: C14_21  and  O3_22 
REMARK    8  A    between atoms: C18_26  and  O4_27 
REMARK    9  A    between atoms: C23_33  and  C24_34 
ROOT
HETATM    1  C3  UNL     1       3.634   1.757 -20.441  1.00  0.00    -0.032 C 
HETATM    2  C4  UNL     1       4.347   3.038 -19.886  1.00  0.00     0.016 C 
HETATM    3  C5  UNL     1       4.490   1.393 -21.584  1.00  0.00     0.041 C 
HETATM    4  C6  UNL     1       4.471   0.030 -22.142  1.00  0.00     0.121 C 
HETATM    5  C7  UNL     1       3.674  -0.021 -23.455  1.00  0.00     0.070 C 
HETATM    6  C8  UNL     1       2.344  -0.652 -23.283  1.00  0.00     0.072 C 
HETATM    7  C9  UNL     1       2.353  -2.068 -23.810  1.00  0.00     0.044 C 
HETATM    8  C10 UNL     1       1.431  -2.190 -24.881  1.00  0.00    -0.003 C 
HETATM    9  C11 UNL     1       1.122  -3.445 -25.638  1.00  0.00     0.038 C 
HETATM   10  C12 UNL     1       0.229  -2.935 -26.759  1.00  0.00     0.193 C 
HETATM   11  C16 UNL     1       0.001  -1.457 -26.848  1.00  0.00     0.047 C 
HETATM   12  C17 UNL     1       0.826  -0.792 -27.935  1.00  0.00     0.015 C 
HETATM   13  C18 UNL     1      -0.163  -0.699 -25.604  1.00  0.00     0.068 C 
HETATM   14  C19 UNL     1       0.963   0.247 -25.198  1.00  0.00     0.056 C 
HETATM   15  C20 UNL     1       1.179   0.214 -23.747  1.00  0.00     0.025 C 
HETATM   16  C21 UNL     1       0.039  -0.726 -23.328  1.00  0.00     0.025 C 
HETATM   17  C22 UNL     1       0.093  -1.699 -24.460  1.00  0.00     0.026 C 
HETATM   18  C23 UNL     1       1.133   1.552 -23.066  1.00  0.00     0.002 C 
HETATM   19  C27 UNL     1       1.322   1.574 -21.593  1.00  0.00     0.161 C 
HETATM   20  O5  UNL     1       0.449   0.896 -20.982  1.00  0.00    -0.292 OA
HETATM   21  C28 UNL     1       2.249   2.176 -20.677  1.00  0.00     0.064 C 
HETATM   22  C29 UNL     1       1.622   2.263 -19.244  1.00  0.00     0.019 C 
ENDROOT
BRANCH  10  23
HETATM   23  N1  UNL     1      -0.990  -3.701 -26.799  1.00  0.00    -0.069 N 
ATOM     24  H12 UNL     1      -1.810  -3.100 -26.721  1.00  0.00     0.277 HD
ATOM     25  H11 UNL     1      -1.161  -4.082 -27.730  1.00  0.00     0.277 HD
BRANCH  23  26
HETATM   26  C13 UNL     1      -1.000  -4.740 -25.794  1.00  0.00     0.258 C 
BRANCH  26  27
HETATM   27  C14 UNL     1      -2.162  -4.703 -24.854  1.00  0.00     0.194 C 
BRANCH  27  28
HETATM   28  O3  UNL     1      -1.808  -4.359 -23.586  1.00  0.00    -0.394 OA
HETATM   29  C15 UNL     1      -0.677  -4.943 -23.113  1.00  0.00     0.201 C 
ENDBRANCH  27  28
ENDBRANCH  26  27
ENDBRANCH  23  26
ENDBRANCH  10  23
BRANCH  13  30
HETATM   30  O4  UNL     1      -1.413  -0.179 -25.364  1.00  0.00    -0.389 OA
ATOM     31  H4  UNL     1      -1.948  -0.638 -24.728  1.00  0.00     0.210 HD
ENDBRANCH  13  30
BRANCH   6  32
HETATM   32  O2  UNL     1       2.165  -0.865 -21.926  1.00  0.00    -0.389 OA
ATOM     33  H2  UNL     1       2.253  -1.799 -21.775  1.00  0.00     0.210 HD
ENDBRANCH   6  32
BRANCH  18  34
HETATM   34  C24 UNL     1       1.130   2.823 -23.790  1.00  0.00    -0.077 C 
HETATM   35  C25 UNL     1       0.084   3.881 -23.508  1.00  0.00     0.043 C 
HETATM   36  C26 UNL     1       2.330   3.609 -24.072  1.00  0.00     0.043 C 
ENDBRANCH  18  34
BRANCH   4  37
HETATM   37  O1  UNL     1       5.770  -0.419 -22.499  1.00  0.00    -0.395 OA
ATOM     38  H1  UNL     1       5.749  -1.031 -23.224  1.00  0.00     0.210 HD
ENDBRANCH   4  37
BRANCH   1  39
HETATM   39  C2  UNL     1       3.802   0.845 -19.211  1.00  0.00     0.005 C 
HETATM   40  C1  UNL     1       5.180   1.058 -18.622  1.00  0.00     0.006 C 
ENDBRANCH   1  39
TORSDOF 9
ENDMDL
