MODEL 1
REMARK VINA RESULT: -7.243615344      0.000      0.000
REMARK  6 active torsions:
REMARK  status: ('A' for Active; 'I' for Inactive)
REMARK    1  A    between atoms: C2_2  and  C3_3 
REMARK       I    between atoms: N1_4  and  C4_5 
REMARK       I    between atoms: C4_5  and  N2_7 
REMARK    2  A    between atoms: N2_7  and  C5_9 
REMARK    3  A    between atoms: C17_24  and  N3_25 
REMARK    4  A    between atoms: N3_25  and  C18_27 
REMARK    5  A    between atoms: C18_27  and  C19_28 
REMARK    6  A    between atoms: C19_28  and  N4_29 
ROOT
HETATM    1  C3  UNL     1      17.052  -5.539  -6.505  1.00  0.00     0.119 C 
HETATM    2  N1  UNL     1      17.412  -5.870  -5.154  1.00  0.00    -0.322 N 
HETATM    3  C4  UNL     1      18.368  -6.800  -4.714  1.00  0.00     0.323 C 
HETATM    4  O1  UNL     1      19.018  -7.544  -5.495  1.00  0.00    -0.247 OA
HETATM    5  N2  UNL     1      18.648  -6.939  -3.340  1.00  0.00    -0.309 N 
ATOM      6  H2  UNL     1      18.125  -6.342  -2.700  1.00  0.00     0.170 HD
HETATM    7  C14 UNL     1      16.588  -5.133  -4.179  1.00  0.00     0.092 C 
HETATM    8  C15 UNL     1      17.209  -3.775  -4.060  1.00  0.00     0.028 C 
HETATM    9  C16 UNL     1      17.630  -3.333  -5.470  1.00  0.00     0.038 C 
HETATM   10  C17 UNL     1      16.776  -4.024  -6.493  1.00  0.00     0.081 C 
HETATM   11  C24 UNL     1      15.363  -3.879  -5.956  1.00  0.00     0.202 C 
HETATM   12  F2  UNL     1      14.436  -4.113  -6.977  1.00  0.00    -0.247 F 
HETATM   13  C25 UNL     1      15.213  -4.916  -4.858  1.00  0.00     0.065 C 
ENDROOT
BRANCH   1  14
HETATM   14  C2  UNL     1      17.924  -5.976  -7.598  1.00  0.00     0.023 C 
HETATM   15  C1  UNL     1      17.485  -6.904  -8.635  1.00  0.00     0.007 C 
ENDBRANCH   1  14
BRANCH  10  16
HETATM   16  N3  UNL     1      16.829  -3.498  -7.788  1.00  0.00    -0.387 N 
ATOM     17  H3  UNL     1      16.360  -4.013  -8.533  1.00  0.00     0.159 HD
BRANCH  16  18
HETATM   18  C18 UNL     1      17.482  -2.317  -8.123  1.00  0.00     0.075 C 
BRANCH  18  19
HETATM   19  C19 UNL     1      16.681  -1.103  -8.447  1.00  0.00     0.161 C 
BRANCH  19  20
HETATM   20  N4  UNL     1      15.513  -0.966  -7.615  1.00  0.00    -0.405 N 
HETATM   21  C20 UNL     1      15.726  -0.244  -6.408  1.00  0.00     0.144 C 
HETATM   22  C21 UNL     1      14.648  -0.382  -5.388  1.00  0.00     0.251 C 
HETATM   23  N5  UNL     1      13.360  -0.571  -6.028  1.00  0.00    -0.072 N 
HETATM   24  C22 UNL     1      13.366   0.050  -7.341  1.00  0.00     0.251 C 
ATOM     25  H52 UNL     1      13.093  -1.554  -6.069  1.00  0.00     0.277 HD
ATOM     26  H51 UNL     1      12.591  -0.234  -5.448  1.00  0.00     0.277 HD
HETATM   27  C23 UNL     1      14.292  -0.712  -8.288  1.00  0.00     0.144 C 
ENDBRANCH  19  20
ENDBRANCH  18  19
ENDBRANCH  16  18
ENDBRANCH  10  16
BRANCH   5  28
HETATM   28  C5  UNL     1      19.583  -7.827  -2.763  1.00  0.00     0.039 A 
HETATM   29  C6  UNL     1      19.358  -8.788  -1.826  1.00  0.00     0.032 A 
HETATM   30  C7  UNL     1      20.417  -9.574  -1.335  1.00  0.00     0.042 A 
HETATM   31  C8  UNL     1      21.715  -9.425  -1.760  1.00  0.00     0.102 A 
HETATM   32  C9  UNL     1      21.942  -8.453  -2.708  1.00  0.00     0.108 A 
HETATM   33  O3  UNL     1      22.760 -10.202  -1.274  1.00  0.00    -0.343 OA
HETATM   34  C10 UNL     1      20.912  -7.681  -3.192  1.00  0.00     0.069 A 
HETATM   35  O2  UNL     1      23.257  -8.304  -3.136  1.00  0.00    -0.305 OA
HETATM   36  C11 UNL     1      24.271  -9.234  -2.815  1.00  0.00     0.228 C 
HETATM   37  C12 UNL     1      24.238 -10.442  -3.741  1.00  0.00     0.087 C 
HETATM   38  F1  UNL     1      25.475  -8.557  -2.930  1.00  0.00    -0.209 F 
HETATM   39  C13 UNL     1      24.093  -9.745  -1.401  1.00  0.00     0.249 C 
ENDBRANCH   5  28
TORSDOF 6
ENDMDL
MODEL 2
REMARK VINA RESULT: -7.113988771      3.758     10.515
REMARK  6 active torsions:
REMARK  status: ('A' for Active; 'I' for Inactive)
REMARK    1  A    between atoms: C2_2  and  C3_3 
REMARK       I    between atoms: N1_4  and  C4_5 
REMARK       I    between atoms: C4_5  and  N2_7 
REMARK    2  A    between atoms: N2_7  and  C5_9 
REMARK    3  A    between atoms: C17_24  and  N3_25 
REMARK    4  A    between atoms: N3_25  and  C18_27 
REMARK    5  A    between atoms: C18_27  and  C19_28 
REMARK    6  A    between atoms: C19_28  and  N4_29 
ROOT
HETATM    1  C3  UNL     1      18.995  -3.865  -5.053  1.00  0.00     0.119 C 
HETATM    2  N1  UNL     1      17.656  -3.420  -5.326  1.00  0.00    -0.322 N 
HETATM    3  C4  UNL     1      17.243  -2.381  -6.176  1.00  0.00     0.323 C 
HETATM    4  O1  UNL     1      18.047  -1.631  -6.790  1.00  0.00    -0.247 OA
HETATM    5  N2  UNL     1      15.872  -2.133  -6.384  1.00  0.00    -0.309 N 
ATOM      6  H2  UNL     1      15.214  -2.735  -5.890  1.00  0.00     0.170 HD
HETATM    7  C14 UNL     1      16.666  -4.167  -4.530  1.00  0.00     0.092 C 
HETATM    8  C15 UNL     1      16.435  -5.453  -5.262  1.00  0.00     0.028 C 
HETATM    9  C16 UNL     1      17.798  -5.941  -5.779  1.00  0.00     0.038 C 
HETATM   10  C17 UNL     1      18.894  -5.396  -4.912  1.00  0.00     0.081 C 
HETATM   11  C24 UNL     1      18.400  -5.635  -3.495  1.00  0.00     0.202 C 
HETATM   12  F2  UNL     1      19.467  -5.550  -2.595  1.00  0.00    -0.247 F 
HETATM   13  C25 UNL     1      17.378  -4.550  -3.209  1.00  0.00     0.065 C 
ENDROOT
BRANCH   1  14
HETATM   14  C2  UNL     1      20.081  -3.420  -5.928  1.00  0.00     0.023 C 
HETATM   15  C1  UNL     1      21.167  -2.562  -5.464  1.00  0.00     0.007 C 
ENDBRANCH   1  14
BRANCH  10  16
HETATM   16  N3  UNL     1      20.149  -5.994  -5.066  1.00  0.00    -0.387 N 
ATOM     17  H3  UNL     1      20.971  -5.391  -5.047  1.00  0.00     0.159 HD
BRANCH  16  18
HETATM   18  C18 UNL     1      20.345  -7.359  -5.243  1.00  0.00     0.075 C 
BRANCH  18  19
HETATM   19  C19 UNL     1      21.595  -7.992  -4.738  1.00  0.00     0.161 C 
BRANCH  19  20
HETATM   20  N4  UNL     1      21.505  -8.380  -3.353  1.00  0.00    -0.405 N 
HETATM   21  C20 UNL     1      20.227  -8.858  -2.953  1.00  0.00     0.144 C 
HETATM   22  C21 UNL     1      20.012  -8.937  -1.480  1.00  0.00     0.251 C 
HETATM   23  N5  UNL     1      21.259  -9.223  -0.795  1.00  0.00    -0.072 N 
HETATM   24  C22 UNL     1      22.147  -9.960  -1.677  1.00  0.00     0.251 C 
ATOM     25  H52 UNL     1      21.697  -8.378  -0.428  1.00  0.00     0.277 HD
ATOM     26  H51 UNL     1      21.107  -9.707   0.089  1.00  0.00     0.277 HD
HETATM   27  C23 UNL     1      22.625  -9.067  -2.822  1.00  0.00     0.144 C 
ENDBRANCH  19  20
ENDBRANCH  18  19
ENDBRANCH  16  18
ENDBRANCH  10  16
BRANCH   5  28
HETATM   28  C5  UNL     1      15.321  -1.130  -7.213  1.00  0.00     0.039 A 
HETATM   29  C6  UNL     1      15.126   0.185  -6.920  1.00  0.00     0.032 A 
HETATM   30  C7  UNL     1      14.535   1.050  -7.859  1.00  0.00     0.042 A 
HETATM   31  C8  UNL     1      14.125   0.632  -9.102  1.00  0.00     0.102 A 
HETATM   32  C9  UNL     1      14.322  -0.698  -9.398  1.00  0.00     0.108 A 
HETATM   33  O3  UNL     1      13.540   1.487 -10.029  1.00  0.00    -0.343 OA
HETATM   34  C10 UNL     1      14.900  -1.549  -8.485  1.00  0.00     0.069 A 
HETATM   35  O2  UNL     1      13.905  -1.118 -10.657  1.00  0.00    -0.305 OA
HETATM   36  C11 UNL     1      13.524  -0.214 -11.672  1.00  0.00     0.228 C 
HETATM   37  C12 UNL     1      14.734   0.355 -12.400  1.00  0.00     0.087 C 
HETATM   38  F1  UNL     1      12.712  -0.922 -12.544  1.00  0.00    -0.209 F 
HETATM   39  C13 UNL     1      12.761   0.954 -11.083  1.00  0.00     0.249 C 
ENDBRANCH   5  28
TORSDOF 6
ENDMDL
MODEL 3
REMARK VINA RESULT: -7.050705159      3.388      9.946
REMARK  6 active torsions:
REMARK  status: ('A' for Active; 'I' for Inactive)
REMARK    1  A    between atoms: C2_2  and  C3_3 
REMARK       I    between atoms: N1_4  and  C4_5 
REMARK       I    between atoms: C4_5  and  N2_7 
REMARK    2  A    between atoms: N2_7  and  C5_9 
REMARK    3  A    between atoms: C17_24  and  N3_25 
REMARK    4  A    between atoms: N3_25  and  C18_27 
REMARK    5  A    between atoms: C18_27  and  C19_28 
REMARK    6  A    between atoms: C19_28  and  N4_29 
ROOT
HETATM    1  C3  UNL     1      20.252  -7.156  -5.160  1.00  0.00     0.119 C 
HETATM    2  N1  UNL     1      19.639  -5.897  -4.835  1.00  0.00    -0.322 N 
HETATM    3  C4  UNL     1      18.540  -5.281  -5.454  1.00  0.00     0.323 C 
HETATM    4  O1  UNL     1      17.963  -5.756  -6.468  1.00  0.00    -0.247 OA
HETATM    5  N2  UNL     1      18.020  -4.074  -4.948  1.00  0.00    -0.309 N 
ATOM      6  H2  UNL     1      18.482  -3.681  -4.128  1.00  0.00     0.170 HD
HETATM    7  C14 UNL     1      20.353  -5.216  -3.740  1.00  0.00     0.092 C 
HETATM    8  C15 UNL     1      19.853  -5.839  -2.473  1.00  0.00     0.028 C 
HETATM    9  C16 UNL     1      19.720  -7.350  -2.722  1.00  0.00     0.038 C 
HETATM   10  C17 UNL     1      20.664  -7.770  -3.810  1.00  0.00     0.081 C 
HETATM   11  C24 UNL     1      21.974  -7.092  -3.445  1.00  0.00     0.202 C 
HETATM   12  F2  UNL     1      23.033  -7.700  -4.127  1.00  0.00    -0.247 F 
HETATM   13  C25 UNL     1      21.837  -5.641  -3.866  1.00  0.00     0.065 C 
ENDROOT
BRANCH   1  14
HETATM   14  C2  UNL     1      19.540  -8.083  -6.042  1.00  0.00     0.023 C 
HETATM   15  C1  UNL     1      20.038  -8.457  -7.363  1.00  0.00     0.007 C 
ENDBRANCH   1  14
BRANCH  10  16
HETATM   16  N3  UNL     1      20.880  -9.146  -3.933  1.00  0.00    -0.387 N 
ATOM     17  H3  UNL     1      21.236  -9.496  -4.822  1.00  0.00     0.159 HD
BRANCH  16  18
HETATM   18  C18 UNL     1      20.639 -10.066  -2.920  1.00  0.00     0.075 C 
BRANCH  18  19
HETATM   19  C19 UNL     1      20.288 -11.471  -3.273  1.00  0.00     0.161 C 
BRANCH  19  20
HETATM   20  N4  UNL     1      19.397 -12.081  -2.318  1.00  0.00    -0.405 N 
HETATM   21  C20 UNL     1      18.814 -11.176  -1.389  1.00  0.00     0.144 C 
HETATM   22  C21 UNL     1      18.175 -11.811  -0.201  1.00  0.00     0.251 C 
HETATM   23  N5  UNL     1      17.635 -13.112  -0.545  1.00  0.00    -0.072 N 
HETATM   24  C22 UNL     1      17.286 -13.144  -1.955  1.00  0.00     0.251 C 
ATOM     25  H52 UNL     1      18.268 -13.870  -0.290  1.00  0.00     0.277 HD
ATOM     26  H51 UNL     1      16.848 -13.370   0.050  1.00  0.00     0.277 HD
HETATM   27  C23 UNL     1      18.546 -13.098  -2.819  1.00  0.00     0.144 C 
ENDBRANCH  19  20
ENDBRANCH  18  19
ENDBRANCH  16  18
ENDBRANCH  10  16
BRANCH   5  28
HETATM   28  C5  UNL     1      16.921  -3.354  -5.466  1.00  0.00     0.039 A 
HETATM   29  C6  UNL     1      15.596  -3.594  -5.273  1.00  0.00     0.032 A 
HETATM   30  C7  UNL     1      14.622  -2.788  -5.891  1.00  0.00     0.042 A 
HETATM   31  C8  UNL     1      14.940  -1.731  -6.710  1.00  0.00     0.102 A 
HETATM   32  C9  UNL     1      16.280  -1.488  -6.904  1.00  0.00     0.108 A 
HETATM   33  O3  UNL     1      13.977  -0.935  -7.319  1.00  0.00    -0.343 OA
HETATM   34  C10 UNL     1      17.237  -2.272  -6.304  1.00  0.00     0.069 A 
HETATM   35  O2  UNL     1      16.599  -0.418  -7.735  1.00  0.00    -0.305 OA
HETATM   36  C11 UNL     1      15.637   0.521  -8.167  1.00  0.00     0.228 C 
HETATM   37  C12 UNL     1      15.373   1.583  -7.109  1.00  0.00     0.087 C 
HETATM   38  F1  UNL     1      16.140   1.094  -9.325  1.00  0.00    -0.209 F 
HETATM   39  C13 UNL     1      14.319  -0.166  -8.457  1.00  0.00     0.249 C 
ENDBRANCH   5  28
TORSDOF 6
ENDMDL
MODEL 4
REMARK VINA RESULT: -6.886534188      3.403     10.148
REMARK  6 active torsions:
REMARK  status: ('A' for Active; 'I' for Inactive)
REMARK    1  A    between atoms: C2_2  and  C3_3 
REMARK       I    between atoms: N1_4  and  C4_5 
REMARK       I    between atoms: C4_5  and  N2_7 
REMARK    2  A    between atoms: N2_7  and  C5_9 
REMARK    3  A    between atoms: C17_24  and  N3_25 
REMARK    4  A    between atoms: N3_25  and  C18_27 
REMARK    5  A    between atoms: C18_27  and  C19_28 
REMARK    6  A    between atoms: C19_28  and  N4_29 
ROOT
HETATM    1  C3  UNL     1      20.318  -6.650  -5.333  1.00  0.00     0.119 C 
HETATM    2  N1  UNL     1      20.126  -5.226  -5.309  1.00  0.00    -0.322 N 
HETATM    3  C4  UNL     1      19.308  -4.446  -6.142  1.00  0.00     0.323 C 
HETATM    4  O1  UNL     1      18.653  -4.921  -7.107  1.00  0.00    -0.247 OA
HETATM    5  N2  UNL     1      19.181  -3.060  -5.922  1.00  0.00    -0.309 N 
ATOM      6  H2  UNL     1      19.710  -2.667  -5.143  1.00  0.00     0.170 HD
HETATM    7  C14 UNL     1      20.974  -4.584  -4.288  1.00  0.00     0.092 C 
HETATM    8  C15 UNL     1      20.248  -4.750  -2.988  1.00  0.00     0.028 C 
HETATM    9  C16 UNL     1      19.649  -6.165  -2.969  1.00  0.00     0.038 C 
HETATM   10  C17 UNL     1      20.455  -7.068  -3.857  1.00  0.00     0.081 C 
HETATM   11  C24 UNL     1      21.896  -6.762  -3.487  1.00  0.00     0.202 C 
HETATM   12  F2  UNL     1      22.733  -7.790  -3.931  1.00  0.00    -0.247 F 
HETATM   13  C25 UNL     1      22.248  -5.457  -4.178  1.00  0.00     0.065 C 
ENDROOT
BRANCH   1  14
HETATM   14  C2  UNL     1      19.384  -7.477  -6.100  1.00  0.00     0.023 C 
HETATM   15  C1  UNL     1      19.787  -8.236  -7.280  1.00  0.00     0.007 C 
ENDBRANCH   1  14
BRANCH  10  16
HETATM   16  N3  UNL     1      20.225  -8.438  -3.704  1.00  0.00    -0.387 N 
ATOM     17  H3  UNL     1      20.234  -9.021  -4.540  1.00  0.00     0.159 HD
BRANCH  16  18
HETATM   18  C18 UNL     1      19.984  -9.056  -2.481  1.00  0.00     0.075 C 
BRANCH  18  19
HETATM   19  C19 UNL     1      20.684 -10.329  -2.152  1.00  0.00     0.161 C 
BRANCH  19  20
HETATM   20  N4  UNL     1      19.785 -11.361  -1.699  1.00  0.00    -0.405 N 
HETATM   21  C20 UNL     1      18.691 -10.893  -0.920  1.00  0.00     0.144 C 
HETATM   22  C21 UNL     1      17.956 -11.946  -0.164  1.00  0.00     0.251 C 
HETATM   23  N5  UNL     1      17.988 -13.207  -0.881  1.00  0.00    -0.072 N 
HETATM   24  C22 UNL     1      18.116 -12.960  -2.307  1.00  0.00     0.251 C 
ATOM     25  H52 UNL     1      18.718 -13.828  -0.532  1.00  0.00     0.277 HD
ATOM     26  H51 UNL     1      17.181 -13.792  -0.664  1.00  0.00     0.277 HD
HETATM   27  C23 UNL     1      19.497 -12.390  -2.629  1.00  0.00     0.144 C 
ENDBRANCH  19  20
ENDBRANCH  18  19
ENDBRANCH  16  18
ENDBRANCH  10  16
BRANCH   5  28
HETATM   28  C5  UNL     1      18.393  -2.163  -6.676  1.00  0.00     0.039 A 
HETATM   29  C6  UNL     1      18.689  -1.593  -7.876  1.00  0.00     0.032 A 
HETATM   30  C7  UNL     1      17.795  -0.691  -8.483  1.00  0.00     0.042 A 
HETATM   31  C8  UNL     1      16.595  -0.337  -7.915  1.00  0.00     0.102 A 
HETATM   32  C9  UNL     1      16.295  -0.914  -6.702  1.00  0.00     0.108 A 
HETATM   33  O3  UNL     1      15.712   0.554  -8.516  1.00  0.00    -0.343 OA
HETATM   34  C10 UNL     1      17.165  -1.796  -6.104  1.00  0.00     0.069 A 
HETATM   35  O2  UNL     1      15.080  -0.553  -6.130  1.00  0.00    -0.305 OA
HETATM   36  C11 UNL     1      14.092   0.167  -6.837  1.00  0.00     0.228 C 
HETATM   37  C12 UNL     1      13.259  -0.746  -7.725  1.00  0.00     0.087 C 
HETATM   38  F1  UNL     1      13.297   0.784  -5.882  1.00  0.00    -0.209 F 
HETATM   39  C13 UNL     1      14.732   1.207  -7.731  1.00  0.00     0.249 C 
ENDBRANCH   5  28
TORSDOF 6
ENDMDL
MODEL 5
REMARK VINA RESULT: -6.799927216      3.265      9.697
REMARK  6 active torsions:
REMARK  status: ('A' for Active; 'I' for Inactive)
REMARK    1  A    between atoms: C2_2  and  C3_3 
REMARK       I    between atoms: N1_4  and  C4_5 
REMARK       I    between atoms: C4_5  and  N2_7 
REMARK    2  A    between atoms: N2_7  and  C5_9 
REMARK    3  A    between atoms: C17_24  and  N3_25 
REMARK    4  A    between atoms: N3_25  and  C18_27 
REMARK    5  A    between atoms: C18_27  and  C19_28 
REMARK    6  A    between atoms: C19_28  and  N4_29 
ROOT
HETATM    1  C3  UNL     1      20.853  -6.820  -6.024  1.00  0.00     0.119 C 
HETATM    2  N1  UNL     1      20.359  -5.503  -5.730  1.00  0.00    -0.322 N 
HETATM    3  C4  UNL     1      19.046  -5.020  -5.854  1.00  0.00     0.323 C 
HETATM    4  O1  UNL     1      18.101  -5.706  -6.324  1.00  0.00    -0.247 OA
HETATM    5  N2  UNL     1      18.726  -3.712  -5.442  1.00  0.00    -0.309 N 
ATOM      6  H2  UNL     1      19.486  -3.149  -5.061  1.00  0.00     0.170 HD
HETATM    7  C14 UNL     1      21.445  -4.602  -5.304  1.00  0.00     0.092 C 
HETATM    8  C15 UNL     1      21.673  -4.890  -3.852  1.00  0.00     0.028 C 
HETATM    9  C16 UNL     1      21.575  -6.412  -3.662  1.00  0.00     0.038 C 
HETATM   10  C17 UNL     1      21.916  -7.106  -4.947  1.00  0.00     0.081 C 
HETATM   11  C24 UNL     1      23.173  -6.400  -5.428  1.00  0.00     0.202 C 
HETATM   12  F2  UNL     1      23.826  -7.184  -6.385  1.00  0.00    -0.247 F 
HETATM   13  C25 UNL     1      22.719  -5.088  -6.040  1.00  0.00     0.065 C 
ENDROOT
BRANCH   1  14
HETATM   14  C2  UNL     1      19.893  -7.910  -6.216  1.00  0.00     0.023 C 
HETATM   15  C1  UNL     1      19.750  -8.622  -7.482  1.00  0.00     0.007 C 
ENDBRANCH   1  14
BRANCH  10  16
HETATM   16  N3  UNL     1      22.171  -8.478  -4.851  1.00  0.00    -0.387 N 
ATOM     17  H3  UNL     1      22.294  -9.003  -5.717  1.00  0.00     0.159 HD
BRANCH  16  18
HETATM   18  C18 UNL     1      22.267  -9.170  -3.649  1.00  0.00     0.075 C 
BRANCH  18  19
HETATM   19  C19 UNL     1      21.524 -10.450  -3.479  1.00  0.00     0.161 C 
BRANCH  19  20
HETATM   20  N4  UNL     1      20.614 -10.423  -2.361  1.00  0.00    -0.405 N 
HETATM   21  C20 UNL     1      19.822  -9.246  -2.269  1.00  0.00     0.144 C 
HETATM   22  C21 UNL     1      19.138  -9.042  -0.961  1.00  0.00     0.251 C 
HETATM   23  N5  UNL     1      18.807 -10.317  -0.353  1.00  0.00    -0.072 N 
HETATM   24  C22 UNL     1      18.625 -11.323  -1.385  1.00  0.00     0.251 C 
ATOM     25  H52 UNL     1      19.497 -10.601   0.343  1.00  0.00     0.277 HD
ATOM     26  H51 UNL     1      17.996 -10.248   0.263  1.00  0.00     0.277 HD
HETATM   27  C23 UNL     1      19.959 -11.643  -2.059  1.00  0.00     0.144 C 
ENDBRANCH  19  20
ENDBRANCH  18  19
ENDBRANCH  16  18
ENDBRANCH  10  16
BRANCH   5  28
HETATM   28  C5  UNL     1      17.452  -3.105  -5.505  1.00  0.00     0.039 A 
HETATM   29  C6  UNL     1      16.382  -3.316  -4.691  1.00  0.00     0.032 A 
HETATM   30  C7  UNL     1      15.167  -2.641  -4.911  1.00  0.00     0.042 A 
HETATM   31  C8  UNL     1      14.989  -1.745  -5.938  1.00  0.00     0.102 A 
HETATM   32  C9  UNL     1      16.071  -1.530  -6.760  1.00  0.00     0.108 A 
HETATM   33  O3  UNL     1      13.788  -1.078  -6.154  1.00  0.00    -0.343 OA
HETATM   34  C10 UNL     1      17.261  -2.188  -6.550  1.00  0.00     0.069 A 
HETATM   35  O2  UNL     1      15.887  -0.623  -7.798  1.00  0.00    -0.305 OA
HETATM   36  C11 UNL     1      14.754   0.216  -7.882  1.00  0.00     0.228 C 
HETATM   37  C12 UNL     1      14.901   1.447  -7.000  1.00  0.00     0.087 C 
HETATM   38  F1  UNL     1      14.631   0.577  -9.215  1.00  0.00    -0.209 F 
HETATM   39  C13 UNL     1      13.513  -0.522  -7.426  1.00  0.00     0.249 C 
ENDBRANCH   5  28
TORSDOF 6
ENDMDL
