MODEL 1
REMARK VINA RESULT: -5.678590481      0.000      0.000
REMARK  9 active torsions:
REMARK  status: ('A' for Active; 'I' for Inactive)
REMARK    1  A    between atoms: O1_2  and  C2_3 
REMARK    2  A    between atoms: C2_3  and  C3_5 
REMARK    3  A    between atoms: C3_5  and  N1_6 
REMARK    4  A    between atoms: C5_14  and  N4_15 
REMARK    5  A    between atoms: N4_15  and  N5_17 
REMARK    6  A    between atoms: C6_19  and  C8_22 
REMARK    7  A    between atoms: C9_23  and  O3_24 
REMARK    8  A    between atoms: C10_28  and  N8_29 
REMARK    9  A    between atoms: N9_32  and  N10_33 
ROOT
HETATM    1  N5  UNL     1      19.613  14.455  -2.060  1.00  0.00    -0.287 N 
ATOM      2  H5  UNL     1      19.009  13.802  -1.560  1.00  0.00     0.188 HD
HETATM    3  C6  UNL     1      19.161  15.627  -2.339  1.00  0.00     0.162 C 
HETATM    4  C7  UNL     1      19.923  16.619  -3.037  1.00  0.00     0.121 C 
HETATM    5  N6  UNL     1      20.557  17.434  -3.590  1.00  0.00    -0.190 NA
ENDROOT
BRANCH   3   6
HETATM    6  C8  UNL     1      17.808  15.963  -1.927  1.00  0.00     0.164 A 
HETATM    7  C9  UNL     1      16.661  15.792  -2.681  1.00  0.00     0.188 A 
HETATM    8  N7  UNL     1      15.652  16.230  -1.919  1.00  0.00    -0.167 N 
HETATM    9  C10 UNL     1      16.098  16.662  -0.740  1.00  0.00     0.699 A 
ATOM     10  H7  UNL     1      14.671  16.233  -2.204  1.00  0.00     0.186 HD
HETATM   11  N9  UNL     1      17.426  16.502  -0.731  1.00  0.00    -0.086 N 
BRANCH   7  12
HETATM   12  O3  UNL     1      16.572  15.275  -3.963  1.00  0.00    -0.344 OA
ATOM     13  H3  UNL     1      15.783  15.006  -4.420  1.00  0.00     0.219 HD
ENDBRANCH   7  12
BRANCH   9  14
HETATM   14  N8  UNL     1      15.422  17.158   0.262  1.00  0.00    -0.233 N 
ATOM     15  H82 UNL     1      14.543  17.664   0.156  1.00  0.00     0.174 HD
ATOM     16  H81 UNL     1      15.638  17.129   1.259  1.00  0.00     0.174 HD
ENDBRANCH   9  14
BRANCH  11  17
HETATM   17  N10 UNL     1      18.350  16.801   0.270  1.00  0.00    -0.324 N 
ATOM     18 2H10 UNL     1      18.356  16.525   1.251  1.00  0.00     0.178 HD
ATOM     19 1H10 UNL     1      19.173  17.376   0.088  1.00  0.00     0.178 HD
ENDBRANCH  11  17
ENDBRANCH   3   6
BRANCH   1  20
HETATM   20  N4  UNL     1      20.905  14.040  -2.417  1.00  0.00    -0.277 N 
ATOM     21  H4  UNL     1      21.336  14.367  -3.282  1.00  0.00     0.189 HD
BRANCH  20  22
HETATM   22  C5  UNL     1      21.547  13.221  -1.612  1.00  0.00     0.184 A 
HETATM   23  N1  UNL     1      22.493  13.504  -0.717  1.00  0.00    -0.258 N 
HETATM   24  N2  UNL     1      22.993  12.549  -0.029  1.00  0.00    -0.275 N 
HETATM   25  C4  UNL     1      22.553  11.305  -0.230  1.00  0.00     0.160 A 
ATOM     26  H2  UNL     1      23.719  12.736   0.663  1.00  0.00     0.189 HD
HETATM   27  N3  UNL     1      22.943  10.203   0.376  1.00  0.00    -0.378 N 
HETATM   28  S1  UNL     1      21.382  11.530  -1.451  1.00  0.00    -0.014 SA
ATOM     29  H32 UNL     1      23.643  10.069   1.106  1.00  0.00     0.158 HD
ATOM     30  H31 UNL     1      22.606   9.253   0.223  1.00  0.00     0.158 HD
BRANCH  23  31
HETATM   31  C3  UNL     1      22.926  14.918  -0.556  1.00  0.00     0.262 C 
BRANCH  31  32
HETATM   32  C2  UNL     1      22.131  15.563   0.519  1.00  0.00     0.278 C 
HETATM   33  O2  UNL     1      22.146  15.096   1.683  1.00  0.00    -0.263 OA
BRANCH  32  34
HETATM   34  O1  UNL     1      21.374  16.674   0.230  1.00  0.00    -0.325 OA
HETATM   35  C1  UNL     1      21.930  17.931  -0.098  1.00  0.00     0.213 C 
ENDBRANCH  32  34
ENDBRANCH  31  32
ENDBRANCH  23  31
ENDBRANCH  20  22
ENDBRANCH   1  20
TORSDOF 9
ENDMDL
MODEL 2
REMARK VINA RESULT: -5.631412517      3.431      5.435
REMARK  9 active torsions:
REMARK  status: ('A' for Active; 'I' for Inactive)
REMARK    1  A    between atoms: O1_2  and  C2_3 
REMARK    2  A    between atoms: C2_3  and  C3_5 
REMARK    3  A    between atoms: C3_5  and  N1_6 
REMARK    4  A    between atoms: C5_14  and  N4_15 
REMARK    5  A    between atoms: N4_15  and  N5_17 
REMARK    6  A    between atoms: C6_19  and  C8_22 
REMARK    7  A    between atoms: C9_23  and  O3_24 
REMARK    8  A    between atoms: C10_28  and  N8_29 
REMARK    9  A    between atoms: N9_32  and  N10_33 
ROOT
HETATM    1  N5  UNL     1      21.376  11.961  -0.864  1.00  0.00    -0.287 N 
ATOM      2  H5  UNL     1      20.501  11.448  -0.753  1.00  0.00     0.188 HD
HETATM    3  C6  UNL     1      21.384  13.227  -0.639  1.00  0.00     0.162 C 
HETATM    4  C7  UNL     1      22.556  14.042  -0.765  1.00  0.00     0.121 C 
HETATM    5  N6  UNL     1      23.520  14.702  -0.850  1.00  0.00    -0.190 NA
ENDROOT
BRANCH   3   6
HETATM    6  C8  UNL     1      20.142  13.866  -0.237  1.00  0.00     0.164 A 
HETATM    7  C9  UNL     1      19.521  13.739   0.993  1.00  0.00     0.188 A 
HETATM    8  N7  UNL     1      18.416  14.491   0.927  1.00  0.00    -0.167 N 
HETATM    9  C10 UNL     1      18.310  15.077  -0.266  1.00  0.00     0.699 A 
ATOM     10  H7  UNL     1      17.745  14.601   1.688  1.00  0.00     0.186 HD
HETATM   11  N9  UNL     1      19.368  14.701  -0.993  1.00  0.00    -0.086 N 
BRANCH   7  12
HETATM   12  O3  UNL     1      19.953  12.988   2.074  1.00  0.00    -0.344 OA
ATOM     13  H3  UNL     1      19.959  13.248   2.988  1.00  0.00     0.219 HD
ENDBRANCH   7  12
BRANCH   9  14
HETATM   14  N8  UNL     1      17.377  15.879  -0.706  1.00  0.00    -0.233 N 
ATOM     15  H82 UNL     1      16.648  16.277  -0.114  1.00  0.00     0.174 HD
ATOM     16  H81 UNL     1      17.223  16.225  -1.653  1.00  0.00     0.174 HD
ENDBRANCH   9  14
BRANCH  11  17
HETATM   17  N10 UNL     1      19.713  15.041  -2.300  1.00  0.00    -0.324 N 
ATOM     18 2H10 UNL     1      19.473  14.578  -3.176  1.00  0.00     0.178 HD
ATOM     19 1H10 UNL     1      20.287  15.858  -2.510  1.00  0.00     0.178 HD
ENDBRANCH  11  17
ENDBRANCH   3   6
BRANCH   1  20
HETATM   20  N4  UNL     1      22.525  11.258  -1.257  1.00  0.00    -0.277 N 
ATOM     21  H4  UNL     1      23.126  11.615  -1.999  1.00  0.00     0.189 HD
BRANCH  20  22
HETATM   22  C5  UNL     1      22.810  10.127  -0.645  1.00  0.00     0.184 A 
HETATM   23  N1  UNL     1      22.662   8.879  -1.089  1.00  0.00    -0.258 N 
HETATM   24  N2  UNL     1      23.004   7.912  -0.327  1.00  0.00    -0.275 N 
HETATM   25  C4  UNL     1      23.496   8.182   0.884  1.00  0.00     0.160 A 
ATOM     26  H2  UNL     1      22.903   6.946  -0.641  1.00  0.00     0.189 HD
HETATM   27  N3  UNL     1      23.898   7.328   1.801  1.00  0.00    -0.378 N 
HETATM   28  S1  UNL     1      23.459   9.889   0.915  1.00  0.00    -0.014 SA
ATOM     29  H32 UNL     1      23.921   6.308   1.783  1.00  0.00     0.158 HD
ATOM     30  H31 UNL     1      24.274   7.535   2.727  1.00  0.00     0.158 HD
BRANCH  23  31
HETATM   31  C3  UNL     1      22.107   8.666  -2.453  1.00  0.00     0.262 C 
BRANCH  31  32
HETATM   32  C2  UNL     1      20.626   8.593  -2.383  1.00  0.00     0.278 C 
HETATM   33  O2  UNL     1      19.942   9.644  -2.368  1.00  0.00    -0.263 OA
BRANCH  32  34
HETATM   34  O1  UNL     1      20.009   7.365  -2.332  1.00  0.00    -0.325 OA
HETATM   35  C1  UNL     1      20.491   6.223  -3.010  1.00  0.00     0.213 C 
ENDBRANCH  32  34
ENDBRANCH  31  32
ENDBRANCH  23  31
ENDBRANCH  20  22
ENDBRANCH   1  20
TORSDOF 9
ENDMDL
MODEL 3
REMARK VINA RESULT: -5.631194425      2.812      6.661
REMARK  9 active torsions:
REMARK  status: ('A' for Active; 'I' for Inactive)
REMARK    1  A    between atoms: O1_2  and  C2_3 
REMARK    2  A    between atoms: C2_3  and  C3_5 
REMARK    3  A    between atoms: C3_5  and  N1_6 
REMARK    4  A    between atoms: C5_14  and  N4_15 
REMARK    5  A    between atoms: N4_15  and  N5_17 
REMARK    6  A    between atoms: C6_19  and  C8_22 
REMARK    7  A    between atoms: C9_23  and  O3_24 
REMARK    8  A    between atoms: C10_28  and  N8_29 
REMARK    9  A    between atoms: N9_32  and  N10_33 
ROOT
HETATM    1  N5  UNL     1      18.746  15.000  -0.064  1.00  0.00    -0.287 N 
ATOM      2  H5  UNL     1      18.379  14.060   0.092  1.00  0.00     0.188 HD
HETATM    3  C6  UNL     1      20.020  15.169  -0.097  1.00  0.00     0.162 C 
HETATM    4  C7  UNL     1      20.640  16.444  -0.308  1.00  0.00     0.121 C 
HETATM    5  N6  UNL     1      21.142  17.484  -0.501  1.00  0.00    -0.190 NA
ENDROOT
BRANCH   3   6
HETATM    6  C8  UNL     1      20.878  14.010   0.091  1.00  0.00     0.164 A 
HETATM    7  C9  UNL     1      20.730  13.036   1.063  1.00  0.00     0.188 A 
HETATM    8  N7  UNL     1      21.730  12.169   0.869  1.00  0.00    -0.167 N 
HETATM    9  C10 UNL     1      22.490  12.541  -0.161  1.00  0.00     0.699 A 
ATOM     10  H7  UNL     1      21.889  11.333   1.433  1.00  0.00     0.186 HD
HETATM   11  N9  UNL     1      21.975  13.675  -0.650  1.00  0.00    -0.086 N 
BRANCH   7  12
HETATM   12  O3  UNL     1      19.749  12.970   2.038  1.00  0.00    -0.344 OA
ATOM     13  H3  UNL     1      18.836  12.736   1.919  1.00  0.00     0.219 HD
ENDBRANCH   7  12
BRANCH   9  14
HETATM   14  N8  UNL     1      23.550  11.955  -0.653  1.00  0.00    -0.233 N 
ATOM     15  H82 UNL     1      23.536  11.030  -1.082  1.00  0.00     0.174 HD
ATOM     16  H81 UNL     1      24.510  12.295  -0.692  1.00  0.00     0.174 HD
ENDBRANCH   9  14
BRANCH  11  17
HETATM   17  N10 UNL     1      22.407  14.456  -1.722  1.00  0.00    -0.324 N 
ATOM     18 2H10 UNL     1      22.378  15.468  -1.840  1.00  0.00     0.178 HD
ATOM     19 1H10 UNL     1      22.826  14.042  -2.555  1.00  0.00     0.178 HD
ENDBRANCH  11  17
ENDBRANCH   3   6
BRANCH   1  20
HETATM   20  N4  UNL     1      17.840  16.057  -0.234  1.00  0.00    -0.277 N 
ATOM     21  H4  UNL     1      17.565  16.640   0.557  1.00  0.00     0.189 HD
BRANCH  20  22
HETATM   22  C5  UNL     1      17.352  16.280  -1.437  1.00  0.00     0.184 A 
HETATM   23  N1  UNL     1      16.276  16.987  -1.782  1.00  0.00    -0.258 N 
HETATM   24  N2  UNL     1      15.974  17.079  -3.020  1.00  0.00    -0.275 N 
HETATM   25  C4  UNL     1      16.742  16.467  -3.923  1.00  0.00     0.160 A 
ATOM     26  H2  UNL     1      15.156  17.614  -3.314  1.00  0.00     0.189 HD
HETATM   27  N3  UNL     1      16.592  16.448  -5.231  1.00  0.00    -0.378 N 
HETATM   28  S1  UNL     1      17.935  15.737  -2.945  1.00  0.00    -0.014 SA
ATOM     29  H32 UNL     1      15.879  16.884  -5.816  1.00  0.00     0.158 HD
ATOM     30  H31 UNL     1      17.179  15.979  -5.921  1.00  0.00     0.158 HD
BRANCH  23  31
HETATM   31  C3  UNL     1      15.476  17.639  -0.711  1.00  0.00     0.262 C 
BRANCH  31  32
HETATM   32  C2  UNL     1      15.660  19.110  -0.777  1.00  0.00     0.278 C 
HETATM   33  O2  UNL     1      15.766  19.782   0.278  1.00  0.00    -0.263 OA
BRANCH  32  34
HETATM   34  O1  UNL     1      15.712  19.734  -2.001  1.00  0.00    -0.325 OA
HETATM   35  C1  UNL     1      16.803  20.525  -2.427  1.00  0.00     0.213 C 
ENDBRANCH  32  34
ENDBRANCH  31  32
ENDBRANCH  23  31
ENDBRANCH  20  22
ENDBRANCH   1  20
TORSDOF 9
ENDMDL
MODEL 4
REMARK VINA RESULT: -5.542378723      3.022      4.584
REMARK  9 active torsions:
REMARK  status: ('A' for Active; 'I' for Inactive)
REMARK    1  A    between atoms: O1_2  and  C2_3 
REMARK    2  A    between atoms: C2_3  and  C3_5 
REMARK    3  A    between atoms: C3_5  and  N1_6 
REMARK    4  A    between atoms: C5_14  and  N4_15 
REMARK    5  A    between atoms: N4_15  and  N5_17 
REMARK    6  A    between atoms: C6_19  and  C8_22 
REMARK    7  A    between atoms: C9_23  and  O3_24 
REMARK    8  A    between atoms: C10_28  and  N8_29 
REMARK    9  A    between atoms: N9_32  and  N10_33 
ROOT
HETATM    1  N5  UNL     1      22.229  13.586  -0.605  1.00  0.00    -0.287 N 
ATOM      2  H5  UNL     1      21.579  12.855  -0.893  1.00  0.00     0.188 HD
HETATM    3  C6  UNL     1      21.765  14.630  -0.013  1.00  0.00     0.162 C 
HETATM    4  C7  UNL     1      22.587  15.715   0.432  1.00  0.00     0.121 C 
HETATM    5  N6  UNL     1      23.266  16.591   0.812  1.00  0.00    -0.190 NA
ENDROOT
BRANCH   3   6
HETATM    6  C8  UNL     1      20.331  14.715   0.215  1.00  0.00     0.164 A 
HETATM    7  C9  UNL     1      19.592  13.910   1.064  1.00  0.00     0.188 A 
HETATM    8  N7  UNL     1      18.327  14.335   0.965  1.00  0.00    -0.167 N 
HETATM    9  C10 UNL     1      18.232  15.352   0.108  1.00  0.00     0.699 A 
ATOM     10  H7  UNL     1      17.541  13.934   1.476  1.00  0.00     0.186 HD
HETATM   11  N9  UNL     1      19.461  15.597  -0.361  1.00  0.00    -0.086 N 
BRANCH   7  12
HETATM   12  O3  UNL     1      20.063  12.876   1.857  1.00  0.00    -0.344 OA
ATOM     13  H3  UNL     1      19.604  12.078   2.090  1.00  0.00     0.219 HD
ENDBRANCH   7  12
BRANCH   9  14
HETATM   14  N8  UNL     1      17.172  16.027  -0.250  1.00  0.00    -0.233 N 
ATOM     15  H82 UNL     1      17.024  16.389  -1.192  1.00  0.00     0.174 HD
ATOM     16  H81 UNL     1      16.362  16.292   0.309  1.00  0.00     0.174 HD
ENDBRANCH   9  14
BRANCH  11  17
HETATM   17  N10 UNL     1      19.886  16.557  -1.278  1.00  0.00    -0.324 N 
ATOM     18 2H10 UNL     1      20.571  17.303  -1.166  1.00  0.00     0.178 HD
ATOM     19 1H10 UNL     1      19.512  16.598  -2.227  1.00  0.00     0.178 HD
ENDBRANCH  11  17
ENDBRANCH   3   6
BRANCH   1  20
HETATM   20  N4  UNL     1      23.596  13.416  -0.869  1.00  0.00    -0.277 N 
ATOM     21  H4  UNL     1      24.295  13.985  -0.389  1.00  0.00     0.189 HD
BRANCH  20  22
HETATM   22  C5  UNL     1      23.958  12.505  -1.748  1.00  0.00     0.184 A 
HETATM   23  N1  UNL     1      24.028  11.183  -1.597  1.00  0.00    -0.258 N 
HETATM   24  N2  UNL     1      24.407  10.471  -2.589  1.00  0.00    -0.275 N 
HETATM   25  C4  UNL     1      24.721  11.073  -3.737  1.00  0.00     0.160 A 
ATOM     26  H2  UNL     1      24.470   9.457  -2.502  1.00  0.00     0.189 HD
HETATM   27  N3  UNL     1      25.129  10.514  -4.858  1.00  0.00    -0.378 N 
HETATM   28  S1  UNL     1      24.457  12.718  -3.365  1.00  0.00    -0.014 SA
ATOM     29  H32 UNL     1      25.287   9.531  -5.080  1.00  0.00     0.158 HD
ATOM     30  H31 UNL     1      25.369  10.975  -5.735  1.00  0.00     0.158 HD
BRANCH  23  31
HETATM   31  C3  UNL     1      23.659  10.592  -0.283  1.00  0.00     0.262 C 
BRANCH  31  32
HETATM   32  C2  UNL     1      22.220  10.225  -0.287  1.00  0.00     0.278 C 
HETATM   33  O2  UNL     1      21.429  10.762   0.524  1.00  0.00    -0.263 OA
BRANCH  32  34
HETATM   34  O1  UNL     1      21.762   9.290  -1.185  1.00  0.00    -0.325 OA
HETATM   35  C1  UNL     1      20.798   9.571  -2.179  1.00  0.00     0.213 C 
ENDBRANCH  32  34
ENDBRANCH  31  32
ENDBRANCH  23  31
ENDBRANCH  20  22
ENDBRANCH   1  20
TORSDOF 9
ENDMDL
MODEL 5
REMARK VINA RESULT: -5.535214607      3.006      4.422
REMARK  9 active torsions:
REMARK  status: ('A' for Active; 'I' for Inactive)
REMARK    1  A    between atoms: O1_2  and  C2_3 
REMARK    2  A    between atoms: C2_3  and  C3_5 
REMARK    3  A    between atoms: C3_5  and  N1_6 
REMARK    4  A    between atoms: C5_14  and  N4_15 
REMARK    5  A    between atoms: N4_15  and  N5_17 
REMARK    6  A    between atoms: C6_19  and  C8_22 
REMARK    7  A    between atoms: C9_23  and  O3_24 
REMARK    8  A    between atoms: C10_28  and  N8_29 
REMARK    9  A    between atoms: N9_32  and  N10_33 
ROOT
HETATM    1  N5  UNL     1      19.349  17.806  -1.004  1.00  0.00    -0.287 N 
ATOM      2  H5  UNL     1      19.000  18.748  -0.821  1.00  0.00     0.188 HD
HETATM    3  C6  UNL     1      18.520  16.823  -0.975  1.00  0.00     0.162 C 
HETATM    4  C7  UNL     1      18.903  15.463  -1.217  1.00  0.00     0.121 C 
HETATM    5  N6  UNL     1      19.217  14.356  -1.434  1.00  0.00    -0.190 NA
ENDROOT
BRANCH   3   6
HETATM    6  C8  UNL     1      17.124  17.103  -0.682  1.00  0.00     0.164 A 
HETATM    7  C9  UNL     1      16.652  18.056   0.204  1.00  0.00     0.188 A 
HETATM    8  N7  UNL     1      15.318  17.969   0.160  1.00  0.00    -0.167 N 
HETATM    9  C10 UNL     1      14.929  17.024  -0.696  1.00  0.00     0.699 A 
ATOM     10  H7  UNL     1      14.683  18.550   0.709  1.00  0.00     0.186 HD
HETATM   11  N9  UNL     1      16.033  16.482  -1.222  1.00  0.00    -0.086 N 
BRANCH   7  12
HETATM   12  O3  UNL     1      17.405  18.923   0.978  1.00  0.00    -0.344 OA
ATOM     13  H3  UNL     1      17.939  19.647   0.674  1.00  0.00     0.219 HD
ENDBRANCH   7  12
BRANCH   9  14
HETATM   14  N8  UNL     1      13.717  16.647  -1.008  1.00  0.00    -0.233 N 
ATOM     15  H82 UNL     1      13.468  15.689  -1.253  1.00  0.00     0.174 HD
ATOM     16  H81 UNL     1      12.866  17.207  -1.061  1.00  0.00     0.174 HD
ENDBRANCH   9  14
BRANCH  11  17
HETATM   17  N10 UNL     1      16.159  15.459  -2.162  1.00  0.00    -0.324 N 
ATOM     18 2H10 UNL     1      16.030  14.454  -2.048  1.00  0.00     0.178 HD
ATOM     19 1H10 UNL     1      16.414  15.648  -3.131  1.00  0.00     0.178 HD
ENDBRANCH  11  17
ENDBRANCH   3   6
BRANCH   1  20
HETATM   20  N4  UNL     1      20.714  17.635  -1.277  1.00  0.00    -0.277 N 
ATOM     21  H4  UNL     1      21.021  17.228  -2.161  1.00  0.00     0.189 HD
BRANCH  20  22
HETATM   22  C5  UNL     1      21.589  18.010  -0.368  1.00  0.00     0.184 A 
HETATM   23  N1  UNL     1      22.627  17.331   0.119  1.00  0.00    -0.258 N 
HETATM   24  N2  UNL     1      23.361  17.884   1.007  1.00  0.00    -0.275 N 
HETATM   25  C4  UNL     1      23.064  19.119   1.416  1.00  0.00     0.160 A 
ATOM     26  H2  UNL     1      24.162  17.389   1.397  1.00  0.00     0.189 HD
HETATM   27  N3  UNL     1      23.696  19.847   2.314  1.00  0.00    -0.378 N 
HETATM   28  S1  UNL     1      21.681  19.484   0.485  1.00  0.00    -0.014 SA
ATOM     29  H32 UNL     1      24.522  19.629   2.870  1.00  0.00     0.158 HD
ATOM     30  H31 UNL     1      23.468  20.790   2.626  1.00  0.00     0.158 HD
BRANCH  23  31
HETATM   31  C3  UNL     1      22.888  15.959  -0.393  1.00  0.00     0.262 C 
BRANCH  31  32
HETATM   32  C2  UNL     1      22.356  14.959   0.566  1.00  0.00     0.278 C 
HETATM   33  O2  UNL     1      22.092  15.293   1.746  1.00  0.00    -0.263 OA
BRANCH  32  34
HETATM   34  O1  UNL     1      22.158  13.662   0.154  1.00  0.00    -0.325 OA
HETATM   35  C1  UNL     1      22.693  13.134  -1.043  1.00  0.00     0.213 C 
ENDBRANCH  32  34
ENDBRANCH  31  32
ENDBRANCH  23  31
ENDBRANCH  20  22
ENDBRANCH   1  20
TORSDOF 9
ENDMDL
