MODEL 1
REMARK VINA RESULT: -6.403341516      0.000      0.000
REMARK  7 active torsions:
REMARK  status: ('A' for Active; 'I' for Inactive)
REMARK    1  A    between atoms: C2_2  and  O1_3 
REMARK    2  A    between atoms: O1_3  and  C3_4 
REMARK       I    between atoms: C3_4  and  N1_6 
REMARK    3  A    between atoms: N1_6  and  C4_8 
REMARK    4  A    between atoms: C4_8  and  C5_9 
REMARK    5  A    between atoms: C6_14  and  C7_15 
REMARK       I    between atoms: C7_15  and  N4_17 
REMARK    6  A    between atoms: N5_20  and  N6_21 
REMARK    7  A    between atoms: N9_29  and  O4_30 
ROOT
HETATM    1  C4  UNL     1      17.548  17.558  -1.032  1.00  0.00     0.207 C 
HETATM    2  C9  UNL     1      16.094  17.504  -0.513  1.00  0.00     0.155 C 
HETATM    3  S1  UNL     1      15.293  18.963  -1.267  1.00  0.00    -0.035 SA
HETATM    4  N7  UNL     1      16.432  20.278  -1.469  1.00  0.00    -0.053 NA
HETATM    5  N8  UNL     1      17.740  19.861  -1.501  1.00  0.00    -0.229 N 
ATOM      6  H8  UNL     1      18.428  20.281  -2.125  1.00  0.00     0.201 HD
HETATM    7  N9  UNL     1      18.062  18.836  -0.634  1.00  0.00    -0.056 NA
ENDROOT
BRANCH   1   8
HETATM    8  N1  UNL     1      17.470  17.376  -2.462  1.00  0.00    -0.304 N 
HETATM    9  C3  UNL     1      16.743  16.328  -3.077  1.00  0.00     0.362 C 
HETATM   10  O2  UNL     1      16.138  15.516  -2.338  1.00  0.00    -0.238 OA
ATOM     11  H1  UNL     1      17.964  18.037  -3.061  1.00  0.00     0.167 HD
BRANCH   9  12
HETATM   12  O1  UNL     1      16.640  16.117  -4.434  1.00  0.00    -0.304 OA
BRANCH  12  13
HETATM   13  C2  UNL     1      17.050  17.091  -5.383  1.00  0.00     0.176 C 
HETATM   14  C1  UNL     1      15.980  18.061  -5.761  1.00  0.00     0.034 C 
ENDBRANCH  12  13
ENDBRANCH   9  12
ENDBRANCH   1   8
BRANCH   1  15
HETATM   15  C5  UNL     1      18.232  16.390  -0.416  1.00  0.00     0.168 A 
HETATM   16  N2  UNL     1      17.512  15.452   0.244  1.00  0.00    -0.282 N 
HETATM   17  N3  UNL     1      18.332  14.539   0.686  1.00  0.00    -0.278 N 
ATOM     18  H2  UNL     1      16.500  15.457   0.373  1.00  0.00     0.188 HD
HETATM   19  C6  UNL     1      19.575  14.886   0.312  1.00  0.00     0.212 A 
ATOM     20  H3  UNL     1      18.076  13.710   1.222  1.00  0.00     0.189 HD
HETATM   21  N5  UNL     1      19.519  16.038  -0.374  1.00  0.00    -0.222 N 
BRANCH  19  22
HETATM   22  C7  UNL     1      20.810  14.145   0.597  1.00  0.00     0.288 C 
HETATM   23  O3  UNL     1      21.656  14.650   1.357  1.00  0.00    -0.264 OA
HETATM   24  N4  UNL     1      21.010  12.886   0.010  1.00  0.00    -0.359 N 
HETATM   25  C8  UNL     1      22.205  12.109   0.255  1.00  0.00     0.149 C 
ATOM     26  H4  UNL     1      20.291  12.507  -0.607  1.00  0.00     0.162 HD
ENDBRANCH  19  22
BRANCH  21  27
HETATM   27  N6  UNL     1      20.576  16.763  -0.945  1.00  0.00    -0.335 N 
ATOM     28  H62 UNL     1      20.584  17.285  -1.821  1.00  0.00     0.177 HD
ATOM     29  H61 UNL     1      21.508  16.859  -0.542  1.00  0.00     0.177 HD
ENDBRANCH  21  27
ENDBRANCH   1  15
BRANCH   7  30
HETATM   30  O4  UNL     1      17.731  19.174   0.619  1.00  0.00    -0.290 OA
ATOM     31  H4  UNL     1      18.443  19.579   1.100  1.00  0.00     0.239 HD
ENDBRANCH   7  30
TORSDOF 7
ENDMDL
MODEL 2
REMARK VINA RESULT: -5.856406484      3.669      7.144
REMARK  7 active torsions:
REMARK  status: ('A' for Active; 'I' for Inactive)
REMARK    1  A    between atoms: C2_2  and  O1_3 
REMARK    2  A    between atoms: O1_3  and  C3_4 
REMARK       I    between atoms: C3_4  and  N1_6 
REMARK    3  A    between atoms: N1_6  and  C4_8 
REMARK    4  A    between atoms: C4_8  and  C5_9 
REMARK    5  A    between atoms: C6_14  and  C7_15 
REMARK       I    between atoms: C7_15  and  N4_17 
REMARK    6  A    between atoms: N5_20  and  N6_21 
REMARK    7  A    between atoms: N9_29  and  O4_30 
ROOT
HETATM    1  C4  UNL     1      21.684  12.815  -0.444  1.00  0.00     0.207 C 
HETATM    2  C9  UNL     1      21.727  11.648   0.568  1.00  0.00     0.155 C 
HETATM    3  S1  UNL     1      23.217  10.701   0.100  1.00  0.00    -0.035 SA
HETATM    4  N7  UNL     1      23.505  10.784  -1.626  1.00  0.00    -0.053 NA
HETATM    5  N8  UNL     1      22.914  11.871  -2.221  1.00  0.00    -0.229 N 
ATOM      6  H8  UNL     1      23.370  12.396  -2.968  1.00  0.00     0.201 HD
HETATM    7  N9  UNL     1      21.663  12.209  -1.744  1.00  0.00    -0.056 NA
ENDROOT
BRANCH   1   8
HETATM    8  N1  UNL     1      22.859  13.612  -0.188  1.00  0.00    -0.304 N 
HETATM    9  C3  UNL     1      23.247  14.711  -0.992  1.00  0.00     0.362 C 
HETATM   10  O2  UNL     1      22.532  15.003  -1.979  1.00  0.00    -0.238 OA
ATOM     11  H1  UNL     1      23.440  13.372   0.615  1.00  0.00     0.167 HD
BRANCH   9  12
HETATM   12  O1  UNL     1      24.358  15.500  -0.783  1.00  0.00    -0.304 OA
BRANCH  12  13
HETATM   13  C2  UNL     1      24.257  16.886  -0.492  1.00  0.00     0.176 C 
HETATM   14  C1  UNL     1      23.403  17.199   0.692  1.00  0.00     0.034 C 
ENDBRANCH  12  13
ENDBRANCH   9  12
ENDBRANCH   1   8
BRANCH   1  15
HETATM   15  C5  UNL     1      20.465  13.594  -0.100  1.00  0.00     0.168 A 
HETATM   16  N2  UNL     1      20.076  13.709   1.193  1.00  0.00    -0.282 N 
HETATM   17  N3  UNL     1      18.992  14.434   1.233  1.00  0.00    -0.278 N 
ATOM     18  H2  UNL     1      20.550  13.299   1.998  1.00  0.00     0.188 HD
HETATM   19  C6  UNL     1      18.685  14.786  -0.026  1.00  0.00     0.212 A 
ATOM     20  H3  UNL     1      18.470  14.688   2.071  1.00  0.00     0.189 HD
HETATM   21  N5  UNL     1      19.598  14.265  -0.860  1.00  0.00    -0.222 N 
BRANCH  19  22
HETATM   22  C7  UNL     1      17.541  15.604  -0.449  1.00  0.00     0.288 C 
HETATM   23  O3  UNL     1      16.887  15.257  -1.449  1.00  0.00    -0.264 OA
HETATM   24  N4  UNL     1      17.208  16.755   0.283  1.00  0.00    -0.359 N 
HETATM   25  C8  UNL     1      16.091  17.597  -0.084  1.00  0.00     0.149 C 
ATOM     26  H4  UNL     1      17.770  17.003   1.097  1.00  0.00     0.162 HD
ENDBRANCH  19  22
BRANCH  21  27
HETATM   27  N6  UNL     1      19.663  14.375  -2.258  1.00  0.00    -0.335 N 
ATOM     28  H62 UNL     1      20.117  15.099  -2.815  1.00  0.00     0.177 HD
ATOM     29  H61 UNL     1      19.245  13.721  -2.919  1.00  0.00     0.177 HD
ENDBRANCH  21  27
ENDBRANCH   1  15
BRANCH   7  30
HETATM   30  O4  UNL     1      20.842  11.154  -1.824  1.00  0.00    -0.290 OA
ATOM     31  H4  UNL     1      20.939  10.661  -2.631  1.00  0.00     0.239 HD
ENDBRANCH   7  30
TORSDOF 7
ENDMDL
MODEL 3
REMARK VINA RESULT: -5.854686126      2.977      4.052
REMARK  7 active torsions:
REMARK  status: ('A' for Active; 'I' for Inactive)
REMARK    1  A    between atoms: C2_2  and  O1_3 
REMARK    2  A    between atoms: O1_3  and  C3_4 
REMARK       I    between atoms: C3_4  and  N1_6 
REMARK    3  A    between atoms: N1_6  and  C4_8 
REMARK    4  A    between atoms: C4_8  and  C5_9 
REMARK    5  A    between atoms: C6_14  and  C7_15 
REMARK       I    between atoms: C7_15  and  N4_17 
REMARK    6  A    between atoms: N5_20  and  N6_21 
REMARK    7  A    between atoms: N9_29  and  O4_30 
ROOT
HETATM    1  C4  UNL     1      20.365  16.014  -1.483  1.00  0.00     0.207 C 
HETATM    2  C9  UNL     1      21.346  17.209  -1.501  1.00  0.00     0.155 C 
HETATM    3  S1  UNL     1      20.487  18.481  -2.492  1.00  0.00    -0.035 SA
HETATM    4  N7  UNL     1      19.485  17.751  -3.729  1.00  0.00    -0.053 NA
HETATM    5  N8  UNL     1      19.137  16.453  -3.448  1.00  0.00    -0.229 N 
ATOM      6  H8  UNL     1      18.213  16.081  -3.662  1.00  0.00     0.201 HD
HETATM    7  N9  UNL     1      20.121  15.685  -2.858  1.00  0.00    -0.056 NA
ENDROOT
BRANCH   1   8
HETATM    8  N1  UNL     1      19.195  16.466  -0.771  1.00  0.00    -0.304 N 
HETATM    9  C3  UNL     1      18.000  15.713  -0.676  1.00  0.00     0.362 C 
HETATM   10  O2  UNL     1      17.959  14.595  -1.243  1.00  0.00    -0.238 OA
ATOM     11  H1  UNL     1      19.229  17.377  -0.312  1.00  0.00     0.167 HD
BRANCH   9  12
HETATM   12  O1  UNL     1      16.861  16.104  -0.007  1.00  0.00    -0.304 OA
BRANCH  12  13
HETATM   13  C2  UNL     1      16.207  17.334  -0.282  1.00  0.00     0.176 C 
HETATM   14  C1  UNL     1      14.758  17.194  -0.613  1.00  0.00     0.034 C 
ENDBRANCH  12  13
ENDBRANCH   9  12
ENDBRANCH   1   8
BRANCH   1  15
HETATM   15  C5  UNL     1      21.049  14.952  -0.699  1.00  0.00     0.168 A 
HETATM   16  N2  UNL     1      21.764  15.276   0.405  1.00  0.00    -0.282 N 
HETATM   17  N3  UNL     1      22.259  14.181   0.911  1.00  0.00    -0.278 N 
ATOM     18  H2  UNL     1      21.894  16.218   0.777  1.00  0.00     0.188 HD
HETATM   19  C6  UNL     1      21.864  13.155   0.139  1.00  0.00     0.212 A 
ATOM     20  H3  UNL     1      22.844  14.115   1.744  1.00  0.00     0.189 HD
HETATM   21  N5  UNL     1      21.111  13.629  -0.865  1.00  0.00    -0.222 N 
BRANCH  19  22
HETATM   22  C7  UNL     1      22.191  11.737   0.338  1.00  0.00     0.288 C 
HETATM   23  O3  UNL     1      21.268  10.927   0.535  1.00  0.00    -0.264 OA
HETATM   24  N4  UNL     1      23.533  11.327   0.301  1.00  0.00    -0.359 N 
HETATM   25  C8  UNL     1      23.915   9.945   0.488  1.00  0.00     0.149 C 
ATOM     26  H4  UNL     1      24.259  12.024   0.137  1.00  0.00     0.162 HD
ENDBRANCH  19  22
BRANCH  21  27
HETATM   27  N6  UNL     1      20.497  12.914  -1.904  1.00  0.00    -0.335 N 
ATOM     28  H62 UNL     1      20.382  13.188  -2.880  1.00  0.00     0.177 HD
ATOM     29  H61 UNL     1      20.066  11.994  -1.811  1.00  0.00     0.177 HD
ENDBRANCH  21  27
ENDBRANCH   1  15
BRANCH   7  30
HETATM   30  O4  UNL     1      21.228  15.698  -3.612  1.00  0.00    -0.290 OA
ATOM     31  H4  UNL     1      21.602  14.836  -3.745  1.00  0.00     0.239 HD
ENDBRANCH   7  30
TORSDOF 7
ENDMDL
MODEL 4
REMARK VINA RESULT: -5.835243238      2.408      4.049
REMARK  7 active torsions:
REMARK  status: ('A' for Active; 'I' for Inactive)
REMARK    1  A    between atoms: C2_2  and  O1_3 
REMARK    2  A    between atoms: O1_3  and  C3_4 
REMARK       I    between atoms: C3_4  and  N1_6 
REMARK    3  A    between atoms: N1_6  and  C4_8 
REMARK    4  A    between atoms: C4_8  and  C5_9 
REMARK    5  A    between atoms: C6_14  and  C7_15 
REMARK       I    between atoms: C7_15  and  N4_17 
REMARK    6  A    between atoms: N5_20  and  N6_21 
REMARK    7  A    between atoms: N9_29  and  O4_30 
ROOT
HETATM    1  C4  UNL     1      18.167  16.309  -1.475  1.00  0.00     0.207 C 
HETATM    2  C9  UNL     1      18.308  16.763  -2.946  1.00  0.00     0.155 C 
HETATM    3  S1  UNL     1      17.034  18.058  -3.142  1.00  0.00    -0.035 SA
HETATM    4  N7  UNL     1      15.642  17.736  -2.128  1.00  0.00    -0.053 NA
HETATM    5  N8  UNL     1      15.925  16.916  -1.065  1.00  0.00    -0.229 N 
ATOM      6  H8  UNL     1      15.512  17.059  -0.144  1.00  0.00     0.201 HD
HETATM    7  N9  UNL     1      16.806  15.884  -1.323  1.00  0.00    -0.056 NA
ENDROOT
BRANCH   1   8
HETATM    8  N1  UNL     1      18.519  17.453  -0.668  1.00  0.00    -0.304 N 
HETATM    9  C3  UNL     1      19.799  18.056  -0.685  1.00  0.00     0.362 C 
HETATM   10  O2  UNL     1      20.672  17.568  -1.441  1.00  0.00    -0.238 OA
ATOM     11  H1  UNL     1      17.808  17.847  -0.052  1.00  0.00     0.167 HD
BRANCH   9  12
HETATM   12  O1  UNL     1      20.178  19.147   0.066  1.00  0.00    -0.304 OA
BRANCH  12  13
HETATM   13  C2  UNL     1      21.518  19.343   0.492  1.00  0.00     0.176 C 
HETATM   14  C1  UNL     1      21.732  20.599   1.270  1.00  0.00     0.034 C 
ENDBRANCH  12  13
ENDBRANCH   9  12
ENDBRANCH   1   8
BRANCH   1  15
HETATM   15  C5  UNL     1      19.180  15.237  -1.292  1.00  0.00     0.168 A 
HETATM   16  N2  UNL     1      20.041  14.938  -2.295  1.00  0.00    -0.282 N 
HETATM   17  N3  UNL     1      20.823  13.974  -1.892  1.00  0.00    -0.278 N 
ATOM     18  H2  UNL     1      20.073  15.389  -3.209  1.00  0.00     0.188 HD
HETATM   19  C6  UNL     1      20.470  13.655  -0.636  1.00  0.00     0.212 A 
ATOM     20  H3  UNL     1      21.569  13.540  -2.434  1.00  0.00     0.189 HD
HETATM   21  N5  UNL     1      19.448  14.437  -0.257  1.00  0.00    -0.222 N 
BRANCH  19  22
HETATM   22  C7  UNL     1      21.085  12.622   0.207  1.00  0.00     0.288 C 
HETATM   23  O3  UNL     1      20.635  12.429   1.351  1.00  0.00    -0.264 OA
HETATM   24  N4  UNL     1      22.162  11.874  -0.294  1.00  0.00    -0.359 N 
HETATM   25  C8  UNL     1      22.806  10.842   0.489  1.00  0.00     0.149 C 
ATOM     26  H4  UNL     1      22.500  12.064  -1.237  1.00  0.00     0.162 HD
ENDBRANCH  19  22
BRANCH  21  27
HETATM   27  N6  UNL     1      18.764  14.444   0.968  1.00  0.00    -0.335 N 
ATOM     28  H62 UNL     1      18.919  15.048   1.776  1.00  0.00     0.177 HD
ATOM     29  H61 UNL     1      17.999  13.818   1.218  1.00  0.00     0.177 HD
ENDBRANCH  21  27
ENDBRANCH   1  15
BRANCH   7  30
HETATM   30  O4  UNL     1      16.362  15.148  -2.350  1.00  0.00    -0.290 OA
ATOM     31  H4  UNL     1      15.594  14.631  -2.137  1.00  0.00     0.239 HD
ENDBRANCH   7  30
TORSDOF 7
ENDMDL
MODEL 5
REMARK VINA RESULT: -5.811657106      2.823      4.847
REMARK  7 active torsions:
REMARK  status: ('A' for Active; 'I' for Inactive)
REMARK    1  A    between atoms: C2_2  and  O1_3 
REMARK    2  A    between atoms: O1_3  and  C3_4 
REMARK       I    between atoms: C3_4  and  N1_6 
REMARK    3  A    between atoms: N1_6  and  C4_8 
REMARK    4  A    between atoms: C4_8  and  C5_9 
REMARK    5  A    between atoms: C6_14  and  C7_15 
REMARK       I    between atoms: C7_15  and  N4_17 
REMARK    6  A    between atoms: N5_20  and  N6_21 
REMARK    7  A    between atoms: N9_29  and  O4_30 
ROOT
HETATM    1  C4  UNL     1      19.811  15.362  -1.120  1.00  0.00     0.207 C 
HETATM    2  C9  UNL     1      18.993  15.280  -2.429  1.00  0.00     0.155 C 
HETATM    3  S1  UNL     1      17.943  16.775  -2.399  1.00  0.00    -0.035 SA
HETATM    4  N7  UNL     1      17.514  17.214  -0.758  1.00  0.00    -0.053 NA
HETATM    5  N8  UNL     1      18.381  16.713   0.180  1.00  0.00    -0.229 N 
ATOM      6  H8  UNL     1      18.661  17.248   1.002  1.00  0.00     0.201 HD
HETATM    7  N9  UNL     1      18.849  15.436  -0.059  1.00  0.00    -0.056 NA
ENDROOT
BRANCH   1   8
HETATM    8  N1  UNL     1      20.644  16.535  -1.241  1.00  0.00    -0.304 N 
HETATM    9  C3  UNL     1      21.584  16.928  -0.258  1.00  0.00     0.362 C 
HETATM   10  O2  UNL     1      21.696  16.219   0.770  1.00  0.00    -0.238 OA
ATOM     11  H1  UNL     1      20.550  17.110  -2.077  1.00  0.00     0.167 HD
BRANCH   9  12
HETATM   12  O1  UNL     1      22.399  18.036  -0.332  1.00  0.00    -0.304 OA
BRANCH  12  13
HETATM   13  C2  UNL     1      22.693  18.835   0.805  1.00  0.00     0.176 C 
HETATM   14  C1  UNL     1      21.741  19.965   1.018  1.00  0.00     0.034 C 
ENDBRANCH  12  13
ENDBRANCH   9  12
ENDBRANCH   1   8
BRANCH   1  15
HETATM   15  C5  UNL     1      20.662  14.143  -1.108  1.00  0.00     0.168 A 
HETATM   16  N2  UNL     1      21.321  13.763  -2.229  1.00  0.00    -0.282 N 
HETATM   17  N3  UNL     1      21.992  12.676  -1.963  1.00  0.00    -0.278 N 
ATOM     18  H2  UNL     1      21.296  14.244  -3.128  1.00  0.00     0.188 HD
HETATM   19  C6  UNL     1      21.770  12.359  -0.677  1.00  0.00     0.212 A 
ATOM     20  H3  UNL     1      22.581  12.160  -2.616  1.00  0.00     0.189 HD
HETATM   21  N5  UNL     1      20.942  13.267  -0.139  1.00  0.00    -0.222 N 
BRANCH  19  22
HETATM   22  C7  UNL     1      22.327  11.208   0.046  1.00  0.00     0.288 C 
HETATM   23  O3  UNL     1      21.553  10.437   0.642  1.00  0.00    -0.264 OA
HETATM   24  N4  UNL     1      23.715  11.002   0.049  1.00  0.00    -0.359 N 
HETATM   25  C8  UNL     1      24.321   9.886   0.742  1.00  0.00     0.149 C 
ATOM     26  H4  UNL     1      24.314  11.658  -0.452  1.00  0.00     0.162 HD
ENDBRANCH  19  22
BRANCH  21  27
HETATM   27  N6  UNL     1      20.442  13.322   1.170  1.00  0.00    -0.335 N 
ATOM     28  H62 UNL     1      20.806  12.865   2.007  1.00  0.00     0.177 HD
ATOM     29  H61 UNL     1      19.616  13.843   1.463  1.00  0.00     0.177 HD
ENDBRANCH  21  27
ENDBRANCH   1  15
BRANCH   7  30
HETATM   30  O4  UNL     1      17.821  14.592  -0.215  1.00  0.00    -0.290 OA
ATOM     31  H4  UNL     1      17.530  14.200   0.600  1.00  0.00     0.239 HD
ENDBRANCH   7  30
TORSDOF 7
ENDMDL
