MODEL 1
REMARK VINA RESULT: -5.384070259      0.000      0.000
REMARK  8 active torsions:
REMARK  status: ('A' for Active; 'I' for Inactive)
REMARK    1  A    between atoms: C2_2  and  N1_3 
REMARK    2  A    between atoms: N1_3  and  C3_5 
REMARK    3  A    between atoms: C3_5  and  C4_6 
REMARK    4  A    between atoms: C4_6  and  N2_7 
REMARK    5  A    between atoms: N2_7  and  N3_9 
REMARK    6  A    between atoms: N3_9  and  C5_11 
REMARK    7  A    between atoms: C5_11  and  C6_12 
REMARK    8  A    between atoms: C6_12  and  C7_13 
ROOT
HETATM    1  N2  UNL     1      -4.627  18.717   3.915  1.00  0.00    -0.336 N 
ATOM      2  H2  UNL     1      -3.972  18.081   4.371  1.00  0.00     0.180 HD
ENDROOT
BRANCH   1   3
HETATM    3  C4  UNL     1      -4.496  20.154   4.035  1.00  0.00     0.183 C 
BRANCH   3   4
HETATM    4  C3  UNL     1      -4.358  20.822   2.700  1.00  0.00     0.081 C 
BRANCH   4   5
HETATM    5  N1  UNL     1      -4.234  22.216   2.721  1.00  0.00    -0.381 N 
ATOM      6  H1  UNL     1      -5.002  22.776   3.090  1.00  0.00     0.164 HD
BRANCH   5   7
HETATM    7  C2  UNL     1      -3.082  22.866   2.248  1.00  0.00     0.056 C 
HETATM    8  C1  UNL     1      -2.028  22.063   1.577  1.00  0.00     0.054 C 
ENDBRANCH   5   7
ENDBRANCH   4   5
ENDBRANCH   3   4
ENDBRANCH   1   3
BRANCH   1   9
HETATM    9  N3  UNL     1      -5.638  18.267   3.186  1.00  0.00    -0.340 N 
ATOM     10  H3  UNL     1      -5.436  17.869   2.269  1.00  0.00     0.179 HD
BRANCH   9  11
HETATM   11  C5  UNL     1      -6.972  18.312   3.618  1.00  0.00     0.149 C 
BRANCH  11  12
HETATM   12  C6  UNL     1      -7.894  18.045   2.427  1.00  0.00     0.134 C 
BRANCH  12  13
HETATM   13  C7  UNL     1      -8.224  19.285   1.686  1.00  0.00     0.174 C 
HETATM   14  O1  UNL     1      -7.781  20.401   2.058  1.00  0.00    -0.648 OA
HETATM   15  O2  UNL     1      -9.025  19.209   0.577  1.00  0.00    -0.648 OA
ENDBRANCH  12  13
ENDBRANCH  11  12
ENDBRANCH   9  11
ENDBRANCH   1   9
TORSDOF 8
ENDMDL
MODEL 2
REMARK VINA RESULT: -5.372681531      3.665      6.431
REMARK  8 active torsions:
REMARK  status: ('A' for Active; 'I' for Inactive)
REMARK    1  A    between atoms: C2_2  and  N1_3 
REMARK    2  A    between atoms: N1_3  and  C3_5 
REMARK    3  A    between atoms: C3_5  and  C4_6 
REMARK    4  A    between atoms: C4_6  and  N2_7 
REMARK    5  A    between atoms: N2_7  and  N3_9 
REMARK    6  A    between atoms: N3_9  and  C5_11 
REMARK    7  A    between atoms: C5_11  and  C6_12 
REMARK    8  A    between atoms: C6_12  and  C7_13 
ROOT
HETATM    1  N2  UNL     1      -5.053  21.595   2.559  1.00  0.00    -0.336 N 
ATOM      2  H2  UNL     1      -6.037  21.844   2.660  1.00  0.00     0.180 HD
ENDROOT
BRANCH   1   3
HETATM    3  C4  UNL     1      -4.628  20.216   2.441  1.00  0.00     0.183 C 
BRANCH   3   4
HETATM    4  C3  UNL     1      -4.831  19.451   3.713  1.00  0.00     0.081 C 
BRANCH   4   5
HETATM    5  N1  UNL     1      -5.519  18.238   3.598  1.00  0.00    -0.381 N 
ATOM      6  H1  UNL     1      -5.329  17.495   4.270  1.00  0.00     0.164 HD
BRANCH   5   7
HETATM    7  C2  UNL     1      -6.464  18.013   2.584  1.00  0.00     0.056 C 
HETATM    8  C1  UNL     1      -7.908  18.060   2.925  1.00  0.00     0.054 C 
ENDBRANCH   5   7
ENDBRANCH   4   5
ENDBRANCH   3   4
ENDBRANCH   1   3
BRANCH   1   9
HETATM    9  N3  UNL     1      -4.103  22.519   2.531  1.00  0.00    -0.340 N 
ATOM     10  H3  UNL     1      -4.322  23.452   2.881  1.00  0.00     0.179 HD
BRANCH   9  11
HETATM   11  C5  UNL     1      -2.812  22.273   2.041  1.00  0.00     0.149 C 
BRANCH  11  12
HETATM   12  C6  UNL     1      -2.025  23.586   2.020  1.00  0.00     0.134 C 
BRANCH  12  13
HETATM   13  C7  UNL     1      -0.598  23.376   1.681  1.00  0.00     0.174 C 
HETATM   14  O1  UNL     1      -0.261  22.673   0.695  1.00  0.00    -0.648 OA
HETATM   15  O2  UNL     1       0.368  23.960   2.458  1.00  0.00    -0.648 OA
ENDBRANCH  12  13
ENDBRANCH  11  12
ENDBRANCH   9  11
ENDBRANCH   1   9
TORSDOF 8
ENDMDL
MODEL 3
REMARK VINA RESULT: -5.320154239      1.850      3.007
REMARK  8 active torsions:
REMARK  status: ('A' for Active; 'I' for Inactive)
REMARK    1  A    between atoms: C2_2  and  N1_3 
REMARK    2  A    between atoms: N1_3  and  C3_5 
REMARK    3  A    between atoms: C3_5  and  C4_6 
REMARK    4  A    between atoms: C4_6  and  N2_7 
REMARK    5  A    between atoms: N2_7  and  N3_9 
REMARK    6  A    between atoms: N3_9  and  C5_11 
REMARK    7  A    between atoms: C5_11  and  C6_12 
REMARK    8  A    between atoms: C6_12  and  C7_13 
ROOT
HETATM    1  N2  UNL     1      -4.048  21.883   3.130  1.00  0.00    -0.336 N 
ATOM      2  H2  UNL     1      -4.787  22.352   3.655  1.00  0.00     0.180 HD
ENDROOT
BRANCH   1   3
HETATM    3  C4  UNL     1      -3.224  22.597   2.178  1.00  0.00     0.183 C 
BRANCH   3   4
HETATM    4  C3  UNL     1      -2.171  21.719   1.572  1.00  0.00     0.081 C 
BRANCH   4   5
HETATM    5  N1  UNL     1      -1.116  22.378   0.931  1.00  0.00    -0.381 N 
ATOM      6  H1  UNL     1      -1.133  22.470  -0.084  1.00  0.00     0.164 HD
BRANCH   5   7
HETATM    7  C2  UNL     1      -0.033  22.917   1.645  1.00  0.00     0.056 C 
HETATM    8  C1  UNL     1      -0.181  24.256   2.270  1.00  0.00     0.054 C 
ENDBRANCH   5   7
ENDBRANCH   4   5
ENDBRANCH   3   4
ENDBRANCH   1   3
BRANCH   1   9
HETATM    9  N3  UNL     1      -3.798  20.592   3.289  1.00  0.00    -0.340 N 
ATOM     10  H3  UNL     1      -3.144  20.140   2.650  1.00  0.00     0.179 HD
BRANCH   9  11
HETATM   11  C5  UNL     1      -4.391  19.817   4.298  1.00  0.00     0.149 C 
BRANCH  11  12
HETATM   12  C6  UNL     1      -5.322  18.785   3.656  1.00  0.00     0.134 C 
BRANCH  12  13
HETATM   13  C7  UNL     1      -6.657  19.351   3.351  1.00  0.00     0.174 C 
HETATM   14  O1  UNL     1      -7.704  18.824   3.804  1.00  0.00    -0.648 OA
HETATM   15  O2  UNL     1      -6.747  20.467   2.562  1.00  0.00    -0.648 OA
ENDBRANCH  12  13
ENDBRANCH  11  12
ENDBRANCH   9  11
ENDBRANCH   1   9
TORSDOF 8
ENDMDL
MODEL 4
REMARK VINA RESULT: -5.264262715      3.845      6.513
REMARK  8 active torsions:
REMARK  status: ('A' for Active; 'I' for Inactive)
REMARK    1  A    between atoms: C2_2  and  N1_3 
REMARK    2  A    between atoms: N1_3  and  C3_5 
REMARK    3  A    between atoms: C3_5  and  C4_6 
REMARK    4  A    between atoms: C4_6  and  N2_7 
REMARK    5  A    between atoms: N2_7  and  N3_9 
REMARK    6  A    between atoms: N3_9  and  C5_11 
REMARK    7  A    between atoms: C5_11  and  C6_12 
REMARK    8  A    between atoms: C6_12  and  C7_13 
ROOT
HETATM    1  N2  UNL     1      -3.942  22.357   2.713  1.00  0.00    -0.336 N 
ATOM      2  H2  UNL     1      -4.483  23.052   3.227  1.00  0.00     0.180 HD
ENDROOT
BRANCH   1   3
HETATM    3  C4  UNL     1      -4.379  20.980   2.609  1.00  0.00     0.183 C 
BRANCH   3   4
HETATM    4  C3  UNL     1      -4.345  20.275   3.931  1.00  0.00     0.081 C 
BRANCH   4   5
HETATM    5  N1  UNL     1      -4.641  18.908   3.906  1.00  0.00    -0.381 N 
ATOM      6  H1  UNL     1      -4.052  18.264   4.434  1.00  0.00     0.164 HD
BRANCH   5   7
HETATM    7  C2  UNL     1      -5.725  18.395   3.175  1.00  0.00     0.056 C 
HETATM    8  C1  UNL     1      -7.095  18.533   3.732  1.00  0.00     0.054 C 
ENDBRANCH   5   7
ENDBRANCH   4   5
ENDBRANCH   3   4
ENDBRANCH   1   3
BRANCH   1   9
HETATM    9  N3  UNL     1      -2.805  22.672   2.109  1.00  0.00    -0.340 N 
ATOM     10  H3  UNL     1      -2.442  23.619   2.218  1.00  0.00     0.179 HD
BRANCH   9  11
HETATM   11  C5  UNL     1      -2.077  21.762   1.327  1.00  0.00     0.149 C 
BRANCH  11  12
HETATM   12  C6  UNL     1      -0.587  21.912   1.640  1.00  0.00     0.134 C 
BRANCH  12  13
HETATM   13  C7  UNL     1      -0.177  23.332   1.736  1.00  0.00     0.174 C 
HETATM   14  O1  UNL     1      -0.591  24.186   0.912  1.00  0.00    -0.648 OA
HETATM   15  O2  UNL     1       0.670  23.718   2.742  1.00  0.00    -0.648 OA
ENDBRANCH  12  13
ENDBRANCH  11  12
ENDBRANCH   9  11
ENDBRANCH   1   9
TORSDOF 8
ENDMDL
MODEL 5
REMARK VINA RESULT: -5.202301676      3.024      5.968
REMARK  8 active torsions:
REMARK  status: ('A' for Active; 'I' for Inactive)
REMARK    1  A    between atoms: C2_2  and  N1_3 
REMARK    2  A    between atoms: N1_3  and  C3_5 
REMARK    3  A    between atoms: C3_5  and  C4_6 
REMARK    4  A    between atoms: C4_6  and  N2_7 
REMARK    5  A    between atoms: N2_7  and  N3_9 
REMARK    6  A    between atoms: N3_9  and  C5_11 
REMARK    7  A    between atoms: C5_11  and  C6_12 
REMARK    8  A    between atoms: C6_12  and  C7_13 
ROOT
HETATM    1  N2  UNL     1      -4.698  21.637   2.519  1.00  0.00    -0.336 N 
ATOM      2  H2  UNL     1      -5.501  21.384   1.942  1.00  0.00     0.180 HD
ENDROOT
BRANCH   1   3
HETATM    3  C4  UNL     1      -4.146  20.719   3.494  1.00  0.00     0.183 C 
BRANCH   3   4
HETATM    4  C3  UNL     1      -5.177  19.769   4.024  1.00  0.00     0.081 C 
BRANCH   4   5
HETATM    5  N1  UNL     1      -5.227  18.513   3.410  1.00  0.00    -0.381 N 
ATOM      6  H1  UNL     1      -4.427  17.887   3.498  1.00  0.00     0.164 HD
BRANCH   5   7
HETATM    7  C2  UNL     1      -6.348  18.087   2.679  1.00  0.00     0.056 C 
HETATM    8  C1  UNL     1      -7.703  18.448   3.166  1.00  0.00     0.054 C 
ENDBRANCH   5   7
ENDBRANCH   4   5
ENDBRANCH   3   4
ENDBRANCH   1   3
BRANCH   1   9
HETATM    9  N3  UNL     1      -4.113  22.820   2.411  1.00  0.00    -0.340 N 
ATOM     10  H3  UNL     1      -4.573  23.542   1.857  1.00  0.00     0.179 HD
BRANCH   9  11
HETATM   11  C5  UNL     1      -2.889  23.127   3.026  1.00  0.00     0.149 C 
BRANCH  11  12
HETATM   12  C6  UNL     1      -1.890  23.576   1.957  1.00  0.00     0.134 C 
BRANCH  12  13
HETATM   13  C7  UNL     1      -1.327  22.432   1.202  1.00  0.00     0.174 C 
HETATM   14  O1  UNL     1      -2.059  21.487   0.814  1.00  0.00    -0.648 OA
HETATM   15  O2  UNL     1       0.014  22.408   0.924  1.00  0.00    -0.648 OA
ENDBRANCH  12  13
ENDBRANCH  11  12
ENDBRANCH   9  11
ENDBRANCH   1   9
TORSDOF 8
ENDMDL
