MODEL 1
REMARK VINA RESULT: -5.880182240      0.000      0.000
REMARK  11 active torsions:
REMARK  status: ('A' for Active; 'I' for Inactive)
REMARK    1  A    between atoms: C2_2  and  C3_3 
REMARK    2  A    between atoms: C3_3  and  C4_4 
REMARK    3  A    between atoms: C3_3  and  N1_7 
REMARK    4  A    between atoms: C4_4  and  O1_5 
REMARK    5  A    between atoms: N1_7  and  C5_9 
REMARK    6  A    between atoms: C5_9  and  O2_10 
REMARK    7  A    between atoms: C5_9  and  N2_12 
REMARK    8  A    between atoms: N2_12  and  C6_14 
REMARK    9  A    between atoms: C6_14  and  C7_15 
REMARK   10  A    between atoms: C7_15  and  N3_16 
REMARK   11  A    between atoms: N3_16  and  O3_18 
ROOT
HETATM    1  C5  UNL     1      -3.362  21.621   2.305  1.00  0.00     0.322 C 
ENDROOT
BRANCH   1   2
HETATM    2  N1  UNL     1      -4.113  20.427   2.239  1.00  0.00    -0.374 N 
ATOM      3  H1  UNL     1      -3.816  19.670   1.623  1.00  0.00     0.158 HD
BRANCH   2   4
HETATM    4  C3  UNL     1      -5.274  20.286   3.027  1.00  0.00     0.103 C 
BRANCH   4   5
HETATM    5  C2  UNL     1      -5.189  18.926   3.718  1.00  0.00     0.022 C 
HETATM    6  C1  UNL     1      -6.518  18.202   3.631  1.00  0.00     0.007 C 
ENDBRANCH   4   5
BRANCH   4   7
HETATM    7  C4  UNL     1      -6.471  20.341   2.117  1.00  0.00     0.189 C 
BRANCH   7   8
HETATM    8  O1  UNL     1      -6.969  21.674   2.130  1.00  0.00    -0.399 OA
ATOM      9  H1  UNL     1      -7.628  21.745   1.449  1.00  0.00     0.209 HD
ENDBRANCH   7   8
ENDBRANCH   4   7
ENDBRANCH   2   4
ENDBRANCH   1   2
BRANCH   1  10
HETATM   10  O2  UNL     1      -4.129  22.769   2.360  1.00  0.00    -0.360 OA
ATOM     11  H2  UNL     1      -3.833  23.405   3.001  1.00  0.00     0.214 HD
ENDBRANCH   1  10
BRANCH   1  12
HETATM   12  N2  UNL     1      -2.389  21.725   1.294  1.00  0.00    -0.359 N 
ATOM     13  H2  UNL     1      -2.641  21.628   0.310  1.00  0.00     0.163 HD
BRANCH  12  14
HETATM   14  C6  UNL     1      -1.061  21.964   1.679  1.00  0.00     0.081 C 
BRANCH  14  15
HETATM   15  C7  UNL     1      -0.382  23.220   1.275  1.00  0.00     0.190 C 
BRANCH  15  16
HETATM   16  N3  UNL     1      -0.729  24.300   2.119  1.00  0.00    -0.300 N 
ATOM     17  H3  UNL     1      -1.635  24.745   1.972  1.00  0.00     0.187 HD
BRANCH  16  18
HETATM   18  O3  UNL     1      -0.042  24.726   2.988  1.00  0.00    -0.294 OA
ATOM     19  H3  UNL     1      -0.366  25.150   3.773  1.00  0.00     0.244 HD
ENDBRANCH  16  18
ENDBRANCH  15  16
ENDBRANCH  14  15
ENDBRANCH  12  14
ENDBRANCH   1  12
TORSDOF 11
ENDMDL
MODEL 2
REMARK VINA RESULT: -5.728155368      3.643      5.827
REMARK  11 active torsions:
REMARK  status: ('A' for Active; 'I' for Inactive)
REMARK    1  A    between atoms: C2_2  and  C3_3 
REMARK    2  A    between atoms: C3_3  and  C4_4 
REMARK    3  A    between atoms: C3_3  and  N1_7 
REMARK    4  A    between atoms: C4_4  and  O1_5 
REMARK    5  A    between atoms: N1_7  and  C5_9 
REMARK    6  A    between atoms: C5_9  and  O2_10 
REMARK    7  A    between atoms: C5_9  and  N2_12 
REMARK    8  A    between atoms: N2_12  and  C6_14 
REMARK    9  A    between atoms: C6_14  and  C7_15 
REMARK   10  A    between atoms: C7_15  and  N3_16 
REMARK   11  A    between atoms: N3_16  and  O3_18 
ROOT
HETATM    1  C5  UNL     1      -6.569  20.666   1.978  1.00  0.00     0.322 C 
ENDROOT
BRANCH   1   2
HETATM    2  N1  UNL     1      -6.013  20.239   3.203  1.00  0.00    -0.374 N 
ATOM      3  H1  UNL     1      -6.518  19.575   3.791  1.00  0.00     0.158 HD
BRANCH   2   4
HETATM    4  C3  UNL     1      -4.757  20.733   3.611  1.00  0.00     0.103 C 
BRANCH   4   5
HETATM    5  C2  UNL     1      -3.966  21.061   2.345  1.00  0.00     0.022 C 
HETATM    6  C1  UNL     1      -3.492  22.501   2.374  1.00  0.00     0.007 C 
ENDBRANCH   4   5
BRANCH   4   7
HETATM    7  C4  UNL     1      -4.062  19.659   4.403  1.00  0.00     0.189 C 
BRANCH   7   8
HETATM    8  O1  UNL     1      -4.578  18.402   3.982  1.00  0.00    -0.399 OA
ATOM      9  H1  UNL     1      -3.880  17.762   4.051  1.00  0.00     0.209 HD
ENDBRANCH   7   8
ENDBRANCH   4   7
ENDBRANCH   2   4
ENDBRANCH   1   2
BRANCH   1  10
HETATM   10  O2  UNL     1      -7.382  21.778   2.083  1.00  0.00    -0.360 OA
ATOM     11  H2  UNL     1      -8.301  21.578   2.220  1.00  0.00     0.214 HD
ENDBRANCH   1  10
BRANCH   1  12
HETATM   12  N2  UNL     1      -7.225  19.638   1.274  1.00  0.00    -0.359 N 
ATOM     13  H2  UNL     1      -8.237  19.648   1.154  1.00  0.00     0.163 HD
BRANCH  12  14
HETATM   14  C6  UNL     1      -6.444  18.600   0.744  1.00  0.00     0.081 C 
BRANCH  14  15
HETATM   15  C7  UNL     1      -6.803  17.185   1.009  1.00  0.00     0.190 C 
BRANCH  15  16
HETATM   16  N3  UNL     1      -6.589  16.834   2.362  1.00  0.00    -0.300 N 
ATOM     17  H3  UNL     1      -5.830  16.185   2.569  1.00  0.00     0.187 HD
BRANCH  16  18
HETATM   18  O3  UNL     1      -7.230  17.241   3.274  1.00  0.00    -0.294 OA
ATOM     19  H3  UNL     1      -8.139  17.020   3.436  1.00  0.00     0.244 HD
ENDBRANCH  16  18
ENDBRANCH  15  16
ENDBRANCH  14  15
ENDBRANCH  12  14
ENDBRANCH   1  12
TORSDOF 11
ENDMDL
MODEL 3
REMARK VINA RESULT: -5.705359145      1.591      2.261
REMARK  11 active torsions:
REMARK  status: ('A' for Active; 'I' for Inactive)
REMARK    1  A    between atoms: C2_2  and  C3_3 
REMARK    2  A    between atoms: C3_3  and  C4_4 
REMARK    3  A    between atoms: C3_3  and  N1_7 
REMARK    4  A    between atoms: C4_4  and  O1_5 
REMARK    5  A    between atoms: N1_7  and  C5_9 
REMARK    6  A    between atoms: C5_9  and  O2_10 
REMARK    7  A    between atoms: C5_9  and  N2_12 
REMARK    8  A    between atoms: N2_12  and  C6_14 
REMARK    9  A    between atoms: C6_14  and  C7_15 
REMARK   10  A    between atoms: C7_15  and  N3_16 
REMARK   11  A    between atoms: N3_16  and  O3_18 
ROOT
HETATM    1  C5  UNL     1      -2.019  21.281   0.890  1.00  0.00     0.322 C 
ENDROOT
BRANCH   1   2
HETATM    2  N1  UNL     1      -2.996  20.556   1.607  1.00  0.00    -0.374 N 
ATOM      3  H1  UNL     1      -3.228  19.601   1.333  1.00  0.00     0.158 HD
BRANCH   2   4
HETATM    4  C3  UNL     1      -3.649  21.157   2.703  1.00  0.00     0.103 C 
BRANCH   4   5
HETATM    5  C2  UNL     1      -4.972  20.417   2.901  1.00  0.00     0.022 C 
HETATM    6  C1  UNL     1      -4.824  19.342   3.961  1.00  0.00     0.007 C 
ENDBRANCH   4   5
BRANCH   4   7
HETATM    7  C4  UNL     1      -3.899  22.603   2.369  1.00  0.00     0.189 C 
BRANCH   7   8
HETATM    8  O1  UNL     1      -3.429  23.390   3.457  1.00  0.00    -0.399 OA
ATOM      9  H1  UNL     1      -3.460  22.853   4.240  1.00  0.00     0.209 HD
ENDBRANCH   7   8
ENDBRANCH   4   7
ENDBRANCH   2   4
ENDBRANCH   1   2
BRANCH   1  10
HETATM   10  O2  UNL     1      -1.903  20.914  -0.437  1.00  0.00    -0.360 OA
ATOM     11  H2  UNL     1      -1.691  19.998  -0.570  1.00  0.00     0.214 HD
ENDBRANCH   1  10
BRANCH   1  12
HETATM   12  N2  UNL     1      -0.758  21.286   1.515  1.00  0.00    -0.359 N 
ATOM     13  H2  UNL     1      -0.377  20.439   1.936  1.00  0.00     0.163 HD
BRANCH  12  14
HETATM   14  C6  UNL     1      -0.040  22.491   1.541  1.00  0.00     0.081 C 
BRANCH  14  15
HETATM   15  C7  UNL     1      -0.725  23.775   1.255  1.00  0.00     0.190 C 
BRANCH  15  16
HETATM   16  N3  UNL     1      -0.737  24.627   2.384  1.00  0.00    -0.300 N 
ATOM     17  H3  UNL     1      -1.552  25.225   2.519  1.00  0.00     0.187 HD
BRANCH  16  18
HETATM   18  O3  UNL     1       0.135  24.697   3.186  1.00  0.00    -0.294 OA
ATOM     19  H3  UNL     1       0.307  25.454   3.733  1.00  0.00     0.244 HD
ENDBRANCH  16  18
ENDBRANCH  15  16
ENDBRANCH  14  15
ENDBRANCH  12  14
ENDBRANCH   1  12
TORSDOF 11
ENDMDL
MODEL 4
REMARK VINA RESULT: -5.670961248      1.540      1.684
REMARK  11 active torsions:
REMARK  status: ('A' for Active; 'I' for Inactive)
REMARK    1  A    between atoms: C2_2  and  C3_3 
REMARK    2  A    between atoms: C3_3  and  C4_4 
REMARK    3  A    between atoms: C3_3  and  N1_7 
REMARK    4  A    between atoms: C4_4  and  O1_5 
REMARK    5  A    between atoms: N1_7  and  C5_9 
REMARK    6  A    between atoms: C5_9  and  O2_10 
REMARK    7  A    between atoms: C5_9  and  N2_12 
REMARK    8  A    between atoms: N2_12  and  C6_14 
REMARK    9  A    between atoms: C6_14  and  C7_15 
REMARK   10  A    between atoms: C7_15  and  N3_16 
REMARK   11  A    between atoms: N3_16  and  O3_18 
ROOT
HETATM    1  C5  UNL     1      -4.047  21.100   3.114  1.00  0.00     0.322 C 
ENDROOT
BRANCH   1   2
HETATM    2  N1  UNL     1      -4.819  20.164   2.392  1.00  0.00    -0.374 N 
ATOM      3  H1  UNL     1      -4.432  19.712   1.564  1.00  0.00     0.158 HD
BRANCH   2   4
HETATM    4  C3  UNL     1      -6.127  19.856   2.821  1.00  0.00     0.103 C 
BRANCH   4   5
HETATM    5  C2  UNL     1      -6.236  18.333   2.882  1.00  0.00     0.022 C 
HETATM    6  C1  UNL     1      -7.691  17.905   2.887  1.00  0.00     0.007 C 
ENDBRANCH   4   5
BRANCH   4   7
HETATM    7  C4  UNL     1      -7.097  20.414   1.815  1.00  0.00     0.189 C 
BRANCH   7   8
HETATM    8  O1  UNL     1      -7.226  21.810   2.060  1.00  0.00    -0.399 OA
ATOM      9  H1  UNL     1      -6.809  21.999   2.893  1.00  0.00     0.209 HD
ENDBRANCH   7   8
ENDBRANCH   4   7
ENDBRANCH   2   4
ENDBRANCH   1   2
BRANCH   1  10
HETATM   10  O2  UNL     1      -4.330  21.145   4.466  1.00  0.00    -0.360 OA
ATOM     11  H2  UNL     1      -4.463  22.021   4.807  1.00  0.00     0.214 HD
ENDBRANCH   1  10
BRANCH   1  12
HETATM   12  N2  UNL     1      -4.077  22.393   2.559  1.00  0.00    -0.359 N 
ATOM     13  H2  UNL     1      -4.955  22.905   2.468  1.00  0.00     0.163 HD
BRANCH  12  14
HETATM   14  C6  UNL     1      -2.865  22.957   2.134  1.00  0.00     0.081 C 
BRANCH  14  15
HETATM   15  C7  UNL     1      -1.819  22.103   1.521  1.00  0.00     0.190 C 
BRANCH  15  16
HETATM   16  N3  UNL     1      -0.774  22.874   0.960  1.00  0.00    -0.300 N 
ATOM     17  H3  UNL     1      -0.987  23.431   0.133  1.00  0.00     0.187 HD
BRANCH  16  18
HETATM   18  O3  UNL     1       0.334  22.918   1.383  1.00  0.00    -0.294 OA
ATOM     19  H3  UNL     1       0.677  22.346   2.059  1.00  0.00     0.244 HD
ENDBRANCH  16  18
ENDBRANCH  15  16
ENDBRANCH  14  15
ENDBRANCH  12  14
ENDBRANCH   1  12
TORSDOF 11
ENDMDL
MODEL 5
REMARK VINA RESULT: -5.621163860      2.024      5.208
REMARK  11 active torsions:
REMARK  status: ('A' for Active; 'I' for Inactive)
REMARK    1  A    between atoms: C2_2  and  C3_3 
REMARK    2  A    between atoms: C3_3  and  C4_4 
REMARK    3  A    between atoms: C3_3  and  N1_7 
REMARK    4  A    between atoms: C4_4  and  O1_5 
REMARK    5  A    between atoms: N1_7  and  C5_9 
REMARK    6  A    between atoms: C5_9  and  O2_10 
REMARK    7  A    between atoms: C5_9  and  N2_12 
REMARK    8  A    between atoms: N2_12  and  C6_14 
REMARK    9  A    between atoms: C6_14  and  C7_15 
REMARK   10  A    between atoms: C7_15  and  N3_16 
REMARK   11  A    between atoms: N3_16  and  O3_18 
ROOT
HETATM    1  C5  UNL     1      -3.830  22.038   2.290  1.00  0.00     0.322 C 
ENDROOT
BRANCH   1   2
HETATM    2  N1  UNL     1      -2.736  21.180   2.051  1.00  0.00    -0.374 N 
ATOM      3  H1  UNL     1      -2.530  20.419   2.699  1.00  0.00     0.158 HD
BRANCH   2   4
HETATM    4  C3  UNL     1      -1.927  21.379   0.912  1.00  0.00     0.103 C 
BRANCH   4   5
HETATM    5  C2  UNL     1      -1.965  20.085   0.100  1.00  0.00     0.022 C 
HETATM    6  C1  UNL     1      -0.585  19.459   0.035  1.00  0.00     0.007 C 
ENDBRANCH   4   5
BRANCH   4   7
HETATM    7  C4  UNL     1      -0.525  21.670   1.374  1.00  0.00     0.189 C 
BRANCH   7   8
HETATM    8  O1  UNL     1      -0.178  22.974   0.924  1.00  0.00    -0.399 OA
ATOM      9  H1  UNL     1      -0.600  23.114   0.084  1.00  0.00     0.209 HD
ENDBRANCH   7   8
ENDBRANCH   4   7
ENDBRANCH   2   4
ENDBRANCH   1   2
BRANCH   1  10
HETATM   10  O2  UNL     1      -3.581  23.027   3.224  1.00  0.00    -0.360 OA
ATOM     11  H2  UNL     1      -2.798  23.535   3.052  1.00  0.00     0.214 HD
ENDBRANCH   1  10
BRANCH   1  12
HETATM   12  N2  UNL     1      -5.019  21.352   2.602  1.00  0.00    -0.359 N 
ATOM     13  H2  UNL     1      -5.779  21.818   3.098  1.00  0.00     0.163 HD
BRANCH  12  14
HETATM   14  C6  UNL     1      -5.128  20.010   2.210  1.00  0.00     0.081 C 
BRANCH  14  15
HETATM   15  C7  UNL     1      -5.514  18.973   3.198  1.00  0.00     0.190 C 
BRANCH  15  16
HETATM   16  N3  UNL     1      -4.467  18.700   4.109  1.00  0.00    -0.300 N 
ATOM     17  H3  UNL     1      -4.312  17.728   4.376  1.00  0.00     0.187 HD
BRANCH  16  18
HETATM   18  O3  UNL     1      -3.757  19.523   4.586  1.00  0.00    -0.294 OA
ATOM     19  H3  UNL     1      -3.404  19.486   5.467  1.00  0.00     0.244 HD
ENDBRANCH  16  18
ENDBRANCH  15  16
ENDBRANCH  14  15
ENDBRANCH  12  14
ENDBRANCH   1  12
TORSDOF 11
ENDMDL
