MODEL 1
REMARK VINA RESULT: -4.599390939      0.000      0.000
REMARK  10 active torsions:
REMARK  status: ('A' for Active; 'I' for Inactive)
REMARK    1  A    between atoms: C2_2  and  C3_3 
REMARK    2  A    between atoms: C3_3  and  N1_4 
REMARK    3  A    between atoms: N1_4  and  C4_5 
REMARK    4  A    between atoms: N1_4  and  C6_9 
REMARK    5  A    between atoms: C4_5  and  C5_6 
REMARK    6  A    between atoms: C5_6  and  O1_7 
REMARK    7  A    between atoms: C6_9  and  C7_10 
REMARK    8  A    between atoms: C7_10  and  N2_11 
REMARK    9  A    between atoms: N2_11  and  C8_14 
REMARK   10  A    between atoms: C8_14  and  O2_15 
ROOT
HETATM    1  N1  UNL     1      -6.942  18.834   2.340  1.00  0.00    -0.390 N 
ENDROOT
BRANCH   1   2
HETATM    2  C3  UNL     1      -6.352  18.099   1.283  1.00  0.00     0.121 C 
BRANCH   2   3
HETATM    3  C2  UNL     1      -7.132  17.072   0.570  1.00  0.00     0.015 C 
HETATM    4  C1  UNL     1      -7.311  17.242  -0.915  1.00  0.00     0.006 C 
ENDBRANCH   2   3
ENDBRANCH   1   2
BRANCH   1   5
HETATM    5  C4  UNL     1      -8.189  19.389   2.081  1.00  0.00     0.084 C 
BRANCH   5   6
HETATM    6  C5  UNL     1      -8.067  20.627   1.228  1.00  0.00     0.208 C 
BRANCH   6   7
HETATM    7  O1  UNL     1      -7.448  21.637   1.995  1.00  0.00    -0.396 OA
ATOM      8  H1  UNL     1      -7.294  22.389   1.434  1.00  0.00     0.209 HD
ENDBRANCH   6   7
ENDBRANCH   5   6
ENDBRANCH   1   5
BRANCH   1   9
HETATM    9  C6  UNL     1      -6.420  18.667   3.619  1.00  0.00     0.149 C 
BRANCH   9  10
HETATM   10  C7  UNL     1      -4.961  19.154   3.766  1.00  0.00     0.254 C 
BRANCH  10  11
HETATM   11  N2  UNL     1      -5.144  20.639   3.666  1.00  0.00    -0.053 N 
ATOM     12  H22 UNL     1      -6.089  20.915   3.400  1.00  0.00     0.279 HD
ATOM     13  H21 UNL     1      -5.126  21.113   4.568  1.00  0.00     0.279 HD
BRANCH  11  14
HETATM   14  C8  UNL     1      -4.128  21.102   2.750  1.00  0.00     0.396 C 
BRANCH  14  15
HETATM   15  O2  UNL     1      -4.532  22.411   2.365  1.00  0.00    -0.375 OA
ATOM     16  H2  UNL     1      -3.729  22.913   2.290  1.00  0.00     0.211 HD
ENDBRANCH  14  15
ENDBRANCH  11  14
ENDBRANCH  10  11
ENDBRANCH   9  10
ENDBRANCH   1   9
TORSDOF 10
ENDMDL
MODEL 2
REMARK VINA RESULT: -4.496035042      1.375      1.671
REMARK  10 active torsions:
REMARK  status: ('A' for Active; 'I' for Inactive)
REMARK    1  A    between atoms: C2_2  and  C3_3 
REMARK    2  A    between atoms: C3_3  and  N1_4 
REMARK    3  A    between atoms: N1_4  and  C4_5 
REMARK    4  A    between atoms: N1_4  and  C6_9 
REMARK    5  A    between atoms: C4_5  and  C5_6 
REMARK    6  A    between atoms: C5_6  and  O1_7 
REMARK    7  A    between atoms: C6_9  and  C7_10 
REMARK    8  A    between atoms: C7_10  and  N2_11 
REMARK    9  A    between atoms: N2_11  and  C8_14 
REMARK   10  A    between atoms: C8_14  and  O2_15 
ROOT
HETATM    1  N1  UNL     1      -7.490  18.421   1.418  1.00  0.00    -0.390 N 
ENDROOT
BRANCH   1   2
HETATM    2  C3  UNL     1      -7.726  17.984   0.091  1.00  0.00     0.121 C 
BRANCH   2   3
HETATM    3  C2  UNL     1      -7.428  16.593  -0.294  1.00  0.00     0.015 C 
HETATM    4  C1  UNL     1      -8.288  15.969  -1.360  1.00  0.00     0.006 C 
ENDBRANCH   2   3
ENDBRANCH   1   2
BRANCH   1   5
HETATM    5  C4  UNL     1      -8.396  19.340   1.932  1.00  0.00     0.084 C 
BRANCH   5   6
HETATM    6  C5  UNL     1      -8.225  20.693   1.289  1.00  0.00     0.208 C 
BRANCH   6   7
HETATM    7  O1  UNL     1      -7.380  21.472   2.107  1.00  0.00    -0.396 OA
ATOM      8  H1  UNL     1      -7.741  21.483   2.986  1.00  0.00     0.209 HD
ENDBRANCH   6   7
ENDBRANCH   5   6
ENDBRANCH   1   5
BRANCH   1   9
HETATM    9  C6  UNL     1      -6.613  17.678   2.201  1.00  0.00     0.149 C 
BRANCH   9  10
HETATM   10  C7  UNL     1      -6.408  18.250   3.622  1.00  0.00     0.254 C 
BRANCH  10  11
HETATM   11  N2  UNL     1      -4.923  18.450   3.639  1.00  0.00    -0.053 N 
ATOM     12  H22 UNL     1      -4.428  17.781   4.230  1.00  0.00     0.279 HD
ATOM     13  H21 UNL     1      -4.468  18.198   2.761  1.00  0.00     0.279 HD
BRANCH  11  14
HETATM   14  C8  UNL     1      -4.712  19.826   4.023  1.00  0.00     0.396 C 
BRANCH  14  15
HETATM   15  O2  UNL     1      -6.000  20.327   4.364  1.00  0.00    -0.375 OA
ATOM     16  H2  UNL     1      -5.875  21.252   4.536  1.00  0.00     0.211 HD
ENDBRANCH  14  15
ENDBRANCH  11  14
ENDBRANCH  10  11
ENDBRANCH   9  10
ENDBRANCH   1   9
TORSDOF 10
ENDMDL
MODEL 3
REMARK VINA RESULT: -4.450580760      3.716      6.019
REMARK  10 active torsions:
REMARK  status: ('A' for Active; 'I' for Inactive)
REMARK    1  A    between atoms: C2_2  and  C3_3 
REMARK    2  A    between atoms: C3_3  and  N1_4 
REMARK    3  A    between atoms: N1_4  and  C4_5 
REMARK    4  A    between atoms: N1_4  and  C6_9 
REMARK    5  A    between atoms: C4_5  and  C5_6 
REMARK    6  A    between atoms: C5_6  and  O1_7 
REMARK    7  A    between atoms: C6_9  and  C7_10 
REMARK    8  A    between atoms: C7_10  and  N2_11 
REMARK    9  A    between atoms: N2_11  and  C8_14 
REMARK   10  A    between atoms: C8_14  and  O2_15 
ROOT
HETATM    1  N1  UNL     1      -1.676  22.101   1.494  1.00  0.00    -0.390 N 
ENDROOT
BRANCH   1   2
HETATM    2  C3  UNL     1      -1.715  20.901   0.742  1.00  0.00     0.121 C 
BRANCH   2   3
HETATM    3  C2  UNL     1      -0.491  20.099   0.563  1.00  0.00     0.015 C 
HETATM    4  C1  UNL     1      -0.522  19.010  -0.475  1.00  0.00     0.006 C 
ENDBRANCH   2   3
ENDBRANCH   1   2
BRANCH   1   5
HETATM    5  C4  UNL     1      -0.551  22.898   1.318  1.00  0.00     0.084 C 
BRANCH   5   6
HETATM    6  C5  UNL     1      -0.679  24.195   2.077  1.00  0.00     0.208 C 
BRANCH   6   7
HETATM    7  O1  UNL     1       0.453  24.340   2.906  1.00  0.00    -0.396 OA
ATOM      8  H1  UNL     1       0.852  25.183   2.726  1.00  0.00     0.209 HD
ENDBRANCH   6   7
ENDBRANCH   5   6
ENDBRANCH   1   5
BRANCH   1   9
HETATM    9  C6  UNL     1      -2.861  22.551   2.064  1.00  0.00     0.149 C 
BRANCH   9  10
HETATM   10  C7  UNL     1      -3.918  21.442   2.264  1.00  0.00     0.254 C 
BRANCH  10  11
HETATM   11  N2  UNL     1      -4.092  21.475   3.752  1.00  0.00    -0.053 N 
ATOM     12  H22 UNL     1      -3.250  21.760   4.253  1.00  0.00     0.279 HD
ATOM     13  H21 UNL     1      -4.690  22.235   4.075  1.00  0.00     0.279 HD
BRANCH  11  14
HETATM   14  C8  UNL     1      -4.570  20.164   4.125  1.00  0.00     0.396 C 
BRANCH  14  15
HETATM   15  O2  UNL     1      -5.986  20.285   4.201  1.00  0.00    -0.375 OA
ATOM     16  H2  UNL     1      -6.329  19.486   3.820  1.00  0.00     0.211 HD
ENDBRANCH  14  15
ENDBRANCH  11  14
ENDBRANCH  10  11
ENDBRANCH   9  10
ENDBRANCH   1   9
TORSDOF 10
ENDMDL
MODEL 4
REMARK VINA RESULT: -4.397816689      1.406      1.762
REMARK  10 active torsions:
REMARK  status: ('A' for Active; 'I' for Inactive)
REMARK    1  A    between atoms: C2_2  and  C3_3 
REMARK    2  A    between atoms: C3_3  and  N1_4 
REMARK    3  A    between atoms: N1_4  and  C4_5 
REMARK    4  A    between atoms: N1_4  and  C6_9 
REMARK    5  A    between atoms: C4_5  and  C5_6 
REMARK    6  A    between atoms: C5_6  and  O1_7 
REMARK    7  A    between atoms: C6_9  and  C7_10 
REMARK    8  A    between atoms: C7_10  and  N2_11 
REMARK    9  A    between atoms: N2_11  and  C8_14 
REMARK   10  A    between atoms: C8_14  and  O2_15 
ROOT
HETATM    1  N1  UNL     1      -7.482  18.351   1.409  1.00  0.00    -0.390 N 
ENDROOT
BRANCH   1   2
HETATM    2  C3  UNL     1      -7.789  17.820   0.132  1.00  0.00     0.121 C 
BRANCH   2   3
HETATM    3  C2  UNL     1      -6.821  17.940  -0.972  1.00  0.00     0.015 C 
HETATM    4  C1  UNL     1      -7.076  19.004  -2.006  1.00  0.00     0.006 C 
ENDBRANCH   2   3
ENDBRANCH   1   2
BRANCH   1   5
HETATM    5  C4  UNL     1      -8.362  19.306   1.904  1.00  0.00     0.084 C 
BRANCH   5   6
HETATM    6  C5  UNL     1      -8.149  20.642   1.238  1.00  0.00     0.208 C 
BRANCH   6   7
HETATM    7  O1  UNL     1      -7.414  21.465   2.116  1.00  0.00    -0.396 OA
ATOM      8  H1  UNL     1      -7.745  22.353   2.043  1.00  0.00     0.209 HD
ENDBRANCH   6   7
ENDBRANCH   5   6
ENDBRANCH   1   5
BRANCH   1   9
HETATM    9  C6  UNL     1      -6.560  17.667   2.194  1.00  0.00     0.149 C 
BRANCH   9  10
HETATM   10  C7  UNL     1      -6.392  18.253   3.613  1.00  0.00     0.254 C 
BRANCH  10  11
HETATM   11  N2  UNL     1      -4.910  18.473   3.658  1.00  0.00    -0.053 N 
ATOM     12  H22 UNL     1      -4.421  17.823   4.274  1.00  0.00     0.279 HD
ATOM     13  H21 UNL     1      -4.433  18.209   2.797  1.00  0.00     0.279 HD
BRANCH  11  14
HETATM   14  C8  UNL     1      -4.725  19.860   4.018  1.00  0.00     0.396 C 
BRANCH  14  15
HETATM   15  O2  UNL     1      -6.019  20.338   4.366  1.00  0.00    -0.375 OA
ATOM     16  H2  UNL     1      -6.126  21.152   3.889  1.00  0.00     0.211 HD
ENDBRANCH  14  15
ENDBRANCH  11  14
ENDBRANCH  10  11
ENDBRANCH   9  10
ENDBRANCH   1   9
TORSDOF 10
ENDMDL
MODEL 5
REMARK VINA RESULT: -4.352173407      1.974      4.122
REMARK  10 active torsions:
REMARK  status: ('A' for Active; 'I' for Inactive)
REMARK    1  A    between atoms: C2_2  and  C3_3 
REMARK    2  A    between atoms: C3_3  and  N1_4 
REMARK    3  A    between atoms: N1_4  and  C4_5 
REMARK    4  A    between atoms: N1_4  and  C6_9 
REMARK    5  A    between atoms: C4_5  and  C5_6 
REMARK    6  A    between atoms: C5_6  and  O1_7 
REMARK    7  A    between atoms: C6_9  and  C7_10 
REMARK    8  A    between atoms: C7_10  and  N2_11 
REMARK    9  A    between atoms: N2_11  and  C8_14 
REMARK   10  A    between atoms: C8_14  and  O2_15 
ROOT
HETATM    1  N1  UNL     1      -6.757  18.437   2.006  1.00  0.00    -0.390 N 
ENDROOT
BRANCH   1   2
HETATM    2  C3  UNL     1      -5.550  19.075   2.384  1.00  0.00     0.121 C 
BRANCH   2   3
HETATM    3  C2  UNL     1      -5.065  18.977   3.772  1.00  0.00     0.015 C 
HETATM    4  C1  UNL     1      -4.307  20.153   4.327  1.00  0.00     0.006 C 
ENDBRANCH   2   3
ENDBRANCH   1   2
BRANCH   1   5
HETATM    5  C4  UNL     1      -7.910  19.210   2.081  1.00  0.00     0.084 C 
BRANCH   5   6
HETATM    6  C5  UNL     1      -7.651  20.621   1.618  1.00  0.00     0.208 C 
BRANCH   6   7
HETATM    7  O1  UNL     1      -8.520  20.905   0.543  1.00  0.00    -0.396 OA
ATOM      8  H1  UNL     1      -8.667  21.843   0.516  1.00  0.00     0.209 HD
ENDBRANCH   6   7
ENDBRANCH   5   6
ENDBRANCH   1   5
BRANCH   1   9
HETATM    9  C6  UNL     1      -6.668  17.248   1.289  1.00  0.00     0.149 C 
BRANCH   9  10
HETATM   10  C7  UNL     1      -7.433  17.270  -0.053  1.00  0.00     0.254 C 
BRANCH  10  11
HETATM   11  N2  UNL     1      -6.304  17.432  -1.025  1.00  0.00    -0.053 N 
ATOM     12  H22 UNL     1      -5.385  17.276  -0.610  1.00  0.00     0.279 HD
ATOM     13  H21 UNL     1      -6.254  16.686  -1.719  1.00  0.00     0.279 HD
BRANCH  11  14
HETATM   14  C8  UNL     1      -6.461  18.747  -1.601  1.00  0.00     0.396 C 
BRANCH  14  15
HETATM   15  O2  UNL     1      -7.859  19.011  -1.569  1.00  0.00    -0.375 OA
ATOM     16  H2  UNL     1      -8.252  18.247  -1.164  1.00  0.00     0.211 HD
ENDBRANCH  14  15
ENDBRANCH  11  14
ENDBRANCH  10  11
ENDBRANCH   9  10
ENDBRANCH   1   9
TORSDOF 10
ENDMDL
