MODEL 1
REMARK VINA RESULT: -6.827443013      0.000      0.000
REMARK  4 active torsions:
REMARK  status: ('A' for Active; 'I' for Inactive)
REMARK    1  A    between atoms: O1_2  and  C2_3 
REMARK    2  A    between atoms: C5_6  and  C6_7 
REMARK    3  A    between atoms: C6_7  and  S1_8 
REMARK    4  A    between atoms: C15_17  and  N1_18 
REMARK       I    between atoms: N1_18  and  C16_20 
ROOT
HETATM    1  C2  UNL     1       0.079  16.382  17.314  1.00  0.00     0.095 A 
HETATM    2  C3  UNL     1      -1.053  17.148  17.371  1.00  0.00     0.040 A 
HETATM    3  C4  UNL     1      -1.275  17.920  18.488  1.00  0.00     0.012 A 
HETATM    4  C5  UNL     1      -0.392  17.940  19.542  1.00  0.00    -0.035 A 
HETATM    5  C14 UNL     1       0.751  17.169  19.487  1.00  0.00     0.041 A 
HETATM    6  C15 UNL     1       0.999  16.388  18.386  1.00  0.00     0.069 A 
ENDROOT
BRANCH   4   7
HETATM    7  C6  UNL     1      -0.740  18.814  20.689  1.00  0.00     0.050 A 
HETATM    8  C8  UNL     1      -0.278  18.547  22.054  1.00  0.00    -0.017 A 
HETATM    9  C9  UNL     1       0.655  17.425  22.413  1.00  0.00     0.018 C 
HETATM   10  C10 UNL     1      -0.186  19.722  23.012  1.00  0.00     0.018 C 
HETATM   11  C11 UNL     1      -1.702  18.243  21.645  1.00  0.00    -0.017 A 
HETATM   12  C12 UNL     1      -1.997  16.759  21.667  1.00  0.00     0.018 C 
HETATM   13  C13 UNL     1      -2.831  19.076  22.208  1.00  0.00     0.018 C 
BRANCH   7  14
HETATM   14  S1  UNL     1      -0.814  20.565  20.227  1.00  0.00    -0.157 SA
HETATM   15  C7  UNL     1      -2.407  21.078  19.600  1.00  0.00     0.091 C 
ENDBRANCH   7  14
ENDBRANCH   4   7
BRANCH   6  16
HETATM   16  N1  UNL     1       2.143  15.576  18.262  1.00  0.00    -0.325 N 
HETATM   17  C16 UNL     1       2.284  14.300  18.800  1.00  0.00     0.218 C 
HETATM   18  C17 UNL     1       3.610  13.589  18.550  1.00  0.00     0.117 C 
HETATM   19  O2  UNL     1       1.436  13.704  19.455  1.00  0.00    -0.274 OA
ATOM     20  H1  UNL     1       2.932  15.952  17.735  1.00  0.00     0.169 HD
ENDBRANCH   6  16
BRANCH   1  21
HETATM   21  O1  UNL     1       0.352  15.576  16.199  1.00  0.00    -0.354 OA
HETATM   22  C1  UNL     1      -0.099  15.994  14.928  1.00  0.00     0.210 C 
ENDBRANCH   1  21
TORSDOF 4
ENDMDL
MODEL 2
REMARK VINA RESULT: -6.622485962      2.363      3.274
REMARK  4 active torsions:
REMARK  status: ('A' for Active; 'I' for Inactive)
REMARK    1  A    between atoms: O1_2  and  C2_3 
REMARK    2  A    between atoms: C5_6  and  C6_7 
REMARK    3  A    between atoms: C6_7  and  S1_8 
REMARK    4  A    between atoms: C15_17  and  N1_18 
REMARK       I    between atoms: N1_18  and  C16_20 
ROOT
HETATM    1  C2  UNL     1      -1.094  17.241  19.352  1.00  0.00     0.095 A 
HETATM    2  C3  UNL     1      -1.487  18.457  18.863  1.00  0.00     0.040 A 
HETATM    3  C4  UNL     1      -1.865  19.438  19.750  1.00  0.00     0.012 A 
HETATM    4  C5  UNL     1      -1.857  19.228  21.109  1.00  0.00    -0.035 A 
HETATM    5  C14 UNL     1      -1.460  18.002  21.605  1.00  0.00     0.041 A 
HETATM    6  C15 UNL     1      -1.078  17.005  20.744  1.00  0.00     0.069 A 
ENDROOT
BRANCH   4   7
HETATM    7  C6  UNL     1      -2.283  20.363  21.963  1.00  0.00     0.050 A 
HETATM    8  C8  UNL     1      -1.552  21.633  22.011  1.00  0.00    -0.017 A 
HETATM    9  C9  UNL     1      -0.362  21.942  21.148  1.00  0.00     0.018 C 
HETATM   10  C10 UNL     1      -2.320  22.875  22.427  1.00  0.00     0.018 C 
HETATM   11  C11 UNL     1      -1.430  20.625  23.133  1.00  0.00    -0.017 A 
HETATM   12  C12 UNL     1      -0.035  20.047  23.229  1.00  0.00     0.018 C 
HETATM   13  C13 UNL     1      -2.032  20.938  24.483  1.00  0.00     0.018 C 
BRANCH   7  14
HETATM   14  S1  UNL     1      -4.086  20.505  22.075  1.00  0.00    -0.157 SA
HETATM   15  C7  UNL     1      -4.844  21.214  20.619  1.00  0.00     0.091 C 
ENDBRANCH   7  14
ENDBRANCH   4   7
BRANCH   6  16
HETATM   16  N1  UNL     1      -0.662  15.731  21.180  1.00  0.00    -0.325 N 
HETATM   17  C16 UNL     1       0.614  15.417  21.638  1.00  0.00     0.218 C 
HETATM   18  C17 UNL     1       0.857  13.972  22.061  1.00  0.00     0.117 C 
HETATM   19  O2  UNL     1       1.553  16.199  21.729  1.00  0.00    -0.274 OA
ATOM     20  H1  UNL     1      -1.351  14.979  21.157  1.00  0.00     0.169 HD
ENDBRANCH   6  16
BRANCH   1  21
HETATM   21  O1  UNL     1      -0.699  16.207  18.490  1.00  0.00    -0.354 OA
HETATM   22  C1  UNL     1      -1.204  16.189  17.172  1.00  0.00     0.210 C 
ENDBRANCH   1  21
TORSDOF 4
ENDMDL
MODEL 3
REMARK VINA RESULT: -6.558636970      3.232      5.413
REMARK  4 active torsions:
REMARK  status: ('A' for Active; 'I' for Inactive)
REMARK    1  A    between atoms: O1_2  and  C2_3 
REMARK    2  A    between atoms: C5_6  and  C6_7 
REMARK    3  A    between atoms: C6_7  and  S1_8 
REMARK    4  A    between atoms: C15_17  and  N1_18 
REMARK       I    between atoms: N1_18  and  C16_20 
ROOT
HETATM    1  C2  UNL     1       2.650  13.333  18.612  1.00  0.00     0.095 A 
HETATM    2  C3  UNL     1       2.948  14.027  17.472  1.00  0.00     0.040 A 
HETATM    3  C4  UNL     1       2.020  14.912  16.974  1.00  0.00     0.012 A 
HETATM    4  C5  UNL     1       0.807  15.115  17.591  1.00  0.00    -0.035 A 
HETATM    5  C14 UNL     1       0.505  14.416  18.742  1.00  0.00     0.041 A 
HETATM    6  C15 UNL     1       1.411  13.527  19.262  1.00  0.00     0.069 A 
ENDROOT
BRANCH   4   7
HETATM    7  C6  UNL     1      -0.108  16.096  16.960  1.00  0.00     0.050 A 
HETATM    8  C8  UNL     1      -1.430  15.726  16.445  1.00  0.00    -0.017 A 
HETATM    9  C9  UNL     1      -2.021  14.351  16.581  1.00  0.00     0.018 C 
HETATM   10  C10 UNL     1      -2.483  16.816  16.352  1.00  0.00     0.018 C 
HETATM   11  C11 UNL     1      -0.269  15.959  15.503  1.00  0.00    -0.017 A 
HETATM   12  C12 UNL     1       0.145  14.693  14.786  1.00  0.00     0.018 C 
HETATM   13  C13 UNL     1      -0.276  17.172  14.601  1.00  0.00     0.018 C 
BRANCH   7  14
HETATM   14  S1  UNL     1      -0.012  17.731  17.736  1.00  0.00    -0.157 SA
HETATM   15  C7  UNL     1       1.213  17.841  19.033  1.00  0.00     0.091 C 
ENDBRANCH   7  14
ENDBRANCH   4   7
BRANCH   6  16
HETATM   16  N1  UNL     1       1.170  12.779  20.432  1.00  0.00    -0.325 N 
HETATM   17  C16 UNL     1       0.987  13.315  21.703  1.00  0.00     0.218 C 
HETATM   18  C17 UNL     1       0.740  12.327  22.838  1.00  0.00     0.117 C 
HETATM   19  O2  UNL     1       1.009  14.507  21.985  1.00  0.00    -0.274 OA
ATOM     20  H1  UNL     1       1.125  11.764  20.340  1.00  0.00     0.169 HD
ENDBRANCH   6  16
BRANCH   1  21
HETATM   21  O1  UNL     1       3.561  12.418  19.161  1.00  0.00    -0.354 OA
HETATM   22  C1  UNL     1       3.728  11.163  18.535  1.00  0.00     0.210 C 
ENDBRANCH   1  21
TORSDOF 4
ENDMDL
MODEL 4
REMARK VINA RESULT: -6.555973585      3.585      6.214
REMARK  4 active torsions:
REMARK  status: ('A' for Active; 'I' for Inactive)
REMARK    1  A    between atoms: O1_2  and  C2_3 
REMARK    2  A    between atoms: C5_6  and  C6_7 
REMARK    3  A    between atoms: C6_7  and  S1_8 
REMARK    4  A    between atoms: C15_17  and  N1_18 
REMARK       I    between atoms: N1_18  and  C16_20 
ROOT
HETATM    1  C2  UNL     1      -2.794  19.234  21.505  1.00  0.00     0.095 A 
HETATM    2  C3  UNL     1      -2.572  18.039  22.132  1.00  0.00     0.040 A 
HETATM    3  C4  UNL     1      -1.785  17.098  21.507  1.00  0.00     0.012 A 
HETATM    4  C5  UNL     1      -1.221  17.330  20.274  1.00  0.00    -0.035 A 
HETATM    5  C14 UNL     1      -1.443  18.535  19.640  1.00  0.00     0.041 A 
HETATM    6  C15 UNL     1      -2.223  19.492  20.239  1.00  0.00     0.069 A 
ENDROOT
BRANCH   4   7
HETATM    7  C6  UNL     1      -0.392  16.241  19.704  1.00  0.00     0.050 A 
HETATM    8  C8  UNL     1       0.579  15.485  20.504  1.00  0.00    -0.017 A 
HETATM    9  C9  UNL     1       0.768  15.677  21.983  1.00  0.00     0.018 C 
HETATM   10  C10 UNL     1       0.945  14.088  20.037  1.00  0.00     0.018 C 
HETATM   11  C11 UNL     1       1.036  16.558  19.539  1.00  0.00    -0.017 A 
HETATM   12  C12 UNL     1       1.664  17.735  20.253  1.00  0.00     0.018 C 
HETATM   13  C13 UNL     1       1.784  16.161  18.287  1.00  0.00     0.018 C 
BRANCH   7  14
HETATM   14  S1  UNL     1      -1.281  15.274  18.456  1.00  0.00    -0.157 SA
HETATM   15  C7  UNL     1      -1.585  16.166  16.937  1.00  0.00     0.091 C 
ENDBRANCH   7  14
ENDBRANCH   4   7
BRANCH   6  16
HETATM   16  N1  UNL     1      -2.493  20.743  19.650  1.00  0.00    -0.325 N 
HETATM   17  C16 UNL     1      -1.815  21.926  19.933  1.00  0.00     0.218 C 
HETATM   18  C17 UNL     1      -2.268  23.175  19.183  1.00  0.00     0.117 C 
HETATM   19  O2  UNL     1      -0.891  22.046  20.728  1.00  0.00    -0.274 OA
ATOM     20  H1  UNL     1      -3.245  20.786  18.962  1.00  0.00     0.169 HD
ENDBRANCH   6  16
BRANCH   1  21
HETATM   21  O1  UNL     1      -3.588  20.226  22.098  1.00  0.00    -0.354 OA
HETATM   22  C1  UNL     1      -3.158  20.810  23.310  1.00  0.00     0.210 C 
ENDBRANCH   1  21
TORSDOF 4
ENDMDL
MODEL 5
REMARK VINA RESULT: -6.549560813      1.532      1.710
REMARK  4 active torsions:
REMARK  status: ('A' for Active; 'I' for Inactive)
REMARK    1  A    between atoms: O1_2  and  C2_3 
REMARK    2  A    between atoms: C5_6  and  C6_7 
REMARK    3  A    between atoms: C6_7  and  S1_8 
REMARK    4  A    between atoms: C15_17  and  N1_18 
REMARK       I    between atoms: N1_18  and  C16_20 
ROOT
HETATM    1  C2  UNL     1       0.270  16.875  18.480  1.00  0.00     0.095 A 
HETATM    2  C3  UNL     1      -0.851  17.575  18.126  1.00  0.00     0.040 A 
HETATM    3  C4  UNL     1      -1.325  18.544  18.980  1.00  0.00     0.012 A 
HETATM    4  C5  UNL     1      -0.702  18.825  20.173  1.00  0.00    -0.035 A 
HETATM    5  C14 UNL     1       0.429  18.121  20.532  1.00  0.00     0.041 A 
HETATM    6  C15 UNL     1       0.924  17.148  19.701  1.00  0.00     0.069 A 
ENDROOT
BRANCH   4   7
HETATM    7  C6  UNL     1      -1.306  19.893  21.006  1.00  0.00     0.050 A 
HETATM    8  C8  UNL     1      -1.101  19.974  22.456  1.00  0.00    -0.017 A 
HETATM    9  C9  UNL     1      -0.200  19.048  23.223  1.00  0.00     0.018 C 
HETATM   10  C10 UNL     1      -1.252  21.334  23.116  1.00  0.00     0.018 C 
HETATM   11  C11 UNL     1      -2.404  19.459  21.885  1.00  0.00    -0.017 A 
HETATM   12  C12 UNL     1      -2.624  17.995  22.199  1.00  0.00     0.018 C 
HETATM   13  C13 UNL     1      -3.660  20.288  22.032  1.00  0.00     0.018 C 
BRANCH   7  14
HETATM   14  S1  UNL     1      -1.376  21.486  20.146  1.00  0.00    -0.157 SA
HETATM   15  C7  UNL     1      -2.913  21.769  19.279  1.00  0.00     0.091 C 
ENDBRANCH   7  14
ENDBRANCH   4   7
BRANCH   6  16
HETATM   16  N1  UNL     1       2.073  16.390  20.003  1.00  0.00    -0.325 N 
HETATM   17  C16 UNL     1       2.101  15.271  20.831  1.00  0.00     0.218 C 
HETATM   18  C17 UNL     1       3.454  14.595  21.028  1.00  0.00     0.117 C 
HETATM   19  O2  UNL     1       1.136  14.787  21.410  1.00  0.00    -0.274 OA
ATOM     20  H1  UNL     1       2.954  16.685  19.583  1.00  0.00     0.169 HD
ENDBRANCH   6  16
BRANCH   1  21
HETATM   21  O1  UNL     1       0.793  15.876  17.646  1.00  0.00    -0.354 OA
HETATM   22  C1  UNL     1       0.096  14.654  17.525  1.00  0.00     0.210 C 
ENDBRANCH   1  21
TORSDOF 4
ENDMDL
