MODEL 1
REMARK VINA RESULT: -6.605719929      0.000      0.000
REMARK  8 active torsions:
REMARK  status: ('A' for Active; 'I' for Inactive)
REMARK    1  A    between atoms: C2_2  and  C3_3 
REMARK    2  A    between atoms: C3_3  and  C4_4 
REMARK    3  A    between atoms: C4_4  and  C5_5 
REMARK    4  A    between atoms: C5_5  and  C6_6 
REMARK    5  A    between atoms: C16_17  and  O2_18 
REMARK    6  A    between atoms: C19_21  and  O3_22 
REMARK    7  A    between atoms: C21_25  and  C23_27 
REMARK    8  A    between atoms: C27_33  and  O6_35 
ROOT
HETATM    1  C6  UNL     1      19.447  19.340   9.161  1.00  0.00     0.084 C 
HETATM    2  C7  UNL     1      20.474  19.799  10.209  1.00  0.00     0.049 C 
HETATM    3  O1  UNL     1      19.815  19.837   7.971  1.00  0.00    -0.367 OA
HETATM    4  C8  UNL     1      19.132  20.861   7.417  1.00  0.00     0.062 C 
HETATM    5  C9  UNL     1      19.535  20.811   5.921  1.00  0.00     0.046 C 
HETATM    6  C10 UNL     1      19.504  22.227   7.879  1.00  0.00     0.038 C 
HETATM    7  C11 UNL     1      18.501  23.010   8.609  1.00  0.00     0.011 C 
HETATM    8  C12 UNL     1      17.093  22.926   8.178  1.00  0.00     0.025 C 
HETATM    9  C13 UNL     1      17.052  21.943   7.012  1.00  0.00     0.007 C 
HETATM   10  C14 UNL     1      17.610  20.636   7.363  1.00  0.00     0.027 C 
HETATM   11  C15 UNL     1      17.082  19.984   8.590  1.00  0.00     0.043 C 
HETATM   12  C16 UNL     1      18.079  19.622   9.641  1.00  0.00     0.155 C 
HETATM   13  C18 UNL     1      15.720  22.106   6.475  1.00  0.00     0.030 C 
HETATM   14  C19 UNL     1      14.535  21.590   7.171  1.00  0.00     0.124 C 
HETATM   15  C20 UNL     1      13.376  21.817   6.178  1.00  0.00     0.052 C 
HETATM   16  C21 UNL     1      13.120  23.306   6.070  1.00  0.00     0.048 C 
HETATM   17  C22 UNL     1      11.970  23.577   7.029  1.00  0.00     0.027 C 
HETATM   18  C24 UNL     1      14.265  24.173   6.437  1.00  0.00     0.033 C 
HETATM   19  C25 UNL     1      15.629  23.640   6.369  1.00  0.00    -0.005 C 
HETATM   20  C26 UNL     1      16.229  23.982   5.001  1.00  0.00     0.019 C 
HETATM   21  C27 UNL     1      16.581  24.158   7.432  1.00  0.00     0.066 C 
HETATM   22  C28 UNL     1      16.002  25.178   8.343  1.00  0.00     0.047 C 
ENDROOT
BRANCH   1  23
HETATM   23  C5  UNL     1      19.636  17.809   9.081  1.00  0.00     0.041 C 
BRANCH  23  24
HETATM   24  C4  UNL     1      20.126  17.447   7.716  1.00  0.00     0.007 C 
BRANCH  24  25
HETATM   25  C3  UNL     1      19.098  16.655   6.976  1.00  0.00     0.026 C 
BRANCH  25  26
HETATM   26  C2  UNL     1      18.940  16.989   5.558  1.00  0.00    -0.037 C 
HETATM   27  C1  UNL     1      18.011  17.687   4.970  1.00  0.00     0.007 C 
ENDBRANCH  25  26
ENDBRANCH  24  25
ENDBRANCH  23  24
ENDBRANCH   1  23
BRANCH  12  28
HETATM   28  O2  UNL     1      17.629  18.516  10.363  1.00  0.00    -0.388 OA
HETATM   29  C17 UNL     1      16.278  18.583  10.668  1.00  0.00     0.202 C 
ENDBRANCH  12  28
BRANCH  21  30
HETATM   30  O6  UNL     1      17.741  24.736   6.866  1.00  0.00    -0.389 OA
ATOM     31  H6  UNL     1      17.613  25.672   6.968  1.00  0.00     0.210 HD
ENDBRANCH  21  30
BRANCH  14  32
HETATM   32  O3  UNL     1      14.125  22.316   8.295  1.00  0.00    -0.395 OA
ATOM     33  H3  UNL     1      13.497  21.882   8.861  1.00  0.00     0.210 HD
ENDBRANCH  14  32
BRANCH  16  34
HETATM   34  C23 UNL     1      12.585  23.530   4.719  1.00  0.00     0.181 C 
HETATM   35  O4  UNL     1      11.364  23.788   4.579  1.00  0.00    -0.647 OA
HETATM   36  O5  UNL     1      13.328  23.481   3.558  1.00  0.00    -0.647 OA
ENDBRANCH  16  34
TORSDOF 8
ENDMDL
MODEL 2
REMARK VINA RESULT: -6.559385591      5.453     11.593
REMARK  8 active torsions:
REMARK  status: ('A' for Active; 'I' for Inactive)
REMARK    1  A    between atoms: C2_2  and  C3_3 
REMARK    2  A    between atoms: C3_3  and  C4_4 
REMARK    3  A    between atoms: C4_4  and  C5_5 
REMARK    4  A    between atoms: C5_5  and  C6_6 
REMARK    5  A    between atoms: C16_17  and  O2_18 
REMARK    6  A    between atoms: C19_21  and  O3_22 
REMARK    7  A    between atoms: C21_25  and  C23_27 
REMARK    8  A    between atoms: C27_33  and  O6_35 
ROOT
HETATM    1  C6  UNL     1       6.131  27.260   2.966  1.00  0.00     0.084 C 
HETATM    2  C7  UNL     1       5.675  27.168   1.502  1.00  0.00     0.049 C 
HETATM    3  O1  UNL     1       7.064  28.219   3.053  1.00  0.00    -0.367 OA
HETATM    4  C8  UNL     1       8.364  27.896   3.223  1.00  0.00     0.062 C 
HETATM    5  C9  UNL     1       9.009  29.206   3.744  1.00  0.00     0.046 C 
HETATM    6  C10 UNL     1       9.122  27.548   1.990  1.00  0.00     0.038 C 
HETATM    7  C11 UNL     1       9.632  26.180   1.852  1.00  0.00     0.011 C 
HETATM    8  C12 UNL     1      10.165  25.503   3.049  1.00  0.00     0.025 C 
HETATM    9  C13 UNL     1      10.001  26.479   4.211  1.00  0.00     0.007 C 
HETATM   10  C14 UNL     1       8.614  26.914   4.382  1.00  0.00     0.027 C 
HETATM   11  C15 UNL     1       7.579  25.851   4.468  1.00  0.00     0.043 C 
HETATM   12  C16 UNL     1       6.466  25.914   3.473  1.00  0.00     0.155 C 
HETATM   13  C18 UNL     1      10.768  25.875   5.276  1.00  0.00     0.030 C 
HETATM   14  C19 UNL     1      10.298  24.683   5.991  1.00  0.00     0.124 C 
HETATM   15  C20 UNL     1      11.314  24.497   7.138  1.00  0.00     0.052 C 
HETATM   16  C21 UNL     1      12.639  24.068   6.542  1.00  0.00     0.048 C 
HETATM   17  C22 UNL     1      12.654  22.552   6.667  1.00  0.00     0.027 C 
HETATM   18  C24 UNL     1      12.840  24.435   5.120  1.00  0.00     0.033 C 
HETATM   19  C25 UNL     1      12.086  25.552   4.545  1.00  0.00    -0.005 C 
HETATM   20  C26 UNL     1      12.926  26.829   4.654  1.00  0.00     0.019 C 
HETATM   21  C27 UNL     1      11.689  25.385   3.089  1.00  0.00     0.066 C 
HETATM   22  C28 UNL     1      12.182  24.140   2.448  1.00  0.00     0.047 C 
ENDROOT
BRANCH   1  23
HETATM   23  C5  UNL     1       4.889  27.777   3.725  1.00  0.00     0.041 C 
BRANCH  23  24
HETATM   24  C4  UNL     1       5.327  28.746   4.777  1.00  0.00     0.007 C 
BRANCH  24  25
HETATM   25  C3  UNL     1       5.157  28.161   6.141  1.00  0.00     0.026 C 
BRANCH  25  26
HETATM   26  C2  UNL     1       6.311  28.294   7.035  1.00  0.00    -0.037 C 
HETATM   27  C1  UNL     1       7.246  29.198   7.050  1.00  0.00     0.007 C 
ENDBRANCH  25  26
ENDBRANCH  24  25
ENDBRANCH  23  24
ENDBRANCH   1  23
BRANCH  12  28
HETATM   28  O2  UNL     1       5.312  25.346   4.013  1.00  0.00    -0.388 OA
HETATM   29  C17 UNL     1       5.038  24.087   3.501  1.00  0.00     0.202 C 
ENDBRANCH  12  28
BRANCH  21  30
HETATM   30  O6  UNL     1      12.147  26.458   2.289  1.00  0.00    -0.389 OA
ATOM     31  H6  UNL     1      13.093  26.381   2.309  1.00  0.00     0.210 HD
ENDBRANCH  21  30
BRANCH  14  32
HETATM   32  O3  UNL     1      10.397  23.475   5.291  1.00  0.00    -0.395 OA
ATOM     33  H3  UNL     1       9.579  23.016   5.142  1.00  0.00     0.210 HD
ENDBRANCH  14  32
BRANCH  16  34
HETATM   34  C23 UNL     1      13.676  24.564   7.459  1.00  0.00     0.181 C 
HETATM   35  O4  UNL     1      13.610  25.747   7.876  1.00  0.00    -0.647 OA
HETATM   36  O5  UNL     1      14.747  23.823   7.914  1.00  0.00    -0.647 OA
ENDBRANCH  16  34
TORSDOF 8
ENDMDL
MODEL 3
REMARK VINA RESULT: -6.375336509      3.307      9.179
REMARK  8 active torsions:
REMARK  status: ('A' for Active; 'I' for Inactive)
REMARK    1  A    between atoms: C2_2  and  C3_3 
REMARK    2  A    between atoms: C3_3  and  C4_4 
REMARK    3  A    between atoms: C4_4  and  C5_5 
REMARK    4  A    between atoms: C5_5  and  C6_6 
REMARK    5  A    between atoms: C16_17  and  O2_18 
REMARK    6  A    between atoms: C19_21  and  O3_22 
REMARK    7  A    between atoms: C21_25  and  C23_27 
REMARK    8  A    between atoms: C27_33  and  O6_35 
ROOT
HETATM    1  C6  UNL     1      10.360  26.763   6.094  1.00  0.00     0.084 C 
HETATM    2  C7  UNL     1       9.104  26.311   5.333  1.00  0.00     0.049 C 
HETATM    3  O1  UNL     1      11.345  26.946   5.202  1.00  0.00    -0.367 OA
HETATM    4  C8  UNL     1      12.363  26.063   5.116  1.00  0.00     0.062 C 
HETATM    5  C9  UNL     1      13.472  26.845   4.367  1.00  0.00     0.046 C 
HETATM    6  C10 UNL     1      12.111  24.849   4.291  1.00  0.00     0.038 C 
HETATM    7  C11 UNL     1      12.100  23.545   4.962  1.00  0.00     0.011 C 
HETATM    8  C12 UNL     1      13.074  23.299   6.042  1.00  0.00     0.025 C 
HETATM    9  C13 UNL     1      13.879  24.586   6.202  1.00  0.00     0.007 C 
HETATM   10  C14 UNL     1      13.028  25.747   6.468  1.00  0.00     0.027 C 
HETATM   11  C15 UNL     1      12.046  25.625   7.577  1.00  0.00     0.043 C 
HETATM   12  C16 UNL     1      10.611  25.857   7.233  1.00  0.00     0.155 C 
HETATM   13  C18 UNL     1      14.968  24.201   7.070  1.00  0.00     0.030 C 
HETATM   14  C19 UNL     1      14.768  23.949   8.502  1.00  0.00     0.124 C 
HETATM   15  C20 UNL     1      16.193  23.752   9.061  1.00  0.00     0.052 C 
HETATM   16  C21 UNL     1      16.741  22.443   8.531  1.00  0.00     0.048 C 
HETATM   17  C22 UNL     1      16.478  21.430   9.635  1.00  0.00     0.027 C 
HETATM   18  C24 UNL     1      16.118  21.959   7.276  1.00  0.00     0.033 C 
HETATM   19  C25 UNL     1      15.453  22.911   6.382  1.00  0.00    -0.005 C 
HETATM   20  C26 UNL     1      16.455  23.378   5.319  1.00  0.00     0.019 C 
HETATM   21  C27 UNL     1      14.231  22.376   5.658  1.00  0.00     0.066 C 
HETATM   22  C28 UNL     1      13.929  20.945   5.918  1.00  0.00     0.047 C 
ENDROOT
BRANCH   1  23
HETATM   23  C5  UNL     1       9.994  28.159   6.645  1.00  0.00     0.041 C 
BRANCH  23  24
HETATM   24  C4  UNL     1       8.722  28.619   6.008  1.00  0.00     0.007 C 
BRANCH  24  25
HETATM   25  C3  UNL     1       7.921  29.446   6.961  1.00  0.00     0.026 C 
BRANCH  25  26
HETATM   26  C2  UNL     1       8.618  29.862   8.180  1.00  0.00    -0.037 C 
HETATM   27  C1  UNL     1       8.173  29.943   9.401  1.00  0.00     0.007 C 
ENDBRANCH  25  26
ENDBRANCH  24  25
ENDBRANCH  23  24
ENDBRANCH   1  23
BRANCH  12  28
HETATM   28  O2  UNL     1       9.928  26.349   8.346  1.00  0.00    -0.388 OA
HETATM   29  C17 UNL     1       8.824  25.582   8.685  1.00  0.00     0.202 C 
ENDBRANCH  12  28
BRANCH  21  30
HETATM   30  O6  UNL     1      14.343  22.515   4.255  1.00  0.00    -0.389 OA
ATOM     31  H6  UNL     1      15.177  22.113   4.043  1.00  0.00     0.210 HD
ENDBRANCH  21  30
BRANCH  14  32
HETATM   32  O3  UNL     1      14.140  22.740   8.825  1.00  0.00    -0.395 OA
ATOM     33  H3  UNL     1      13.776  22.685   9.701  1.00  0.00     0.210 HD
ENDBRANCH  14  32
BRANCH  16  34
HETATM   34  C23 UNL     1      18.201  22.609   8.469  1.00  0.00     0.181 C 
HETATM   35  O4  UNL     1      18.707  23.708   8.808  1.00  0.00    -0.647 OA
HETATM   36  O5  UNL     1      19.089  21.637   8.060  1.00  0.00    -0.647 OA
ENDBRANCH  16  34
TORSDOF 8
ENDMDL
MODEL 4
REMARK VINA RESULT: -6.210918559      2.150      4.097
REMARK  8 active torsions:
REMARK  status: ('A' for Active; 'I' for Inactive)
REMARK    1  A    between atoms: C2_2  and  C3_3 
REMARK    2  A    between atoms: C3_3  and  C4_4 
REMARK    3  A    between atoms: C4_4  and  C5_5 
REMARK    4  A    between atoms: C5_5  and  C6_6 
REMARK    5  A    between atoms: C16_17  and  O2_18 
REMARK    6  A    between atoms: C19_21  and  O3_22 
REMARK    7  A    between atoms: C21_25  and  C23_27 
REMARK    8  A    between atoms: C27_33  and  O6_35 
ROOT
HETATM    1  C6  UNL     1      17.146  21.374   7.102  1.00  0.00     0.084 C 
HETATM    2  C7  UNL     1      17.255  20.856   8.545  1.00  0.00     0.049 C 
HETATM    3  O1  UNL     1      17.370  22.697   7.117  1.00  0.00    -0.367 OA
HETATM    4  C8  UNL     1      16.352  23.566   6.942  1.00  0.00     0.062 C 
HETATM    5  C9  UNL     1      17.055  24.890   6.549  1.00  0.00     0.046 C 
HETATM    6  C10 UNL     1      15.550  23.890   8.154  1.00  0.00     0.038 C 
HETATM    7  C11 UNL     1      14.140  23.487   8.180  1.00  0.00     0.011 C 
HETATM    8  C12 UNL     1      13.352  23.598   6.938  1.00  0.00     0.025 C 
HETATM    9  C13 UNL     1      14.304  24.117   5.864  1.00  0.00     0.007 C 
HETATM   10  C14 UNL     1      15.484  23.266   5.706  1.00  0.00     0.027 C 
HETATM   11  C15 UNL     1      15.247  21.812   5.509  1.00  0.00     0.043 C 
HETATM   12  C16 UNL     1      15.896  20.887   6.485  1.00  0.00     0.155 C 
HETATM   13  C18 UNL     1      13.428  24.450   4.764  1.00  0.00     0.030 C 
HETATM   14  C19 UNL     1      12.791  23.417   3.939  1.00  0.00     0.124 C 
HETATM   15  C20 UNL     1      12.109  24.202   2.799  1.00  0.00     0.052 C 
HETATM   16  C21 UNL     1      10.945  24.979   3.378  1.00  0.00     0.048 C 
HETATM   17  C22 UNL     1       9.724  24.108   3.121  1.00  0.00     0.027 C 
HETATM   18  C24 UNL     1      11.035  25.263   4.831  1.00  0.00     0.033 C 
HETATM   19  C25 UNL     1      12.345  25.274   5.487  1.00  0.00    -0.005 C 
HETATM   20  C26 UNL     1      12.881  26.710   5.506  1.00  0.00     0.019 C 
HETATM   21  C27 UNL     1      12.358  24.760   6.915  1.00  0.00     0.066 C 
HETATM   22  C28 UNL     1      11.026  24.382   7.455  1.00  0.00     0.047 C 
ENDROOT
BRANCH   1  23
HETATM   23  C5  UNL     1      18.343  20.728   6.369  1.00  0.00     0.041 C 
BRANCH  23  24
HETATM   24  C4  UNL     1      19.201  20.018   7.366  1.00  0.00     0.007 C 
BRANCH  24  25
HETATM   25  C3  UNL     1      19.927  18.880   6.725  1.00  0.00     0.026 C 
BRANCH  25  26
HETATM   26  C2  UNL     1      19.173  17.629   6.613  1.00  0.00    -0.037 C 
HETATM   27  C1  UNL     1      18.693  17.043   5.555  1.00  0.00     0.007 C 
ENDBRANCH  25  26
ENDBRANCH  24  25
ENDBRANCH  23  24
ENDBRANCH   1  23
BRANCH  12  28
HETATM   28  O2  UNL     1      16.155  19.658   5.878  1.00  0.00    -0.388 OA
HETATM   29  C17 UNL     1      16.049  19.705   4.495  1.00  0.00     0.202 C 
ENDBRANCH  12  28
BRANCH  21  30
HETATM   30  O6  UNL     1      12.902  25.707   7.814  1.00  0.00    -0.389 OA
ATOM     31  H6  UNL     1      13.758  25.909   7.457  1.00  0.00     0.210 HD
ENDBRANCH  21  30
BRANCH  14  32
HETATM   32  O3  UNL     1      11.719  22.740   4.532  1.00  0.00    -0.395 OA
ATOM     33  H3  UNL     1      11.228  22.162   3.959  1.00  0.00     0.210 HD
ENDBRANCH  14  32
BRANCH  16  34
HETATM   34  C23 UNL     1      10.784  26.168   2.527  1.00  0.00     0.181 C 
HETATM   35  O4  UNL     1      11.806  26.727   2.058  1.00  0.00    -0.647 OA
HETATM   36  O5  UNL     1       9.575  26.738   2.188  1.00  0.00    -0.647 OA
ENDBRANCH  16  34
TORSDOF 8
ENDMDL
MODEL 5
REMARK VINA RESULT: -6.118093322      2.486      8.430
REMARK  8 active torsions:
REMARK  status: ('A' for Active; 'I' for Inactive)
REMARK    1  A    between atoms: C2_2  and  C3_3 
REMARK    2  A    between atoms: C3_3  and  C4_4 
REMARK    3  A    between atoms: C4_4  and  C5_5 
REMARK    4  A    between atoms: C5_5  and  C6_6 
REMARK    5  A    between atoms: C16_17  and  O2_18 
REMARK    6  A    between atoms: C19_21  and  O3_22 
REMARK    7  A    between atoms: C21_25  and  C23_27 
REMARK    8  A    between atoms: C27_33  and  O6_35 
ROOT
HETATM    1  C6  UNL     1      11.214  24.577   4.611  1.00  0.00     0.084 C 
HETATM    2  C7  UNL     1      10.762  25.997   4.985  1.00  0.00     0.049 C 
HETATM    3  O1  UNL     1      10.986  23.777   5.663  1.00  0.00    -0.367 OA
HETATM    4  C8  UNL     1      12.012  23.332   6.420  1.00  0.00     0.062 C 
HETATM    5  C9  UNL     1      11.417  22.115   7.175  1.00  0.00     0.046 C 
HETATM    6  C10 UNL     1      12.494  24.257   7.483  1.00  0.00     0.038 C 
HETATM    7  C11 UNL     1      13.858  24.786   7.375  1.00  0.00     0.011 C 
HETATM    8  C12 UNL     1      14.923  23.893   6.881  1.00  0.00     0.025 C 
HETATM    9  C13 UNL     1      14.257  22.557   6.561  1.00  0.00     0.007 C 
HETATM   10  C14 UNL     1      13.155  22.698   5.607  1.00  0.00     0.027 C 
HETATM   11  C15 UNL     1      13.441  23.433   4.348  1.00  0.00     0.043 C 
HETATM   12  C16 UNL     1      12.579  24.616   4.049  1.00  0.00     0.155 C 
HETATM   13  C18 UNL     1      15.372  21.665   6.340  1.00  0.00     0.030 C 
HETATM   14  C19 UNL     1      16.196  21.737   5.128  1.00  0.00     0.124 C 
HETATM   15  C20 UNL     1      17.129  20.512   5.225  1.00  0.00     0.052 C 
HETATM   16  C21 UNL     1      18.114  20.745   6.352  1.00  0.00     0.048 C 
HETATM   17  C22 UNL     1      19.365  21.285   5.676  1.00  0.00     0.027 C 
HETATM   18  C24 UNL     1      17.673  21.710   7.387  1.00  0.00     0.033 C 
HETATM   19  C25 UNL     1      16.242  21.968   7.575  1.00  0.00    -0.005 C 
HETATM   20  C26 UNL     1      15.710  21.044   8.676  1.00  0.00     0.019 C 
HETATM   21  C27 UNL     1      15.886  23.393   7.958  1.00  0.00     0.066 C 
HETATM   22  C28 UNL     1      17.049  24.297   8.147  1.00  0.00     0.047 C 
ENDROOT
BRANCH   1  23
HETATM   23  C5  UNL     1      10.235  24.141   3.499  1.00  0.00     0.041 C 
BRANCH  23  24
HETATM   24  C4  UNL     1       9.084  25.094   3.459  1.00  0.00     0.007 C 
BRANCH  24  25
HETATM   25  C3  UNL     1       8.738  25.449   2.050  1.00  0.00     0.026 C 
BRANCH  25  26
HETATM   26  C2  UNL     1       8.965  26.847   1.674  1.00  0.00    -0.037 C 
HETATM   27  C1  UNL     1       8.285  27.608   0.867  1.00  0.00     0.007 C 
ENDBRANCH  25  26
ENDBRANCH  24  25
ENDBRANCH  23  24
ENDBRANCH   1  23
BRANCH  12  28
HETATM   28  O2  UNL     1      12.482  24.799   2.670  1.00  0.00    -0.388 OA
HETATM   29  C17 UNL     1      12.609  26.127   2.290  1.00  0.00     0.202 C 
ENDBRANCH  12  28
BRANCH  21  30
HETATM   30  O6  UNL     1      15.135  23.448   9.155  1.00  0.00    -0.389 OA
ATOM     31  H6  UNL     1      15.773  23.293   9.842  1.00  0.00     0.210 HD
ENDBRANCH  21  30
BRANCH  14  32
HETATM   32  O3  UNL     1      17.096  22.807   5.066  1.00  0.00    -0.395 OA
ATOM     33  H3  UNL     1      16.777  23.589   4.632  1.00  0.00     0.210 HD
ENDBRANCH  14  32
BRANCH  16  34
HETATM   34  C23 UNL     1      18.470  19.412   6.864  1.00  0.00     0.181 C 
HETATM   35  O4  UNL     1      18.582  18.457   6.056  1.00  0.00    -0.647 OA
HETATM   36  O5  UNL     1      18.697  19.111   8.190  1.00  0.00    -0.647 OA
ENDBRANCH  16  34
TORSDOF 8
ENDMDL
