MODEL 1
REMARK VINA RESULT: -7.965455629      0.000      0.000
REMARK  10 active torsions:
REMARK  status: ('A' for Active; 'I' for Inactive)
REMARK    1  A    between atoms: C2_2  and  C3_3 
REMARK    2  A    between atoms: C2_2  and  C9_11 
REMARK    3  A    between atoms: C3_3  and  C4_4 
REMARK    4  A    between atoms: C4_4  and  C5_5 
REMARK    5  A    between atoms: C5_5  and  C6_6 
REMARK    6  A    between atoms: C6_6  and  O1_9 
REMARK    7  A    between atoms: C20_25  and  O3_26 
REMARK    8  A    between atoms: O3_26  and  C21_27 
REMARK    9  A    between atoms: C23_30  and  C24_31 
REMARK   10  A    between atoms: C24_31  and  O5_32 
ROOT
HETATM    1  C9  UNL     1      13.294  24.055   5.015  1.00  0.00     0.022 C 
HETATM    2  C10 UNL     1      12.660  25.110   5.967  1.00  0.00     0.010 C 
HETATM    3  C11 UNL     1      13.929  25.365   6.757  1.00  0.00     0.011 C 
HETATM    4  C12 UNL     1      14.464  23.946   7.110  1.00  0.00    -0.032 C 
HETATM    5  C13 UNL     1      13.735  23.726   8.424  1.00  0.00     0.016 C 
HETATM    6  C14 UNL     1      15.915  24.019   7.250  1.00  0.00     0.002 C 
HETATM    7  C15 UNL     1      16.454  23.646   8.643  1.00  0.00     0.039 C 
HETATM    8  C16 UNL     1      16.851  22.247   8.443  1.00  0.00     0.144 C 
HETATM    9  O2  UNL     1      17.677  21.651   9.347  1.00  0.00    -0.355 OA
HETATM   10  C17 UNL     1      17.564  20.266   9.088  1.00  0.00     0.128 C 
HETATM   11  C18 UNL     1      16.279  19.734   9.711  1.00  0.00     0.070 C 
HETATM   12  C19 UNL     1      18.706  19.540   9.764  1.00  0.00     0.070 C 
HETATM   13  N1  UNL     1      17.526  19.966   7.703  1.00  0.00    -0.342 N 
ATOM     14  H1  UNL     1      17.499  18.977   7.454  1.00  0.00     0.164 HD
HETATM   15  C20 UNL     1      17.522  20.817   6.709  1.00  0.00     0.139 C 
HETATM   16  C23 UNL     1      17.563  22.214   7.093  1.00  0.00     0.076 C 
HETATM   17  C25 UNL     1      16.813  23.238   6.347  1.00  0.00     0.012 C 
HETATM   18  C26 UNL     1      16.089  22.815   5.103  1.00  0.00     0.007 C 
HETATM   19  C27 UNL     1      14.840  22.124   5.436  1.00  0.00     0.011 C 
HETATM   20  C28 UNL     1      13.836  23.118   6.023  1.00  0.00    -0.029 C 
HETATM   21  C29 UNL     1      12.702  22.251   6.515  1.00  0.00     0.016 C 
ENDROOT
BRANCH   1  22
HETATM   22  C2  UNL     1      12.434  23.721   3.938  1.00  0.00    -0.084 C 
HETATM   23  C1  UNL     1      12.742  23.421   2.710  1.00  0.00     0.014 C 
BRANCH  22  24
HETATM   24  C3  UNL     1      10.939  23.669   4.251  1.00  0.00     0.034 C 
BRANCH  24  25
HETATM   25  C4  UNL     1      10.115  24.135   3.081  1.00  0.00     0.007 C 
BRANCH  25  26
HETATM   26  C5  UNL     1       9.162  25.232   3.358  1.00  0.00     0.037 C 
BRANCH  26  27
HETATM   27  C6  UNL     1       9.663  26.618   3.397  1.00  0.00     0.051 C 
HETATM   28  C7  UNL     1       8.763  27.565   2.579  1.00  0.00     0.045 C 
HETATM   29  C8  UNL     1       9.846  27.204   4.749  1.00  0.00     0.045 C 
BRANCH  27  30
HETATM   30  O1  UNL     1      10.906  26.697   2.722  1.00  0.00    -0.391 OA
ATOM     31  H1  UNL     1      11.571  26.234   3.218  1.00  0.00     0.210 HD
ENDBRANCH  27  30
ENDBRANCH  26  27
ENDBRANCH  25  26
ENDBRANCH  24  25
ENDBRANCH  22  24
ENDBRANCH   1  22
BRANCH  16  32
HETATM   32  C24 UNL     1      19.049  22.551   7.229  1.00  0.00     0.185 C 
BRANCH  32  33
HETATM   33  O5  UNL     1      19.898  21.545   6.887  1.00  0.00    -0.400 OA
ATOM     34  H5  UNL     1      20.109  21.497   5.962  1.00  0.00     0.209 HD
ENDBRANCH  32  33
ENDBRANCH  16  32
BRANCH  15  35
HETATM   35  O3  UNL     1      17.481  20.237   5.476  1.00  0.00    -0.265 OA
BRANCH  35  36
HETATM   36  C21 UNL     1      18.389  19.338   4.983  1.00  0.00     0.261 C 
HETATM   37  C22 UNL     1      18.116  17.890   4.800  1.00  0.00     0.126 C 
HETATM   38  O4  UNL     1      19.531  19.755   4.662  1.00  0.00    -0.265 OA
ENDBRANCH  35  36
ENDBRANCH  15  35
TORSDOF 10
ENDMDL
MODEL 2
REMARK VINA RESULT: -7.896653248      3.326     10.034
REMARK  10 active torsions:
REMARK  status: ('A' for Active; 'I' for Inactive)
REMARK    1  A    between atoms: C2_2  and  C3_3 
REMARK    2  A    between atoms: C2_2  and  C9_11 
REMARK    3  A    between atoms: C3_3  and  C4_4 
REMARK    4  A    between atoms: C4_4  and  C5_5 
REMARK    5  A    between atoms: C5_5  and  C6_6 
REMARK    6  A    between atoms: C6_6  and  O1_9 
REMARK    7  A    between atoms: C20_25  and  O3_26 
REMARK    8  A    between atoms: O3_26  and  C21_27 
REMARK    9  A    between atoms: C23_30  and  C24_31 
REMARK   10  A    between atoms: C24_31  and  O5_32 
ROOT
HETATM    1  C9  UNL     1      12.593  24.800   5.594  1.00  0.00     0.022 C 
HETATM    2  C10 UNL     1      13.097  23.611   4.725  1.00  0.00     0.010 C 
HETATM    3  C11 UNL     1      12.574  24.167   3.414  1.00  0.00     0.011 C 
HETATM    4  C12 UNL     1      11.105  24.581   3.721  1.00  0.00    -0.032 C 
HETATM    5  C13 UNL     1      10.406  23.271   3.402  1.00  0.00     0.016 C 
HETATM    6  C14 UNL     1      10.735  25.674   2.829  1.00  0.00     0.002 C 
HETATM    7  C15 UNL     1       9.560  25.372   1.881  1.00  0.00     0.039 C 
HETATM    8  C16 UNL     1       8.435  25.985   2.598  1.00  0.00     0.144 C 
HETATM    9  O2  UNL     1       7.269  26.221   1.935  1.00  0.00    -0.355 OA
HETATM   10  C17 UNL     1       6.312  26.449   2.949  1.00  0.00     0.128 C 
HETATM   11  C18 UNL     1       5.863  25.116   3.536  1.00  0.00     0.070 C 
HETATM   12  C19 UNL     1       5.084  27.089   2.338  1.00  0.00     0.070 C 
HETATM   13  N1  UNL     1       6.814  27.240   4.014  1.00  0.00    -0.342 N 
ATOM     14  H1  UNL     1       6.151  27.483   4.750  1.00  0.00     0.164 HD
HETATM   15  C20 UNL     1       8.034  27.692   4.155  1.00  0.00     0.139 C 
HETATM   16  C23 UNL     1       8.952  27.333   3.094  1.00  0.00     0.076 C 
HETATM   17  C25 UNL     1      10.362  27.016   3.373  1.00  0.00     0.012 C 
HETATM   18  C26 UNL     1      10.858  27.182   4.779  1.00  0.00     0.007 C 
HETATM   19  C27 UNL     1      10.425  26.063   5.621  1.00  0.00     0.011 C 
HETATM   20  C28 UNL     1      11.165  24.788   5.210  1.00  0.00    -0.029 C 
HETATM   21  C29 UNL     1      10.477  23.694   5.991  1.00  0.00     0.016 C 
ENDROOT
BRANCH   1  22
HETATM   22  C2  UNL     1      13.105  24.750   6.916  1.00  0.00    -0.084 C 
HETATM   23  C1  UNL     1      13.400  25.733   7.715  1.00  0.00     0.014 C 
BRANCH  22  24
HETATM   24  C3  UNL     1      13.316  23.358   7.513  1.00  0.00     0.034 C 
BRANCH  24  25
HETATM   25  C4  UNL     1      14.611  23.277   8.276  1.00  0.00     0.007 C 
BRANCH  25  26
HETATM   26  C5  UNL     1      15.746  22.661   7.556  1.00  0.00     0.037 C 
BRANCH  26  27
HETATM   27  C6  UNL     1      16.852  23.523   7.099  1.00  0.00     0.051 C 
HETATM   28  C7  UNL     1      16.603  24.049   5.671  1.00  0.00     0.045 C 
HETATM   29  C8  UNL     1      17.174  24.682   7.970  1.00  0.00     0.045 C 
BRANCH  27  30
HETATM   30  O1  UNL     1      18.032  22.753   6.954  1.00  0.00    -0.391 OA
ATOM     31  H1  UNL     1      18.744  23.164   7.432  1.00  0.00     0.210 HD
ENDBRANCH  27  30
ENDBRANCH  26  27
ENDBRANCH  25  26
ENDBRANCH  24  25
ENDBRANCH  22  24
ENDBRANCH   1  22
BRANCH  16  32
HETATM   32  C24 UNL     1       8.790  28.425   2.034  1.00  0.00     0.185 C 
BRANCH  32  33
HETATM   33  O5  UNL     1       8.596  29.677   2.528  1.00  0.00    -0.400 OA
ATOM     34  H5  UNL     1       9.389  30.136   2.777  1.00  0.00     0.209 HD
ENDBRANCH  32  33
ENDBRANCH  16  32
BRANCH  15  35
HETATM   35  O3  UNL     1       8.228  28.429   5.286  1.00  0.00    -0.265 OA
BRANCH  35  36
HETATM   36  C21 UNL     1       7.348  28.548   6.327  1.00  0.00     0.261 C 
HETATM   37  C22 UNL     1       7.561  27.958   7.673  1.00  0.00     0.126 C 
HETATM   38  O4  UNL     1       6.285  29.196   6.143  1.00  0.00    -0.265 OA
ENDBRANCH  35  36
ENDBRANCH  15  35
TORSDOF 10
ENDMDL
MODEL 3
REMARK VINA RESULT: -7.821315485      1.446      2.192
REMARK  10 active torsions:
REMARK  status: ('A' for Active; 'I' for Inactive)
REMARK    1  A    between atoms: C2_2  and  C3_3 
REMARK    2  A    between atoms: C2_2  and  C9_11 
REMARK    3  A    between atoms: C3_3  and  C4_4 
REMARK    4  A    between atoms: C4_4  and  C5_5 
REMARK    5  A    between atoms: C5_5  and  C6_6 
REMARK    6  A    between atoms: C6_6  and  O1_9 
REMARK    7  A    between atoms: C20_25  and  O3_26 
REMARK    8  A    between atoms: O3_26  and  C21_27 
REMARK    9  A    between atoms: C23_30  and  C24_31 
REMARK   10  A    between atoms: C24_31  and  O5_32 
ROOT
HETATM    1  C9  UNL     1      14.328  23.681   6.560  1.00  0.00     0.022 C 
HETATM    2  C10 UNL     1      14.546  24.836   7.580  1.00  0.00     0.010 C 
HETATM    3  C11 UNL     1      16.061  24.754   7.561  1.00  0.00     0.011 C 
HETATM    4  C12 UNL     1      16.375  23.240   7.738  1.00  0.00    -0.032 C 
HETATM    5  C13 UNL     1      16.428  23.173   9.254  1.00  0.00     0.016 C 
HETATM    6  C14 UNL     1      17.653  22.954   7.094  1.00  0.00     0.002 C 
HETATM    7  C15 UNL     1      18.752  22.427   8.035  1.00  0.00     0.039 C 
HETATM    8  C16 UNL     1      18.664  20.978   7.812  1.00  0.00     0.144 C 
HETATM    9  O2  UNL     1      19.689  20.177   8.214  1.00  0.00    -0.355 OA
HETATM   10  C17 UNL     1      19.156  18.869   8.206  1.00  0.00     0.128 C 
HETATM   11  C18 UNL     1      18.319  18.652   9.461  1.00  0.00     0.070 C 
HETATM   12  C19 UNL     1      20.291  17.870   8.264  1.00  0.00     0.070 C 
HETATM   13  N1  UNL     1      18.324  18.620   7.086  1.00  0.00    -0.342 N 
ATOM     14  H1  UNL     1      17.953  17.674   6.997  1.00  0.00     0.164 HD
HETATM   15  C20 UNL     1      17.979  19.470   6.152  1.00  0.00     0.139 C 
HETATM   16  C23 UNL     1      18.522  20.805   6.303  1.00  0.00     0.076 C 
HETATM   17  C25 UNL     1      17.736  21.998   5.948  1.00  0.00     0.012 C 
HETATM   18  C26 UNL     1      16.390  21.795   5.318  1.00  0.00     0.007 C 
HETATM   19  C27 UNL     1      15.394  21.422   6.325  1.00  0.00     0.011 C 
HETATM   20  C28 UNL     1      15.102  22.617   7.235  1.00  0.00    -0.029 C 
HETATM   21  C29 UNL     1      14.245  22.041   8.338  1.00  0.00     0.016 C 
ENDROOT
BRANCH   1  22
HETATM   22  C2  UNL     1      12.979  23.593   6.132  1.00  0.00    -0.084 C 
HETATM   23  C1  UNL     1      11.891  23.677   6.841  1.00  0.00     0.014 C 
BRANCH  22  24
HETATM   24  C3  UNL     1      12.750  23.409   4.632  1.00  0.00     0.034 C 
BRANCH  24  25
HETATM   25  C4  UNL     1      11.308  23.636   4.264  1.00  0.00     0.007 C 
BRANCH  25  26
HETATM   26  C5  UNL     1      11.072  24.456   3.056  1.00  0.00     0.037 C 
BRANCH  26  27
HETATM   27  C6  UNL     1      11.059  25.924   3.182  1.00  0.00     0.051 C 
HETATM   28  C7  UNL     1       9.992  26.560   2.268  1.00  0.00     0.045 C 
HETATM   29  C8  UNL     1      10.868  26.456   4.555  1.00  0.00     0.045 C 
BRANCH  27  30
HETATM   30  O1  UNL     1      12.270  26.459   2.679  1.00  0.00    -0.391 OA
ATOM     31  H1  UNL     1      12.081  27.133   2.035  1.00  0.00     0.210 HD
ENDBRANCH  27  30
ENDBRANCH  26  27
ENDBRANCH  25  26
ENDBRANCH  24  25
ENDBRANCH  22  24
ENDBRANCH   1  22
BRANCH  16  32
HETATM   32  C24 UNL     1      19.885  20.766   5.607  1.00  0.00     0.185 C 
BRANCH  32  33
HETATM   33  O5  UNL     1      20.217  19.563   5.066  1.00  0.00    -0.400 OA
ATOM     34  H5  UNL     1      20.949  19.586   4.461  1.00  0.00     0.209 HD
ENDBRANCH  32  33
ENDBRANCH  16  32
BRANCH  15  35
HETATM   35  O3  UNL     1      17.163  18.947   5.193  1.00  0.00    -0.265 OA
BRANCH  35  36
HETATM   36  C21 UNL     1      17.566  18.456   3.980  1.00  0.00     0.261 C 
HETATM   37  C22 UNL     1      17.141  19.012   2.670  1.00  0.00     0.126 C 
HETATM   38  O4  UNL     1      18.345  17.468   3.962  1.00  0.00    -0.265 OA
ENDBRANCH  35  36
ENDBRANCH  15  35
TORSDOF 10
ENDMDL
MODEL 4
REMARK VINA RESULT: -7.709213421      2.094      2.784
REMARK  10 active torsions:
REMARK  status: ('A' for Active; 'I' for Inactive)
REMARK    1  A    between atoms: C2_2  and  C3_3 
REMARK    2  A    between atoms: C2_2  and  C9_11 
REMARK    3  A    between atoms: C3_3  and  C4_4 
REMARK    4  A    between atoms: C4_4  and  C5_5 
REMARK    5  A    between atoms: C5_5  and  C6_6 
REMARK    6  A    between atoms: C6_6  and  O1_9 
REMARK    7  A    between atoms: C20_25  and  O3_26 
REMARK    8  A    between atoms: O3_26  and  C21_27 
REMARK    9  A    between atoms: C23_30  and  C24_31 
REMARK   10  A    between atoms: C24_31  and  O5_32 
ROOT
HETATM    1  C9  UNL     1      14.307  23.718   6.591  1.00  0.00     0.022 C 
HETATM    2  C10 UNL     1      14.536  24.873   7.608  1.00  0.00     0.010 C 
HETATM    3  C11 UNL     1      16.050  24.790   7.573  1.00  0.00     0.011 C 
HETATM    4  C12 UNL     1      16.365  23.276   7.748  1.00  0.00    -0.032 C 
HETATM    5  C13 UNL     1      16.434  23.209   9.263  1.00  0.00     0.016 C 
HETATM    6  C14 UNL     1      17.636  22.987   7.091  1.00  0.00     0.002 C 
HETATM    7  C15 UNL     1      18.744  22.460   8.020  1.00  0.00     0.039 C 
HETATM    8  C16 UNL     1      18.653  21.011   7.799  1.00  0.00     0.144 C 
HETATM    9  O2  UNL     1      19.681  20.210   8.191  1.00  0.00    -0.355 OA
HETATM   10  C17 UNL     1      19.146  18.902   8.188  1.00  0.00     0.128 C 
HETATM   11  C18 UNL     1      18.322  18.686   9.452  1.00  0.00     0.070 C 
HETATM   12  C19 UNL     1      20.281  17.902   8.235  1.00  0.00     0.070 C 
HETATM   13  N1  UNL     1      18.302  18.653   7.077  1.00  0.00    -0.342 N 
ATOM     14  H1  UNL     1      17.929  17.708   6.993  1.00  0.00     0.164 HD
HETATM   15  C20 UNL     1      17.949  19.503   6.147  1.00  0.00     0.139 C 
HETATM   16  C23 UNL     1      18.495  20.838   6.291  1.00  0.00     0.076 C 
HETATM   17  C25 UNL     1      17.706  22.031   5.944  1.00  0.00     0.012 C 
HETATM   18  C26 UNL     1      16.354  21.829   5.328  1.00  0.00     0.007 C 
HETATM   19  C27 UNL     1      15.367  21.457   6.346  1.00  0.00     0.011 C 
HETATM   20  C28 UNL     1      15.086  22.653   7.259  1.00  0.00    -0.029 C 
HETATM   21  C29 UNL     1      14.240  22.078   8.370  1.00  0.00     0.016 C 
ENDROOT
BRANCH   1  22
HETATM   22  C2  UNL     1      12.953  23.631   6.177  1.00  0.00    -0.084 C 
HETATM   23  C1  UNL     1      12.470  23.204   5.047  1.00  0.00     0.014 C 
BRANCH  22  24
HETATM   24  C3  UNL     1      11.899  24.062   7.197  1.00  0.00     0.034 C 
BRANCH  24  25
HETATM   25  C4  UNL     1      10.968  25.096   6.623  1.00  0.00     0.007 C 
BRANCH  25  26
HETATM   26  C5  UNL     1      10.910  26.385   7.347  1.00  0.00     0.037 C 
BRANCH  26  27
HETATM   27  C6  UNL     1       9.593  26.955   7.682  1.00  0.00     0.051 C 
HETATM   28  C7  UNL     1       8.903  26.159   8.808  1.00  0.00     0.045 C 
HETATM   29  C8  UNL     1       9.583  28.392   8.057  1.00  0.00     0.045 C 
BRANCH  27  30
HETATM   30  O1  UNL     1       8.708  26.791   6.588  1.00  0.00    -0.391 OA
ATOM     31  H1  UNL     1       9.071  26.165   5.972  1.00  0.00     0.210 HD
ENDBRANCH  27  30
ENDBRANCH  26  27
ENDBRANCH  25  26
ENDBRANCH  24  25
ENDBRANCH  22  24
ENDBRANCH   1  22
BRANCH  16  32
HETATM   32  C24 UNL     1      19.850  20.797   5.581  1.00  0.00     0.185 C 
BRANCH  32  33
HETATM   33  O5  UNL     1      20.184  19.589   5.055  1.00  0.00    -0.400 OA
ATOM     34  H5  UNL     1      21.117  19.413   5.019  1.00  0.00     0.209 HD
ENDBRANCH  32  33
ENDBRANCH  16  32
BRANCH  15  35
HETATM   35  O3  UNL     1      17.123  18.980   5.196  1.00  0.00    -0.265 OA
BRANCH  35  36
HETATM   36  C21 UNL     1      17.507  18.523   3.965  1.00  0.00     0.261 C 
HETATM   37  C22 UNL     1      17.075  19.125   2.677  1.00  0.00     0.126 C 
HETATM   38  O4  UNL     1      18.276  17.529   3.907  1.00  0.00    -0.265 OA
ENDBRANCH  35  36
ENDBRANCH  15  35
TORSDOF 10
ENDMDL
MODEL 5
REMARK VINA RESULT: -7.675198785      3.367     10.133
REMARK  10 active torsions:
REMARK  status: ('A' for Active; 'I' for Inactive)
REMARK    1  A    between atoms: C2_2  and  C3_3 
REMARK    2  A    between atoms: C2_2  and  C9_11 
REMARK    3  A    between atoms: C3_3  and  C4_4 
REMARK    4  A    between atoms: C4_4  and  C5_5 
REMARK    5  A    between atoms: C5_5  and  C6_6 
REMARK    6  A    between atoms: C6_6  and  O1_9 
REMARK    7  A    between atoms: C20_25  and  O3_26 
REMARK    8  A    between atoms: O3_26  and  C21_27 
REMARK    9  A    between atoms: C23_30  and  C24_31 
REMARK   10  A    between atoms: C24_31  and  O5_32 
ROOT
HETATM    1  C9  UNL     1      12.863  24.582   4.783  1.00  0.00     0.022 C 
HETATM    2  C10 UNL     1      13.316  23.744   3.553  1.00  0.00     0.010 C 
HETATM    3  C11 UNL     1      12.607  24.609   2.528  1.00  0.00     0.011 C 
HETATM    4  C12 UNL     1      11.169  24.791   3.094  1.00  0.00    -0.032 C 
HETATM    5  C13 UNL     1      10.502  23.575   2.472  1.00  0.00     0.016 C 
HETATM    6  C14 UNL     1      10.637  26.061   2.610  1.00  0.00     0.002 C 
HETATM    7  C15 UNL     1       9.370  25.948   1.742  1.00  0.00     0.039 C 
HETATM    8  C16 UNL     1       8.313  26.229   2.720  1.00  0.00     0.144 C 
HETATM    9  O2  UNL     1       7.064  26.548   2.281  1.00  0.00    -0.355 OA
HETATM   10  C17 UNL     1       6.229  26.391   3.410  1.00  0.00     0.128 C 
HETATM   11  C18 UNL     1       5.923  24.912   3.616  1.00  0.00     0.070 C 
HETATM   12  C19 UNL     1       4.905  27.074   3.147  1.00  0.00     0.070 C 
HETATM   13  N1  UNL     1       6.817  26.878   4.604  1.00  0.00    -0.342 N 
ATOM     14  H1  UNL     1       6.239  26.840   5.443  1.00  0.00     0.164 HD
HETATM   15  C20 UNL     1       8.021  27.371   4.748  1.00  0.00     0.139 C 
HETATM   16  C23 UNL     1       8.819  27.414   3.539  1.00  0.00     0.076 C 
HETATM   17  C25 UNL     1      10.267  27.150   3.565  1.00  0.00     0.012 C 
HETATM   18  C26 UNL     1      10.923  26.943   4.897  1.00  0.00     0.007 C 
HETATM   19  C27 UNL     1      10.654  25.595   5.407  1.00  0.00     0.011 C 
HETATM   20  C28 UNL     1      11.401  24.561   4.561  1.00  0.00    -0.029 C 
HETATM   21  C29 UNL     1      10.870  23.234   5.048  1.00  0.00     0.016 C 
ENDROOT
BRANCH   1  22
HETATM   22  C2  UNL     1      13.536  24.194   5.970  1.00  0.00    -0.084 C 
HETATM   23  C1  UNL     1      13.515  24.759   7.142  1.00  0.00     0.014 C 
BRANCH  22  24
HETATM   24  C3  UNL     1      14.380  22.922   5.891  1.00  0.00     0.034 C 
BRANCH  24  25
HETATM   25  C4  UNL     1      14.283  22.118   7.159  1.00  0.00     0.007 C 
BRANCH  25  26
HETATM   26  C5  UNL     1      15.569  21.729   7.777  1.00  0.00     0.037 C 
BRANCH  26  27
HETATM   27  C6  UNL     1      15.978  22.376   9.037  1.00  0.00     0.051 C 
HETATM   28  C7  UNL     1      16.837  23.629   8.774  1.00  0.00     0.045 C 
HETATM   29  C8  UNL     1      14.878  22.753   9.961  1.00  0.00     0.045 C 
BRANCH  27  30
HETATM   30  O1  UNL     1      16.863  21.526   9.747  1.00  0.00    -0.391 OA
ATOM     31  H1  UNL     1      16.520  21.361  10.617  1.00  0.00     0.210 HD
ENDBRANCH  27  30
ENDBRANCH  26  27
ENDBRANCH  25  26
ENDBRANCH  24  25
ENDBRANCH  22  24
ENDBRANCH   1  22
BRANCH  16  32
HETATM   32  C24 UNL     1       8.473  28.749   2.875  1.00  0.00     0.185 C 
BRANCH  32  33
HETATM   33  O5  UNL     1       7.597  29.524   3.570  1.00  0.00    -0.400 OA
ATOM     34  H5  UNL     1       7.623  30.448   3.353  1.00  0.00     0.209 HD
ENDBRANCH  32  33
ENDBRANCH  16  32
BRANCH  15  35
HETATM   35  O3  UNL     1       8.316  27.763   6.020  1.00  0.00    -0.265 OA
BRANCH  35  36
HETATM   36  C21 UNL     1       7.549  28.580   6.805  1.00  0.00     0.261 C 
HETATM   37  C22 UNL     1       7.688  28.695   8.279  1.00  0.00     0.126 C 
HETATM   38  O4  UNL     1       6.665  29.285   6.253  1.00  0.00    -0.265 OA
ENDBRANCH  35  36
ENDBRANCH  15  35
TORSDOF 10
ENDMDL
