REMARK  10 active torsions:
REMARK  status: ('A' for Active; 'I' for Inactive)
REMARK    1  A    between atoms: C2_2  and  C4_4 
REMARK    2  A    between atoms: C4_4  and  N1_5 
REMARK    3  A    between atoms: N1_5  and  C5_6 
REMARK    4  A    between atoms: C5_6  and  C6_7 
REMARK    5  A    between atoms: C6_7  and  C7_8 
REMARK    6  A    between atoms: C7_8  and  C8_9 
REMARK    7  A    between atoms: C8_9  and  N2_10 
REMARK    8  A    between atoms: N2_10  and  C9_12 
REMARK    9  A    between atoms: C12_17  and  N4_18 
REMARK   10  A    between atoms: C14_25  and  C15_26 
ROOT
HETATM    1  C8  UNL     1       2.324   0.902   0.268  1.00  0.00     0.119 C 
ENDROOT
BRANCH   1   2
HETATM    2  C7  UNL     1       1.446   1.202  -0.896  1.00  0.00     0.021 C 
BRANCH   2   3
HETATM    3  C6  UNL     1      -0.028   1.407  -0.510  1.00  0.00     0.022 C 
BRANCH   3   4
HETATM    4  C5  UNL     1      -0.539   0.188   0.130  1.00  0.00     0.127 C 
BRANCH   4   5
HETATM    5  N1  UNL     1      -1.886   0.114   0.556  1.00  0.00    -0.373 N 
HETATM    6  C14 UNL     1      -2.551   1.290   0.750  1.00  0.00     0.067 C 
BRANCH   5   7
HETATM    7  C4  UNL     1      -2.142  -1.098   1.178  1.00  0.00     0.067 C 
BRANCH   7   8
HETATM    8  C2  UNL     1      -2.107  -2.270   0.219  1.00  0.00     0.016 C 
HETATM    9  C1  UNL     1      -2.405  -3.578   0.974  1.00  0.00     0.015 C 
HETATM   10  C3  UNL     1      -3.118  -2.190  -0.881  1.00  0.00     0.015 C 
ENDBRANCH   7   8
ENDBRANCH   5   7
BRANCH   6  11
HETATM   11  C15 UNL     1      -3.926   1.579   0.360  1.00  0.00     0.024 C 
HETATM   12  C16 UNL     1      -5.043   0.764   0.918  1.00  0.00     0.010 C 
HETATM   13  C17 UNL     1      -6.261   1.198   0.094  1.00  0.00     0.001 C 
HETATM   14  C18 UNL     1      -5.708   1.572  -1.261  1.00  0.00     0.001 C 
HETATM   15  C19 UNL     1      -4.208   1.764  -1.112  1.00  0.00     0.010 C 
ENDBRANCH   6  11
ENDBRANCH   4   5
ENDBRANCH   3   4
ENDBRANCH   2   3
ENDBRANCH   1   2
BRANCH   1  16
HETATM   16  N2  UNL     1       3.691   0.742  -0.254  1.00  0.00    -0.398 N 
ATOM     17  H2  UNL     1       3.939   1.129  -1.164  1.00  0.00     0.158 HD
BRANCH  16  18
HETATM   18  C9  UNL     1       4.569   0.115   0.438  1.00  0.00     0.101 C 
HETATM   19  C10 UNL     1       5.930  -0.105   0.037  1.00  0.00     0.063 A 
HETATM   20  C11 UNL     1       6.815  -0.790   0.841  1.00  0.00     0.124 A 
HETATM   21  C13 UNL     1       6.389   0.363  -1.169  1.00  0.00     0.272 A 
HETATM   22  N3  UNL     1       8.082  -0.980   0.435  1.00  0.00    -0.201 N 
HETATM   23  C12 UNL     1       8.499  -0.506  -0.757  1.00  0.00     0.678 A 
ATOM     24  H3  UNL     1       8.734  -1.487   1.033  1.00  0.00     0.183 HD
HETATM   25  N5  UNL     1       7.671   0.170  -1.578  1.00  0.00    -0.156 N 
ATOM     26  H5  UNL     1       7.996   0.525  -2.477  1.00  0.00     0.187 HD
HETATM   27  O1  UNL     1       5.578   0.990  -1.902  1.00  0.00    -0.267 OA
BRANCH  23  28
HETATM   28  N4  UNL     1       9.727  -0.721  -1.090  1.00  0.00    -0.234 N 
ATOM     29  H42 UNL     1      10.354  -1.233  -0.469  1.00  0.00     0.174 HD
ATOM     30  H41 UNL     1      10.042  -0.363  -1.991  1.00  0.00     0.174 HD
ENDBRANCH  23  28
ENDBRANCH  16  18
ENDBRANCH   1  16
TORSDOF 10
