REMARK  3 active torsions:
REMARK  status: ('A' for Active; 'I' for Inactive)
REMARK    1  A    between atoms: C5_7  and  C6_8 
REMARK    2  A    between atoms: C15_17  and  C16_18 
REMARK    3  A    between atoms: C17_19  and  C18_20 
ROOT
HETATM    1  O1  UNL     1       2.458  -0.553   3.114  1.00  0.00    -0.258 OA
HETATM    2  C1  UNL     1       1.374  -0.345   2.476  1.00  0.00     0.307 A 
HETATM    3  O2  UNL     1       0.248  -0.190   3.118  1.00  0.00    -0.274 OA
HETATM    4  C2  UNL     1      -0.849   0.020   2.474  1.00  0.00     0.089 A 
HETATM    5  C3  UNL     1      -2.076   0.193   3.090  1.00  0.00     0.039 A 
HETATM    6  C4  UNL     1      -3.220   0.415   2.357  1.00  0.00     0.015 A 
HETATM    7  C5  UNL     1      -3.208   0.477   0.978  1.00  0.00    -0.025 A 
HETATM    8  C12 UNL     1      -1.986   0.304   0.369  1.00  0.00     0.026 A 
HETATM    9  C13 UNL     1      -0.829   0.080   1.098  1.00  0.00     0.000 A 
HETATM   10  C14 UNL     1       0.347  -0.080   0.386  1.00  0.00     0.041 A 
HETATM   11  C15 UNL     1       1.495  -0.302   1.107  1.00  0.00     0.094 A 
ENDROOT
BRANCH  11  12
HETATM   12  C16 UNL     1       2.752  -0.478   0.426  1.00  0.00    -0.055 C 
HETATM   13  C17 UNL     1       3.797  -0.623  -0.164  1.00  0.00    -0.061 C 
BRANCH  13  14
HETATM   14  C18 UNL     1       5.026  -0.800  -0.885  1.00  0.00     0.018 A 
HETATM   15  C19 UNL     1       5.293  -1.909  -1.663  1.00  0.00     0.020 A 
HETATM   16  C20 UNL     1       6.468  -2.072  -2.349  1.00  0.00     0.001 A 
HETATM   17  C21 UNL     1       7.429  -1.105  -2.269  1.00  0.00     0.000 A 
HETATM   18  C22 UNL     1       7.200   0.013  -1.504  1.00  0.00     0.001 A 
HETATM   19  C23 UNL     1       6.007   0.153  -0.823  1.00  0.00     0.020 A 
ENDBRANCH  13  14
ENDBRANCH  11  12
BRANCH   7  20
HETATM   20  C6  UNL     1      -4.404   0.710   0.177  1.00  0.00    -0.026 A 
HETATM   21  C7  UNL     1      -5.445   1.488   0.639  1.00  0.00     0.012 A 
HETATM   22  C8  UNL     1      -6.580   1.717  -0.107  1.00  0.00     0.001 A 
HETATM   23  C9  UNL     1      -6.703   1.161  -1.359  1.00  0.00     0.000 A 
HETATM   24  C10 UNL     1      -5.684   0.384  -1.842  1.00  0.00     0.001 A 
HETATM   25  C11 UNL     1      -4.547   0.158  -1.089  1.00  0.00     0.012 A 
ENDBRANCH   7  20
TORSDOF 3
