REMARK  17 active torsions:
REMARK  status: ('A' for Active; 'I' for Inactive)
REMARK    1  A    between atoms: C2_2  and  C3_3 
REMARK    2  A    between atoms: C3_3  and  N1_4 
REMARK    3  A    between atoms: N1_4  and  C4_6 
REMARK    4  A    between atoms: C4_6  and  O1_7 
REMARK    5  A    between atoms: C4_6  and  C5_9 
REMARK    6  A    between atoms: C5_9  and  C6_11 
REMARK       I    between atoms: C6_11  and  N2_13 
REMARK    7  A    between atoms: N2_13  and  C7_15 
REMARK    8  A    between atoms: C9_17  and  C10_18 
REMARK    9  A    between atoms: C10_18  and  C11_19 
REMARK   10  A    between atoms: C13_21  and  N3_22 
REMARK   11  A    between atoms: N3_22  and  C14_23 
REMARK   12  A    between atoms: C14_23  and  O4_24 
REMARK   13  A    between atoms: C14_23  and  C15_26 
REMARK   14  A    between atoms: C19_32  and  C20_33 
REMARK   15  A    between atoms: C19_32  and  C23_38 
REMARK   16  A    between atoms: C20_33  and  C21_34 
REMARK   17  A    between atoms: C21_34  and  C22_35 
ROOT
HETATM    1  C7  UNL     1       0.361  -0.723  -1.322  1.00  0.00     0.137 C 
HETATM    2  C8  UNL     1      -0.490  -0.055  -0.285  1.00  0.00     0.028 C 
HETATM    3  C9  UNL     1      -0.911   1.316  -0.350  1.00  0.00     0.104 C 
HETATM    4  C13 UNL     1      -1.498   1.495   1.038  1.00  0.00     0.164 C 
HETATM    5  C18 UNL     1      -1.630   0.099   1.585  1.00  0.00     0.286 C 
HETATM    6  O5  UNL     1      -1.852  -0.068   2.785  1.00  0.00    -0.265 OA
HETATM    7  N4  UNL     1      -1.448  -0.805   0.467  1.00  0.00    -0.296 N 
HETATM    8  C19 UNL     1      -1.911  -2.124   0.115  1.00  0.00     0.133 C 
HETATM    9  C24 UNL     1      -0.590  -2.819  -0.258  1.00  0.00     0.041 C 
HETATM   10  C25 UNL     1       0.206  -2.174  -1.316  1.00  0.00     0.030 C 
HETATM   11  C26 UNL     1       1.401  -3.086  -1.348  1.00  0.00    -0.037 C 
HETATM   12  C27 UNL     1       2.266  -3.225  -0.172  1.00  0.00     0.015 C 
HETATM   13  C28 UNL     1       2.153  -2.984  -2.653  1.00  0.00     0.015 C 
HETATM   14  C29 UNL     1       0.633  -4.442  -1.433  1.00  0.00     0.003 A 
HETATM   15  C30 UNL     1       0.390  -5.159  -0.153  1.00  0.00     0.016 A 
HETATM   16  C31 UNL     1      -0.701  -4.211  -0.739  1.00  0.00    -0.032 A 
HETATM   17  C32 UNL     1      -1.844  -4.841  -1.422  1.00  0.00     0.016 C 
ENDROOT
BRANCH   1  18
HETATM   18  N2  UNL     1       1.698  -0.227  -1.053  1.00  0.00    -0.344 N 
HETATM   19  C6  UNL     1       2.411   0.877  -1.528  1.00  0.00     0.296 C 
HETATM   20  O3  UNL     1       2.001   1.745  -2.350  1.00  0.00    -0.264 OA
ATOM     21  H2  UNL     1       2.220  -0.796  -0.386  1.00  0.00     0.163 HD
BRANCH  19  22
HETATM   22  C5  UNL     1       3.774   1.073  -1.010  1.00  0.00     0.289 C 
HETATM   23  O2  UNL     1       4.325   0.037  -0.451  1.00  0.00    -0.278 OA
BRANCH  22  24
HETATM   24  C4  UNL     1       4.557   2.242  -1.026  1.00  0.00     0.193 C 
BRANCH  24  25
HETATM   25  N1  UNL     1       5.853   2.311  -0.396  1.00  0.00    -0.364 N 
ATOM     26  H1  UNL     1       6.224   1.488   0.078  1.00  0.00     0.162 HD
BRANCH  25  27
HETATM   27  C3  UNL     1       6.642   3.537  -0.425  1.00  0.00     0.148 C 
BRANCH  27  28
HETATM   28  C2  UNL     1       7.943   3.298   0.283  1.00  0.00    -0.018 C 
HETATM   29  C1  UNL     1       8.268   3.980   1.371  1.00  0.00     0.008 C 
ENDBRANCH  27  28
ENDBRANCH  25  27
ENDBRANCH  24  25
BRANCH  24  30
HETATM   30  O1  UNL     1       4.233   3.377  -1.591  1.00  0.00    -0.343 OA
ATOM     31  H1  UNL     1       3.380   3.332  -2.006  1.00  0.00     0.219 HD
ENDBRANCH  24  30
ENDBRANCH  22  24
ENDBRANCH  19  22
ENDBRANCH   1  18
BRANCH   3  32
HETATM   32  C10 UNL     1      -1.735   1.986  -1.331  1.00  0.00     0.018 C 
BRANCH  32  33
HETATM   33  C11 UNL     1      -3.130   1.725  -1.668  1.00  0.00    -0.004 C 
HETATM   34  C12 UNL     1      -4.158   1.888  -0.582  1.00  0.00     0.005 C 
ENDBRANCH  32  33
ENDBRANCH   3  32
BRANCH   4  35
HETATM   35  N3  UNL     1      -1.800   2.493   1.614  1.00  0.00    -0.383 NA
BRANCH  35  36
HETATM   36  C14 UNL     1      -2.126   3.605   2.228  1.00  0.00     0.193 C 
BRANCH  36  37
HETATM   37  O4  UNL     1      -3.200   3.564   2.998  1.00  0.00    -0.339 OA
ATOM     38  H4  UNL     1      -3.436   4.370   3.443  1.00  0.00     0.220 HD
ENDBRANCH  36  37
BRANCH  36  39
HETATM   39  C15 UNL     1      -1.478   4.926   2.211  1.00  0.00     0.067 C 
HETATM   40  C16 UNL     1      -1.103   5.334   0.828  1.00  0.00     0.019 C 
HETATM   41  C17 UNL     1      -2.487   5.992   2.697  1.00  0.00     0.019 C 
ENDBRANCH  36  39
ENDBRANCH  35  36
ENDBRANCH   4  35
BRANCH   8  42
HETATM   42  C20 UNL     1      -2.439  -2.880   1.266  1.00  0.00     0.054 C 
BRANCH  42  43
HETATM   43  C21 UNL     1      -3.669  -2.516   1.981  1.00  0.00     0.116 C 
BRANCH  43  44
HETATM   44  C22 UNL     1      -3.949  -3.260   3.168  1.00  0.00     0.172 C 
HETATM   45  O6  UNL     1      -4.414  -2.487   4.204  1.00  0.00    -0.648 OA
HETATM   46  O7  UNL     1      -3.881  -4.534   3.553  1.00  0.00    -0.648 OA
ENDBRANCH  43  44
ENDBRANCH  42  43
ENDBRANCH   8  42
BRANCH   8  47
HETATM   47  C23 UNL     1      -2.799  -2.076  -1.042  1.00  0.00     0.203 C 
HETATM   48  O8  UNL     1      -4.015  -2.449  -1.047  1.00  0.00    -0.646 OA
HETATM   49  O9  UNL     1      -2.404  -1.617  -2.263  1.00  0.00    -0.646 OA
ENDBRANCH   8  47
TORSDOF 17
