REMARK  22 active torsions:
REMARK  status: ('A' for Active; 'I' for Inactive)
REMARK    1  A    between atoms: C5_7  and  C6_8 
REMARK    2  A    between atoms: C6_8  and  C7_9 
REMARK    3  A    between atoms: C6_8  and  N5_17 
REMARK    4  A    between atoms: C7_9  and  N2_10 
REMARK    5  A    between atoms: N2_10  and  N3_12 
REMARK    6  A    between atoms: N5_17  and  C8_19 
REMARK    7  A    between atoms: C8_19  and  C9_20 
REMARK       I    between atoms: C9_20  and  N6_22 
REMARK    8  A    between atoms: N6_22  and  C10_24 
REMARK    9  A    between atoms: C10_24  and  C11_25 
REMARK   10  A    between atoms: C11_25  and  C12_26 
REMARK   11  A    between atoms: C12_26  and  N7_27 
REMARK   12  A    between atoms: N7_27  and  N8_28 
REMARK       I    between atoms: N7_27  and  C22_40 
REMARK       I    between atoms: N8_28  and  C13_30 
REMARK   13  A    between atoms: C13_30  and  C14_32 
REMARK   14  A    between atoms: C14_32  and  C15_33 
REMARK   15  A    between atoms: C15_33  and  C16_34 
REMARK   16  A    between atoms: C22_40  and  C23_42 
REMARK   17  A    between atoms: C23_42  and  C24_43 
REMARK   18  A    between atoms: C24_43  and  C25_44 
REMARK   19  A    between atoms: C25_44  and  C26_45 
REMARK   20  A    between atoms: C26_45  and  C27_46 
REMARK   21  A    between atoms: C27_46  and  C28_47 
REMARK   22  A    between atoms: C28_47  and  N9_48 
REMARK       I    between atoms: N9_48  and  C29_50 
ROOT
HETATM    1  N7  UNL     1      -2.910   1.135   1.140  1.00  0.00    -0.259 N 
HETATM    2  C22 UNL     1      -3.682  -0.083   1.014  1.00  0.00     0.238 C 
HETATM    3  O3  UNL     1      -3.113  -1.153   1.320  1.00  0.00    -0.272 OA
ENDROOT
BRANCH   1   4
HETATM    4  C12 UNL     1      -1.546   1.005   1.669  1.00  0.00     0.154 C 
BRANCH   4   5
HETATM    5  C11 UNL     1      -0.511   0.789   0.594  1.00  0.00     0.041 C 
BRANCH   5   6
HETATM    6  C10 UNL     1       0.867   0.689   1.153  1.00  0.00     0.124 C 
BRANCH   6   7
HETATM    7  N6  UNL     1       1.826   0.448   0.107  1.00  0.00    -0.360 N 
HETATM    8  C9  UNL     1       3.188   0.345   0.412  1.00  0.00     0.235 C 
HETATM    9  O1  UNL     1       3.529   0.482   1.640  1.00  0.00    -0.272 OA
ATOM     10  H6  UNL     1       1.512   0.352  -0.859  1.00  0.00     0.162 HD
BRANCH   8  11
HETATM   11  C8  UNL     1       4.304   0.094  -0.524  1.00  0.00     0.222 C 
BRANCH  11  12
HETATM   12  N5  UNL     1       5.556   0.077   0.149  1.00  0.00    -0.382 N 
ATOM     13  H5  UNL     1       5.559   0.278   1.149  1.00  0.00     0.160 HD
BRANCH  12  14
HETATM   14  C6  UNL     1       6.839  -0.208  -0.489  1.00  0.00     0.037 C 
BRANCH  14  15
HETATM   15  C5  UNL     1       7.628  -1.070   0.088  1.00  0.00     0.015 A 
HETATM   16  C2  UNL     1       8.849  -1.589  -0.223  1.00  0.00     0.034 A 
HETATM   17  C1  UNL     1       9.572  -1.372  -1.275  1.00  0.00     0.044 C 
HETATM   18  N1  UNL     1       9.242  -2.445   0.774  1.00  0.00    -0.366 N 
HETATM   19  C3  UNL     1       8.305  -2.491   1.719  1.00  0.00     0.089 A 
ATOM     20  H1  UNL     1      10.118  -2.967   0.789  1.00  0.00     0.165 HD
HETATM   21  C4  UNL     1       7.293  -1.652   1.325  1.00  0.00     0.032 A 
ENDBRANCH  14  15
BRANCH  14  22
HETATM   22  C7  UNL     1       7.011   0.542  -1.744  1.00  0.00     0.198 C 
BRANCH  22  23
HETATM   23  N2  UNL     1       6.293  -0.013  -2.873  1.00  0.00    -0.317 N 
ATOM     24  H2  UNL     1       5.595   0.574  -3.330  1.00  0.00     0.182 HD
BRANCH  23  25
HETATM   25  N3  UNL     1       6.496  -1.303  -3.376  1.00  0.00    -0.254 N 
HETATM   26  N4  UNL     1       5.613  -2.209  -3.272  1.00  0.00    -0.331 N 
ATOM     27  H42 UNL     1       4.737  -1.974  -2.806  1.00  0.00     0.178 HD
ATOM     28  H41 UNL     1       5.761  -3.149  -3.639  1.00  0.00     0.178 HD
ATOM     29  H3  UNL     1       7.378  -1.521  -3.839  1.00  0.00     0.207 HD
ENDBRANCH  23  25
ENDBRANCH  22  23
ENDBRANCH  14  22
ENDBRANCH  12  14
ENDBRANCH  11  12
ENDBRANCH   8  11
ENDBRANCH   6   7
ENDBRANCH   5   6
ENDBRANCH   4   5
ENDBRANCH   1   4
BRANCH   1  30
HETATM   30  N8  UNL     1      -3.500   2.311   0.744  1.00  0.00    -0.265 N 
HETATM   31  C13 UNL     1      -3.031   3.653   0.943  1.00  0.00     0.236 C 
HETATM   32  O2  UNL     1      -1.964   3.809   1.541  1.00  0.00    -0.272 OA
ATOM     33  H8  UNL     1      -4.385   2.219   0.245  1.00  0.00     0.190 HD
BRANCH  31  34
HETATM   34  C14 UNL     1      -3.840   4.778   0.427  1.00  0.00     0.109 C 
BRANCH  34  35
HETATM   35  C15 UNL     1      -3.200   6.098   0.538  1.00  0.00     0.048 C 
BRANCH  35  36
HETATM   36  C16 UNL     1      -1.937   6.302  -0.204  1.00  0.00    -0.058 A 
HETATM   37  C17 UNL     1      -0.736   6.304   0.425  1.00  0.00     0.007 A 
HETATM   38  C18 UNL     1       0.424   6.460  -0.315  1.00  0.00     0.001 A 
HETATM   39  C19 UNL     1       0.416   6.619  -1.687  1.00  0.00     0.000 A 
HETATM   40  C20 UNL     1      -0.797   6.616  -2.304  1.00  0.00     0.001 A 
HETATM   41  C21 UNL     1      -1.967   6.460  -1.584  1.00  0.00     0.007 A 
ENDBRANCH  35  36
ENDBRANCH  34  35
ENDBRANCH  31  34
ENDBRANCH   1  30
BRANCH   2  42
HETATM   42  C23 UNL     1      -5.063  -0.046   0.558  1.00  0.00     0.105 C 
BRANCH  42  43
HETATM   43  C24 UNL     1      -5.505  -1.470   0.209  1.00  0.00     0.009 C 
BRANCH  43  44
HETATM   44  C25 UNL     1      -4.704  -1.940  -0.957  1.00  0.00     0.001 C 
BRANCH  44  45
HETATM   45  C26 UNL     1      -5.045  -3.367  -1.344  1.00  0.00     0.002 C 
BRANCH  45  46
HETATM   46  C27 UNL     1      -4.717  -4.314  -0.197  1.00  0.00     0.020 C 
BRANCH  46  47
HETATM   47  C28 UNL     1      -5.086  -5.716  -0.637  1.00  0.00     0.122 C 
BRANCH  47  48
HETATM   48  N9  UNL     1      -4.788  -6.704   0.348  1.00  0.00    -0.365 N 
HETATM   49  C29 UNL     1      -5.475  -6.761   1.564  1.00  0.00     0.181 C 
HETATM   50  N10 UNL     1      -6.388  -7.634   1.791  1.00  0.00    -0.374 N 
HETATM   51  N11 UNL     1      -5.148  -5.827   2.591  1.00  0.00    -0.064 NA
ATOM     52 2H10 UNL     1      -6.622  -8.302   1.056  1.00  0.00     0.158 HD
ATOM     53 1H10 UNL     1      -6.889  -7.676   2.678  1.00  0.00     0.158 HD
ATOM     54  H9  UNL     1      -4.054  -7.387   0.160  1.00  0.00     0.162 HD
ENDBRANCH  47  48
ENDBRANCH  46  47
ENDBRANCH  45  46
ENDBRANCH  44  45
ENDBRANCH  43  44
ENDBRANCH  42  43
ENDBRANCH   2  42
TORSDOF 22
