REMARK  5 active torsions:
REMARK  status: ('A' for Active; 'I' for Inactive)
REMARK    1  A    between atoms: S1_2  and  C2_3 
REMARK    2  A    between atoms: C2_3  and  C3_4 
REMARK    3  A    between atoms: C3_4  and  N1_5 
REMARK    4  A    between atoms: N2_8  and  O2_9 
REMARK    5  A    between atoms: C7_16  and  N4_17 
ROOT
HETATM    1  N1  UNL     1       0.275   0.543  -0.344  1.00  0.00    -0.280 N 
HETATM    2  C4  UNL     1       0.334   1.896  -0.573  1.00  0.00     0.355 A 
HETATM    3  O1  UNL     1       1.391   2.543  -0.827  1.00  0.00    -0.244 OA
HETATM    4  N2  UNL     1      -0.872   2.440  -0.493  1.00  0.00    -0.163 N 
HETATM    5  C5  UNL     1      -1.715   1.434  -0.211  1.00  0.00     0.181 A 
HETATM    6  C6  UNL     1      -3.080   1.461  -0.032  1.00  0.00     0.292 A 
HETATM    7  O3  UNL     1      -3.743   2.534  -0.112  1.00  0.00    -0.265 OA
HETATM    8  N3  UNL     1      -3.702   0.323   0.231  1.00  0.00    -0.154 N 
ATOM      9  H3  UNL     1      -4.713   0.314   0.368  1.00  0.00     0.187 HD
HETATM   10  C7  UNL     1      -2.994  -0.832   0.318  1.00  0.00     0.682 A 
HETATM   11  N5  UNL     1      -1.663  -0.907   0.152  1.00  0.00    -0.170 N 
HETATM   12  C8  UNL     1      -0.945  -2.152   0.228  1.00  0.00     0.177 C 
HETATM   13  C9  UNL     1      -1.001   0.245  -0.118  1.00  0.00     0.164 A 
ENDROOT
BRANCH   1  14
HETATM   14  C3  UNL     1       1.446  -0.303  -0.381  1.00  0.00     0.146 C 
BRANCH  14  15
HETATM   15  C2  UNL     1       2.129  -0.286   0.998  1.00  0.00     0.093 C 
BRANCH  15  16
HETATM   16  S1  UNL     1       3.593  -1.357   0.918  1.00  0.00    -0.172 SA
HETATM   17  C1  UNL     1       4.853  -0.694  -0.200  1.00  0.00     0.089 C 
ENDBRANCH  15  16
ENDBRANCH  14  15
ENDBRANCH   1  14
BRANCH   4  18
HETATM   18  O2  UNL     1      -1.251   3.753  -0.653  1.00  0.00    -0.278 OA
ATOM     19  H2  UNL     1      -2.115   4.143  -0.596  1.00  0.00     0.245 HD
ENDBRANCH   4  18
BRANCH  10  20
HETATM   20  N4  UNL     1      -3.674  -1.878   0.570  1.00  0.00    -0.234 N 
ATOM     21  H42 UNL     1      -4.685  -1.821   0.696  1.00  0.00     0.174 HD
ATOM     22  H41 UNL     1      -3.142  -2.746   0.635  1.00  0.00     0.174 HD
ENDBRANCH  10  20
TORSDOF 5
