REMARK  3 active torsions:
REMARK  status: ('A' for Active; 'I' for Inactive)
REMARK       I    between atoms: N1_2  and  C2_4 
REMARK    1  A    between atoms: C2_4  and  C3_6 
REMARK    2  A    between atoms: N4_11  and  C4_12 
REMARK    3  A    between atoms: C5_13  and  O2_14 
ROOT
HETATM    1  C3  UNL     1       1.820  -0.152   0.813  1.00  0.00     0.206 A 
HETATM    2  N2  UNL     1       1.433  -0.385   2.078  1.00  0.00    -0.264 N 
ATOM      3  H2  UNL     1       2.040  -0.494   2.891  1.00  0.00     0.190 HD
HETATM    4  N3  UNL     1       0.125  -0.445   2.065  1.00  0.00    -0.219 N 
ATOM      5  H3  UNL     1      -0.465  -0.611   2.880  1.00  0.00     0.210 HD
HETATM    6  N4  UNL     1      -0.314  -0.257   0.828  1.00  0.00    -0.171 N 
HETATM    7  N7  UNL     1       0.703  -0.076   0.046  1.00  0.00    -0.257 N 
ATOM      8  H7  UNL     1       0.670   0.092  -0.959  1.00  0.00     0.191 HD
ENDROOT
BRANCH   6   9
HETATM    9  C4  UNL     1      -1.722  -0.272   0.521  1.00  0.00     0.194 A 
HETATM   10  C5  UNL     1      -2.221   0.521  -0.489  1.00  0.00     0.179 A 
HETATM   11  N5  UNL     1      -3.538   0.494  -0.762  1.00  0.00    -0.312 N 
HETATM   12  C6  UNL     1      -4.415  -0.278  -0.093  1.00  0.00     0.180 A 
ATOM     13  H5  UNL     1      -3.890   1.088  -1.513  1.00  0.00     0.170 HD
HETATM   14  S1  UNL     1      -6.016  -0.279  -0.460  1.00  0.00    -0.040 SA
HETATM   15  N6  UNL     1      -3.939  -1.052   0.891  1.00  0.00    -0.298 N 
HETATM   16  C7  UNL     1      -2.623  -1.061   1.204  1.00  0.00     0.282 A 
ATOM     17  H6  UNL     1      -4.581  -1.646   1.415  1.00  0.00     0.171 HD
HETATM   18  O3  UNL     1      -2.185  -1.784   2.121  1.00  0.00    -0.265 OA
BRANCH  10  19
HETATM   19  O2  UNL     1      -1.326   1.322  -1.188  1.00  0.00    -0.344 OA
ATOM     20  H2  UNL     1      -1.670   1.869  -1.884  1.00  0.00     0.219 HD
ENDBRANCH  10  19
ENDBRANCH   6   9
BRANCH   1  21
HETATM   21  C2  UNL     1       3.204  -0.017   0.402  1.00  0.00     0.288 C 
HETATM   22  N1  UNL     1       3.530   0.228  -0.955  1.00  0.00    -0.359 N 
HETATM   23  C1  UNL     1       4.894   0.372  -1.423  1.00  0.00     0.149 C 
ATOM     24  H1  UNL     1       2.771   0.306  -1.632  1.00  0.00     0.162 HD
HETATM   25  O1  UNL     1       4.109  -0.117   1.251  1.00  0.00    -0.264 OA
ENDBRANCH   1  21
TORSDOF 3
