REMARK  4 active torsions:
REMARK  status: ('A' for Active; 'I' for Inactive)
REMARK    1  A    between atoms: N1_1  and  C1_5 
REMARK    2  A    between atoms: C3_7  and  N2_8 
REMARK    3  A    between atoms: N2_8  and  N3_9 
REMARK    4  A    between atoms: N3_9  and  C4_11 
ROOT
HETATM    1  N3  UNL     1       0.848  -1.276  -0.291  1.00  0.00    -0.134 N 
ATOM      2  H3  UNL     1       0.702  -2.267  -0.101  1.00  0.00     0.201 HD
ENDROOT
BRANCH   1   3
HETATM    3  N2  UNL     1      -0.248  -0.501  -0.683  1.00  0.00    -0.119 NA
BRANCH   3   4
HETATM    4  C3  UNL     1      -1.092  -0.257   0.466  1.00  0.00     0.132 A 
HETATM    5  C1  UNL     1      -2.330   0.588   0.143  1.00  0.00     0.206 A 
HETATM    6  C2  UNL     1      -2.454  -0.814   0.556  1.00  0.00     0.059 A 
BRANCH   5   7
HETATM    7  N1  UNL     1      -2.509   1.687   1.066  1.00  0.00    -0.073 N 
ATOM      8  H13 UNL     1      -3.422   1.575   1.506  1.00  0.00     0.274 HD
ATOM      9  H12 UNL     1      -1.873   1.539   1.849  1.00  0.00     0.274 HD
ATOM     10  H11 UNL     1      -2.423   2.662   0.779  1.00  0.00     0.274 HD
ENDBRANCH   5   7
ENDBRANCH   3   4
ENDBRANCH   1   3
BRANCH   1  11
HETATM   11  C4  UNL     1       2.152  -0.744  -0.147  1.00  0.00     0.719 A 
HETATM   12  N4  UNL     1       3.255  -1.414   0.224  1.00  0.00    -0.116 N 
HETATM   13  N5  UNL     1       4.294  -0.594   0.251  1.00  0.00     0.006 NA
ATOM     14  H4  UNL     1       3.288  -2.408   0.451  1.00  0.00     0.202 HD
HETATM   15  N6  UNL     1       3.863   0.606  -0.103  1.00  0.00     0.006 NA
HETATM   16  N7  UNL     1       2.560   0.523  -0.346  1.00  0.00    -0.116 N 
ATOM     17  H7  UNL     1       1.963   1.297  -0.637  1.00  0.00     0.202 HD
ENDBRANCH   1  11
TORSDOF 4
