REMARK  12 active torsions:
REMARK  status: ('A' for Active; 'I' for Inactive)
REMARK    1  A    between atoms: C2_2  and  C3_3 
REMARK    2  A    between atoms: C3_3  and  C4_4 
REMARK    3  A    between atoms: C4_4  and  C5_5 
REMARK    4  A    between atoms: C5_5  and  C6_6 
REMARK    5  A    between atoms: C11_13  and  N2_14 
REMARK    6  A    between atoms: N2_14  and  C12_16 
REMARK    7  A    between atoms: C13_18  and  C14_19 
REMARK    8  A    between atoms: C14_19  and  O3_20 
REMARK    9  A    between atoms: C15_22  and  O4_23 
REMARK   10  A    between atoms: C16_25  and  O5_26 
REMARK   11  A    between atoms: C17_28  and  O6_29 
REMARK   12  A    between atoms: C21_36  and  O9_37 
ROOT
HETATM    1  C6  UNL     1       2.809   0.381   0.445  1.00  0.00     0.177 C 
HETATM    2  O1  UNL     1       2.052  -0.251  -0.500  1.00  0.00    -0.295 OA
HETATM    3  N1  UNL     1       1.183  -1.111   0.010  1.00  0.00    -0.186 NA
HETATM    4  C7  UNL     1       1.578  -2.425  -0.546  1.00  0.00     0.121 C 
HETATM    5  C8  UNL     1       0.483  -3.345  -0.130  1.00  0.00     0.019 C 
HETATM    6  C9  UNL     1      -0.702  -2.352  -0.044  1.00  0.00     0.029 C 
HETATM    7  C10 UNL     1      -0.173  -1.052  -0.539  1.00  0.00     0.134 C 
HETATM    8  C11 UNL     1      -0.928   0.136  -0.228  1.00  0.00     0.036 C 
HETATM    9  C18 UNL     1      -0.024   1.418  -0.267  1.00  0.00     0.202 C 
HETATM   10  O7  UNL     1      -0.935   2.469  -0.287  1.00  0.00    -0.353 OA
HETATM   11  C19 UNL     1      -0.775   3.183   0.877  1.00  0.00     0.339 C 
HETATM   12  O8  UNL     1       0.431   2.884   1.445  1.00  0.00    -0.356 OA
HETATM   13  C20 UNL     1       0.789   1.613   0.937  1.00  0.00     0.190 C 
HETATM   14  C21 UNL     1       2.286   1.788   0.618  1.00  0.00     0.180 C 
ENDROOT
BRANCH   8  15
HETATM   15  N2  UNL     1      -1.999   0.373   0.594  1.00  0.00    -0.365 N 
ATOM     16  H2  UNL     1      -1.755   0.922   1.418  1.00  0.00     0.162 HD
BRANCH  15  17
HETATM   17  C12 UNL     1      -3.325   0.033   0.550  1.00  0.00     0.253 C 
HETATM   18  O2  UNL     1      -3.922   0.545  -0.663  1.00  0.00    -0.354 OA
HETATM   19  C13 UNL     1      -5.204   0.965  -0.409  1.00  0.00     0.179 C 
HETATM   20  C15 UNL     1      -6.080  -0.244  -0.119  1.00  0.00     0.180 C 
HETATM   21  C16 UNL     1      -5.434  -1.212   0.779  1.00  0.00     0.182 C 
HETATM   22  C17 UNL     1      -3.903  -1.310   0.694  1.00  0.00     0.198 C 
BRANCH  19  23
HETATM   23  C14 UNL     1      -5.717   1.713  -1.612  1.00  0.00     0.198 C 
BRANCH  23  24
HETATM   24  O3  UNL     1      -5.742   0.946  -2.761  1.00  0.00    -0.398 OA
ATOM     25  H3  UNL     1      -6.065   1.418  -3.520  1.00  0.00     0.209 HD
ENDBRANCH  23  24
ENDBRANCH  19  23
BRANCH  20  26
HETATM   26  O4  UNL     1      -7.220   0.272   0.542  1.00  0.00    -0.390 OA
ATOM     27  H4  UNL     1      -7.767  -0.483   0.723  1.00  0.00     0.210 HD
ENDBRANCH  20  26
BRANCH  21  28
HETATM   28  O5  UNL     1      -5.979  -2.487   0.474  1.00  0.00    -0.390 OA
ATOM     29  H5  UNL     1      -5.562  -3.113   1.054  1.00  0.00     0.210 HD
ENDBRANCH  21  28
BRANCH  22  30
HETATM   30  O6  UNL     1      -3.557  -1.919   1.929  1.00  0.00    -0.389 OA
ATOM     31  H6  UNL     1      -3.931  -2.787   2.022  1.00  0.00     0.210 HD
ENDBRANCH  22  30
ENDBRANCH  15  17
ENDBRANCH   8  15
BRANCH  14  32
HETATM   32  O9  UNL     1       2.443   2.578  -0.492  1.00  0.00    -0.390 OA
ATOM     33  H9  UNL     1       2.114   3.463  -0.383  1.00  0.00     0.210 HD
ENDBRANCH  14  32
BRANCH   1  34
HETATM   34  C5  UNL     1       4.281   0.303   0.327  1.00  0.00     0.036 C 
BRANCH  34  35
HETATM   35  C4  UNL     1       4.917   0.838  -0.893  1.00  0.00     0.003 C 
BRANCH  35  36
HETATM   36  C3  UNL     1       6.417   0.694  -0.790  1.00  0.00    -0.000 C 
BRANCH  36  37
HETATM   37  C2  UNL     1       6.921  -0.693  -0.630  1.00  0.00    -0.005 C 
HETATM   38  C1  UNL     1       8.452  -0.607  -0.533  1.00  0.00     0.005 C 
ENDBRANCH  36  37
ENDBRANCH  35  36
ENDBRANCH  34  35
ENDBRANCH   1  34
TORSDOF 12
