REMARK  4 active torsions:
REMARK  status: ('A' for Active; 'I' for Inactive)
REMARK    1  A    between atoms: N1_2  and  C2_4 
REMARK    2  A    between atoms: C2_4  and  C3_5 
REMARK    3  A    between atoms: C3_5  and  N2_6 
REMARK    4  A    between atoms: C6_12  and  N3_13 
ROOT
HETATM    1  C2  UNL     1       0.444   0.313   0.152  1.00  0.00     0.052 C 
HETATM    2  C4  UNL     1      -0.071  -0.425   1.370  1.00  0.00     0.035 C 
HETATM    3  C5  UNL     1      -1.009  -1.535   1.063  1.00  0.00     0.035 C 
HETATM    4  C6  UNL     1      -2.055  -1.243   0.051  1.00  0.00     0.184 C 
HETATM    5  C7  UNL     1      -1.371  -0.732  -1.199  1.00  0.00     0.039 C 
HETATM    6  C8  UNL     1      -0.687   0.541  -0.856  1.00  0.00     0.013 C 
HETATM    7  C9  UNL     1      -0.163   1.296  -2.039  1.00  0.00     0.012 C 
ENDROOT
BRANCH   1   8
HETATM    8  N1  UNL     1       0.968   1.581   0.453  1.00  0.00    -0.415 N 
HETATM    9  C1  UNL     1       2.024   1.734   1.358  1.00  0.00     0.140 C 
ATOM     10  H1  UNL     1       0.571   2.406   0.003  1.00  0.00     0.153 HD
ENDBRANCH   1   8
BRANCH   1  11
HETATM   11  C3  UNL     1       1.496  -0.548  -0.508  1.00  0.00     0.260 C 
BRANCH  11  12
HETATM   12  N2  UNL     1       2.645  -0.734   0.360  1.00  0.00    -0.077 N 
ATOM     13  H23 UNL     1       3.031   0.159   0.667  1.00  0.00     0.274 HD
ATOM     14  H22 UNL     1       2.371  -1.108   1.269  1.00  0.00     0.274 HD
ATOM     15  H21 UNL     1       3.355  -1.315  -0.085  1.00  0.00     0.274 HD
ENDBRANCH  11  12
ENDBRANCH   1  11
BRANCH   4  16
HETATM   16  N3  UNL     1      -3.090  -0.341   0.504  1.00  0.00    -0.075 N 
ATOM     17  H33 UNL     1      -3.514  -0.690   1.363  1.00  0.00     0.274 HD
ATOM     18  H32 UNL     1      -2.679   0.526   0.851  1.00  0.00     0.274 HD
ATOM     19  H31 UNL     1      -3.809  -0.140  -0.191  1.00  0.00     0.274 HD
ENDBRANCH   4  16
TORSDOF 4
